MODEL 1
REMARK VINA RESULT:     -13.0      0.000      0.000
REMARK SMILES O=C(NCCCNC(=O)c1ccc2c(c1)[C@@H](C1CCOCC1)C(=O)N2)c1ccc(-c2c3nc(c(-c4cc(S(=O)(=O)[O-])ccc4F)c4ccc([nH]4)c(-c4cc(S(=O)(=O)[O-])ccc4F)c4nc(c(-c5cc(S(=O)(=O)[O-])ccc5F)c5ccc2[nH]5)C=C4)C=C3)cc1
REMARK SMILES IDX 4 1 3 2 1 3 2 4 26 6 27 7 88 8 28 9 87 10 29 11 30 12 31 13
REMARK SMILES IDX 81 14 32 15 86 16 80 17 82 18 33 19 85 20 79 21 78 22 34 24
REMARK SMILES IDX 66 25 46 26 65 27 47 28 50 29 64 30 83 31 48 32 49 33 63 35
REMARK SMILES IDX 84 36 51 37 35 38 36 39 44 40 37 41 43 42 45 43 42 44 38 45
REMARK SMILES IDX 39 46 40 47 41 48 67 49 68 50 76 51 69 52 75 53 77 54 74 55
REMARK SMILES IDX 70 56 71 57 72 58 73 59 52 60 53 61 61 62 54 63 60 64 62 65
REMARK SMILES IDX 59 66 55 67 56 68 57 69 58 70 5 71 6 72 7 73 8 74 9 76 10 77
REMARK SMILES IDX 11 78 15 79 12 80 14 81 13 82 16 83 25 84 23 85 24 87 17 88
REMARK SMILES IDX 18 89 22 90 19 91 21 92 20 93
REMARK H PARENT 3 5 82 23 50 34 7 75 25 86
REMARK Flexibility Score: inf
ROOT
ATOM      1  C   UNL A   1      32.796  32.443  27.162  1.00  0.00     0.118 C 
ENDROOT
BRANCH   1   2
ATOM      2  N   UNL A   1      32.573  33.807  27.624  1.00  0.00    -0.352 N 
ATOM      3  O   UNL A   1      32.710  35.576  29.007  1.00  0.00    -0.269 OA
ATOM      4  C   UNL A   1      33.176  34.498  28.647  1.00  0.00     0.251 C 
ATOM      5  H   UNL A   1      31.887  34.309  27.128  1.00  0.00     0.163 HD
BRANCH   4   6
ATOM      6  C   UNL A   1      34.369  33.938  29.317  1.00  0.00     0.039 A 
ATOM      7  C   UNL A   1      34.230  32.979  30.322  1.00  0.00     0.014 A 
ATOM      8  C   UNL A   1      35.642  34.354  28.918  1.00  0.00     0.014 A 
ATOM      9  C   UNL A   1      35.345  32.552  31.032  1.00  0.00     0.010 A 
ATOM     10  C   UNL A   1      36.772  33.837  29.560  1.00  0.00     0.010 A 
ATOM     11  C   UNL A   1      36.631  32.944  30.634  1.00  0.00    -0.014 A 
BRANCH  11  12
ATOM     12  C   UNL A   1      37.809  32.311  31.277  1.00  0.00     0.031 A 
ATOM     13  C   UNL A   1      38.554  31.189  30.612  1.00  0.00     0.074 A 
ATOM     14  C   UNL A   1      38.197  32.772  32.485  1.00  0.00     0.049 A 
ATOM     15  N   UNL A   1      39.574  30.505  31.060  1.00  0.00    -0.248 NA
ATOM     16  C   UNL A   1      38.094  30.778  29.277  1.00  0.00     0.031 C 
ATOM     17  C   UNL A   1      37.541  33.860  33.218  1.00  0.00     0.029 A 
ATOM     18  N   UNL A   1      39.226  32.397  33.308  1.00  0.00    -0.354 N 
ATOM     19  C   UNL A   1      39.866  29.564  30.078  1.00  0.00     0.074 A 
ATOM     20  C   UNL A   1      38.902  29.759  29.015  1.00  0.00     0.031 C 
ATOM     21  C   UNL A   1      38.200  34.083  34.362  1.00  0.00     0.029 A 
ATOM     22  C   UNL A   1      39.264  33.098  34.493  1.00  0.00     0.049 A 
ATOM     23  H   UNL A   1      39.875  31.694  33.075  1.00  0.00     0.167 HD
ATOM     24  C   UNL A   1      40.848  28.628  30.075  1.00  0.00     0.034 A 
ATOM     25  C   UNL A   1      40.033  32.935  35.586  1.00  0.00     0.034 A 
ATOM     26  C   UNL A   1      41.800  28.463  31.150  1.00  0.00     0.049 A 
ATOM     27  C   UNL A   1      41.068  31.843  35.578  1.00  0.00     0.074 A 
ATOM     28  C   UNL A   1      42.876  27.594  31.216  1.00  0.00     0.029 A 
ATOM     29  N   UNL A   1      41.779  29.158  32.352  1.00  0.00    -0.354 N 
ATOM     30  N   UNL A   1      41.365  30.999  34.617  1.00  0.00    -0.248 NA
ATOM     31  C   UNL A   1      41.868  31.677  36.796  1.00  0.00     0.031 C 
ATOM     32  C   UNL A   1      43.444  27.695  32.488  1.00  0.00     0.029 A 
ATOM     33  C   UNL A   1      42.784  28.694  33.187  1.00  0.00     0.049 A 
ATOM     34  H   UNL A   1      41.143  29.874  32.579  1.00  0.00     0.167 HD
ATOM     35  C   UNL A   1      42.402  30.214  35.112  1.00  0.00     0.074 A 
ATOM     36  C   UNL A   1      42.695  30.703  36.443  1.00  0.00     0.031 C 
ATOM     37  C   UNL A   1      43.053  29.181  34.520  1.00  0.00     0.034 A 
BRANCH  24  38
ATOM     38  C   UNL A   1      40.916  27.671  28.911  1.00  0.00     0.023 A 
ATOM     39  C   UNL A   1      41.858  27.810  27.878  1.00  0.00     0.031 A 
ATOM     40  C   UNL A   1      40.033  26.576  28.852  1.00  0.00     0.131 A 
ATOM     41  C   UNL A   1      41.865  26.899  26.810  1.00  0.00     0.055 A 
ATOM     42  C   UNL A   1      40.094  25.632  27.826  1.00  0.00     0.041 A 
ATOM     43  F   UNL A   1      39.096  26.403  29.799  1.00  0.00    -0.206 F 
ATOM     44  C   UNL A   1      41.008  25.795  26.791  1.00  0.00     0.022 A 
BRANCH  41  45
ATOM     45  S   UNL A   1      42.933  27.238  25.385  1.00  0.00     0.124 S 
ATOM     46  O   UNL A   1      42.889  25.963  24.672  1.00  0.00    -0.237 OA
ATOM     47  O   UNL A   1      42.253  28.353  24.739  1.00  0.00    -0.237 OA
ATOM     48  O   UNL A   1      44.224  27.560  25.991  1.00  0.00    -0.744 OA
ENDBRANCH  41  45
ENDBRANCH  24  38
BRANCH  25  49
ATOM     49  C   UNL A   1      39.805  33.771  36.800  1.00  0.00     0.023 A 
ATOM     50  C   UNL A   1      40.625  34.872  37.087  1.00  0.00     0.031 A 
ATOM     51  C   UNL A   1      38.793  33.445  37.724  1.00  0.00     0.131 A 
ATOM     52  C   UNL A   1      40.459  35.569  38.294  1.00  0.00     0.055 A 
ATOM     53  C   UNL A   1      38.586  34.187  38.887  1.00  0.00     0.041 A 
ATOM     54  F   UNL A   1      37.980  32.399  37.503  1.00  0.00    -0.206 F 
ATOM     55  C   UNL A   1      39.434  35.246  39.186  1.00  0.00     0.022 A 
BRANCH  52  56
ATOM     56  S   UNL A   1      41.687  36.826  38.739  1.00  0.00     0.124 S 
ATOM     57  O   UNL A   1      42.378  37.025  37.470  1.00  0.00    -0.237 OA
ATOM     58  O   UNL A   1      40.843  37.927  39.190  1.00  0.00    -0.237 OA
ATOM     59  O   UNL A   1      42.475  36.175  39.784  1.00  0.00    -0.744 OA
ENDBRANCH  52  56
ENDBRANCH  25  49
BRANCH  37  60
ATOM     60  C   UNL A   1      44.167  28.536  35.304  1.00  0.00     0.023 A 
ATOM     61  C   UNL A   1      43.917  27.514  36.236  1.00  0.00     0.031 A 
ATOM     62  C   UNL A   1      45.498  28.949  35.114  1.00  0.00     0.131 A 
ATOM     63  C   UNL A   1      44.977  26.970  36.976  1.00  0.00     0.055 A 
ATOM     64  C   UNL A   1      46.556  28.359  35.805  1.00  0.00     0.041 A 
ATOM     65  F   UNL A   1      45.793  29.927  34.242  1.00  0.00    -0.206 F 
ATOM     66  C   UNL A   1      46.297  27.370  36.751  1.00  0.00     0.022 A 
BRANCH  63  67
ATOM     67  S   UNL A   1      44.601  25.784  38.296  1.00  0.00     0.124 S 
ATOM     68  O   UNL A   1      45.935  25.400  38.745  1.00  0.00    -0.237 OA
ATOM     69  O   UNL A   1      43.821  26.591  39.229  1.00  0.00    -0.237 OA
ATOM     70  O   UNL A   1      43.850  24.735  37.609  1.00  0.00    -0.744 OA
ENDBRANCH  63  67
ENDBRANCH  37  60
ENDBRANCH  11  12
ENDBRANCH   4   6
ENDBRANCH   1   2
BRANCH   1  71
ATOM     71  C   UNL A   1      31.529  31.788  26.638  1.00  0.00     0.042 C 
BRANCH  71  72
ATOM     72  C   UNL A   1      31.779  30.491  25.885  1.00  0.00     0.118 C 
BRANCH  72  73
ATOM     73  N   UNL A   1      31.701  29.322  26.750  1.00  0.00    -0.352 N 
ATOM     74  C   UNL A   1      31.448  28.013  26.430  1.00  0.00     0.251 C 
ATOM     75  H   UNL A   1      31.853  29.498  27.707  1.00  0.00     0.163 HD
ATOM     76  O   UNL A   1      31.240  27.186  27.313  1.00  0.00    -0.269 OA
BRANCH  74  77
ATOM     77  C   UNL A   1      31.421  27.593  25.014  1.00  0.00     0.040 A 
ATOM     78  C   UNL A   1      30.318  27.922  24.197  1.00  0.00     0.016 A 
ATOM     79  C   UNL A   1      32.522  26.890  24.501  1.00  0.00     0.020 A 
ATOM     80  C   UNL A   1      30.251  27.474  22.881  1.00  0.00     0.027 A 
ATOM     81  C   UNL A   1      32.454  26.469  23.184  1.00  0.00    -0.011 A 
ATOM     82  C   UNL A   1      31.328  26.755  22.409  1.00  0.00     0.045 A 
ATOM     83  C   UNL A   1      33.453  25.702  22.347  1.00  0.00     0.114 C 
ATOM     84  N   UNL A   1      31.482  26.237  21.139  1.00  0.00    -0.325 N 
ATOM     85  C   UNL A   1      32.713  25.619  20.988  1.00  0.00     0.232 C 
ATOM     86  H   UNL A   1      30.803  26.299  20.429  1.00  0.00     0.169 HD
ATOM     87  O   UNL A   1      33.127  25.146  19.940  1.00  0.00    -0.274 OA
BRANCH  83  88
ATOM     88  C   UNL A   1      33.871  24.339  22.938  1.00  0.00     0.010 C 
ATOM     89  C   UNL A   1      32.659  23.412  23.149  1.00  0.00     0.033 C 
ATOM     90  C   UNL A   1      34.682  24.443  24.243  1.00  0.00     0.033 C 
ATOM     91  C   UNL A   1      33.064  22.099  23.803  1.00  0.00     0.160 C 
ATOM     92  C   UNL A   1      34.966  23.063  24.826  1.00  0.00     0.160 C 
ATOM     93  O   UNL A   1      33.752  22.344  25.026  1.00  0.00    -0.381 OA
ENDBRANCH  83  88
ENDBRANCH  74  77
ENDBRANCH  72  73
ENDBRANCH  71  72
ENDBRANCH   1  71
TORSDOF 14
ENDMDL
MODEL 2
REMARK VINA RESULT:     -12.9      1.294      1.599
REMARK SMILES O=C(NCCCNC(=O)c1ccc2c(c1)[C@@H](C1CCOCC1)C(=O)N2)c1ccc(-c2c3nc(c(-c4cc(S(=O)(=O)[O-])ccc4F)c4ccc([nH]4)c(-c4cc(S(=O)(=O)[O-])ccc4F)c4nc(c(-c5cc(S(=O)(=O)[O-])ccc5F)c5ccc2[nH]5)C=C4)C=C3)cc1
REMARK SMILES IDX 4 1 3 2 1 3 2 4 26 6 27 7 88 8 28 9 87 10 29 11 30 12 31 13
REMARK SMILES IDX 81 14 32 15 86 16 80 17 82 18 33 19 85 20 79 21 78 22 34 24
REMARK SMILES IDX 66 25 46 26 65 27 47 28 50 29 64 30 83 31 48 32 49 33 63 35
REMARK SMILES IDX 84 36 51 37 35 38 36 39 44 40 37 41 43 42 45 43 42 44 38 45
REMARK SMILES IDX 39 46 40 47 41 48 67 49 68 50 76 51 69 52 75 53 77 54 74 55
REMARK SMILES IDX 70 56 71 57 72 58 73 59 52 60 53 61 61 62 54 63 60 64 62 65
REMARK SMILES IDX 59 66 55 67 56 68 57 69 58 70 5 71 6 72 7 73 8 74 9 76 10 77
REMARK SMILES IDX 11 78 15 79 12 80 14 81 13 82 16 83 25 84 23 85 24 87 17 88
REMARK SMILES IDX 18 89 22 90 19 91 21 92 20 93
REMARK H PARENT 3 5 82 23 50 34 7 75 25 86
REMARK Flexibility Score: inf
ROOT
ATOM      1  C   UNL A   1      32.714  32.300  27.266  1.00  0.00     0.118 C 
ENDROOT
BRANCH   1   2
ATOM      2  N   UNL A   1      32.532  33.690  27.663  1.00  0.00    -0.352 N 
ATOM      3  O   UNL A   1      32.742  35.524  28.950  1.00  0.00    -0.269 OA
ATOM      4  C   UNL A   1      33.176  34.420  28.634  1.00  0.00     0.251 C 
ATOM      5  H   UNL A   1      31.843  34.182  27.160  1.00  0.00     0.163 HD
BRANCH   4   6
ATOM      6  C   UNL A   1      34.375  33.868  29.301  1.00  0.00     0.039 A 
ATOM      7  C   UNL A   1      34.247  32.891  30.290  1.00  0.00     0.014 A 
ATOM      8  C   UNL A   1      35.643  34.310  28.916  1.00  0.00     0.014 A 
ATOM      9  C   UNL A   1      35.364  32.470  30.999  1.00  0.00     0.010 A 
ATOM     10  C   UNL A   1      36.778  33.802  29.554  1.00  0.00     0.010 A 
ATOM     11  C   UNL A   1      36.646  32.889  30.613  1.00  0.00    -0.014 A 
BRANCH  11  12
ATOM     12  C   UNL A   1      37.831  32.265  31.252  1.00  0.00     0.031 A 
ATOM     13  C   UNL A   1      38.579  31.145  30.587  1.00  0.00     0.074 A 
ATOM     14  C   UNL A   1      38.222  32.731  32.457  1.00  0.00     0.049 A 
ATOM     15  N   UNL A   1      39.605  30.468  31.032  1.00  0.00    -0.248 NA
ATOM     16  C   UNL A   1      38.115  30.727  29.256  1.00  0.00     0.031 C 
ATOM     17  C   UNL A   1      37.563  33.817  33.190  1.00  0.00     0.029 A 
ATOM     18  N   UNL A   1      39.257  32.364  33.276  1.00  0.00    -0.354 N 
ATOM     19  C   UNL A   1      39.898  29.527  30.050  1.00  0.00     0.074 A 
ATOM     20  C   UNL A   1      38.927  29.712  28.992  1.00  0.00     0.031 C 
ATOM     21  C   UNL A   1      38.227  34.048  34.330  1.00  0.00     0.029 A 
ATOM     22  C   UNL A   1      39.298  33.069  34.458  1.00  0.00     0.049 A 
ATOM     23  H   UNL A   1      39.909  31.665  33.042  1.00  0.00     0.167 HD
ATOM     24  C   UNL A   1      40.885  28.596  30.046  1.00  0.00     0.034 A 
ATOM     25  C   UNL A   1      40.073  32.914  35.548  1.00  0.00     0.034 A 
ATOM     26  C   UNL A   1      41.844  28.439  31.116  1.00  0.00     0.049 A 
ATOM     27  C   UNL A   1      41.114  31.828  35.538  1.00  0.00     0.074 A 
ATOM     28  C   UNL A   1      42.925  27.577  31.179  1.00  0.00     0.029 A 
ATOM     29  N   UNL A   1      41.824  29.137  32.316  1.00  0.00    -0.354 N 
ATOM     30  N   UNL A   1      41.411  30.982  34.578  1.00  0.00    -0.248 NA
ATOM     31  C   UNL A   1      41.921  31.670  36.752  1.00  0.00     0.031 C 
ATOM     32  C   UNL A   1      43.498  27.684  32.448  1.00  0.00     0.029 A 
ATOM     33  C   UNL A   1      42.836  28.682  33.148  1.00  0.00     0.049 A 
ATOM     34  H   UNL A   1      41.186  29.851  32.545  1.00  0.00     0.167 HD
ATOM     35  C   UNL A   1      42.455  30.205  35.070  1.00  0.00     0.074 A 
ATOM     36  C   UNL A   1      42.752  30.700  36.398  1.00  0.00     0.031 C 
ATOM     37  C   UNL A   1      43.109  29.175  34.477  1.00  0.00     0.034 A 
BRANCH  24  38
ATOM     38  C   UNL A   1      40.953  27.636  28.884  1.00  0.00     0.023 A 
ATOM     39  C   UNL A   1      41.904  27.764  27.858  1.00  0.00     0.031 A 
ATOM     40  C   UNL A   1      40.059  26.549  28.820  1.00  0.00     0.131 A 
ATOM     41  C   UNL A   1      41.910  26.850  26.792  1.00  0.00     0.055 A 
ATOM     42  C   UNL A   1      40.119  25.602  27.797  1.00  0.00     0.041 A 
ATOM     43  F   UNL A   1      39.114  26.387  29.760  1.00  0.00    -0.206 F 
ATOM     44  C   UNL A   1      41.043  25.755  26.768  1.00  0.00     0.022 A 
BRANCH  41  45
ATOM     45  S   UNL A   1      42.993  27.176  25.374  1.00  0.00     0.124 S 
ATOM     46  O   UNL A   1      42.258  28.230  24.677  1.00  0.00    -0.237 OA
ATOM     47  O   UNL A   1      44.237  27.583  26.015  1.00  0.00    -0.237 OA
ATOM     48  O   UNL A   1      43.041  25.894  24.675  1.00  0.00    -0.744 OA
ENDBRANCH  41  45
ENDBRANCH  24  38
BRANCH  25  49
ATOM     49  C   UNL A   1      39.846  33.752  36.761  1.00  0.00     0.023 A 
ATOM     50  C   UNL A   1      39.311  33.201  37.934  1.00  0.00     0.031 A 
ATOM     51  C   UNL A   1      40.112  35.135  36.745  1.00  0.00     0.131 A 
ATOM     52  C   UNL A   1      39.002  34.036  39.019  1.00  0.00     0.055 A 
ATOM     53  C   UNL A   1      39.872  35.947  37.853  1.00  0.00     0.041 A 
ATOM     54  F   UNL A   1      40.622  35.718  35.648  1.00  0.00    -0.206 F 
ATOM     55  C   UNL A   1      39.296  35.401  38.994  1.00  0.00     0.022 A 
BRANCH  52  56
ATOM     56  S   UNL A   1      38.091  33.329  40.418  1.00  0.00     0.124 S 
ATOM     57  O   UNL A   1      38.773  32.052  40.600  1.00  0.00    -0.237 OA
ATOM     58  O   UNL A   1      38.311  34.328  41.458  1.00  0.00    -0.237 OA
ATOM     59  O   UNL A   1      36.720  33.239  39.920  1.00  0.00    -0.744 OA
ENDBRANCH  52  56
ENDBRANCH  25  49
BRANCH  37  60
ATOM     60  C   UNL A   1      44.231  28.538  35.258  1.00  0.00     0.023 A 
ATOM     61  C   UNL A   1      43.989  27.536  36.214  1.00  0.00     0.031 A 
ATOM     62  C   UNL A   1      45.561  28.938  35.040  1.00  0.00     0.131 A 
ATOM     63  C   UNL A   1      45.056  27.000  36.949  1.00  0.00     0.055 A 
ATOM     64  C   UNL A   1      46.626  28.355  35.727  1.00  0.00     0.041 A 
ATOM     65  F   UNL A   1      45.849  29.896  34.143  1.00  0.00    -0.206 F 
ATOM     66  C   UNL A   1      46.375  27.387  36.696  1.00  0.00     0.022 A 
BRANCH  63  67
ATOM     67  S   UNL A   1      44.692  25.844  38.299  1.00  0.00     0.124 S 
ATOM     68  O   UNL A   1      43.497  26.438  38.889  1.00  0.00    -0.237 OA
ATOM     69  O   UNL A   1      44.495  24.585  37.588  1.00  0.00    -0.237 OA
ATOM     70  O   UNL A   1      45.892  25.903  39.132  1.00  0.00    -0.744 OA
ENDBRANCH  63  67
ENDBRANCH  37  60
ENDBRANCH  11  12
ENDBRANCH   4   6
ENDBRANCH   1   2
BRANCH   1  71
ATOM     71  C   UNL A   1      31.502  31.733  26.548  1.00  0.00     0.042 C 
BRANCH  71  72
ATOM     72  C   UNL A   1      31.781  30.433  25.812  1.00  0.00     0.118 C 
BRANCH  72  73
ATOM     73  N   UNL A   1      31.687  29.269  26.682  1.00  0.00    -0.352 N 
ATOM     74  C   UNL A   1      31.433  27.959  26.366  1.00  0.00     0.251 C 
ATOM     75  H   UNL A   1      31.829  29.450  27.639  1.00  0.00     0.163 HD
ATOM     76  O   UNL A   1      31.210  27.138  27.251  1.00  0.00    -0.269 OA
BRANCH  74  77
ATOM     77  C   UNL A   1      31.421  27.531  24.953  1.00  0.00     0.040 A 
ATOM     78  C   UNL A   1      30.334  27.870  24.118  1.00  0.00     0.016 A 
ATOM     79  C   UNL A   1      32.520  26.812  24.459  1.00  0.00     0.020 A 
ATOM     80  C   UNL A   1      30.280  27.415  22.803  1.00  0.00     0.027 A 
ATOM     81  C   UNL A   1      32.466  26.384  23.144  1.00  0.00    -0.011 A 
ATOM     82  C   UNL A   1      31.355  26.680  22.352  1.00  0.00     0.045 A 
ATOM     83  C   UNL A   1      33.467  25.599  22.327  1.00  0.00     0.114 C 
ATOM     84  N   UNL A   1      31.520  26.152  21.087  1.00  0.00    -0.325 N 
ATOM     85  C   UNL A   1      32.745  25.518  20.957  1.00  0.00     0.232 C 
ATOM     86  H   UNL A   1      30.852  26.219  20.367  1.00  0.00     0.169 HD
ATOM     87  O   UNL A   1      33.168  25.034  19.917  1.00  0.00    -0.274 OA
BRANCH  83  88
ATOM     88  C   UNL A   1      33.858  24.234  22.931  1.00  0.00     0.010 C 
ATOM     89  C   UNL A   1      32.623  23.362  23.220  1.00  0.00     0.033 C 
ATOM     90  C   UNL A   1      34.733  24.336  24.194  1.00  0.00     0.033 C 
ATOM     91  C   UNL A   1      33.008  22.049  23.888  1.00  0.00     0.160 C 
ATOM     92  C   UNL A   1      34.991  22.959  24.797  1.00  0.00     0.160 C 
ATOM     93  O   UNL A   1      33.760  22.294  25.071  1.00  0.00    -0.381 OA
ENDBRANCH  83  88
ENDBRANCH  74  77
ENDBRANCH  72  73
ENDBRANCH  71  72
ENDBRANCH   1  71
TORSDOF 14
ENDMDL
MODEL 3
REMARK VINA RESULT:     -12.9      1.724      2.000
REMARK SMILES O=C(NCCCNC(=O)c1ccc2c(c1)[C@@H](C1CCOCC1)C(=O)N2)c1ccc(-c2c3nc(c(-c4cc(S(=O)(=O)[O-])ccc4F)c4ccc([nH]4)c(-c4cc(S(=O)(=O)[O-])ccc4F)c4nc(c(-c5cc(S(=O)(=O)[O-])ccc5F)c5ccc2[nH]5)C=C4)C=C3)cc1
REMARK SMILES IDX 4 1 3 2 1 3 2 4 26 6 27 7 88 8 28 9 87 10 29 11 30 12 31 13
REMARK SMILES IDX 81 14 32 15 86 16 80 17 82 18 33 19 85 20 79 21 78 22 34 24
REMARK SMILES IDX 66 25 46 26 65 27 47 28 50 29 64 30 83 31 48 32 49 33 63 35
REMARK SMILES IDX 84 36 51 37 35 38 36 39 44 40 37 41 43 42 45 43 42 44 38 45
REMARK SMILES IDX 39 46 40 47 41 48 67 49 68 50 76 51 69 52 75 53 77 54 74 55
REMARK SMILES IDX 70 56 71 57 72 58 73 59 52 60 53 61 61 62 54 63 60 64 62 65
REMARK SMILES IDX 59 66 55 67 56 68 57 69 58 70 5 71 6 72 7 73 8 74 9 76 10 77
REMARK SMILES IDX 11 78 15 79 12 80 14 81 13 82 16 83 25 84 23 85 24 87 17 88
REMARK SMILES IDX 18 89 22 90 19 91 21 92 20 93
REMARK H PARENT 3 5 82 23 50 34 7 75 25 86
REMARK Flexibility Score: inf
ROOT
ATOM      1  C   UNL A   1      32.854  32.827  27.127  1.00  0.00     0.118 C 
ENDROOT
BRANCH   1   2
ATOM      2  N   UNL A   1      32.555  34.127  27.714  1.00  0.00    -0.352 N 
ATOM      3  O   UNL A   1      32.577  35.755  29.268  1.00  0.00    -0.269 OA
ATOM      4  C   UNL A   1      33.101  34.740  28.817  1.00  0.00     0.251 C 
ATOM      5  H   UNL A   1      31.858  34.645  27.252  1.00  0.00     0.163 HD
BRANCH   4   6
ATOM      6  C   UNL A   1      34.305  34.171  29.460  1.00  0.00     0.039 A 
ATOM      7  C   UNL A   1      34.181  33.296  30.541  1.00  0.00     0.014 A 
ATOM      8  C   UNL A   1      35.570  34.493  28.963  1.00  0.00     0.014 A 
ATOM      9  C   UNL A   1      35.314  32.866  31.219  1.00  0.00     0.010 A 
ATOM     10  C   UNL A   1      36.711  33.968  29.578  1.00  0.00     0.010 A 
ATOM     11  C   UNL A   1      36.592  33.163  30.722  1.00  0.00    -0.014 A 
BRANCH  11  12
ATOM     12  C   UNL A   1      37.775  32.521  31.346  1.00  0.00     0.031 A 
ATOM     13  C   UNL A   1      38.490  31.383  30.675  1.00  0.00     0.074 A 
ATOM     14  C   UNL A   1      38.195  32.987  32.540  1.00  0.00     0.049 A 
ATOM     15  N   UNL A   1      39.511  30.688  31.108  1.00  0.00    -0.248 NA
ATOM     16  C   UNL A   1      37.996  30.965  29.355  1.00  0.00     0.031 C 
ATOM     17  C   UNL A   1      37.569  34.090  33.277  1.00  0.00     0.029 A 
ATOM     18  N   UNL A   1      39.237  32.606  33.345  1.00  0.00    -0.354 N 
ATOM     19  C   UNL A   1      39.769  29.735  30.128  1.00  0.00     0.074 A 
ATOM     20  C   UNL A   1      38.784  29.933  29.084  1.00  0.00     0.031 C 
ATOM     21  C   UNL A   1      38.257  34.315  34.404  1.00  0.00     0.029 A 
ATOM     22  C   UNL A   1      39.310  33.317  34.521  1.00  0.00     0.049 A 
ATOM     23  H   UNL A   1      39.871  31.892  33.104  1.00  0.00     0.167 HD
ATOM     24  C   UNL A   1      40.738  28.786  30.113  1.00  0.00     0.034 A 
ATOM     25  C   UNL A   1      40.100  33.154  35.600  1.00  0.00     0.034 A 
ATOM     26  C   UNL A   1      41.711  28.618  31.168  1.00  0.00     0.049 A 
ATOM     27  C   UNL A   1      41.120  32.048  35.579  1.00  0.00     0.074 A 
ATOM     28  C   UNL A   1      42.776  27.735  31.219  1.00  0.00     0.029 A 
ATOM     29  N   UNL A   1      41.725  29.324  32.364  1.00  0.00    -0.354 N 
ATOM     30  N   UNL A   1      41.385  31.191  34.620  1.00  0.00    -0.248 NA
ATOM     31  C   UNL A   1      41.945  31.882  36.781  1.00  0.00     0.031 C 
ATOM     32  C   UNL A   1      43.373  27.840  32.478  1.00  0.00     0.029 A 
ATOM     33  C   UNL A   1      42.742  28.854  33.182  1.00  0.00     0.049 A 
ATOM     34  H   UNL A   1      41.104  30.051  32.598  1.00  0.00     0.167 HD
ATOM     35  C   UNL A   1      42.422  30.397  35.100  1.00  0.00     0.074 A 
ATOM     36  C   UNL A   1      42.750  30.894  36.419  1.00  0.00     0.031 C 
ATOM     37  C   UNL A   1      43.046  29.350  34.503  1.00  0.00     0.034 A 
BRANCH  24  38
ATOM     38  C   UNL A   1      40.768  27.817  28.957  1.00  0.00     0.023 A 
ATOM     39  C   UNL A   1      41.707  27.918  27.916  1.00  0.00     0.031 A 
ATOM     40  C   UNL A   1      39.850  26.750  28.913  1.00  0.00     0.131 A 
ATOM     41  C   UNL A   1      41.678  26.998  26.856  1.00  0.00     0.055 A 
ATOM     42  C   UNL A   1      39.874  25.796  27.895  1.00  0.00     0.041 A 
ATOM     43  F   UNL A   1      38.915  26.615  29.867  1.00  0.00    -0.206 F 
ATOM     44  C   UNL A   1      40.786  25.922  26.852  1.00  0.00     0.022 A 
BRANCH  41  45
ATOM     45  S   UNL A   1      42.747  27.291  25.421  1.00  0.00     0.124 S 
ATOM     46  O   UNL A   1      42.628  26.026  24.700  1.00  0.00    -0.237 OA
ATOM     47  O   UNL A   1      42.119  28.446  24.791  1.00  0.00    -0.237 OA
ATOM     48  O   UNL A   1      44.059  27.540  26.015  1.00  0.00    -0.744 OA
ENDBRANCH  41  45
ENDBRANCH  24  38
BRANCH  25  49
ATOM     49  C   UNL A   1      39.910  34.004  36.810  1.00  0.00     0.023 A 
ATOM     50  C   UNL A   1      39.319  33.488  37.972  1.00  0.00     0.031 A 
ATOM     51  C   UNL A   1      40.269  35.366  36.802  1.00  0.00     0.131 A 
ATOM     52  C   UNL A   1      39.049  34.341  39.054  1.00  0.00     0.055 A 
ATOM     53  C   UNL A   1      40.065  36.191  37.908  1.00  0.00     0.041 A 
ATOM     54  F   UNL A   1      40.836  35.914  35.715  1.00  0.00    -0.206 F 
ATOM     55  C   UNL A   1      39.434  35.683  39.037  1.00  0.00     0.022 A 
BRANCH  52  56
ATOM     56  S   UNL A   1      38.068  33.696  40.436  1.00  0.00     0.124 S 
ATOM     57  O   UNL A   1      36.924  33.116  39.741  1.00  0.00    -0.237 OA
ATOM     58  O   UNL A   1      38.994  32.749  41.047  1.00  0.00    -0.237 OA
ATOM     59  O   UNL A   1      37.778  34.887  41.231  1.00  0.00    -0.744 OA
ENDBRANCH  52  56
ENDBRANCH  25  49
BRANCH  37  60
ATOM     60  C   UNL A   1      44.169  28.697  35.270  1.00  0.00     0.023 A 
ATOM     61  C   UNL A   1      43.931  27.655  36.182  1.00  0.00     0.031 A 
ATOM     62  C   UNL A   1      45.496  29.123  35.081  1.00  0.00     0.131 A 
ATOM     63  C   UNL A   1      44.998  27.104  36.906  1.00  0.00     0.055 A 
ATOM     64  C   UNL A   1      46.561  28.526  35.756  1.00  0.00     0.041 A 
ATOM     65  F   UNL A   1      45.780  30.120  34.227  1.00  0.00    -0.206 F 
ATOM     66  C   UNL A   1      46.314  27.517  36.683  1.00  0.00     0.022 A 
BRANCH  63  67
ATOM     67  S   UNL A   1      44.636  25.890  38.204  1.00  0.00     0.124 S 
ATOM     68  O   UNL A   1      44.303  24.703  37.423  1.00  0.00    -0.237 OA
ATOM     69  O   UNL A   1      45.894  25.836  38.942  1.00  0.00    -0.237 OA
ATOM     70  O   UNL A   1      43.518  26.489  38.931  1.00  0.00    -0.744 OA
ENDBRANCH  63  67
ENDBRANCH  37  60
ENDBRANCH  11  12
ENDBRANCH   4   6
ENDBRANCH   1   2
BRANCH   1  71
ATOM     71  C   UNL A   1      31.606  32.000  26.872  1.00  0.00     0.042 C 
BRANCH  71  72
ATOM     72  C   UNL A   1      31.846  30.500  26.922  1.00  0.00     0.118 C 
BRANCH  72  73
ATOM     73  N   UNL A   1      33.145  30.164  27.490  1.00  0.00    -0.352 N 
ATOM     74  C   UNL A   1      34.053  29.217  27.094  1.00  0.00     0.251 C 
ATOM     75  H   UNL A   1      33.410  30.697  28.274  1.00  0.00     0.163 HD
ATOM     76  O   UNL A   1      35.020  28.947  27.802  1.00  0.00    -0.269 OA
BRANCH  74  77
ATOM     77  C   UNL A   1      33.869  28.510  25.811  1.00  0.00     0.040 A 
ATOM     78  C   UNL A   1      33.582  29.237  24.634  1.00  0.00     0.016 A 
ATOM     79  C   UNL A   1      34.012  27.115  25.785  1.00  0.00     0.020 A 
ATOM     80  C   UNL A   1      33.340  28.577  23.433  1.00  0.00     0.027 A 
ATOM     81  C   UNL A   1      33.791  26.471  24.579  1.00  0.00    -0.011 A 
ATOM     82  C   UNL A   1      33.451  27.204  23.441  1.00  0.00     0.045 A 
ATOM     83  C   UNL A   1      33.861  25.002  24.225  1.00  0.00     0.114 C 
ATOM     84  N   UNL A   1      33.277  26.356  22.365  1.00  0.00    -0.325 N 
ATOM     85  C   UNL A   1      33.522  25.037  22.713  1.00  0.00     0.232 C 
ATOM     86  H   UNL A   1      33.012  26.651  21.464  1.00  0.00     0.169 HD
ATOM     87  O   UNL A   1      33.509  24.100  21.929  1.00  0.00    -0.274 OA
BRANCH  83  88
ATOM     88  C   UNL A   1      32.943  24.095  25.072  1.00  0.00     0.010 C 
ATOM     89  C   UNL A   1      31.540  24.705  25.246  1.00  0.00     0.033 C 
ATOM     90  C   UNL A   1      33.527  23.722  26.447  1.00  0.00     0.033 C 
ATOM     91  C   UNL A   1      30.664  23.844  26.145  1.00  0.00     0.160 C 
ATOM     92  C   UNL A   1      32.526  22.916  27.268  1.00  0.00     0.160 C 
ATOM     93  O   UNL A   1      31.298  23.629  27.401  1.00  0.00    -0.381 OA
ENDBRANCH  83  88
ENDBRANCH  74  77
ENDBRANCH  72  73
ENDBRANCH  71  72
ENDBRANCH   1  71
TORSDOF 14
ENDMDL
