MODEL 1
REMARK VINA RESULT:     -12.0      0.000      0.000
REMARK SMILES COc1ccc(C(=O)N2CC[C@@H](C(=O)NCCCNC(=O)c3ccc(-c4c5nc(c(-c6cc(S(=O)(=O)[O-])ccc6F)c6ccc([nH]6)c(-c6cc(S(=O)(=O)[O-])ccc6F)c6nc(c(-c7cc(S(=O)(=O)[O-])ccc7F)c7ccc4[nH]7)C=C6)C=C5)cc3)[C@H]2C)cc1O
REMARK SMILES IDX 17 1 16 2 15 3 13 4 14 5 12 7 9 8 10 9 85 10 11 11 86 12
REMARK SMILES IDX 7 13 8 14 6 15 3 16 4 17 88 18 5 19 87 20 2 21 1 22 89 23
REMARK SMILES IDX 18 25 19 26 20 27 21 29 22 30 23 31 84 32 24 33 83 34 25 35
REMARK SMILES IDX 26 36 27 37 77 38 28 39 82 40 76 41 78 42 29 43 81 44 75 45
REMARK SMILES IDX 74 46 30 48 62 49 42 50 61 51 43 52 46 53 60 54 79 55 44 56
REMARK SMILES IDX 45 57 59 59 80 60 47 61 31 62 32 63 40 64 33 65 39 66 41 67
REMARK SMILES IDX 38 68 34 69 35 70 36 71 37 72 63 73 64 74 72 75 65 76 71 77
REMARK SMILES IDX 73 78 70 79 66 80 67 81 68 82 69 83 48 84 49 85 57 86 50 87
REMARK SMILES IDX 56 88 58 89 55 90 51 91 52 92 53 93 54 94
REMARK H PARENT 15 6 89 24 19 28 78 47 46 58
REMARK Flexibility Score: inf
ROOT
ATOM      1  C   UNL A   1      33.124  28.081  26.892  1.00  0.00     0.042 C 
ENDROOT
BRANCH   1   2
ATOM      2  C   UNL A   1      31.618  28.324  26.800  1.00  0.00     0.117 C 
BRANCH   2   3
ATOM      3  N   UNL A   1      30.839  27.111  27.000  1.00  0.00    -0.356 N 
ATOM      4  C   UNL A   1      30.608  26.023  26.228  1.00  0.00     0.225 C 
ATOM      5  O   UNL A   1      29.871  25.155  26.709  1.00  0.00    -0.275 OA
ATOM      6  H   UNL A   1      30.387  27.075  27.874  1.00  0.00     0.163 HD
BRANCH   4   7
ATOM      7  C   UNL A   1      31.202  25.803  24.846  1.00  0.00     0.102 C 
ATOM      8  N   UNL A   1      32.181  23.954  23.700  1.00  0.00    -0.335 N 
ATOM      9  C   UNL A   1      31.105  24.452  22.868  1.00  0.00     0.121 C 
ATOM     10  C   UNL A   1      32.500  24.976  24.711  1.00  0.00     0.094 C 
ATOM     11  C   UNL A   1      30.221  25.234  23.815  1.00  0.00     0.037 C 
ATOM     12  C   UNL A   1      33.157  24.512  25.998  1.00  0.00     0.032 C 
BRANCH   8  13
ATOM     13  C   UNL A   1      33.147  23.166  23.077  1.00  0.00     0.254 C 
ATOM     14  O   UNL A   1      33.738  23.524  22.061  1.00  0.00    -0.269 OA
BRANCH  13  15
ATOM     15  C   UNL A   1      33.372  21.792  23.601  1.00  0.00     0.043 A 
ATOM     16  C   UNL A   1      33.763  19.189  24.607  1.00  0.00     0.160 A 
ATOM     17  C   UNL A   1      32.589  19.524  23.920  1.00  0.00     0.051 A 
ATOM     18  C   UNL A   1      34.736  20.175  24.780  1.00  0.00     0.158 A 
ATOM     19  C   UNL A   1      32.391  20.815  23.416  1.00  0.00     0.018 A 
ATOM     20  C   UNL A   1      34.520  21.479  24.333  1.00  0.00     0.064 A 
BRANCH  16  21
ATOM     21  O   UNL A   1      33.832  17.880  24.992  1.00  0.00    -0.493 OA
ATOM     22  C   UNL A   1      32.719  17.323  25.684  1.00  0.00     0.278 C 
ENDBRANCH  16  21
BRANCH  18  23
ATOM     23  O   UNL A   1      35.970  19.939  25.313  1.00  0.00    -0.504 OA
ATOM     24  H   UNL A   1      36.396  19.117  25.166  1.00  0.00     0.293 HD
ENDBRANCH  18  23
ENDBRANCH  13  15
ENDBRANCH   8  13
ENDBRANCH   4   7
ENDBRANCH   2   3
ENDBRANCH   1   2
BRANCH   1  25
ATOM     25  C   UNL A   1      33.993  29.116  26.189  1.00  0.00     0.118 C 
BRANCH  25  26
ATOM     26  N   UNL A   1      33.821  30.455  26.722  1.00  0.00    -0.352 N 
ATOM     27  C   UNL A   1      34.530  31.127  27.692  1.00  0.00     0.251 C 
ATOM     28  H   UNL A   1      33.077  30.965  26.327  1.00  0.00     0.163 HD
ATOM     29  O   UNL A   1      34.081  32.186  28.121  1.00  0.00    -0.269 OA
BRANCH  27  30
ATOM     30  C   UNL A   1      35.798  30.583  28.244  1.00  0.00     0.039 A 
ATOM     31  C   UNL A   1      35.745  29.820  29.415  1.00  0.00     0.014 A 
ATOM     32  C   UNL A   1      37.039  30.855  27.661  1.00  0.00     0.014 A 
ATOM     33  C   UNL A   1      36.918  29.283  29.959  1.00  0.00     0.010 A 
ATOM     34  C   UNL A   1      38.194  30.242  28.149  1.00  0.00     0.010 A 
ATOM     35  C   UNL A   1      38.150  29.459  29.312  1.00  0.00    -0.014 A 
BRANCH  35  36
ATOM     36  C   UNL A   1      39.401  28.854  29.850  1.00  0.00     0.031 A 
ATOM     37  C   UNL A   1      40.084  29.458  31.050  1.00  0.00     0.074 A 
ATOM     38  C   UNL A   1      39.960  27.800  29.223  1.00  0.00     0.049 A 
ATOM     39  N   UNL A   1      41.212  29.118  31.623  1.00  0.00    -0.248 NA
ATOM     40  C   UNL A   1      39.428  30.621  31.664  1.00  0.00     0.031 C 
ATOM     41  C   UNL A   1      39.430  27.152  28.021  1.00  0.00     0.029 A 
ATOM     42  N   UNL A   1      41.103  27.092  29.502  1.00  0.00    -0.354 N 
ATOM     43  C   UNL A   1      41.411  30.040  32.647  1.00  0.00     0.074 A 
ATOM     44  C   UNL A   1      40.320  30.988  32.571  1.00  0.00     0.031 C 
ATOM     45  C   UNL A   1      40.234  26.133  27.679  1.00  0.00     0.029 A 
ATOM     46  C   UNL A   1      41.358  26.076  28.610  1.00  0.00     0.049 A 
ATOM     47  H   UNL A   1      41.687  27.293  30.269  1.00  0.00     0.167 HD
ATOM     48  C   UNL A   1      42.398  30.079  33.580  1.00  0.00     0.034 A 
ATOM     49  C   UNL A   1      42.382  25.204  28.539  1.00  0.00     0.034 A 
ATOM     50  C   UNL A   1      43.466  29.112  33.659  1.00  0.00     0.049 A 
ATOM     51  C   UNL A   1      43.463  25.256  29.587  1.00  0.00     0.074 A 
ATOM     52  C   UNL A   1      44.467  29.007  34.611  1.00  0.00     0.029 A 
ATOM     53  N   UNL A   1      43.681  28.086  32.746  1.00  0.00    -0.354 N 
ATOM     54  N   UNL A   1      43.600  26.091  30.591  1.00  0.00    -0.248 NA
ATOM     55  C   UNL A   1      44.518  24.237  29.501  1.00  0.00     0.031 C 
ATOM     56  C   UNL A   1      45.323  27.963  34.236  1.00  0.00     0.029 A 
ATOM     57  C   UNL A   1      44.817  27.368  33.092  1.00  0.00     0.049 A 
ATOM     58  H   UNL A   1      43.111  27.898  31.967  1.00  0.00     0.167 HD
ATOM     59  C   UNL A   1      44.747  25.686  31.268  1.00  0.00     0.074 A 
ATOM     60  C   UNL A   1      45.252  24.521  30.568  1.00  0.00     0.031 C 
ATOM     61  C   UNL A   1      45.326  26.224  32.372  1.00  0.00     0.034 A 
BRANCH  48  62
ATOM     62  C   UNL A   1      42.372  31.226  34.567  1.00  0.00     0.023 A 
ATOM     63  C   UNL A   1      41.397  31.311  35.577  1.00  0.00     0.031 A 
ATOM     64  C   UNL A   1      43.305  32.272  34.467  1.00  0.00     0.131 A 
ATOM     65  C   UNL A   1      41.317  32.459  36.380  1.00  0.00     0.055 A 
ATOM     66  C   UNL A   1      43.276  33.371  35.330  1.00  0.00     0.041 A 
ATOM     67  F   UNL A   1      44.251  32.259  33.515  1.00  0.00    -0.206 F 
ATOM     68  C   UNL A   1      42.265  33.480  36.280  1.00  0.00     0.022 A 
BRANCH  65  69
ATOM     69  S   UNL A   1      39.854  32.675  37.430  1.00  0.00     0.124 S 
ATOM     70  O   UNL A   1      39.353  33.971  36.976  1.00  0.00    -0.237 OA
ATOM     71  O   UNL A   1      39.041  31.517  37.080  1.00  0.00    -0.237 OA
ATOM     72  O   UNL A   1      40.401  32.669  38.787  1.00  0.00    -0.744 OA
ENDBRANCH  65  69
ENDBRANCH  48  62
BRANCH  49  73
ATOM     73  C   UNL A   1      42.438  24.210  27.431  1.00  0.00     0.023 A 
ATOM     74  C   UNL A   1      41.699  23.019  27.486  1.00  0.00     0.031 A 
ATOM     75  C   UNL A   1      43.239  24.439  26.298  1.00  0.00     0.131 A 
ATOM     76  C   UNL A   1      41.799  22.085  26.444  1.00  0.00     0.055 A 
ATOM     77  C   UNL A   1      43.305  23.525  25.244  1.00  0.00     0.041 A 
ATOM     78  F   UNL A   1      43.951  25.572  26.188  1.00  0.00    -0.206 F 
ATOM     79  C   UNL A   1      42.588  22.336  25.319  1.00  0.00     0.022 A 
BRANCH  76  80
ATOM     80  S   UNL A   1      40.912  20.510  26.599  1.00  0.00     0.124 S 
ATOM     81  O   UNL A   1      41.788  19.602  25.868  1.00  0.00    -0.237 OA
ATOM     82  O   UNL A   1      40.866  20.333  28.046  1.00  0.00    -0.237 OA
ATOM     83  O   UNL A   1      39.624  20.783  25.966  1.00  0.00    -0.744 OA
ENDBRANCH  76  80
ENDBRANCH  49  73
BRANCH  61  84
ATOM     84  C   UNL A   1      46.559  25.534  32.902  1.00  0.00     0.023 A 
ATOM     85  C   UNL A   1      47.820  25.714  32.306  1.00  0.00     0.031 A 
ATOM     86  C   UNL A   1      46.469  24.673  34.010  1.00  0.00     0.131 A 
ATOM     87  C   UNL A   1      48.930  25.002  32.788  1.00  0.00     0.055 A 
ATOM     88  C   UNL A   1      47.587  24.012  34.521  1.00  0.00     0.041 A 
ATOM     89  F   UNL A   1      45.289  24.463  34.617  1.00  0.00    -0.206 F 
ATOM     90  C   UNL A   1      48.823  24.165  33.901  1.00  0.00     0.022 A 
BRANCH  87  91
ATOM     91  S   UNL A   1      50.498  25.114  31.882  1.00  0.00     0.124 S 
ATOM     92  O   UNL A   1      51.237  26.088  32.678  1.00  0.00    -0.237 OA
ATOM     93  O   UNL A   1      50.988  23.740  31.939  1.00  0.00    -0.237 OA
ATOM     94  O   UNL A   1      50.095  25.574  30.555  1.00  0.00    -0.744 OA
ENDBRANCH  87  91
ENDBRANCH  61  84
ENDBRANCH  35  36
ENDBRANCH  27  30
ENDBRANCH  25  26
ENDBRANCH   1  25
TORSDOF 17
ENDMDL
MODEL 2
REMARK VINA RESULT:     -11.9      2.052      4.076
REMARK SMILES COc1ccc(C(=O)N2CC[C@@H](C(=O)NCCCNC(=O)c3ccc(-c4c5nc(c(-c6cc(S(=O)(=O)[O-])ccc6F)c6ccc([nH]6)c(-c6cc(S(=O)(=O)[O-])ccc6F)c6nc(c(-c7cc(S(=O)(=O)[O-])ccc7F)c7ccc4[nH]7)C=C6)C=C5)cc3)[C@H]2C)cc1O
REMARK SMILES IDX 17 1 16 2 15 3 13 4 14 5 12 7 9 8 10 9 85 10 11 11 86 12
REMARK SMILES IDX 7 13 8 14 6 15 3 16 4 17 88 18 5 19 87 20 2 21 1 22 89 23
REMARK SMILES IDX 18 25 19 26 20 27 21 29 22 30 23 31 84 32 24 33 83 34 25 35
REMARK SMILES IDX 26 36 27 37 77 38 28 39 82 40 76 41 78 42 29 43 81 44 75 45
REMARK SMILES IDX 74 46 30 48 62 49 42 50 61 51 43 52 46 53 60 54 79 55 44 56
REMARK SMILES IDX 45 57 59 59 80 60 47 61 31 62 32 63 40 64 33 65 39 66 41 67
REMARK SMILES IDX 38 68 34 69 35 70 36 71 37 72 63 73 64 74 72 75 65 76 71 77
REMARK SMILES IDX 73 78 70 79 66 80 67 81 68 82 69 83 48 84 49 85 57 86 50 87
REMARK SMILES IDX 56 88 58 89 55 90 51 91 52 92 53 93 54 94
REMARK H PARENT 15 6 89 24 19 28 78 47 46 58
REMARK Flexibility Score: inf
ROOT
ATOM      1  C   UNL A   1      34.108  28.273  24.763  1.00  0.00     0.042 C 
ENDROOT
BRANCH   1   2
ATOM      2  C   UNL A   1      33.763  26.884  24.226  1.00  0.00     0.117 C 
BRANCH   2   3
ATOM      3  N   UNL A   1      33.903  25.841  25.232  1.00  0.00    -0.356 N 
ATOM      4  C   UNL A   1      33.074  24.868  25.678  1.00  0.00     0.225 C 
ATOM      5  O   UNL A   1      33.515  24.139  26.573  1.00  0.00    -0.275 OA
ATOM      6  H   UNL A   1      34.781  25.844  25.679  1.00  0.00     0.163 HD
BRANCH   4   7
ATOM      7  C   UNL A   1      31.673  24.616  25.144  1.00  0.00     0.102 C 
ATOM      8  N   UNL A   1      29.991  25.954  24.110  1.00  0.00    -0.335 N 
ATOM      9  C   UNL A   1      30.241  24.828  23.233  1.00  0.00     0.121 C 
ATOM     10  C   UNL A   1      30.564  25.652  25.431  1.00  0.00     0.094 C 
ATOM     11  C   UNL A   1      31.609  24.324  23.641  1.00  0.00     0.037 C 
ATOM     12  C   UNL A   1      30.930  26.823  26.324  1.00  0.00     0.032 C 
BRANCH   8  13
ATOM     13  C   UNL A   1      28.788  26.634  23.933  1.00  0.00     0.254 C 
ATOM     14  O   UNL A   1      27.702  26.150  24.245  1.00  0.00    -0.269 OA
BRANCH  13  15
ATOM     15  C   UNL A   1      28.822  27.944  23.228  1.00  0.00     0.043 A 
ATOM     16  C   UNL A   1      28.854  30.416  21.877  1.00  0.00     0.160 A 
ATOM     17  C   UNL A   1      27.672  29.925  22.445  1.00  0.00     0.051 A 
ATOM     18  C   UNL A   1      30.017  29.653  21.998  1.00  0.00     0.158 A 
ATOM     19  C   UNL A   1      27.651  28.698  23.120  1.00  0.00     0.018 A 
ATOM     20  C   UNL A   1      29.991  28.403  22.616  1.00  0.00     0.064 A 
BRANCH  16  21
ATOM     21  O   UNL A   1      28.727  31.647  21.299  1.00  0.00    -0.493 OA
ATOM     22  C   UNL A   1      28.419  32.756  22.137  1.00  0.00     0.278 C 
ENDBRANCH  16  21
BRANCH  18  23
ATOM     23  O   UNL A   1      31.251  30.082  21.604  1.00  0.00    -0.504 OA
ATOM     24  H   UNL A   1      31.683  29.671  20.881  1.00  0.00     0.293 HD
ENDBRANCH  18  23
ENDBRANCH  13  15
ENDBRANCH   8  13
ENDBRANCH   4   7
ENDBRANCH   2   3
ENDBRANCH   1   2
BRANCH   1  25
ATOM     25  C   UNL A   1      33.811  28.489  26.242  1.00  0.00     0.118 C 
BRANCH  25  26
ATOM     26  N   UNL A   1      33.677  29.890  26.593  1.00  0.00    -0.352 N 
ATOM     27  C   UNL A   1      34.447  30.681  27.415  1.00  0.00     0.251 C 
ATOM     28  H   UNL A   1      32.913  30.350  26.176  1.00  0.00     0.163 HD
ATOM     29  O   UNL A   1      34.029  31.795  27.719  1.00  0.00    -0.269 OA
BRANCH  27  30
ATOM     30  C   UNL A   1      35.744  30.204  27.960  1.00  0.00     0.039 A 
ATOM     31  C   UNL A   1      35.774  29.682  29.258  1.00  0.00     0.014 A 
ATOM     32  C   UNL A   1      36.937  30.310  27.239  1.00  0.00     0.014 A 
ATOM     33  C   UNL A   1      36.976  29.213  29.801  1.00  0.00     0.010 A 
ATOM     34  C   UNL A   1      38.114  29.756  27.744  1.00  0.00     0.010 A 
ATOM     35  C   UNL A   1      38.152  29.213  29.037  1.00  0.00    -0.014 A 
BRANCH  35  36
ATOM     36  C   UNL A   1      39.430  28.674  29.581  1.00  0.00     0.031 A 
ATOM     37  C   UNL A   1      40.085  29.324  30.773  1.00  0.00     0.074 A 
ATOM     38  C   UNL A   1      40.037  27.639  28.967  1.00  0.00     0.049 A 
ATOM     39  N   UNL A   1      41.227  29.044  31.349  1.00  0.00    -0.248 NA
ATOM     40  C   UNL A   1      39.376  30.463  31.372  1.00  0.00     0.031 C 
ATOM     41  C   UNL A   1      39.537  26.952  27.774  1.00  0.00     0.029 A 
ATOM     42  N   UNL A   1      41.212  26.988  29.254  1.00  0.00    -0.354 N 
ATOM     43  C   UNL A   1      41.384  29.987  32.361  1.00  0.00     0.074 A 
ATOM     44  C   UNL A   1      40.250  30.882  32.274  1.00  0.00     0.031 C 
ATOM     45  C   UNL A   1      40.387  25.966  27.445  1.00  0.00     0.029 A 
ATOM     46  C   UNL A   1      41.513  25.974  28.375  1.00  0.00     0.049 A 
ATOM     47  H   UNL A   1      41.785  27.225  30.018  1.00  0.00     0.167 HD
ATOM     48  C   UNL A   1      42.368  30.084  33.293  1.00  0.00     0.034 A 
ATOM     49  C   UNL A   1      42.576  25.149  28.314  1.00  0.00     0.034 A 
ATOM     50  C   UNL A   1      43.480  29.169  33.383  1.00  0.00     0.049 A 
ATOM     51  C   UNL A   1      43.654  25.264  29.361  1.00  0.00     0.074 A 
ATOM     52  C   UNL A   1      44.485  29.122  34.335  1.00  0.00     0.029 A 
ATOM     53  N   UNL A   1      43.742  28.142  32.483  1.00  0.00    -0.354 N 
ATOM     54  N   UNL A   1      43.753  26.118  30.353  1.00  0.00    -0.248 NA
ATOM     55  C   UNL A   1      44.755  24.294  29.286  1.00  0.00     0.031 C 
ATOM     56  C   UNL A   1      45.388  28.114  33.973  1.00  0.00     0.029 A 
ATOM     57  C   UNL A   1      44.910  27.482  32.837  1.00  0.00     0.049 A 
ATOM     58  H   UNL A   1      43.180  27.917  31.707  1.00  0.00     0.167 HD
ATOM     59  C   UNL A   1      44.917  25.775  31.035  1.00  0.00     0.074 A 
ATOM     60  C   UNL A   1      45.475  24.626  30.349  1.00  0.00     0.031 C 
ATOM     61  C   UNL A   1      45.471  26.353  32.131  1.00  0.00     0.034 A 
BRANCH  48  62
ATOM     62  C   UNL A   1      42.290  31.240  34.265  1.00  0.00     0.023 A 
ATOM     63  C   UNL A   1      41.353  31.262  35.315  1.00  0.00     0.031 A 
ATOM     64  C   UNL A   1      43.129  32.358  34.112  1.00  0.00     0.131 A 
ATOM     65  C   UNL A   1      41.213  32.413  36.105  1.00  0.00     0.055 A 
ATOM     66  C   UNL A   1      43.046  33.464  34.961  1.00  0.00     0.041 A 
ATOM     67  F   UNL A   1      44.032  32.406  33.121  1.00  0.00    -0.206 F 
ATOM     68  C   UNL A   1      42.069  33.506  35.952  1.00  0.00     0.022 A 
BRANCH  65  69
ATOM     69  S   UNL A   1      39.782  32.528  37.214  1.00  0.00     0.124 S 
ATOM     70  O   UNL A   1      39.173  33.783  36.781  1.00  0.00    -0.237 OA
ATOM     71  O   UNL A   1      39.040  31.313  36.896  1.00  0.00    -0.237 OA
ATOM     72  O   UNL A   1      40.383  32.563  38.547  1.00  0.00    -0.744 OA
ENDBRANCH  65  69
ENDBRANCH  48  62
BRANCH  49  73
ATOM     73  C   UNL A   1      42.678  24.145  27.218  1.00  0.00     0.023 A 
ATOM     74  C   UNL A   1      42.021  22.908  27.305  1.00  0.00     0.031 A 
ATOM     75  C   UNL A   1      43.441  24.410  26.067  1.00  0.00     0.131 A 
ATOM     76  C   UNL A   1      42.164  21.968  26.273  1.00  0.00     0.055 A 
ATOM     77  C   UNL A   1      43.547  23.487  25.025  1.00  0.00     0.041 A 
ATOM     78  F   UNL A   1      44.073  25.586  25.928  1.00  0.00    -0.206 F 
ATOM     79  C   UNL A   1      42.913  22.253  25.129  1.00  0.00     0.022 A 
BRANCH  76  80
ATOM     80  S   UNL A   1      41.388  20.339  26.467  1.00  0.00     0.124 S 
ATOM     81  O   UNL A   1      41.758  19.994  27.834  1.00  0.00    -0.237 OA
ATOM     82  O   UNL A   1      39.980  20.649  26.241  1.00  0.00    -0.237 OA
ATOM     83  O   UNL A   1      42.020  19.536  25.423  1.00  0.00    -0.744 OA
ENDBRANCH  76  80
ENDBRANCH  49  73
BRANCH  61  84
ATOM     84  C   UNL A   1      46.735  25.728  32.669  1.00  0.00     0.023 A 
ATOM     85  C   UNL A   1      47.998  26.040  32.136  1.00  0.00     0.031 A 
ATOM     86  C   UNL A   1      46.673  24.795  33.719  1.00  0.00     0.131 A 
ATOM     87  C   UNL A   1      49.143  25.387  32.619  1.00  0.00     0.055 A 
ATOM     88  C   UNL A   1      47.820  24.190  34.235  1.00  0.00     0.041 A 
ATOM     89  F   UNL A   1      45.493  24.457  34.264  1.00  0.00    -0.206 F 
ATOM     90  C   UNL A   1      49.063  24.476  33.676  1.00  0.00     0.022 A 
BRANCH  87  91
ATOM     91  S   UNL A   1      50.728  25.674  31.787  1.00  0.00     0.124 S 
ATOM     92  O   UNL A   1      50.559  24.925  30.547  1.00  0.00    -0.237 OA
ATOM     93  O   UNL A   1      50.751  27.128  31.655  1.00  0.00    -0.237 OA
ATOM     94  O   UNL A   1      51.710  25.121  32.717  1.00  0.00    -0.744 OA
ENDBRANCH  87  91
ENDBRANCH  61  84
ENDBRANCH  35  36
ENDBRANCH  27  30
ENDBRANCH  25  26
ENDBRANCH   1  25
TORSDOF 17
ENDMDL
MODEL 3
REMARK VINA RESULT:     -11.8      4.130      9.062
REMARK SMILES COc1ccc(C(=O)N2CC[C@@H](C(=O)NCCCNC(=O)c3ccc(-c4c5nc(c(-c6cc(S(=O)(=O)[O-])ccc6F)c6ccc([nH]6)c(-c6cc(S(=O)(=O)[O-])ccc6F)c6nc(c(-c7cc(S(=O)(=O)[O-])ccc7F)c7ccc4[nH]7)C=C6)C=C5)cc3)[C@H]2C)cc1O
REMARK SMILES IDX 17 1 16 2 15 3 13 4 14 5 12 7 9 8 10 9 85 10 11 11 86 12
REMARK SMILES IDX 7 13 8 14 6 15 3 16 4 17 88 18 5 19 87 20 2 21 1 22 89 23
REMARK SMILES IDX 18 25 19 26 20 27 21 29 22 30 23 31 84 32 24 33 83 34 25 35
REMARK SMILES IDX 26 36 27 37 77 38 28 39 82 40 76 41 78 42 29 43 81 44 75 45
REMARK SMILES IDX 74 46 30 48 62 49 42 50 61 51 43 52 46 53 60 54 79 55 44 56
REMARK SMILES IDX 45 57 59 59 80 60 47 61 31 62 32 63 40 64 33 65 39 66 41 67
REMARK SMILES IDX 38 68 34 69 35 70 36 71 37 72 63 73 64 74 72 75 65 76 71 77
REMARK SMILES IDX 73 78 70 79 66 80 67 81 68 82 69 83 48 84 49 85 57 86 50 87
REMARK SMILES IDX 56 88 58 89 55 90 51 91 52 92 53 93 54 94
REMARK H PARENT 15 6 89 24 19 28 78 47 46 58
REMARK Flexibility Score: inf
ROOT
ATOM      1  C   UNL A   1      35.088  22.891  26.764  1.00  0.00     0.042 C 
ENDROOT
BRANCH   1   2
ATOM      2  C   UNL A   1      33.814  23.687  26.486  1.00  0.00     0.117 C 
BRANCH   2   3
ATOM      3  N   UNL A   1      34.064  24.900  25.722  1.00  0.00    -0.356 N 
ATOM      4  C   UNL A   1      33.636  25.338  24.514  1.00  0.00     0.225 C 
ATOM      5  O   UNL A   1      34.060  26.440  24.148  1.00  0.00    -0.275 OA
ATOM      6  H   UNL A   1      34.668  25.533  26.177  1.00  0.00     0.163 HD
BRANCH   4   7
ATOM      7  C   UNL A   1      32.677  24.579  23.612  1.00  0.00     0.102 C 
ATOM      8  N   UNL A   1      32.193  22.278  23.211  1.00  0.00    -0.335 N 
ATOM      9  C   UNL A   1      30.942  22.925  23.552  1.00  0.00     0.121 C 
ATOM     10  C   UNL A   1      33.179  23.318  22.875  1.00  0.00     0.094 C 
ATOM     11  C   UNL A   1      31.352  24.189  24.277  1.00  0.00     0.037 C 
ATOM     12  C   UNL A   1      34.648  22.970  23.029  1.00  0.00     0.032 C 
BRANCH   8  13
ATOM     13  C   UNL A   1      32.109  21.058  22.544  1.00  0.00     0.254 C 
ATOM     14  O   UNL A   1      31.707  20.963  21.387  1.00  0.00    -0.269 OA
BRANCH  13  15
ATOM     15  C   UNL A   1      32.404  19.819  23.314  1.00  0.00     0.043 A 
ATOM     16  C   UNL A   1      32.939  17.454  24.748  1.00  0.00     0.160 A 
ATOM     17  C   UNL A   1      32.838  17.438  23.351  1.00  0.00     0.051 A 
ATOM     18  C   UNL A   1      32.770  18.670  25.413  1.00  0.00     0.158 A 
ATOM     19  C   UNL A   1      32.575  18.610  22.633  1.00  0.00     0.018 A 
ATOM     20  C   UNL A   1      32.449  19.831  24.709  1.00  0.00     0.064 A 
BRANCH  16  21
ATOM     21  O   UNL A   1      33.250  16.244  25.301  1.00  0.00    -0.493 OA
ATOM     22  C   UNL A   1      34.616  15.840  25.312  1.00  0.00     0.278 C 
ENDBRANCH  16  21
BRANCH  18  23
ATOM     23  O   UNL A   1      32.974  18.839  26.752  1.00  0.00    -0.504 OA
ATOM     24  H   UNL A   1      32.337  18.530  27.366  1.00  0.00     0.293 HD
ENDBRANCH  18  23
ENDBRANCH  13  15
ENDBRANCH   8  13
ENDBRANCH   4   7
ENDBRANCH   2   3
ENDBRANCH   1   2
BRANCH   1  25
ATOM     25  C   UNL A   1      36.350  23.435  26.105  1.00  0.00     0.118 C 
BRANCH  25  26
ATOM     26  N   UNL A   1      37.459  22.500  26.150  1.00  0.00    -0.352 N 
ATOM     27  C   UNL A   1      38.796  22.714  26.397  1.00  0.00     0.251 C 
ATOM     28  H   UNL A   1      37.216  21.562  25.975  1.00  0.00     0.163 HD
ATOM     29  O   UNL A   1      39.586  21.797  26.189  1.00  0.00    -0.269 OA
BRANCH  27  30
ATOM     30  C   UNL A   1      39.297  24.028  26.875  1.00  0.00     0.039 A 
ATOM     31  C   UNL A   1      39.923  24.879  25.957  1.00  0.00     0.014 A 
ATOM     32  C   UNL A   1      39.210  24.414  28.215  1.00  0.00     0.014 A 
ATOM     33  C   UNL A   1      40.399  26.130  26.369  1.00  0.00     0.010 A 
ATOM     34  C   UNL A   1      39.598  25.698  28.603  1.00  0.00     0.010 A 
ATOM     35  C   UNL A   1      40.210  26.567  27.689  1.00  0.00    -0.014 A 
BRANCH  35  36
ATOM     36  C   UNL A   1      40.666  27.914  28.132  1.00  0.00     0.031 A 
ATOM     37  C   UNL A   1      42.133  28.264  28.118  1.00  0.00     0.074 A 
ATOM     38  C   UNL A   1      39.772  28.803  28.607  1.00  0.00     0.049 A 
ATOM     39  N   UNL A   1      42.730  29.355  28.527  1.00  0.00    -0.248 NA
ATOM     40  C   UNL A   1      43.050  27.234  27.610  1.00  0.00     0.031 C 
ATOM     41  C   UNL A   1      38.330  28.572  28.723  1.00  0.00     0.029 A 
ATOM     42  N   UNL A   1      39.941  30.077  29.091  1.00  0.00    -0.354 N 
ATOM     43  C   UNL A   1      44.093  29.132  28.349  1.00  0.00     0.074 A 
ATOM     44  C   UNL A   1      44.231  27.778  27.856  1.00  0.00     0.031 C 
ATOM     45  C   UNL A   1      37.747  29.672  29.225  1.00  0.00     0.029 A 
ATOM     46  C   UNL A   1      38.773  30.673  29.505  1.00  0.00     0.049 A 
ATOM     47  H   UNL A   1      40.818  30.522  29.138  1.00  0.00     0.167 HD
ATOM     48  C   UNL A   1      45.131  29.984  28.553  1.00  0.00     0.034 A 
ATOM     49  C   UNL A   1      38.548  31.881  30.057  1.00  0.00     0.034 A 
ATOM     50  C   UNL A   1      44.976  31.341  29.021  1.00  0.00     0.049 A 
ATOM     51  C   UNL A   1      39.711  32.817  30.268  1.00  0.00     0.074 A 
ATOM     52  C   UNL A   1      45.946  32.315  29.181  1.00  0.00     0.029 A 
ATOM     53  N   UNL A   1      43.772  31.915  29.415  1.00  0.00    -0.354 N 
ATOM     54  N   UNL A   1      40.986  32.617  30.028  1.00  0.00    -0.248 NA
ATOM     55  C   UNL A   1      39.399  34.147  30.807  1.00  0.00     0.031 C 
ATOM     56  C   UNL A   1      45.343  33.452  29.734  1.00  0.00     0.029 A 
ATOM     57  C   UNL A   1      43.982  33.215  29.851  1.00  0.00     0.049 A 
ATOM     58  H   UNL A   1      42.898  31.463  29.388  1.00  0.00     0.167 HD
ATOM     59  C   UNL A   1      41.628  33.804  30.371  1.00  0.00     0.074 A 
ATOM     60  C   UNL A   1      40.595  34.719  30.816  1.00  0.00     0.031 C 
ATOM     61  C   UNL A   1      42.949  34.111  30.317  1.00  0.00     0.034 A 
BRANCH  48  62
ATOM     62  C   UNL A   1      46.524  29.453  28.294  1.00  0.00     0.023 A 
ATOM     63  C   UNL A   1      47.287  28.853  29.311  1.00  0.00     0.031 A 
ATOM     64  C   UNL A   1      47.115  29.592  27.026  1.00  0.00     0.131 A 
ATOM     65  C   UNL A   1      48.625  28.505  29.072  1.00  0.00     0.055 A 
ATOM     66  C   UNL A   1      48.419  29.159  26.769  1.00  0.00     0.041 A 
ATOM     67  F   UNL A   1      46.446  30.170  26.017  1.00  0.00    -0.206 F 
ATOM     68  C   UNL A   1      49.190  28.631  27.800  1.00  0.00     0.022 A 
BRANCH  65  69
ATOM     69  S   UNL A   1      49.665  28.053  30.488  1.00  0.00     0.124 S 
ATOM     70  O   UNL A   1      48.677  27.517  31.421  1.00  0.00    -0.237 OA
ATOM     71  O   UNL A   1      50.586  27.084  29.905  1.00  0.00    -0.237 OA
ATOM     72  O   UNL A   1      50.266  29.324  30.892  1.00  0.00    -0.744 OA
ENDBRANCH  65  69
ENDBRANCH  48  62
BRANCH  49  73
ATOM     73  C   UNL A   1      37.168  32.274  30.455  1.00  0.00     0.023 A 
ATOM     74  C   UNL A   1      36.290  32.870  29.538  1.00  0.00     0.031 A 
ATOM     75  C   UNL A   1      36.709  32.058  31.767  1.00  0.00     0.131 A 
ATOM     76  C   UNL A   1      35.008  33.261  29.952  1.00  0.00     0.055 A 
ATOM     77  C   UNL A   1      35.418  32.413  32.163  1.00  0.00     0.041 A 
ATOM     78  F   UNL A   1      37.504  31.474  32.677  1.00  0.00    -0.206 F 
ATOM     79  C   UNL A   1      34.562  33.027  31.255  1.00  0.00     0.022 A 
BRANCH  76  80
ATOM     80  S   UNL A   1      33.938  34.126  28.768  1.00  0.00     0.124 S 
ATOM     81  O   UNL A   1      34.828  35.168  28.269  1.00  0.00    -0.237 OA
ATOM     82  O   UNL A   1      33.606  33.059  27.829  1.00  0.00    -0.237 OA
ATOM     83  O   UNL A   1      32.827  34.592  29.594  1.00  0.00    -0.744 OA
ENDBRANCH  76  80
ENDBRANCH  49  73
BRANCH  61  84
ATOM     84  C   UNL A   1      43.343  35.509  30.726  1.00  0.00     0.023 A 
ATOM     85  C   UNL A   1      43.551  35.854  32.073  1.00  0.00     0.031 A 
ATOM     86  C   UNL A   1      43.499  36.514  29.755  1.00  0.00     0.131 A 
ATOM     87  C   UNL A   1      43.851  37.180  32.418  1.00  0.00     0.055 A 
ATOM     88  C   UNL A   1      43.854  37.820  30.098  1.00  0.00     0.041 A 
ATOM     89  F   UNL A   1      43.310  36.242  28.454  1.00  0.00    -0.206 F 
ATOM     90  C   UNL A   1      44.019  38.161  31.438  1.00  0.00     0.022 A 
BRANCH  87  91
ATOM     91  S   UNL A   1      43.929  37.629  34.174  1.00  0.00     0.124 S 
ATOM     92  O   UNL A   1      42.659  38.320  34.366  1.00  0.00    -0.237 OA
ATOM     93  O   UNL A   1      44.051  36.327  34.822  1.00  0.00    -0.237 OA
ATOM     94  O   UNL A   1      45.116  38.477  34.259  1.00  0.00    -0.744 OA
ENDBRANCH  87  91
ENDBRANCH  61  84
ENDBRANCH  35  36
ENDBRANCH  27  30
ENDBRANCH  25  26
ENDBRANCH   1  25
TORSDOF 17
ENDMDL
