MODEL 1
REMARK VINA RESULT:     -11.0      0.000      0.000
REMARK SMILES COC[C@@H](C)Nc1ccc([N+](=O)[O-])c(C(=O)NCCCNC(=O)c2ccc(-c3c4nc(c(-c5cc(S(=O)(=O)[O-])ccc5F)c5ccc([nH]5)c(-c5cc(S(=O)(=O)[O-])ccc5F)c5nc(c(-c6cc(S(=O)(=O)[O-])ccc6F)c6ccc3[nH]6)C=C5)C=C4)cc2)c1
REMARK SMILES IDX 18 1 17 2 15 3 16 4 14 6 7 7 8 8 87 9 9 10 10 11 6 12 4 14
REMARK SMILES IDX 5 15 3 16 2 17 1 18 11 19 12 20 13 21 19 22 20 23 21 24
REMARK SMILES IDX 22 25 23 27 24 28 25 29 86 30 26 31 85 32 27 33 28 34 29 35
REMARK SMILES IDX 79 36 30 37 84 38 78 39 80 40 31 41 83 42 77 43 76 44 32 46
REMARK SMILES IDX 64 47 44 48 63 49 45 50 48 51 62 52 81 53 46 54 47 55 61 57
REMARK SMILES IDX 82 58 49 59 33 60 34 61 42 62 35 63 41 64 43 65 40 66 36 67
REMARK SMILES IDX 37 68 38 69 39 70 65 71 66 72 74 73 67 74 73 75 75 76 72 77
REMARK SMILES IDX 68 78 69 79 70 80 71 81 50 82 51 83 59 84 52 85 58 86 60 87
REMARK SMILES IDX 57 88 53 89 54 90 55 91 56 92
REMARK H PARENT 17 5 6 13 21 26 80 45 48 56
REMARK Flexibility Score: inf
ROOT
ATOM      1  C   UNL A   1      33.365  26.890  25.765  1.00  0.00     0.118 C 
ENDROOT
BRANCH   1   2
ATOM      2  N   UNL A   1      33.640  26.469  24.393  1.00  0.00    -0.352 N 
ATOM      3  C   UNL A   1      32.906  26.342  23.235  1.00  0.00     0.258 C 
ATOM      4  O   UNL A   1      33.482  25.803  22.293  1.00  0.00    -0.269 OA
ATOM      5  H   UNL A   1      34.582  26.215  24.265  1.00  0.00     0.163 HD
BRANCH   3   6
ATOM      6  C   UNL A   1      31.466  26.713  23.101  1.00  0.00     0.119 A 
ATOM      7  C   UNL A   1      29.833  28.494  22.665  1.00  0.00     0.036 A 
ATOM      8  C   UNL A   1      28.870  27.763  23.366  1.00  0.00     0.033 A 
ATOM      9  C   UNL A   1      31.071  27.880  22.447  1.00  0.00     0.046 A 
ATOM     10  C   UNL A   1      29.149  26.477  23.831  1.00  0.00     0.088 A 
ATOM     11  C   UNL A   1      30.449  25.964  23.697  1.00  0.00     0.282 A 
BRANCH   7  12
ATOM     12  N   UNL A   1      29.522  29.748  22.174  1.00  0.00    -0.380 N 
ATOM     13  H   UNL A   1      30.265  30.302  21.838  1.00  0.00     0.160 HD
BRANCH  12  14
ATOM     14  C   UNL A   1      28.167  30.322  22.112  1.00  0.00     0.102 C 
ATOM     15  C   UNL A   1      27.953  30.976  20.743  1.00  0.00     0.033 C 
BRANCH  14  16
ATOM     16  C   UNL A   1      27.993  31.322  23.277  1.00  0.00     0.184 C 
BRANCH  16  17
ATOM     17  O   UNL A   1      27.894  32.687  22.862  1.00  0.00    -0.383 OA
ATOM     18  C   UNL A   1      29.049  33.467  23.133  1.00  0.00     0.194 C 
ENDBRANCH  16  17
ENDBRANCH  14  16
ENDBRANCH  12  14
ENDBRANCH   7  12
BRANCH  11  19
ATOM     19  N   UNL A   1      30.630  24.562  24.028  1.00  0.00     0.063 N 
ATOM     20  O   UNL A   1      30.878  24.292  25.211  1.00  0.00    -0.258 OA
ATOM     21  O   UNL A   1      30.352  23.740  23.142  1.00  0.00    -0.258 OA
ENDBRANCH  11  19
ENDBRANCH   3   6
ENDBRANCH   1   2
BRANCH   1  22
ATOM     22  C   UNL A   1      32.565  28.179  25.859  1.00  0.00     0.042 C 
BRANCH  22  23
ATOM     23  C   UNL A   1      33.251  29.381  25.236  1.00  0.00     0.118 C 
BRANCH  23  24
ATOM     24  N   UNL A   1      32.845  30.637  25.856  1.00  0.00    -0.352 N 
ATOM     25  C   UNL A   1      33.326  31.287  26.968  1.00  0.00     0.251 C 
ATOM     26  H   UNL A   1      32.101  31.095  25.402  1.00  0.00     0.163 HD
ATOM     27  O   UNL A   1      32.668  32.202  27.452  1.00  0.00    -0.269 OA
BRANCH  25  28
ATOM     28  C   UNL A   1      34.604  30.875  27.592  1.00  0.00     0.039 A 
ATOM     29  C   UNL A   1      35.598  31.834  27.805  1.00  0.00     0.014 A 
ATOM     30  C   UNL A   1      34.838  29.546  27.946  1.00  0.00     0.014 A 
ATOM     31  C   UNL A   1      36.787  31.471  28.447  1.00  0.00     0.010 A 
ATOM     32  C   UNL A   1      35.970  29.209  28.682  1.00  0.00     0.010 A 
ATOM     33  C   UNL A   1      36.961  30.166  28.935  1.00  0.00    -0.014 A 
BRANCH  33  34
ATOM     34  C   UNL A   1      38.172  29.777  29.706  1.00  0.00     0.031 A 
ATOM     35  C   UNL A   1      38.404  30.342  31.082  1.00  0.00     0.074 A 
ATOM     36  C   UNL A   1      39.094  28.976  29.135  1.00  0.00     0.049 A 
ATOM     37  N   UNL A   1      39.438  30.200  31.871  1.00  0.00    -0.248 NA
ATOM     38  C   UNL A   1      37.348  31.210  31.627  1.00  0.00     0.031 C 
ATOM     39  C   UNL A   1      39.001  28.404  27.790  1.00  0.00     0.029 A 
ATOM     40  N   UNL A   1      40.295  28.510  29.608  1.00  0.00    -0.354 N 
ATOM     41  C   UNL A   1      39.164  30.971  32.997  1.00  0.00     0.074 A 
ATOM     42  C   UNL A   1      37.900  31.631  32.754  1.00  0.00     0.031 C 
ATOM     43  C   UNL A   1      40.080  27.639  27.560  1.00  0.00     0.029 A 
ATOM     44  C   UNL A   1      40.970  27.709  28.714  1.00  0.00     0.049 A 
ATOM     45  H   UNL A   1      40.642  28.727  30.503  1.00  0.00     0.167 HD
ATOM     46  C   UNL A   1      39.886  31.093  34.139  1.00  0.00     0.034 A 
ATOM     47  C   UNL A   1      42.175  27.112  28.806  1.00  0.00     0.034 A 
ATOM     48  C   UNL A   1      41.139  30.416  34.367  1.00  0.00     0.049 A 
ATOM     49  C   UNL A   1      42.974  27.288  30.072  1.00  0.00     0.074 A 
ATOM     50  C   UNL A   1      41.928  30.422  35.504  1.00  0.00     0.029 A 
ATOM     51  N   UNL A   1      41.793  29.617  33.437  1.00  0.00    -0.354 N 
ATOM     52  N   UNL A   1      42.675  27.978  31.150  1.00  0.00    -0.248 NA
ATOM     53  C   UNL A   1      44.268  26.599  30.139  1.00  0.00     0.031 C 
ATOM     54  C   UNL A   1      43.090  29.693  35.236  1.00  0.00     0.029 A 
ATOM     55  C   UNL A   1      42.990  29.156  33.962  1.00  0.00     0.049 A 
ATOM     56  H   UNL A   1      41.455  29.408  32.536  1.00  0.00     0.167 HD
ATOM     57  C   UNL A   1      43.732  27.778  32.034  1.00  0.00     0.074 A 
ATOM     58  C   UNL A   1      44.664  26.890  31.369  1.00  0.00     0.031 C 
ATOM     59  C   UNL A   1      43.916  28.280  33.281  1.00  0.00     0.034 A 
BRANCH  46  60
ATOM     60  C   UNL A   1      39.346  32.012  35.210  1.00  0.00     0.023 A 
ATOM     61  C   UNL A   1      39.777  33.346  35.327  1.00  0.00     0.031 A 
ATOM     62  C   UNL A   1      38.404  31.544  36.144  1.00  0.00     0.131 A 
ATOM     63  C   UNL A   1      39.331  34.137  36.396  1.00  0.00     0.055 A 
ATOM     64  C   UNL A   1      37.898  32.364  37.155  1.00  0.00     0.041 A 
ATOM     65  F   UNL A   1      37.970  30.274  36.101  1.00  0.00    -0.206 F 
ATOM     66  C   UNL A   1      38.373  33.664  37.296  1.00  0.00     0.022 A 
BRANCH  63  67
ATOM     67  S   UNL A   1      40.137  35.737  36.683  1.00  0.00     0.124 S 
ATOM     68  O   UNL A   1      39.664  36.069  38.025  1.00  0.00    -0.237 OA
ATOM     69  O   UNL A   1      41.551  35.402  36.568  1.00  0.00    -0.237 OA
ATOM     70  O   UNL A   1      39.606  36.583  35.617  1.00  0.00    -0.744 OA
ENDBRANCH  63  67
ENDBRANCH  46  60
BRANCH  47  71
ATOM     71  C   UNL A   1      42.708  26.302  27.672  1.00  0.00     0.023 A 
ATOM     72  C   UNL A   1      42.248  24.996  27.438  1.00  0.00     0.031 A 
ATOM     73  C   UNL A   1      43.717  26.805  26.831  1.00  0.00     0.131 A 
ATOM     74  C   UNL A   1      42.831  24.220  26.424  1.00  0.00     0.055 A 
ATOM     75  C   UNL A   1      44.252  26.051  25.785  1.00  0.00     0.041 A 
ATOM     76  F   UNL A   1      44.191  28.049  27.007  1.00  0.00    -0.206 F 
ATOM     77  C   UNL A   1      43.818  24.743  25.586  1.00  0.00     0.022 A 
BRANCH  74  78
ATOM     78  S   UNL A   1      42.341  22.480  26.272  1.00  0.00     0.124 S 
ATOM     79  O   UNL A   1      42.989  21.889  27.436  1.00  0.00    -0.237 OA
ATOM     80  O   UNL A   1      40.886  22.571  26.323  1.00  0.00    -0.237 OA
ATOM     81  O   UNL A   1      42.894  22.084  24.979  1.00  0.00    -0.744 OA
ENDBRANCH  74  78
ENDBRANCH  47  71
BRANCH  59  82
ATOM     82  C   UNL A   1      45.156  27.840  34.021  1.00  0.00     0.023 A 
ATOM     83  C   UNL A   1      45.165  26.698  34.841  1.00  0.00     0.031 A 
ATOM     84  C   UNL A   1      46.345  28.584  33.914  1.00  0.00     0.131 A 
ATOM     85  C   UNL A   1      46.318  26.368  35.568  1.00  0.00     0.055 A 
ATOM     86  C   UNL A   1      47.510  28.212  34.585  1.00  0.00     0.041 A 
ATOM     87  F   UNL A   1      46.395  29.687  33.149  1.00  0.00    -0.206 F 
ATOM     88  C   UNL A   1      47.497  27.106  35.430  1.00  0.00     0.022 A 
BRANCH  85  89
ATOM     89  S   UNL A   1      46.227  25.020  36.778  1.00  0.00     0.124 S 
ATOM     90  O   UNL A   1      44.917  24.445  36.493  1.00  0.00    -0.237 OA
ATOM     91  O   UNL A   1      47.377  24.198  36.415  1.00  0.00    -0.237 OA
ATOM     92  O   UNL A   1      46.337  25.705  38.065  1.00  0.00    -0.744 OA
ENDBRANCH  85  89
ENDBRANCH  59  82
ENDBRANCH  33  34
ENDBRANCH  25  28
ENDBRANCH  23  24
ENDBRANCH  22  23
ENDBRANCH   1  22
TORSDOF 18
ENDMDL
MODEL 2
REMARK VINA RESULT:     -10.9      2.092      2.800
REMARK SMILES COC[C@@H](C)Nc1ccc([N+](=O)[O-])c(C(=O)NCCCNC(=O)c2ccc(-c3c4nc(c(-c5cc(S(=O)(=O)[O-])ccc5F)c5ccc([nH]5)c(-c5cc(S(=O)(=O)[O-])ccc5F)c5nc(c(-c6cc(S(=O)(=O)[O-])ccc6F)c6ccc3[nH]6)C=C5)C=C4)cc2)c1
REMARK SMILES IDX 18 1 17 2 15 3 16 4 14 6 7 7 8 8 87 9 9 10 10 11 6 12 4 14
REMARK SMILES IDX 5 15 3 16 2 17 1 18 11 19 12 20 13 21 19 22 20 23 21 24
REMARK SMILES IDX 22 25 23 27 24 28 25 29 86 30 26 31 85 32 27 33 28 34 29 35
REMARK SMILES IDX 79 36 30 37 84 38 78 39 80 40 31 41 83 42 77 43 76 44 32 46
REMARK SMILES IDX 64 47 44 48 63 49 45 50 48 51 62 52 81 53 46 54 47 55 61 57
REMARK SMILES IDX 82 58 49 59 33 60 34 61 42 62 35 63 41 64 43 65 40 66 36 67
REMARK SMILES IDX 37 68 38 69 39 70 65 71 66 72 74 73 67 74 73 75 75 76 72 77
REMARK SMILES IDX 68 78 69 79 70 80 71 81 50 82 51 83 59 84 52 85 58 86 60 87
REMARK SMILES IDX 57 88 53 89 54 90 55 91 56 92
REMARK H PARENT 17 5 6 13 21 26 80 45 48 56
REMARK Flexibility Score: inf
ROOT
ATOM      1  C   UNL A   1      33.608  26.292  25.390  1.00  0.00     0.118 C 
ENDROOT
BRANCH   1   2
ATOM      2  N   UNL A   1      33.712  25.932  23.978  1.00  0.00    -0.352 N 
ATOM      3  C   UNL A   1      32.858  25.919  22.898  1.00  0.00     0.258 C 
ATOM      4  O   UNL A   1      33.296  25.396  21.876  1.00  0.00    -0.269 OA
ATOM      5  H   UNL A   1      34.616  25.622  23.740  1.00  0.00     0.163 HD
BRANCH   3   6
ATOM      6  C   UNL A   1      31.443  26.393  22.934  1.00  0.00     0.119 A 
ATOM      7  C   UNL A   1      29.902  28.289  22.686  1.00  0.00     0.036 A 
ATOM      8  C   UNL A   1      28.979  27.626  23.500  1.00  0.00     0.033 A 
ATOM      9  C   UNL A   1      31.057  27.588  22.326  1.00  0.00     0.046 A 
ATOM     10  C   UNL A   1      29.218  26.322  23.935  1.00  0.00     0.088 A 
ATOM     11  C   UNL A   1      30.453  25.718  23.650  1.00  0.00     0.282 A 
BRANCH   7  12
ATOM     12  N   UNL A   1      29.625  29.563  22.228  1.00  0.00    -0.380 N 
ATOM     13  H   UNL A   1      30.376  30.089  21.866  1.00  0.00     0.160 HD
BRANCH  12  14
ATOM     14  C   UNL A   1      28.296  30.198  22.239  1.00  0.00     0.102 C 
ATOM     15  C   UNL A   1      28.013  30.811  20.864  1.00  0.00     0.033 C 
BRANCH  14  16
ATOM     16  C   UNL A   1      28.252  31.248  23.373  1.00  0.00     0.184 C 
BRANCH  16  17
ATOM     17  O   UNL A   1      27.921  32.567  22.932  1.00  0.00    -0.383 OA
ATOM     18  C   UNL A   1      28.958  33.520  23.107  1.00  0.00     0.194 C 
ENDBRANCH  16  17
ENDBRANCH  14  16
ENDBRANCH  12  14
ENDBRANCH   7  12
BRANCH  11  19
ATOM     19  N   UNL A   1      30.570  24.305  23.965  1.00  0.00     0.063 N 
ATOM     20  O   UNL A   1      30.547  23.514  23.011  1.00  0.00    -0.258 OA
ATOM     21  O   UNL A   1      30.856  24.016  25.137  1.00  0.00    -0.258 OA
ENDBRANCH  11  19
ENDBRANCH   3   6
ENDBRANCH   1   2
BRANCH   1  22
ATOM     22  C   UNL A   1      33.257  27.752  25.623  1.00  0.00     0.042 C 
BRANCH  22  23
ATOM     23  C   UNL A   1      33.713  28.293  26.966  1.00  0.00     0.118 C 
BRANCH  23  24
ATOM     24  N   UNL A   1      33.612  29.745  27.044  1.00  0.00    -0.352 N 
ATOM     25  C   UNL A   1      34.403  30.668  27.687  1.00  0.00     0.251 C 
ATOM     26  H   UNL A   1      32.849  30.129  26.555  1.00  0.00     0.163 HD
ATOM     27  O   UNL A   1      33.986  31.814  27.827  1.00  0.00    -0.269 OA
BRANCH  25  28
ATOM     28  C   UNL A   1      35.727  30.285  28.228  1.00  0.00     0.039 A 
ATOM     29  C   UNL A   1      35.807  29.748  29.515  1.00  0.00     0.014 A 
ATOM     30  C   UNL A   1      36.893  30.475  27.485  1.00  0.00     0.014 A 
ATOM     31  C   UNL A   1      37.043  29.327  30.017  1.00  0.00     0.010 A 
ATOM     32  C   UNL A   1      38.101  29.957  27.938  1.00  0.00     0.010 A 
ATOM     33  C   UNL A   1      38.193  29.383  29.213  1.00  0.00    -0.014 A 
BRANCH  33  34
ATOM     34  C   UNL A   1      39.501  28.854  29.684  1.00  0.00     0.031 A 
ATOM     35  C   UNL A   1      40.248  29.562  30.782  1.00  0.00     0.074 A 
ATOM     36  C   UNL A   1      40.044  27.784  29.072  1.00  0.00     0.049 A 
ATOM     37  N   UNL A   1      41.439  29.315  31.264  1.00  0.00    -0.248 NA
ATOM     38  C   UNL A   1      39.584  30.724  31.393  1.00  0.00     0.031 C 
ATOM     39  C   UNL A   1      39.434  27.042  27.965  1.00  0.00     0.029 A 
ATOM     40  N   UNL A   1      41.235  27.136  29.284  1.00  0.00    -0.354 N 
ATOM     41  C   UNL A   1      41.671  30.297  32.224  1.00  0.00     0.074 A 
ATOM     42  C   UNL A   1      40.527  31.182  32.200  1.00  0.00     0.031 C 
ATOM     43  C   UNL A   1      40.237  26.023  27.620  1.00  0.00     0.029 A 
ATOM     44  C   UNL A   1      41.445  26.070  28.437  1.00  0.00     0.049 A 
ATOM     45  H   UNL A   1      41.880  27.407  29.977  1.00  0.00     0.167 HD
ATOM     46  C   UNL A   1      42.728  30.430  33.064  1.00  0.00     0.034 A 
ATOM     47  C   UNL A   1      42.498  25.236  28.322  1.00  0.00     0.034 A 
ATOM     48  C   UNL A   1      43.853  29.529  33.080  1.00  0.00     0.049 A 
ATOM     49  C   UNL A   1      43.674  25.423  29.246  1.00  0.00     0.074 A 
ATOM     50  C   UNL A   1      44.951  29.535  33.923  1.00  0.00     0.029 A 
ATOM     51  N   UNL A   1      44.033  28.464  32.206  1.00  0.00    -0.354 N 
ATOM     52  N   UNL A   1      43.854  26.325  30.184  1.00  0.00    -0.248 NA
ATOM     53  C   UNL A   1      44.786  24.475  29.101  1.00  0.00     0.031 C 
ATOM     54  C   UNL A   1      45.827  28.526  33.511  1.00  0.00     0.029 A 
ATOM     55  C   UNL A   1      45.238  27.830  32.466  1.00  0.00     0.049 A 
ATOM     56  H   UNL A   1      43.397  28.197  31.503  1.00  0.00     0.167 HD
ATOM     57  C   UNL A   1      45.086  26.031  30.761  1.00  0.00     0.074 A 
ATOM     58  C   UNL A   1      45.594  24.859  30.078  1.00  0.00     0.031 C 
ATOM     59  C   UNL A   1      45.738  26.669  31.767  1.00  0.00     0.034 A 
BRANCH  46  60
ATOM     60  C   UNL A   1      42.719  31.606  34.013  1.00  0.00     0.023 A 
ATOM     61  C   UNL A   1      42.208  31.498  35.320  1.00  0.00     0.031 A 
ATOM     62  C   UNL A   1      43.205  32.860  33.602  1.00  0.00     0.131 A 
ATOM     63  C   UNL A   1      42.122  32.636  36.136  1.00  0.00     0.055 A 
ATOM     64  C   UNL A   1      43.196  33.969  34.451  1.00  0.00     0.041 A 
ATOM     65  F   UNL A   1      43.683  33.034  32.360  1.00  0.00    -0.206 F 
ATOM     66  C   UNL A   1      42.637  33.866  35.721  1.00  0.00     0.022 A 
BRANCH  63  67
ATOM     67  S   UNL A   1      41.186  32.518  37.686  1.00  0.00     0.124 S 
ATOM     68  O   UNL A   1      39.935  31.917  37.230  1.00  0.00    -0.237 OA
ATOM     69  O   UNL A   1      42.041  31.669  38.506  1.00  0.00    -0.237 OA
ATOM     70  O   UNL A   1      41.076  33.907  38.125  1.00  0.00    -0.744 OA
ENDBRANCH  63  67
ENDBRANCH  46  60
BRANCH  47  71
ATOM     71  C   UNL A   1      42.498  24.155  27.293  1.00  0.00     0.023 A 
ATOM     72  C   UNL A   1      41.853  22.931  27.530  1.00  0.00     0.031 A 
ATOM     73  C   UNL A   1      43.181  24.314  26.073  1.00  0.00     0.131 A 
ATOM     74  C   UNL A   1      41.945  21.897  26.585  1.00  0.00     0.055 A 
ATOM     75  C   UNL A   1      43.220  23.303  25.111  1.00  0.00     0.041 A 
ATOM     76  F   UNL A   1      43.812  25.466  25.792  1.00  0.00    -0.206 F 
ATOM     77  C   UNL A   1      42.612  22.079  25.372  1.00  0.00     0.022 A 
BRANCH  74  78
ATOM     78  S   UNL A   1      41.257  20.272  27.007  1.00  0.00     0.124 S 
ATOM     79  O   UNL A   1      40.196  20.135  26.016  1.00  0.00    -0.237 OA
ATOM     80  O   UNL A   1      42.414  19.400  26.834  1.00  0.00    -0.237 OA
ATOM     81  O   UNL A   1      40.807  20.442  28.386  1.00  0.00    -0.744 OA
ENDBRANCH  74  78
ENDBRANCH  47  71
BRANCH  59  82
ATOM     82  C   UNL A   1      47.054  26.080  32.212  1.00  0.00     0.023 A 
ATOM     83  C   UNL A   1      47.137  25.176  33.286  1.00  0.00     0.031 A 
ATOM     84  C   UNL A   1      48.247  26.441  31.560  1.00  0.00     0.131 A 
ATOM     85  C   UNL A   1      48.390  24.711  33.713  1.00  0.00     0.055 A 
ATOM     86  C   UNL A   1      49.483  25.921  31.945  1.00  0.00     0.041 A 
ATOM     87  F   UNL A   1      48.230  27.304  30.531  1.00  0.00    -0.206 F 
ATOM     88  C   UNL A   1      49.561  25.061  33.036  1.00  0.00     0.022 A 
BRANCH  85  89
ATOM     89  S   UNL A   1      48.479  23.721  35.230  1.00  0.00     0.124 S 
ATOM     90  O   UNL A   1      49.569  22.800  34.926  1.00  0.00    -0.237 OA
ATOM     91  O   UNL A   1      48.762  24.730  36.245  1.00  0.00    -0.237 OA
ATOM     92  O   UNL A   1      47.155  23.107  35.318  1.00  0.00    -0.744 OA
ENDBRANCH  85  89
ENDBRANCH  59  82
ENDBRANCH  33  34
ENDBRANCH  25  28
ENDBRANCH  23  24
ENDBRANCH  22  23
ENDBRANCH   1  22
TORSDOF 18
ENDMDL
MODEL 3
REMARK VINA RESULT:     -10.8      2.344      2.880
REMARK SMILES COC[C@@H](C)Nc1ccc([N+](=O)[O-])c(C(=O)NCCCNC(=O)c2ccc(-c3c4nc(c(-c5cc(S(=O)(=O)[O-])ccc5F)c5ccc([nH]5)c(-c5cc(S(=O)(=O)[O-])ccc5F)c5nc(c(-c6cc(S(=O)(=O)[O-])ccc6F)c6ccc3[nH]6)C=C5)C=C4)cc2)c1
REMARK SMILES IDX 18 1 17 2 15 3 16 4 14 6 7 7 8 8 87 9 9 10 10 11 6 12 4 14
REMARK SMILES IDX 5 15 3 16 2 17 1 18 11 19 12 20 13 21 19 22 20 23 21 24
REMARK SMILES IDX 22 25 23 27 24 28 25 29 86 30 26 31 85 32 27 33 28 34 29 35
REMARK SMILES IDX 79 36 30 37 84 38 78 39 80 40 31 41 83 42 77 43 76 44 32 46
REMARK SMILES IDX 64 47 44 48 63 49 45 50 48 51 62 52 81 53 46 54 47 55 61 57
REMARK SMILES IDX 82 58 49 59 33 60 34 61 42 62 35 63 41 64 43 65 40 66 36 67
REMARK SMILES IDX 37 68 38 69 39 70 65 71 66 72 74 73 67 74 73 75 75 76 72 77
REMARK SMILES IDX 68 78 69 79 70 80 71 81 50 82 51 83 59 84 52 85 58 86 60 87
REMARK SMILES IDX 57 88 53 89 54 90 55 91 56 92
REMARK H PARENT 17 5 6 13 21 26 80 45 48 56
REMARK Flexibility Score: inf
ROOT
ATOM      1  C   UNL A   1      33.765  26.728  25.510  1.00  0.00     0.118 C 
ENDROOT
BRANCH   1   2
ATOM      2  N   UNL A   1      33.904  26.230  24.144  1.00  0.00    -0.352 N 
ATOM      3  C   UNL A   1      33.066  26.061  23.065  1.00  0.00     0.258 C 
ATOM      4  O   UNL A   1      33.542  25.459  22.106  1.00  0.00    -0.269 OA
ATOM      5  H   UNL A   1      34.826  25.946  23.946  1.00  0.00     0.163 HD
BRANCH   3   6
ATOM      6  C   UNL A   1      31.628  26.462  23.041  1.00  0.00     0.119 A 
ATOM      7  C   UNL A   1      30.000  28.262  22.670  1.00  0.00     0.036 A 
ATOM      8  C   UNL A   1      29.088  27.586  23.485  1.00  0.00     0.033 A 
ATOM      9  C   UNL A   1      31.200  27.608  22.372  1.00  0.00     0.046 A 
ATOM     10  C   UNL A   1      29.381  26.315  23.983  1.00  0.00     0.088 A 
ATOM     11  C   UNL A   1      30.653  25.766  23.759  1.00  0.00     0.282 A 
BRANCH   7  12
ATOM     12  N   UNL A   1      29.672  29.500  22.150  1.00  0.00    -0.380 N 
ATOM     13  H   UNL A   1      30.376  29.990  21.666  1.00  0.00     0.160 HD
BRANCH  12  14
ATOM     14  C   UNL A   1      28.353  30.145  22.263  1.00  0.00     0.102 C 
ATOM     15  C   UNL A   1      27.990  30.802  20.927  1.00  0.00     0.033 C 
BRANCH  14  16
ATOM     16  C   UNL A   1      28.389  31.159  23.429  1.00  0.00     0.184 C 
BRANCH  16  17
ATOM     17  O   UNL A   1      27.980  32.479  23.064  1.00  0.00    -0.383 OA
ATOM     18  C   UNL A   1      29.016  33.448  23.110  1.00  0.00     0.194 C 
ENDBRANCH  16  17
ENDBRANCH  14  16
ENDBRANCH  12  14
ENDBRANCH   7  12
BRANCH  11  19
ATOM     19  N   UNL A   1      30.833  24.375  24.137  1.00  0.00     0.063 N 
ATOM     20  O   UNL A   1      30.831  24.118  25.349  1.00  0.00    -0.258 OA
ATOM     21  O   UNL A   1      30.800  23.539  23.221  1.00  0.00    -0.258 OA
ENDBRANCH  11  19
ENDBRANCH   3   6
ENDBRANCH   1   2
BRANCH   1  22
ATOM     22  C   UNL A   1      33.853  28.241  25.620  1.00  0.00     0.042 C 
BRANCH  22  23
ATOM     23  C   UNL A   1      33.597  28.778  27.017  1.00  0.00     0.118 C 
BRANCH  23  24
ATOM     24  N   UNL A   1      33.611  30.234  27.064  1.00  0.00    -0.352 N 
ATOM     25  C   UNL A   1      34.442  31.104  27.732  1.00  0.00     0.251 C 
ATOM     26  H   UNL A   1      32.908  30.669  26.529  1.00  0.00     0.163 HD
ATOM     27  O   UNL A   1      34.113  32.282  27.830  1.00  0.00    -0.269 OA
BRANCH  25  28
ATOM     28  C   UNL A   1      35.699  30.626  28.350  1.00  0.00     0.039 A 
ATOM     29  C   UNL A   1      35.634  29.783  29.463  1.00  0.00     0.014 A 
ATOM     30  C   UNL A   1      36.942  31.024  27.856  1.00  0.00     0.014 A 
ATOM     31  C   UNL A   1      36.813  29.277  30.021  1.00  0.00     0.010 A 
ATOM     32  C   UNL A   1      38.106  30.435  28.340  1.00  0.00     0.010 A 
ATOM     33  C   UNL A   1      38.056  29.561  29.432  1.00  0.00    -0.014 A 
BRANCH  33  34
ATOM     34  C   UNL A   1      39.317  28.960  29.945  1.00  0.00     0.031 A 
ATOM     35  C   UNL A   1      39.995  29.548  31.153  1.00  0.00     0.074 A 
ATOM     36  C   UNL A   1      39.884  27.935  29.278  1.00  0.00     0.049 A 
ATOM     37  N   UNL A   1      41.143  29.229  31.695  1.00  0.00    -0.248 NA
ATOM     38  C   UNL A   1      39.309  30.666  31.819  1.00  0.00     0.031 C 
ATOM     39  C   UNL A   1      39.343  27.311  28.068  1.00  0.00     0.029 A 
ATOM     40  N   UNL A   1      41.044  27.242  29.514  1.00  0.00    -0.354 N 
ATOM     41  C   UNL A   1      41.322  30.114  32.753  1.00  0.00     0.074 A 
ATOM     42  C   UNL A   1      40.199  31.026  32.730  1.00  0.00     0.031 C 
ATOM     43  C   UNL A   1      40.150  26.308  27.689  1.00  0.00     0.029 A 
ATOM     44  C   UNL A   1      41.296  26.251  28.591  1.00  0.00     0.049 A 
ATOM     45  H   UNL A   1      41.641  27.434  30.273  1.00  0.00     0.167 HD
ATOM     46  C   UNL A   1      42.317  30.146  33.675  1.00  0.00     0.034 A 
ATOM     47  C   UNL A   1      42.339  25.405  28.474  1.00  0.00     0.034 A 
ATOM     48  C   UNL A   1      43.422  29.219  33.688  1.00  0.00     0.049 A 
ATOM     49  C   UNL A   1      43.448  25.479  29.493  1.00  0.00     0.074 A 
ATOM     50  C   UNL A   1      44.455  29.123  34.605  1.00  0.00     0.029 A 
ATOM     51  N   UNL A   1      43.646  28.233  32.736  1.00  0.00    -0.354 N 
ATOM     52  N   UNL A   1      43.575  26.289  30.520  1.00  0.00    -0.248 NA
ATOM     53  C   UNL A   1      44.550  24.521  29.342  1.00  0.00     0.031 C 
ATOM     54  C   UNL A   1      45.340  28.133  34.166  1.00  0.00     0.029 A 
ATOM     55  C   UNL A   1      44.817  27.549  33.023  1.00  0.00     0.049 A 
ATOM     56  H   UNL A   1      43.057  28.046  31.968  1.00  0.00     0.167 HD
ATOM     57  C   UNL A   1      44.757  25.914  31.154  1.00  0.00     0.074 A 
ATOM     58  C   UNL A   1      45.291  24.796  30.404  1.00  0.00     0.031 C 
ATOM     59  C   UNL A   1      45.345  26.443  32.257  1.00  0.00     0.034 A 
BRANCH  46  60
ATOM     60  C   UNL A   1      42.260  31.232  34.724  1.00  0.00     0.023 A 
ATOM     61  C   UNL A   1      42.776  32.519  34.485  1.00  0.00     0.031 A 
ATOM     62  C   UNL A   1      41.706  30.974  35.991  1.00  0.00     0.131 A 
ATOM     63  C   UNL A   1      42.799  33.469  35.517  1.00  0.00     0.055 A 
ATOM     64  C   UNL A   1      41.653  31.953  36.986  1.00  0.00     0.041 A 
ATOM     65  F   UNL A   1      41.219  29.760  36.290  1.00  0.00    -0.206 F 
ATOM     66  C   UNL A   1      42.217  33.205  36.759  1.00  0.00     0.022 A 
BRANCH  63  67
ATOM     67  S   UNL A   1      43.740  35.000  35.261  1.00  0.00     0.124 S 
ATOM     68  O   UNL A   1      42.725  35.875  34.679  1.00  0.00    -0.237 OA
ATOM     69  O   UNL A   1      44.172  35.333  36.613  1.00  0.00    -0.237 OA
ATOM     70  O   UNL A   1      44.804  34.598  34.344  1.00  0.00    -0.744 OA
ENDBRANCH  63  67
ENDBRANCH  46  60
BRANCH  47  71
ATOM     71  C   UNL A   1      42.394  24.421  27.354  1.00  0.00     0.023 A 
ATOM     72  C   UNL A   1      41.628  23.245  27.385  1.00  0.00     0.031 A 
ATOM     73  C   UNL A   1      43.248  24.621  26.254  1.00  0.00     0.131 A 
ATOM     74  C   UNL A   1      41.767  22.292  26.365  1.00  0.00     0.055 A 
ATOM     75  C   UNL A   1      43.339  23.697  25.212  1.00  0.00     0.041 A 
ATOM     76  F   UNL A   1      44.001  25.730  26.170  1.00  0.00    -0.206 F 
ATOM     77  C   UNL A   1      42.606  22.516  25.271  1.00  0.00     0.022 A 
BRANCH  74  78
ATOM     78  S   UNL A   1      40.901  20.707  26.533  1.00  0.00     0.124 S 
ATOM     79  O   UNL A   1      39.585  21.031  25.995  1.00  0.00    -0.237 OA
ATOM     80  O   UNL A   1      41.728  19.823  25.720  1.00  0.00    -0.237 OA
ATOM     81  O   UNL A   1      40.942  20.449  27.971  1.00  0.00    -0.744 OA
ENDBRANCH  74  78
ENDBRANCH  47  71
BRANCH  59  82
ATOM     82  C   UNL A   1      46.614  25.784  32.740  1.00  0.00     0.023 A 
ATOM     83  C   UNL A   1      47.864  26.069  32.161  1.00  0.00     0.031 A 
ATOM     84  C   UNL A   1      46.571  24.846  33.786  1.00  0.00     0.131 A 
ATOM     85  C   UNL A   1      49.007  25.379  32.591  1.00  0.00     0.055 A 
ATOM     86  C   UNL A   1      47.721  24.213  34.257  1.00  0.00     0.041 A 
ATOM     87  F   UNL A   1      45.404  24.531  34.374  1.00  0.00    -0.206 F 
ATOM     88  C   UNL A   1      48.947  24.468  33.649  1.00  0.00     0.022 A 
BRANCH  85  89
ATOM     89  S   UNL A   1      50.557  25.612  31.680  1.00  0.00     0.124 S 
ATOM     90  O   UNL A   1      51.550  25.535  32.748  1.00  0.00    -0.237 OA
ATOM     91  O   UNL A   1      50.541  24.494  30.744  1.00  0.00    -0.237 OA
ATOM     92  O   UNL A   1      50.404  26.932  31.072  1.00  0.00    -0.744 OA
ENDBRANCH  85  89
ENDBRANCH  59  82
ENDBRANCH  33  34
ENDBRANCH  25  28
ENDBRANCH  23  24
ENDBRANCH  22  23
ENDBRANCH   1  22
TORSDOF 18
ENDMDL
