MODEL 1
REMARK VINA RESULT:     -13.7      0.000      0.000
REMARK SMILES O=C(NCCCNC(=O)[C@H]1CCCN(C(=O)C2CCN(S(=O)(=O)c3ccccc3)CC2)C1)c1ccc(-c2c3nc(c(-c4cc(S(=O)(=O)[O-])ccc4F)c4ccc([nH]4)c(-c4cc(S(=O)(=O)[O-])ccc4F)c4nc(c(-c5cc(S(=O)(=O)[O-])ccc5F)c5ccc2[nH]5)C=C4)C=C3)cc1
REMARK SMILES IDX 5 1 4 2 3 3 1 4 2 5 33 7 34 8 95 9 35 10 94 11 36 12 37 13
REMARK SMILES IDX 38 14 88 15 39 16 93 17 87 18 89 19 40 20 92 21 86 22 85 23
REMARK SMILES IDX 41 25 73 26 53 27 72 28 54 29 57 30 71 31 90 32 55 33 56 34
REMARK SMILES IDX 70 36 91 37 58 38 42 39 43 40 51 41 44 42 50 43 52 44 49 45
REMARK SMILES IDX 45 46 46 47 47 48 48 49 74 50 75 51 83 52 76 53 82 54 84 55
REMARK SMILES IDX 81 56 77 57 78 58 79 59 80 60 59 61 60 62 68 63 61 64 67 65
REMARK SMILES IDX 69 66 66 67 62 68 63 69 64 70 65 71 6 72 7 73 8 74 9 76
REMARK SMILES IDX 10 77 11 78 32 79 12 80 14 81 13 82 15 83 16 84 17 85 18 86
REMARK SMILES IDX 31 87 19 88 30 89 20 90 21 91 22 92 23 93 24 94 25 95 29 96
REMARK SMILES IDX 26 97 28 98 27 99
REMARK H PARENT 3 6 89 24 57 35 7 75
REMARK Flexibility Score: inf
ROOT
ATOM      1  C   UNL A   1      31.561  31.707  26.535  1.00  0.00     0.042 C 
ENDROOT
BRANCH   1   2
ATOM      2  C   UNL A   1      32.744  32.329  27.272  1.00  0.00     0.118 C 
BRANCH   2   3
ATOM      3  N   UNL A   1      32.535  33.747  27.527  1.00  0.00    -0.352 N 
ATOM      4  O   UNL A   1      32.609  35.651  28.717  1.00  0.00    -0.269 OA
ATOM      5  C   UNL A   1      33.090  34.544  28.494  1.00  0.00     0.251 C 
ATOM      6  H   UNL A   1      31.906  34.197  26.919  1.00  0.00     0.163 HD
BRANCH   5   7
ATOM      7  C   UNL A   1      34.267  34.071  29.251  1.00  0.00     0.039 A 
ATOM      8  C   UNL A   1      34.103  33.236  30.361  1.00  0.00     0.014 A 
ATOM      9  C   UNL A   1      35.546  34.411  28.803  1.00  0.00     0.014 A 
ATOM     10  C   UNL A   1      35.216  32.805  31.071  1.00  0.00     0.010 A 
ATOM     11  C   UNL A   1      36.666  33.918  29.476  1.00  0.00     0.010 A 
ATOM     12  C   UNL A   1      36.507  33.112  30.613  1.00  0.00    -0.014 A 
BRANCH  12  13
ATOM     13  C   UNL A   1      37.672  32.466  31.261  1.00  0.00     0.031 A 
ATOM     14  C   UNL A   1      38.399  31.334  30.599  1.00  0.00     0.074 A 
ATOM     15  C   UNL A   1      38.059  32.929  32.467  1.00  0.00     0.049 A 
ATOM     16  N   UNL A   1      39.426  30.653  31.036  1.00  0.00    -0.248 NA
ATOM     17  C   UNL A   1      37.907  30.903  29.282  1.00  0.00     0.031 C 
ATOM     18  C   UNL A   1      37.401  34.019  33.197  1.00  0.00     0.029 A 
ATOM     19  N   UNL A   1      39.088  32.558  33.289  1.00  0.00    -0.354 N 
ATOM     20  C   UNL A   1      39.695  29.701  30.061  1.00  0.00     0.074 A 
ATOM     21  C   UNL A   1      38.712  29.882  29.013  1.00  0.00     0.031 C 
ATOM     22  C   UNL A   1      38.059  34.244  34.342  1.00  0.00     0.029 A 
ATOM     23  C   UNL A   1      39.142  33.277  34.461  1.00  0.00     0.049 A 
ATOM     24  H   UNL A   1      39.729  31.845  33.065  1.00  0.00     0.167 HD
ATOM     25  C   UNL A   1      40.676  28.765  30.051  1.00  0.00     0.034 A 
ATOM     26  C   UNL A   1      39.954  33.151  35.528  1.00  0.00     0.034 A 
ATOM     27  C   UNL A   1      41.652  28.615  31.105  1.00  0.00     0.049 A 
ATOM     28  C   UNL A   1      41.013  32.084  35.495  1.00  0.00     0.074 A 
ATOM     29  C   UNL A   1      42.733  27.752  31.160  1.00  0.00     0.029 A 
ATOM     30  N   UNL A   1      41.657  29.334  32.293  1.00  0.00    -0.354 N 
ATOM     31  N   UNL A   1      41.284  31.224  34.540  1.00  0.00    -0.248 NA
ATOM     32  C   UNL A   1      41.871  31.968  36.679  1.00  0.00     0.031 C 
ATOM     33  C   UNL A   1      43.349  27.903  32.408  1.00  0.00     0.029 A 
ATOM     34  C   UNL A   1      42.694  28.903  33.107  1.00  0.00     0.049 A 
ATOM     35  H   UNL A   1      41.016  30.045  32.524  1.00  0.00     0.167 HD
ATOM     36  C   UNL A   1      42.351  30.466  35.009  1.00  0.00     0.074 A 
ATOM     37  C   UNL A   1      42.692  30.994  36.315  1.00  0.00     0.031 C 
ATOM     38  C   UNL A   1      42.991  29.425  34.419  1.00  0.00     0.034 A 
BRANCH  25  39
ATOM     39  C   UNL A   1      40.717  27.799  28.895  1.00  0.00     0.023 A 
ATOM     40  C   UNL A   1      41.654  27.917  27.854  1.00  0.00     0.031 A 
ATOM     41  C   UNL A   1      39.812  26.723  28.850  1.00  0.00     0.131 A 
ATOM     42  C   UNL A   1      41.640  26.997  26.794  1.00  0.00     0.055 A 
ATOM     43  C   UNL A   1      39.839  25.778  27.823  1.00  0.00     0.041 A 
ATOM     44  F   UNL A   1      38.883  26.573  29.809  1.00  0.00    -0.206 F 
ATOM     45  C   UNL A   1      40.754  25.916  26.783  1.00  0.00     0.022 A 
BRANCH  42  46
ATOM     46  S   UNL A   1      42.747  27.271  25.383  1.00  0.00     0.124 S 
ATOM     47  O   UNL A   1      44.016  27.543  26.053  1.00  0.00    -0.237 OA
ATOM     48  O   UNL A   1      42.662  26.004  24.664  1.00  0.00    -0.237 OA
ATOM     49  O   UNL A   1      42.153  28.417  24.698  1.00  0.00    -0.744 OA
ENDBRANCH  42  46
ENDBRANCH  25  39
BRANCH  26  50
ATOM     50  C   UNL A   1      39.761  34.010  36.730  1.00  0.00     0.023 A 
ATOM     51  C   UNL A   1      39.198  33.498  37.908  1.00  0.00     0.031 A 
ATOM     52  C   UNL A   1      40.105  35.375  36.702  1.00  0.00     0.131 A 
ATOM     53  C   UNL A   1      38.954  34.352  38.995  1.00  0.00     0.055 A 
ATOM     54  C   UNL A   1      39.912  36.208  37.804  1.00  0.00     0.041 A 
ATOM     55  F   UNL A   1      40.650  35.915  35.600  1.00  0.00    -0.206 F 
ATOM     56  C   UNL A   1      39.319  35.700  38.955  1.00  0.00     0.022 A 
BRANCH  53  57
ATOM     57  S   UNL A   1      38.061  33.699  40.430  1.00  0.00     0.124 S 
ATOM     58  O   UNL A   1      39.011  32.726  40.957  1.00  0.00    -0.237 OA
ATOM     59  O   UNL A   1      37.860  34.900  41.233  1.00  0.00    -0.237 OA
ATOM     60  O   UNL A   1      36.848  33.131  39.846  1.00  0.00    -0.744 OA
ENDBRANCH  53  57
ENDBRANCH  26  50
BRANCH  38  61
ATOM     61  C   UNL A   1      44.123  28.810  35.197  1.00  0.00     0.023 A 
ATOM     62  C   UNL A   1      43.899  27.752  36.094  1.00  0.00     0.031 A 
ATOM     63  C   UNL A   1      45.430  29.312  35.071  1.00  0.00     0.131 A 
ATOM     64  C   UNL A   1      44.957  27.265  36.876  1.00  0.00     0.055 A 
ATOM     65  C   UNL A   1      46.489  28.787  35.810  1.00  0.00     0.041 A 
ATOM     66  F   UNL A   1      45.694  30.325  34.230  1.00  0.00    -0.206 F 
ATOM     67  C   UNL A   1      46.253  27.766  36.728  1.00  0.00     0.022 A 
BRANCH  64  68
ATOM     68  S   UNL A   1      44.598  26.028  38.150  1.00  0.00     0.124 S 
ATOM     69  O   UNL A   1      45.784  26.111  38.996  1.00  0.00    -0.237 OA
ATOM     70  O   UNL A   1      43.360  26.531  38.737  1.00  0.00    -0.237 OA
ATOM     71  O   UNL A   1      44.462  24.785  37.393  1.00  0.00    -0.744 OA
ENDBRANCH  64  68
ENDBRANCH  38  61
ENDBRANCH  12  13
ENDBRANCH   5   7
ENDBRANCH   2   3
ENDBRANCH   1   2
BRANCH   1  72
ATOM     72  C   UNL A   1      31.933  30.428  25.792  1.00  0.00     0.117 C 
BRANCH  72  73
ATOM     73  N   UNL A   1      31.057  30.214  24.656  1.00  0.00    -0.356 N 
ATOM     74  C   UNL A   1      30.870  29.062  23.948  1.00  0.00     0.224 C 
ATOM     75  H   UNL A   1      30.534  30.993  24.358  1.00  0.00     0.163 HD
ATOM     76  O   UNL A   1      30.294  29.118  22.863  1.00  0.00    -0.275 OA
BRANCH  74  77
ATOM     77  C   UNL A   1      31.262  27.748  24.588  1.00  0.00     0.098 C 
ATOM     78  C   UNL A   1      30.030  26.832  24.490  1.00  0.00     0.017 C 
ATOM     79  C   UNL A   1      32.485  27.134  23.896  1.00  0.00     0.133 C 
ATOM     80  C   UNL A   1      30.368  25.420  24.936  1.00  0.00     0.022 C 
ATOM     81  N   UNL A   1      32.723  25.777  24.420  1.00  0.00    -0.342 N 
ATOM     82  C   UNL A   1      31.596  24.903  24.189  1.00  0.00     0.119 C 
BRANCH  81  83
ATOM     83  C   UNL A   1      33.833  25.527  25.204  1.00  0.00     0.225 C 
ATOM     84  O   UNL A   1      34.067  26.275  26.164  1.00  0.00    -0.275 OA
BRANCH  83  85
ATOM     85  C   UNL A   1      34.811  24.335  25.001  1.00  0.00     0.081 C 
ATOM     86  C   UNL A   1      34.932  23.662  23.644  1.00  0.00     0.030 C 
ATOM     87  C   UNL A   1      34.882  23.312  26.119  1.00  0.00     0.030 C 
ATOM     88  C   UNL A   1      34.200  22.343  23.433  1.00  0.00     0.103 C 
ATOM     89  C   UNL A   1      33.921  22.155  25.966  1.00  0.00     0.103 C 
ATOM     90  N   UNL A   1      33.928  21.484  24.644  1.00  0.00    -0.198 NA
BRANCH  90  91
ATOM     91  S   UNL A   1      32.547  20.463  24.305  1.00  0.00     0.243 S 
ATOM     92  O   UNL A   1      31.547  20.722  25.330  1.00  0.00    -0.207 OA
ATOM     93  O   UNL A   1      32.216  20.670  22.916  1.00  0.00    -0.207 OA
BRANCH  91  94
ATOM     94  C   UNL A   1      33.007  18.758  24.522  1.00  0.00     0.082 A 
ATOM     95  C   UNL A   1      33.556  18.064  23.440  1.00  0.00     0.022 A 
ATOM     96  C   UNL A   1      32.591  18.051  25.659  1.00  0.00     0.022 A 
ATOM     97  C   UNL A   1      33.720  16.678  23.514  1.00  0.00     0.001 A 
ATOM     98  C   UNL A   1      32.797  16.675  25.747  1.00  0.00     0.001 A 
ATOM     99  C   UNL A   1      33.355  15.988  24.671  1.00  0.00     0.000 A 
ENDBRANCH  91  94
ENDBRANCH  90  91
ENDBRANCH  83  85
ENDBRANCH  81  83
ENDBRANCH  74  77
ENDBRANCH  72  73
ENDBRANCH   1  72
TORSDOF 17
ENDMDL
MODEL 2
REMARK VINA RESULT:     -13.1      1.924      2.397
REMARK SMILES O=C(NCCCNC(=O)[C@H]1CCCN(C(=O)C2CCN(S(=O)(=O)c3ccccc3)CC2)C1)c1ccc(-c2c3nc(c(-c4cc(S(=O)(=O)[O-])ccc4F)c4ccc([nH]4)c(-c4cc(S(=O)(=O)[O-])ccc4F)c4nc(c(-c5cc(S(=O)(=O)[O-])ccc5F)c5ccc2[nH]5)C=C4)C=C3)cc1
REMARK SMILES IDX 5 1 4 2 3 3 1 4 2 5 33 7 34 8 95 9 35 10 94 11 36 12 37 13
REMARK SMILES IDX 38 14 88 15 39 16 93 17 87 18 89 19 40 20 92 21 86 22 85 23
REMARK SMILES IDX 41 25 73 26 53 27 72 28 54 29 57 30 71 31 90 32 55 33 56 34
REMARK SMILES IDX 70 36 91 37 58 38 42 39 43 40 51 41 44 42 50 43 52 44 49 45
REMARK SMILES IDX 45 46 46 47 47 48 48 49 74 50 75 51 83 52 76 53 82 54 84 55
REMARK SMILES IDX 81 56 77 57 78 58 79 59 80 60 59 61 60 62 68 63 61 64 67 65
REMARK SMILES IDX 69 66 66 67 62 68 63 69 64 70 65 71 6 72 7 73 8 74 9 76
REMARK SMILES IDX 10 77 11 78 32 79 12 80 14 81 13 82 15 83 16 84 17 85 18 86
REMARK SMILES IDX 31 87 19 88 30 89 20 90 21 91 22 92 23 93 24 94 25 95 29 96
REMARK SMILES IDX 26 97 28 98 27 99
REMARK H PARENT 3 6 89 24 57 35 7 75
REMARK Flexibility Score: inf
ROOT
ATOM      1  C   UNL A   1      31.104  31.899  26.162  1.00  0.00     0.042 C 
ENDROOT
BRANCH   1   2
ATOM      2  C   UNL A   1      32.378  32.222  26.938  1.00  0.00     0.118 C 
BRANCH   2   3
ATOM      3  N   UNL A   1      32.416  33.617  27.355  1.00  0.00    -0.352 N 
ATOM      4  O   UNL A   1      32.942  35.346  28.689  1.00  0.00    -0.269 OA
ATOM      5  C   UNL A   1      33.220  34.219  28.287  1.00  0.00     0.251 C 
ATOM      6  H   UNL A   1      31.774  34.210  26.904  1.00  0.00     0.163 HD
BRANCH   5   7
ATOM      7  C   UNL A   1      34.417  33.516  28.792  1.00  0.00     0.039 A 
ATOM      8  C   UNL A   1      35.669  34.139  28.755  1.00  0.00     0.014 A 
ATOM      9  C   UNL A   1      34.271  32.252  29.368  1.00  0.00     0.014 A 
ATOM     10  C   UNL A   1      36.790  33.465  29.223  1.00  0.00     0.010 A 
ATOM     11  C   UNL A   1      35.388  31.606  29.903  1.00  0.00     0.010 A 
ATOM     12  C   UNL A   1      36.652  32.209  29.834  1.00  0.00    -0.014 A 
BRANCH  12  13
ATOM     13  C   UNL A   1      37.823  31.608  30.514  1.00  0.00     0.031 A 
ATOM     14  C   UNL A   1      38.676  30.584  29.829  1.00  0.00     0.074 A 
ATOM     15  C   UNL A   1      38.097  32.011  31.771  1.00  0.00     0.049 A 
ATOM     16  N   UNL A   1      39.726  29.953  30.287  1.00  0.00    -0.248 NA
ATOM     17  C   UNL A   1      38.302  30.212  28.456  1.00  0.00     0.031 C 
ATOM     18  C   UNL A   1      37.311  32.994  32.527  1.00  0.00     0.029 A 
ATOM     19  N   UNL A   1      39.101  31.662  32.634  1.00  0.00    -0.354 N 
ATOM     20  C   UNL A   1      40.129  29.095  29.271  1.00  0.00     0.074 A 
ATOM     21  C   UNL A   1      39.200  29.276  28.174  1.00  0.00     0.031 C 
ATOM     22  C   UNL A   1      37.879  33.186  33.725  1.00  0.00     0.029 A 
ATOM     23  C   UNL A   1      39.026  32.297  33.852  1.00  0.00     0.049 A 
ATOM     24  H   UNL A   1      39.808  31.016  32.405  1.00  0.00     0.167 HD
ATOM     25  C   UNL A   1      41.179  28.238  29.264  1.00  0.00     0.034 A 
ATOM     26  C   UNL A   1      39.778  32.157  34.960  1.00  0.00     0.034 A 
ATOM     27  C   UNL A   1      42.098  28.087  30.368  1.00  0.00     0.049 A 
ATOM     28  C   UNL A   1      40.919  31.177  34.926  1.00  0.00     0.074 A 
ATOM     29  C   UNL A   1      43.239  27.306  30.438  1.00  0.00     0.029 A 
ATOM     30  N   UNL A   1      41.973  28.718  31.599  1.00  0.00    -0.354 N 
ATOM     31  N   UNL A   1      41.315  30.410  33.936  1.00  0.00    -0.248 NA
ATOM     32  C   UNL A   1      41.710  31.041  36.154  1.00  0.00     0.031 C 
ATOM     33  C   UNL A   1      43.764  27.414  31.731  1.00  0.00     0.029 A 
ATOM     34  C   UNL A   1      42.989  28.310  32.450  1.00  0.00     0.049 A 
ATOM     35  H   UNL A   1      41.266  29.361  31.834  1.00  0.00     0.167 HD
ATOM     36  C   UNL A   1      42.408  29.703  34.424  1.00  0.00     0.074 A 
ATOM     37  C   UNL A   1      42.625  30.160  35.782  1.00  0.00     0.031 C 
ATOM     38  C   UNL A   1      43.164  28.757  33.810  1.00  0.00     0.034 A 
BRANCH  25  39
ATOM     39  C   UNL A   1      41.368  27.363  28.052  1.00  0.00     0.023 A 
ATOM     40  C   UNL A   1      41.017  26.002  28.050  1.00  0.00     0.031 A 
ATOM     41  C   UNL A   1      41.888  27.913  26.866  1.00  0.00     0.131 A 
ATOM     42  C   UNL A   1      41.226  25.228  26.897  1.00  0.00     0.055 A 
ATOM     43  C   UNL A   1      42.040  27.153  25.705  1.00  0.00     0.041 A 
ATOM     44  F   UNL A   1      42.258  29.203  26.818  1.00  0.00    -0.206 F 
ATOM     45  C   UNL A   1      41.714  25.800  25.718  1.00  0.00     0.022 A 
BRANCH  42  46
ATOM     46  S   UNL A   1      40.923  23.442  26.975  1.00  0.00     0.124 S 
ATOM     47  O   UNL A   1      41.745  22.954  25.871  1.00  0.00    -0.237 OA
ATOM     48  O   UNL A   1      41.385  23.101  28.316  1.00  0.00    -0.237 OA
ATOM     49  O   UNL A   1      39.480  23.328  26.767  1.00  0.00    -0.744 OA
ENDBRANCH  42  46
ENDBRANCH  25  39
BRANCH  26  50
ATOM     50  C   UNL A   1      39.445  32.911  36.200  1.00  0.00     0.023 A 
ATOM     51  C   UNL A   1      38.583  32.375  37.168  1.00  0.00     0.031 A 
ATOM     52  C   UNL A   1      39.957  34.204  36.416  1.00  0.00     0.131 A 
ATOM     53  C   UNL A   1      38.224  33.144  38.286  1.00  0.00     0.055 A 
ATOM     54  C   UNL A   1      39.641  34.943  37.556  1.00  0.00     0.041 A 
ATOM     55  F   UNL A   1      40.788  34.763  35.522  1.00  0.00    -0.206 F 
ATOM     56  C   UNL A   1      38.757  34.418  38.493  1.00  0.00     0.022 A 
BRANCH  53  57
ATOM     57  S   UNL A   1      36.970  32.493  39.422  1.00  0.00     0.124 S 
ATOM     58  O   UNL A   1      37.129  33.367  40.578  1.00  0.00    -0.237 OA
ATOM     59  O   UNL A   1      35.744  32.668  38.649  1.00  0.00    -0.237 OA
ATOM     60  O   UNL A   1      37.382  31.107  39.627  1.00  0.00    -0.744 OA
ENDBRANCH  53  57
ENDBRANCH  26  50
BRANCH  38  61
ATOM     61  C   UNL A   1      44.292  28.176  34.619  1.00  0.00     0.023 A 
ATOM     62  C   UNL A   1      44.090  27.063  35.454  1.00  0.00     0.031 A 
ATOM     63  C   UNL A   1      45.568  28.761  34.586  1.00  0.00     0.131 A 
ATOM     64  C   UNL A   1      45.134  26.604  36.268  1.00  0.00     0.055 A 
ATOM     65  C   UNL A   1      46.620  28.266  35.357  1.00  0.00     0.041 A 
ATOM     66  F   UNL A   1      45.810  29.828  33.808  1.00  0.00    -0.206 F 
ATOM     67  C   UNL A   1      46.403  27.189  36.214  1.00  0.00     0.022 A 
BRANCH  64  68
ATOM     68  S   UNL A   1      44.790  25.286  37.465  1.00  0.00     0.124 S 
ATOM     69  O   UNL A   1      44.559  26.042  38.691  1.00  0.00    -0.237 OA
ATOM     70  O   UNL A   1      43.619  24.636  36.886  1.00  0.00    -0.237 OA
ATOM     71  O   UNL A   1      46.012  24.484  37.452  1.00  0.00    -0.744 OA
ENDBRANCH  64  68
ENDBRANCH  38  61
ENDBRANCH  12  13
ENDBRANCH   5   7
ENDBRANCH   2   3
ENDBRANCH   1   2
BRANCH   1  72
ATOM     72  C   UNL A   1      31.198  30.587  25.390  1.00  0.00     0.117 C 
BRANCH  72  73
ATOM     73  N   UNL A   1      30.285  30.582  24.262  1.00  0.00    -0.356 N 
ATOM     74  C   UNL A   1      30.170  29.638  23.284  1.00  0.00     0.224 C 
ATOM     75  H   UNL A   1      29.677  31.352  24.193  1.00  0.00     0.163 HD
ATOM     76  O   UNL A   1      29.533  29.909  22.267  1.00  0.00    -0.275 OA
BRANCH  74  77
ATOM     77  C   UNL A   1      30.717  28.252  23.547  1.00  0.00     0.098 C 
ATOM     78  C   UNL A   1      29.500  27.321  23.681  1.00  0.00     0.017 C 
ATOM     79  C   UNL A   1      31.658  27.801  22.424  1.00  0.00     0.133 C 
ATOM     80  C   UNL A   1      29.934  25.868  23.763  1.00  0.00     0.022 C 
ATOM     81  N   UNL A   1      32.023  26.386  22.618  1.00  0.00    -0.342 N 
ATOM     82  C   UNL A   1      30.865  25.522  22.601  1.00  0.00     0.119 C 
BRANCH  81  83
ATOM     83  C   UNL A   1      33.316  26.052  22.973  1.00  0.00     0.225 C 
ATOM     84  O   UNL A   1      34.095  25.664  22.091  1.00  0.00    -0.275 OA
BRANCH  83  85
ATOM     85  C   UNL A   1      33.897  26.164  24.411  1.00  0.00     0.081 C 
ATOM     86  C   UNL A   1      34.825  25.090  24.953  1.00  0.00     0.030 C 
ATOM     87  C   UNL A   1      32.953  26.658  25.492  1.00  0.00     0.030 C 
ATOM     88  C   UNL A   1      34.238  24.049  25.897  1.00  0.00     0.103 C 
ATOM     89  C   UNL A   1      32.201  25.560  26.210  1.00  0.00     0.103 C 
ATOM     90  N   UNL A   1      33.028  24.436  26.712  1.00  0.00    -0.198 NA
BRANCH  90  91
ATOM     91  S   UNL A   1      32.151  22.982  27.136  1.00  0.00     0.243 S 
ATOM     92  O   UNL A   1      32.886  22.321  28.204  1.00  0.00    -0.207 OA
ATOM     93  O   UNL A   1      30.780  23.378  27.350  1.00  0.00    -0.207 OA
BRANCH  91  94
ATOM     94  C   UNL A   1      32.197  21.847  25.766  1.00  0.00     0.082 A 
ATOM     95  C   UNL A   1      32.850  20.621  25.926  1.00  0.00     0.022 A 
ATOM     96  C   UNL A   1      31.824  22.270  24.482  1.00  0.00     0.022 A 
ATOM     97  C   UNL A   1      33.092  19.812  24.813  1.00  0.00     0.001 A 
ATOM     98  C   UNL A   1      32.028  21.440  23.380  1.00  0.00     0.001 A 
ATOM     99  C   UNL A   1      32.669  20.214  23.546  1.00  0.00     0.000 A 
ENDBRANCH  91  94
ENDBRANCH  90  91
ENDBRANCH  83  85
ENDBRANCH  81  83
ENDBRANCH  74  77
ENDBRANCH  72  73
ENDBRANCH   1  72
TORSDOF 17
ENDMDL
MODEL 3
REMARK VINA RESULT:     -13.0      1.643      2.398
REMARK SMILES O=C(NCCCNC(=O)[C@H]1CCCN(C(=O)C2CCN(S(=O)(=O)c3ccccc3)CC2)C1)c1ccc(-c2c3nc(c(-c4cc(S(=O)(=O)[O-])ccc4F)c4ccc([nH]4)c(-c4cc(S(=O)(=O)[O-])ccc4F)c4nc(c(-c5cc(S(=O)(=O)[O-])ccc5F)c5ccc2[nH]5)C=C4)C=C3)cc1
REMARK SMILES IDX 5 1 4 2 3 3 1 4 2 5 33 7 34 8 95 9 35 10 94 11 36 12 37 13
REMARK SMILES IDX 38 14 88 15 39 16 93 17 87 18 89 19 40 20 92 21 86 22 85 23
REMARK SMILES IDX 41 25 73 26 53 27 72 28 54 29 57 30 71 31 90 32 55 33 56 34
REMARK SMILES IDX 70 36 91 37 58 38 42 39 43 40 51 41 44 42 50 43 52 44 49 45
REMARK SMILES IDX 45 46 46 47 47 48 48 49 74 50 75 51 83 52 76 53 82 54 84 55
REMARK SMILES IDX 81 56 77 57 78 58 79 59 80 60 59 61 60 62 68 63 61 64 67 65
REMARK SMILES IDX 69 66 66 67 62 68 63 69 64 70 65 71 6 72 7 73 8 74 9 76
REMARK SMILES IDX 10 77 11 78 32 79 12 80 14 81 13 82 15 83 16 84 17 85 18 86
REMARK SMILES IDX 31 87 19 88 30 89 20 90 21 91 22 92 23 93 24 94 25 95 29 96
REMARK SMILES IDX 26 97 28 98 27 99
REMARK H PARENT 3 6 89 24 57 35 7 75
REMARK Flexibility Score: inf
ROOT
ATOM      1  C   UNL A   1      31.593  31.923  26.575  1.00  0.00     0.042 C 
ENDROOT
BRANCH   1   2
ATOM      2  C   UNL A   1      32.750  32.513  27.377  1.00  0.00     0.118 C 
BRANCH   2   3
ATOM      3  N   UNL A   1      32.559  33.934  27.632  1.00  0.00    -0.352 N 
ATOM      4  O   UNL A   1      32.664  35.838  28.820  1.00  0.00    -0.269 OA
ATOM      5  C   UNL A   1      33.131  34.725  28.594  1.00  0.00     0.251 C 
ATOM      6  H   UNL A   1      31.930  34.391  27.028  1.00  0.00     0.163 HD
BRANCH   5   7
ATOM      7  C   UNL A   1      34.307  34.239  29.343  1.00  0.00     0.039 A 
ATOM      8  C   UNL A   1      34.139  33.448  30.485  1.00  0.00     0.014 A 
ATOM      9  C   UNL A   1      35.587  34.520  28.857  1.00  0.00     0.014 A 
ATOM     10  C   UNL A   1      35.253  33.005  31.187  1.00  0.00     0.010 A 
ATOM     11  C   UNL A   1      36.704  34.013  29.524  1.00  0.00     0.010 A 
ATOM     12  C   UNL A   1      36.543  33.252  30.692  1.00  0.00    -0.014 A 
BRANCH  12  13
ATOM     13  C   UNL A   1      37.700  32.590  31.338  1.00  0.00     0.031 A 
ATOM     14  C   UNL A   1      38.409  31.446  30.676  1.00  0.00     0.074 A 
ATOM     15  C   UNL A   1      38.096  33.048  32.543  1.00  0.00     0.049 A 
ATOM     16  N   UNL A   1      39.426  30.751  31.112  1.00  0.00    -0.248 NA
ATOM     17  C   UNL A   1      37.907  31.021  29.361  1.00  0.00     0.031 C 
ATOM     18  C   UNL A   1      37.455  34.149  33.273  1.00  0.00     0.029 A 
ATOM     19  N   UNL A   1      39.122  32.664  33.363  1.00  0.00    -0.354 N 
ATOM     20  C   UNL A   1      39.680  29.794  30.137  1.00  0.00     0.074 A 
ATOM     21  C   UNL A   1      38.697  29.988  29.091  1.00  0.00     0.031 C 
ATOM     22  C   UNL A   1      38.120  34.366  34.416  1.00  0.00     0.029 A 
ATOM     23  C   UNL A   1      39.189  33.382  34.534  1.00  0.00     0.049 A 
ATOM     24  H   UNL A   1      39.751  31.941  33.138  1.00  0.00     0.167 HD
ATOM     25  C   UNL A   1      40.646  28.844  30.126  1.00  0.00     0.034 A 
ATOM     26  C   UNL A   1      40.001  33.246  35.600  1.00  0.00     0.034 A 
ATOM     27  C   UNL A   1      41.622  28.681  31.177  1.00  0.00     0.049 A 
ATOM     28  C   UNL A   1      41.044  32.164  35.565  1.00  0.00     0.074 A 
ATOM     29  C   UNL A   1      42.691  27.803  31.232  1.00  0.00     0.029 A 
ATOM     30  N   UNL A   1      41.641  29.400  32.365  1.00  0.00    -0.354 N 
ATOM     31  N   UNL A   1      41.301  31.299  34.610  1.00  0.00    -0.248 NA
ATOM     32  C   UNL A   1      41.903  32.036  36.747  1.00  0.00     0.031 C 
ATOM     33  C   UNL A   1      43.312  27.946  32.478  1.00  0.00     0.029 A 
ATOM     34  C   UNL A   1      42.673  28.956  33.177  1.00  0.00     0.049 A 
ATOM     35  H   UNL A   1      41.011  30.122  32.597  1.00  0.00     0.167 HD
ATOM     36  C   UNL A   1      42.357  30.526  35.078  1.00  0.00     0.074 A 
ATOM     37  C   UNL A   1      42.708  31.050  36.383  1.00  0.00     0.031 C 
ATOM     38  C   UNL A   1      42.981  29.474  34.488  1.00  0.00     0.034 A 
BRANCH  25  39
ATOM     39  C   UNL A   1      40.671  27.876  28.971  1.00  0.00     0.023 A 
ATOM     40  C   UNL A   1      41.596  27.989  27.920  1.00  0.00     0.031 A 
ATOM     41  C   UNL A   1      39.761  26.803  28.938  1.00  0.00     0.131 A 
ATOM     42  C   UNL A   1      41.567  27.067  26.860  1.00  0.00     0.055 A 
ATOM     43  C   UNL A   1      39.774  25.857  27.912  1.00  0.00     0.041 A 
ATOM     44  F   UNL A   1      38.842  26.658  29.907  1.00  0.00    -0.206 F 
ATOM     45  C   UNL A   1      40.677  25.990  26.861  1.00  0.00     0.022 A 
BRANCH  42  46
ATOM     46  S   UNL A   1      42.659  27.335  25.437  1.00  0.00     0.124 S 
ATOM     47  O   UNL A   1      42.552  26.057  24.738  1.00  0.00    -0.237 OA
ATOM     48  O   UNL A   1      42.043  28.480  24.776  1.00  0.00    -0.237 OA
ATOM     49  O   UNL A   1      43.962  27.596  26.048  1.00  0.00    -0.744 OA
ENDBRANCH  42  46
ENDBRANCH  25  39
BRANCH  26  50
ATOM     50  C   UNL A   1      39.823  34.110  36.800  1.00  0.00     0.023 A 
ATOM     51  C   UNL A   1      39.258  33.605  37.982  1.00  0.00     0.031 A 
ATOM     52  C   UNL A   1      40.184  35.470  36.769  1.00  0.00     0.131 A 
ATOM     53  C   UNL A   1      39.029  34.464  39.068  1.00  0.00     0.055 A 
ATOM     54  C   UNL A   1      40.005  36.307  37.871  1.00  0.00     0.041 A 
ATOM     55  F   UNL A   1      40.731  36.002  35.664  1.00  0.00    -0.206 F 
ATOM     56  C   UNL A   1      39.411  35.808  39.025  1.00  0.00     0.022 A 
BRANCH  53  57
ATOM     57  S   UNL A   1      38.134  33.824  40.508  1.00  0.00     0.124 S 
ATOM     58  O   UNL A   1      39.089  32.866  41.053  1.00  0.00    -0.237 OA
ATOM     59  O   UNL A   1      37.921  35.035  41.293  1.00  0.00    -0.237 OA
ATOM     60  O   UNL A   1      36.928  33.240  39.926  1.00  0.00    -0.744 OA
ENDBRANCH  53  57
ENDBRANCH  26  50
BRANCH  38  61
ATOM     61  C   UNL A   1      44.106  28.845  35.264  1.00  0.00     0.023 A 
ATOM     62  C   UNL A   1      43.850  27.978  36.341  1.00  0.00     0.031 A 
ATOM     63  C   UNL A   1      45.442  29.143  34.951  1.00  0.00     0.131 A 
ATOM     64  C   UNL A   1      44.917  27.484  37.105  1.00  0.00     0.055 A 
ATOM     65  C   UNL A   1      46.502  28.604  35.681  1.00  0.00     0.041 A 
ATOM     66  F   UNL A   1      45.738  29.969  33.934  1.00  0.00    -0.206 F 
ATOM     67  C   UNL A   1      46.242  27.779  36.773  1.00  0.00     0.022 A 
BRANCH  64  68
ATOM     68  S   UNL A   1      44.545  26.518  38.594  1.00  0.00     0.124 S 
ATOM     69  O   UNL A   1      44.807  27.485  39.655  1.00  0.00    -0.237 OA
ATOM     70  O   UNL A   1      43.146  26.157  38.392  1.00  0.00    -0.237 OA
ATOM     71  O   UNL A   1      45.488  25.404  38.524  1.00  0.00    -0.744 OA
ENDBRANCH  64  68
ENDBRANCH  38  61
ENDBRANCH  12  13
ENDBRANCH   5   7
ENDBRANCH   2   3
ENDBRANCH   1   2
BRANCH   1  72
ATOM     72  C   UNL A   1      31.719  30.416  26.375  1.00  0.00     0.117 C 
BRANCH  72  73
ATOM     73  N   UNL A   1      33.077  29.971  26.621  1.00  0.00    -0.356 N 
ATOM     74  C   UNL A   1      33.736  28.929  26.035  1.00  0.00     0.224 C 
ATOM     75  H   UNL A   1      33.586  30.480  27.293  1.00  0.00     0.163 HD
ATOM     76  O   UNL A   1      34.784  28.529  26.539  1.00  0.00    -0.275 OA
BRANCH  74  77
ATOM     77  C   UNL A   1      33.220  28.397  24.716  1.00  0.00     0.098 C 
ATOM     78  C   UNL A   1      34.138  28.974  23.625  1.00  0.00     0.017 C 
ATOM     79  C   UNL A   1      33.209  26.865  24.699  1.00  0.00     0.133 C 
ATOM     80  C   UNL A   1      33.827  28.358  22.272  1.00  0.00     0.022 C 
ATOM     81  N   UNL A   1      32.879  26.385  23.344  1.00  0.00    -0.342 N 
ATOM     82  C   UNL A   1      33.841  26.833  22.363  1.00  0.00     0.119 C 
BRANCH  81  83
ATOM     83  C   UNL A   1      31.667  25.765  23.110  1.00  0.00     0.225 C 
ATOM     84  O   UNL A   1      30.671  26.466  22.885  1.00  0.00    -0.275 OA
BRANCH  83  85
ATOM     85  C   UNL A   1      31.455  24.225  23.062  1.00  0.00     0.081 C 
ATOM     86  C   UNL A   1      30.719  23.514  24.185  1.00  0.00     0.030 C 
ATOM     87  C   UNL A   1      32.621  23.390  22.567  1.00  0.00     0.030 C 
ATOM     88  C   UNL A   1      31.550  22.782  25.232  1.00  0.00     0.103 C 
ATOM     89  C   UNL A   1      33.557  22.921  23.658  1.00  0.00     0.103 C 
ATOM     90  N   UNL A   1      32.912  22.275  24.825  1.00  0.00    -0.198 NA
BRANCH  90  91
ATOM     91  S   UNL A   1      33.907  22.135  26.259  1.00  0.00     0.243 S 
ATOM     92  O   UNL A   1      33.668  23.314  27.076  1.00  0.00    -0.207 OA
ATOM     93  O   UNL A   1      33.654  20.823  26.805  1.00  0.00    -0.207 OA
BRANCH  91  94
ATOM     94  C   UNL A   1      35.623  22.226  25.796  1.00  0.00     0.082 A 
ATOM     95  C   UNL A   1      36.266  21.066  25.355  1.00  0.00     0.022 A 
ATOM     96  C   UNL A   1      36.382  23.361  26.113  1.00  0.00     0.022 A 
ATOM     97  C   UNL A   1      37.654  21.059  25.198  1.00  0.00     0.001 A 
ATOM     98  C   UNL A   1      37.762  23.364  25.913  1.00  0.00     0.001 A 
ATOM     99  C   UNL A   1      38.398  22.209  25.462  1.00  0.00     0.000 A 
ENDBRANCH  91  94
ENDBRANCH  90  91
ENDBRANCH  83  85
ENDBRANCH  81  83
ENDBRANCH  74  77
ENDBRANCH  72  73
ENDBRANCH   1  72
TORSDOF 17
ENDMDL
