MODEL 1
REMARK VINA RESULT:     -13.0      0.000      0.000
REMARK SMILES C[C@@H](Oc1ccc2c(c1)OCO2)C(=O)N1CCn2nc(C(=O)NCCCNC(=O)c3ccc(-c4c5nc(c(-c6cc(S(=O)(=O)[O-])ccc6F)c6ccc([nH]6)c(-c6cc(S(=O)(=O)[O-])ccc6F)c6nc(c(-c7cc(S(=O)(=O)[O-])ccc7F)c7ccc4[nH]7)C=C6)C=C5)cc3)cc2C1
REMARK SMILES IDX 24 1 23 2 21 3 22 4 20 6 15 7 16 8 95 9 17 10 94 11 18 12
REMARK SMILES IDX 93 13 19 14 13 15 14 16 2 17 1 18 3 19 4 20 5 21 9 22 6 23
REMARK SMILES IDX 8 24 7 25 10 26 12 27 11 28 25 29 26 30 27 31 28 32 29 34
REMARK SMILES IDX 30 35 31 36 92 37 32 38 91 39 33 40 34 41 35 42 85 43 36 44
REMARK SMILES IDX 90 45 84 46 86 47 37 48 89 49 83 50 82 51 38 53 70 54 50 55
REMARK SMILES IDX 69 56 51 57 54 58 68 59 87 60 52 61 53 62 67 64 88 65 55 66
REMARK SMILES IDX 39 67 40 68 48 69 41 70 47 71 49 72 46 73 42 74 43 75 44 76
REMARK SMILES IDX 45 77 71 78 72 79 80 80 73 81 79 82 81 83 78 84 74 85 75 86
REMARK SMILES IDX 76 87 77 88 56 89 57 90 65 91 58 92 64 93 66 94 63 95 59 96
REMARK SMILES IDX 60 97 61 98 62 99
REMARK H PARENT 23 5 27 33 86 52 54 63
REMARK Flexibility Score: inf
ROOT
ATOM      1  C   UNL A   1      34.749  31.206  27.930  1.00  0.00     0.118 C 
ENDROOT
BRANCH   1   2
ATOM      2  N   UNL A   1      33.476  31.726  27.457  1.00  0.00    -0.351 N 
ATOM      3  C   UNL A   1      32.391  31.090  26.883  1.00  0.00     0.271 C 
ATOM      4  O   UNL A   1      31.382  31.771  26.707  1.00  0.00    -0.267 OA
ATOM      5  H   UNL A   1      33.369  32.698  27.563  1.00  0.00     0.163 HD
BRANCH   3   6
ATOM      6  C   UNL A   1      32.453  29.653  26.539  1.00  0.00     0.150 A 
ATOM      7  N   UNL A   1      32.269  25.162  25.554  1.00  0.00    -0.332 N 
ATOM      8  C   UNL A   1      33.430  25.595  24.759  1.00  0.00     0.143 C 
ATOM      9  C   UNL A   1      31.480  26.116  26.310  1.00  0.00     0.175 C 
ATOM     10  C   UNL A   1      33.593  27.081  24.447  1.00  0.00     0.166 C 
ATOM     11  C   UNL A   1      32.051  27.466  26.330  1.00  0.00     0.059 A 
ATOM     12  N   UNL A   1      32.961  27.906  25.436  1.00  0.00    -0.265 N 
ATOM     13  C   UNL A   1      31.819  28.538  27.152  1.00  0.00     0.061 A 
ATOM     14  N   UNL A   1      33.189  29.222  25.489  1.00  0.00    -0.167 NA
BRANCH   7  15
ATOM     15  C   UNL A   1      31.897  23.831  25.762  1.00  0.00     0.263 C 
ATOM     16  O   UNL A   1      32.046  23.297  26.868  1.00  0.00    -0.271 OA
BRANCH  15  17
ATOM     17  C   UNL A   1      31.367  22.994  24.589  1.00  0.00     0.259 C 
ATOM     18  C   UNL A   1      30.606  23.840  23.575  1.00  0.00     0.064 C 
BRANCH  17  19
ATOM     19  O   UNL A   1      32.516  22.325  24.047  1.00  0.00    -0.481 OA
BRANCH  19  20
ATOM     20  C   UNL A   1      32.410  20.966  24.007  1.00  0.00     0.124 A 
ATOM     21  C   UNL A   1      32.307  20.325  22.761  1.00  0.00     0.050 A 
ATOM     22  C   UNL A   1      32.581  20.230  25.183  1.00  0.00     0.097 A 
ATOM     23  C   UNL A   1      32.319  18.934  22.676  1.00  0.00     0.054 A 
ATOM     24  C   UNL A   1      32.609  18.855  25.066  1.00  0.00     0.169 A 
ATOM     25  C   UNL A   1      32.477  18.228  23.846  1.00  0.00     0.166 A 
ATOM     26  O   UNL A   1      32.792  17.967  26.081  1.00  0.00    -0.453 OA
ATOM     27  O   UNL A   1      32.552  16.874  23.943  1.00  0.00    -0.454 OA
ATOM     28  C   UNL A   1      32.791  16.718  25.355  1.00  0.00     0.468 C 
ENDBRANCH  19  20
ENDBRANCH  17  19
ENDBRANCH  15  17
ENDBRANCH   7  15
ENDBRANCH   3   6
ENDBRANCH   1   2
BRANCH   1  29
ATOM     29  C   UNL A   1      35.845  32.280  27.979  1.00  0.00     0.042 C 
BRANCH  29  30
ATOM     30  C   UNL A   1      37.026  31.854  28.831  1.00  0.00     0.118 C 
BRANCH  30  31
ATOM     31  N   UNL A   1      36.621  31.024  29.971  1.00  0.00    -0.352 N 
ATOM     32  C   UNL A   1      36.987  29.722  30.289  1.00  0.00     0.251 C 
ATOM     33  H   UNL A   1      36.000  31.452  30.604  1.00  0.00     0.163 HD
ATOM     34  O   UNL A   1      36.289  29.058  31.036  1.00  0.00    -0.269 OA
BRANCH  32  35
ATOM     35  C   UNL A   1      38.224  29.167  29.700  1.00  0.00     0.039 A 
ATOM     36  C   UNL A   1      38.681  29.514  28.426  1.00  0.00     0.014 A 
ATOM     37  C   UNL A   1      38.959  28.294  30.489  1.00  0.00     0.014 A 
ATOM     38  C   UNL A   1      39.912  29.005  28.003  1.00  0.00     0.010 A 
ATOM     39  C   UNL A   1      40.270  28.062  30.203  1.00  0.00     0.010 A 
ATOM     40  C   UNL A   1      40.706  28.285  28.913  1.00  0.00    -0.014 A 
BRANCH  40  41
ATOM     41  C   UNL A   1      42.070  27.859  28.629  1.00  0.00     0.031 A 
ATOM     42  C   UNL A   1      42.106  26.594  27.866  1.00  0.00     0.074 A 
ATOM     43  C   UNL A   1      43.157  28.650  28.803  1.00  0.00     0.049 A 
ATOM     44  N   UNL A   1      42.314  25.413  28.342  1.00  0.00    -0.248 NA
ATOM     45  C   UNL A   1      41.597  26.592  26.484  1.00  0.00     0.031 C 
ATOM     46  C   UNL A   1      43.210  30.043  29.271  1.00  0.00     0.029 A 
ATOM     47  N   UNL A   1      44.465  28.401  28.512  1.00  0.00    -0.354 N 
ATOM     48  C   UNL A   1      42.290  24.570  27.242  1.00  0.00     0.074 A 
ATOM     49  C   UNL A   1      41.557  25.280  26.232  1.00  0.00     0.031 C 
ATOM     50  C   UNL A   1      44.436  30.567  29.033  1.00  0.00     0.029 A 
ATOM     51  C   UNL A   1      45.310  29.514  28.546  1.00  0.00     0.049 A 
ATOM     52  H   UNL A   1      44.791  27.498  28.294  1.00  0.00     0.167 HD
ATOM     53  C   UNL A   1      43.166  23.528  27.160  1.00  0.00     0.034 A 
ATOM     54  C   UNL A   1      46.634  29.565  28.209  1.00  0.00     0.034 A 
ATOM     55  C   UNL A   1      43.799  23.304  28.448  1.00  0.00     0.049 A 
ATOM     56  C   UNL A   1      47.137  28.173  28.316  1.00  0.00     0.074 A 
ATOM     57  C   UNL A   1      43.340  23.028  29.722  1.00  0.00     0.029 A 
ATOM     58  N   UNL A   1      45.081  23.786  28.615  1.00  0.00    -0.354 N 
ATOM     59  N   UNL A   1      47.202  27.529  29.448  1.00  0.00    -0.248 NA
ATOM     60  C   UNL A   1      47.071  27.332  27.130  1.00  0.00     0.031 C 
ATOM     61  C   UNL A   1      44.163  23.807  30.591  1.00  0.00     0.029 A 
ATOM     62  C   UNL A   1      45.152  24.431  29.826  1.00  0.00     0.049 A 
ATOM     63  H   UNL A   1      45.821  23.686  27.974  1.00  0.00     0.167 HD
ATOM     64  C   UNL A   1      46.718  26.261  29.163  1.00  0.00     0.074 A 
ATOM     65  C   UNL A   1      46.754  26.165  27.702  1.00  0.00     0.031 C 
ATOM     66  C   UNL A   1      46.055  25.533  30.112  1.00  0.00     0.034 A 
BRANCH  53  67
ATOM     67  C   UNL A   1      43.782  23.012  25.874  1.00  0.00     0.023 A 
ATOM     68  C   UNL A   1      43.770  21.616  25.695  1.00  0.00     0.031 A 
ATOM     69  C   UNL A   1      44.608  23.732  24.980  1.00  0.00     0.131 A 
ATOM     70  C   UNL A   1      44.643  20.993  24.789  1.00  0.00     0.055 A 
ATOM     71  C   UNL A   1      45.430  23.110  24.035  1.00  0.00     0.041 A 
ATOM     72  F   UNL A   1      44.741  25.061  25.009  1.00  0.00    -0.206 F 
ATOM     73  C   UNL A   1      45.481  21.731  23.961  1.00  0.00     0.022 A 
BRANCH  70  74
ATOM     74  S   UNL A   1      44.792  19.193  24.856  1.00  0.00     0.124 S 
ATOM     75  O   UNL A   1      44.417  18.821  23.496  1.00  0.00    -0.237 OA
ATOM     76  O   UNL A   1      46.198  19.023  25.208  1.00  0.00    -0.237 OA
ATOM     77  O   UNL A   1      43.837  18.815  25.895  1.00  0.00    -0.744 OA
ENDBRANCH  70  74
ENDBRANCH  53  67
BRANCH  54  78
ATOM     78  C   UNL A   1      47.394  30.648  27.508  1.00  0.00     0.023 A 
ATOM     79  C   UNL A   1      46.786  31.796  26.935  1.00  0.00     0.031 A 
ATOM     80  C   UNL A   1      48.798  30.690  27.645  1.00  0.00     0.131 A 
ATOM     81  C   UNL A   1      47.576  32.910  26.543  1.00  0.00     0.055 A 
ATOM     82  C   UNL A   1      49.569  31.793  27.265  1.00  0.00     0.041 A 
ATOM     83  F   UNL A   1      49.463  29.688  28.242  1.00  0.00    -0.206 F 
ATOM     84  C   UNL A   1      48.960  32.913  26.722  1.00  0.00     0.022 A 
BRANCH  81  85
ATOM     85  S   UNL A   1      46.811  34.426  25.860  1.00  0.00     0.124 S 
ATOM     86  O   UNL A   1      45.630  33.906  25.183  1.00  0.00    -0.237 OA
ATOM     87  O   UNL A   1      46.577  35.229  27.054  1.00  0.00    -0.237 OA
ATOM     88  O   UNL A   1      47.842  34.958  24.964  1.00  0.00    -0.744 OA
ENDBRANCH  81  85
ENDBRANCH  54  78
BRANCH  66  89
ATOM     89  C   UNL A   1      46.137  26.003  31.555  1.00  0.00     0.023 A 
ATOM     90  C   UNL A   1      45.074  26.566  32.302  1.00  0.00     0.031 A 
ATOM     91  C   UNL A   1      47.350  25.772  32.227  1.00  0.00     0.131 A 
ATOM     92  C   UNL A   1      45.259  26.884  33.666  1.00  0.00     0.055 A 
ATOM     93  C   UNL A   1      47.521  26.064  33.578  1.00  0.00     0.041 A 
ATOM     94  F   UNL A   1      48.391  25.221  31.581  1.00  0.00    -0.206 F 
ATOM     95  C   UNL A   1      46.477  26.628  34.302  1.00  0.00     0.022 A 
BRANCH  92  96
ATOM     96  S   UNL A   1      43.928  27.666  34.639  1.00  0.00     0.124 S 
ATOM     97  O   UNL A   1      42.709  27.147  34.031  1.00  0.00    -0.237 OA
ATOM     98  O   UNL A   1      44.213  27.205  35.996  1.00  0.00    -0.237 OA
ATOM     99  O   UNL A   1      44.149  29.099  34.428  1.00  0.00    -0.744 OA
ENDBRANCH  92  96
ENDBRANCH  66  89
ENDBRANCH  40  41
ENDBRANCH  32  35
ENDBRANCH  30  31
ENDBRANCH  29  30
ENDBRANCH   1  29
TORSDOF 17
ENDMDL
MODEL 2
REMARK VINA RESULT:     -12.7      2.680      7.724
REMARK SMILES C[C@@H](Oc1ccc2c(c1)OCO2)C(=O)N1CCn2nc(C(=O)NCCCNC(=O)c3ccc(-c4c5nc(c(-c6cc(S(=O)(=O)[O-])ccc6F)c6ccc([nH]6)c(-c6cc(S(=O)(=O)[O-])ccc6F)c6nc(c(-c7cc(S(=O)(=O)[O-])ccc7F)c7ccc4[nH]7)C=C6)C=C5)cc3)cc2C1
REMARK SMILES IDX 24 1 23 2 21 3 22 4 20 6 15 7 16 8 95 9 17 10 94 11 18 12
REMARK SMILES IDX 93 13 19 14 13 15 14 16 2 17 1 18 3 19 4 20 5 21 9 22 6 23
REMARK SMILES IDX 8 24 7 25 10 26 12 27 11 28 25 29 26 30 27 31 28 32 29 34
REMARK SMILES IDX 30 35 31 36 92 37 32 38 91 39 33 40 34 41 35 42 85 43 36 44
REMARK SMILES IDX 90 45 84 46 86 47 37 48 89 49 83 50 82 51 38 53 70 54 50 55
REMARK SMILES IDX 69 56 51 57 54 58 68 59 87 60 52 61 53 62 67 64 88 65 55 66
REMARK SMILES IDX 39 67 40 68 48 69 41 70 47 71 49 72 46 73 42 74 43 75 44 76
REMARK SMILES IDX 45 77 71 78 72 79 80 80 73 81 79 82 81 83 78 84 74 85 75 86
REMARK SMILES IDX 76 87 77 88 56 89 57 90 65 91 58 92 64 93 66 94 63 95 59 96
REMARK SMILES IDX 60 97 61 98 62 99
REMARK H PARENT 23 5 27 33 86 52 54 63
REMARK Flexibility Score: inf
ROOT
ATOM      1  C   UNL A   1      32.644  29.991  26.134  1.00  0.00     0.118 C 
ENDROOT
BRANCH   1   2
ATOM      2  N   UNL A   1      31.596  30.141  25.137  1.00  0.00    -0.351 N 
ATOM      3  C   UNL A   1      31.161  29.288  24.140  1.00  0.00     0.271 C 
ATOM      4  O   UNL A   1      30.151  29.626  23.526  1.00  0.00    -0.267 OA
ATOM      5  H   UNL A   1      31.114  30.998  25.179  1.00  0.00     0.163 HD
BRANCH   3   6
ATOM      6  C   UNL A   1      31.872  28.020  23.868  1.00  0.00     0.150 A 
ATOM      7  N   UNL A   1      34.214  24.088  23.386  1.00  0.00    -0.332 N 
ATOM      8  C   UNL A   1      33.178  23.949  22.349  1.00  0.00     0.143 C 
ATOM      9  C   UNL A   1      34.232  25.232  24.278  1.00  0.00     0.175 C 
ATOM     10  C   UNL A   1      31.928  24.819  22.439  1.00  0.00     0.166 C 
ATOM     11  C   UNL A   1      33.254  26.266  23.928  1.00  0.00     0.059 A 
ATOM     12  N   UNL A   1      32.178  26.042  23.144  1.00  0.00    -0.265 N 
ATOM     13  C   UNL A   1      33.160  27.586  24.286  1.00  0.00     0.061 A 
ATOM     14  N   UNL A   1      31.296  27.047  23.126  1.00  0.00    -0.167 NA
BRANCH   7  15
ATOM     15  C   UNL A   1      35.317  23.242  23.532  1.00  0.00     0.263 C 
ATOM     16  O   UNL A   1      36.161  23.141  22.634  1.00  0.00    -0.271 OA
BRANCH  15  17
ATOM     17  C   UNL A   1      35.446  22.366  24.787  1.00  0.00     0.259 C 
ATOM     18  C   UNL A   1      36.205  23.071  25.905  1.00  0.00     0.064 C 
BRANCH  17  19
ATOM     19  O   UNL A   1      34.103  21.996  25.135  1.00  0.00    -0.481 OA
BRANCH  19  20
ATOM     20  C   UNL A   1      33.719  20.771  24.675  1.00  0.00     0.124 A 
ATOM     21  C   UNL A   1      32.585  20.674  23.852  1.00  0.00     0.050 A 
ATOM     22  C   UNL A   1      34.552  19.668  24.885  1.00  0.00     0.097 A 
ATOM     23  C   UNL A   1      32.235  19.459  23.267  1.00  0.00     0.054 A 
ATOM     24  C   UNL A   1      34.191  18.483  24.276  1.00  0.00     0.169 A 
ATOM     25  C   UNL A   1      33.061  18.383  23.494  1.00  0.00     0.166 A 
ATOM     26  O   UNL A   1      34.879  17.310  24.334  1.00  0.00    -0.453 OA
ATOM     27  O   UNL A   1      32.895  17.139  22.972  1.00  0.00    -0.454 OA
ATOM     28  C   UNL A   1      34.071  16.476  23.475  1.00  0.00     0.468 C 
ENDBRANCH  19  20
ENDBRANCH  17  19
ENDBRANCH  15  17
ENDBRANCH   7  15
ENDBRANCH   3   6
ENDBRANCH   1   2
BRANCH   1  29
ATOM     29  C   UNL A   1      32.838  31.257  26.983  1.00  0.00     0.042 C 
BRANCH  29  30
ATOM     30  C   UNL A   1      34.165  31.255  27.717  1.00  0.00     0.118 C 
BRANCH  30  31
ATOM     31  N   UNL A   1      34.112  32.021  28.968  1.00  0.00    -0.352 N 
ATOM     32  C   UNL A   1      34.971  31.987  30.059  1.00  0.00     0.251 C 
ATOM     33  H   UNL A   1      33.359  32.649  29.045  1.00  0.00     0.163 HD
ATOM     34  O   UNL A   1      34.591  32.386  31.147  1.00  0.00    -0.269 OA
BRANCH  32  35
ATOM     35  C   UNL A   1      36.338  31.456  29.873  1.00  0.00     0.039 A 
ATOM     36  C   UNL A   1      37.435  32.267  29.572  1.00  0.00     0.014 A 
ATOM     37  C   UNL A   1      36.511  30.090  30.051  1.00  0.00     0.014 A 
ATOM     38  C   UNL A   1      38.699  31.676  29.511  1.00  0.00     0.010 A 
ATOM     39  C   UNL A   1      37.754  29.590  30.296  1.00  0.00     0.010 A 
ATOM     40  C   UNL A   1      38.846  30.329  29.889  1.00  0.00    -0.014 A 
BRANCH  40  41
ATOM     41  C   UNL A   1      40.137  29.667  30.025  1.00  0.00     0.031 A 
ATOM     42  C   UNL A   1      40.525  29.502  31.442  1.00  0.00     0.074 A 
ATOM     43  C   UNL A   1      40.775  29.045  29.004  1.00  0.00     0.049 A 
ATOM     44  N   UNL A   1      41.340  30.246  32.109  1.00  0.00    -0.248 NA
ATOM     45  C   UNL A   1      39.735  28.588  32.285  1.00  0.00     0.031 C 
ATOM     46  C   UNL A   1      40.332  28.882  27.612  1.00  0.00     0.029 A 
ATOM     47  N   UNL A   1      41.938  28.336  29.015  1.00  0.00    -0.354 N 
ATOM     48  C   UNL A   1      41.408  29.671  33.369  1.00  0.00     0.074 A 
ATOM     49  C   UNL A   1      40.208  28.892  33.497  1.00  0.00     0.031 C 
ATOM     50  C   UNL A   1      41.102  27.962  26.984  1.00  0.00     0.029 A 
ATOM     51  C   UNL A   1      42.192  27.581  27.866  1.00  0.00     0.049 A 
ATOM     52  H   UNL A   1      42.558  28.356  29.780  1.00  0.00     0.167 HD
ATOM     53  C   UNL A   1      42.597  29.618  34.033  1.00  0.00     0.034 A 
ATOM     54  C   UNL A   1      43.226  26.714  27.650  1.00  0.00     0.034 A 
ATOM     55  C   UNL A   1      43.569  30.486  33.390  1.00  0.00     0.049 A 
ATOM     56  C   UNL A   1      44.295  27.108  28.602  1.00  0.00     0.074 A 
ATOM     57  C   UNL A   1      43.616  31.833  33.084  1.00  0.00     0.029 A 
ATOM     58  N   UNL A   1      44.507  29.889  32.574  1.00  0.00    -0.354 N 
ATOM     59  N   UNL A   1      44.919  28.251  28.531  1.00  0.00    -0.248 NA
ATOM     60  C   UNL A   1      44.303  26.480  29.914  1.00  0.00     0.031 C 
ATOM     61  C   UNL A   1      44.208  31.897  31.786  1.00  0.00     0.029 A 
ATOM     62  C   UNL A   1      44.596  30.609  31.408  1.00  0.00     0.049 A 
ATOM     63  H   UNL A   1      45.027  29.081  32.791  1.00  0.00     0.167 HD
ATOM     64  C   UNL A   1      44.981  28.702  29.841  1.00  0.00     0.074 A 
ATOM     65  C   UNL A   1      44.684  27.524  30.658  1.00  0.00     0.031 C 
ATOM     66  C   UNL A   1      44.968  30.040  30.124  1.00  0.00     0.034 A 
BRANCH  53  67
ATOM     67  C   UNL A   1      43.027  28.491  34.952  1.00  0.00     0.023 A 
ATOM     68  C   UNL A   1      43.542  28.873  36.206  1.00  0.00     0.031 A 
ATOM     69  C   UNL A   1      43.235  27.138  34.597  1.00  0.00     0.131 A 
ATOM     70  C   UNL A   1      44.336  27.997  36.962  1.00  0.00     0.055 A 
ATOM     71  C   UNL A   1      43.974  26.249  35.384  1.00  0.00     0.041 A 
ATOM     72  F   UNL A   1      42.816  26.607  33.445  1.00  0.00    -0.206 F 
ATOM     73  C   UNL A   1      44.563  26.686  36.556  1.00  0.00     0.022 A 
BRANCH  70  74
ATOM     74  S   UNL A   1      45.219  28.669  38.389  1.00  0.00     0.124 S 
ATOM     75  O   UNL A   1      44.600  29.983  38.519  1.00  0.00    -0.237 OA
ATOM     76  O   UNL A   1      44.894  27.695  39.426  1.00  0.00    -0.237 OA
ATOM     77  O   UNL A   1      46.613  28.673  37.951  1.00  0.00    -0.744 OA
ENDBRANCH  70  74
ENDBRANCH  53  67
BRANCH  54  78
ATOM     78  C   UNL A   1      43.232  25.404  26.924  1.00  0.00     0.023 A 
ATOM     79  C   UNL A   1      42.368  24.323  27.239  1.00  0.00     0.031 A 
ATOM     80  C   UNL A   1      43.927  25.310  25.699  1.00  0.00     0.131 A 
ATOM     81  C   UNL A   1      42.226  23.229  26.343  1.00  0.00     0.055 A 
ATOM     82  C   UNL A   1      43.777  24.235  24.818  1.00  0.00     0.041 A 
ATOM     83  F   UNL A   1      44.712  26.312  25.273  1.00  0.00    -0.206 F 
ATOM     84  C   UNL A   1      42.917  23.194  25.130  1.00  0.00     0.022 A 
BRANCH  81  85
ATOM     85  S   UNL A   1      41.073  21.853  26.695  1.00  0.00     0.124 S 
ATOM     86  O   UNL A   1      39.827  22.327  26.105  1.00  0.00    -0.237 OA
ATOM     87  O   UNL A   1      41.716  20.723  26.035  1.00  0.00    -0.237 OA
ATOM     88  O   UNL A   1      41.064  21.777  28.158  1.00  0.00    -0.744 OA
ENDBRANCH  81  85
ENDBRANCH  54  78
BRANCH  66  89
ATOM     89  C   UNL A   1      45.200  31.012  28.978  1.00  0.00     0.023 A 
ATOM     90  C   UNL A   1      46.462  31.456  28.515  1.00  0.00     0.031 A 
ATOM     91  C   UNL A   1      44.063  31.428  28.263  1.00  0.00     0.131 A 
ATOM     92  C   UNL A   1      46.543  32.296  27.382  1.00  0.00     0.055 A 
ATOM     93  C   UNL A   1      44.150  32.237  27.132  1.00  0.00     0.041 A 
ATOM     94  F   UNL A   1      42.838  31.025  28.638  1.00  0.00    -0.206 F 
ATOM     95  C   UNL A   1      45.391  32.680  26.691  1.00  0.00     0.022 A 
BRANCH  92  96
ATOM     96  S   UNL A   1      48.150  32.934  26.798  1.00  0.00     0.124 S 
ATOM     97  O   UNL A   1      48.893  31.728  26.454  1.00  0.00    -0.237 OA
ATOM     98  O   UNL A   1      47.764  33.789  25.678  1.00  0.00    -0.237 OA
ATOM     99  O   UNL A   1      48.672  33.658  27.960  1.00  0.00    -0.744 OA
ENDBRANCH  92  96
ENDBRANCH  66  89
ENDBRANCH  40  41
ENDBRANCH  32  35
ENDBRANCH  30  31
ENDBRANCH  29  30
ENDBRANCH   1  29
TORSDOF 17
ENDMDL
MODEL 3
REMARK VINA RESULT:     -12.6      5.973     12.506
REMARK SMILES C[C@@H](Oc1ccc2c(c1)OCO2)C(=O)N1CCn2nc(C(=O)NCCCNC(=O)c3ccc(-c4c5nc(c(-c6cc(S(=O)(=O)[O-])ccc6F)c6ccc([nH]6)c(-c6cc(S(=O)(=O)[O-])ccc6F)c6nc(c(-c7cc(S(=O)(=O)[O-])ccc7F)c7ccc4[nH]7)C=C6)C=C5)cc3)cc2C1
REMARK SMILES IDX 24 1 23 2 21 3 22 4 20 6 15 7 16 8 95 9 17 10 94 11 18 12
REMARK SMILES IDX 93 13 19 14 13 15 14 16 2 17 1 18 3 19 4 20 5 21 9 22 6 23
REMARK SMILES IDX 8 24 7 25 10 26 12 27 11 28 25 29 26 30 27 31 28 32 29 34
REMARK SMILES IDX 30 35 31 36 92 37 32 38 91 39 33 40 34 41 35 42 85 43 36 44
REMARK SMILES IDX 90 45 84 46 86 47 37 48 89 49 83 50 82 51 38 53 70 54 50 55
REMARK SMILES IDX 69 56 51 57 54 58 68 59 87 60 52 61 53 62 67 64 88 65 55 66
REMARK SMILES IDX 39 67 40 68 48 69 41 70 47 71 49 72 46 73 42 74 43 75 44 76
REMARK SMILES IDX 45 77 71 78 72 79 80 80 73 81 79 82 81 83 78 84 74 85 75 86
REMARK SMILES IDX 76 87 77 88 56 89 57 90 65 91 58 92 64 93 66 94 63 95 59 96
REMARK SMILES IDX 60 97 61 98 62 99
REMARK H PARENT 23 5 27 33 86 52 54 63
REMARK Flexibility Score: inf
ROOT
ATOM      1  C   UNL A   1      47.666  33.261  26.622  1.00  0.00     0.118 C 
ENDROOT
BRANCH   1   2
ATOM      2  N   UNL A   1      46.279  33.423  26.221  1.00  0.00    -0.351 N 
ATOM      3  C   UNL A   1      45.240  32.514  26.149  1.00  0.00     0.271 C 
ATOM      4  O   UNL A   1      44.124  32.968  25.904  1.00  0.00    -0.267 OA
ATOM      5  H   UNL A   1      46.037  34.339  25.953  1.00  0.00     0.163 HD
BRANCH   3   6
ATOM      6  C   UNL A   1      45.479  31.075  26.393  1.00  0.00     0.150 A 
ATOM      7  N   UNL A   1      45.865  26.580  27.300  1.00  0.00    -0.332 N 
ATOM      8  C   UNL A   1      46.845  26.752  26.214  1.00  0.00     0.143 C 
ATOM      9  C   UNL A   1      45.035  27.685  27.742  1.00  0.00     0.175 C 
ATOM     10  C   UNL A   1      46.742  27.985  25.321  1.00  0.00     0.166 C 
ATOM     11  C   UNL A   1      45.392  28.969  27.132  1.00  0.00     0.059 A 
ATOM     12  N   UNL A   1      46.113  29.082  25.997  1.00  0.00    -0.265 N 
ATOM     13  C   UNL A   1      45.099  30.258  27.492  1.00  0.00     0.061 A 
ATOM     14  N   UNL A   1      46.143  30.319  25.489  1.00  0.00    -0.167 NA
BRANCH   7  15
ATOM     15  C   UNL A   1      45.727  25.425  28.075  1.00  0.00     0.263 C 
ATOM     16  O   UNL A   1      46.538  25.163  28.971  1.00  0.00    -0.271 OA
BRANCH  15  17
ATOM     17  C   UNL A   1      44.601  24.428  27.765  1.00  0.00     0.259 C 
ATOM     18  C   UNL A   1      43.307  24.775  28.492  1.00  0.00     0.064 C 
BRANCH  17  19
ATOM     19  O   UNL A   1      44.483  24.419  26.333  1.00  0.00    -0.481 OA
BRANCH  19  20
ATOM     20  C   UNL A   1      44.677  23.197  25.760  1.00  0.00     0.124 A 
ATOM     21  C   UNL A   1      45.952  22.867  25.270  1.00  0.00     0.050 A 
ATOM     22  C   UNL A   1      43.662  22.238  25.827  1.00  0.00     0.097 A 
ATOM     23  C   UNL A   1      46.217  21.587  24.789  1.00  0.00     0.054 A 
ATOM     24  C   UNL A   1      43.960  20.973  25.362  1.00  0.00     0.169 A 
ATOM     25  C   UNL A   1      45.201  20.661  24.853  1.00  0.00     0.166 A 
ATOM     26  O   UNL A   1      43.124  19.900  25.366  1.00  0.00    -0.453 OA
ATOM     27  O   UNL A   1      45.297  19.361  24.468  1.00  0.00    -0.454 OA
ATOM     28  C   UNL A   1      43.991  18.875  24.833  1.00  0.00     0.468 C 
ENDBRANCH  19  20
ENDBRANCH  17  19
ENDBRANCH  15  17
ENDBRANCH   7  15
ENDBRANCH   3   6
ENDBRANCH   1   2
BRANCH   1  29
ATOM     29  C   UNL A   1      48.218  34.492  27.357  1.00  0.00     0.042 C 
BRANCH  29  30
ATOM     30  C   UNL A   1      47.293  34.960  28.463  1.00  0.00     0.118 C 
BRANCH  30  31
ATOM     31  N   UNL A   1      46.656  36.245  28.153  1.00  0.00    -0.352 N 
ATOM     32  C   UNL A   1      45.307  36.556  28.037  1.00  0.00     0.251 C 
ATOM     33  H   UNL A   1      47.275  36.996  28.004  1.00  0.00     0.163 HD
ATOM     34  O   UNL A   1      44.960  37.546  27.416  1.00  0.00    -0.269 OA
BRANCH  32  35
ATOM     35  C   UNL A   1      44.314  35.664  28.674  1.00  0.00     0.039 A 
ATOM     36  C   UNL A   1      44.663  34.467  29.305  1.00  0.00     0.014 A 
ATOM     37  C   UNL A   1      42.992  36.084  28.660  1.00  0.00     0.014 A 
ATOM     38  C   UNL A   1      43.659  33.746  29.958  1.00  0.00     0.010 A 
ATOM     39  C   UNL A   1      42.102  35.553  29.544  1.00  0.00     0.010 A 
ATOM     40  C   UNL A   1      42.377  34.311  30.079  1.00  0.00    -0.014 A 
BRANCH  40  41
ATOM     41  C   UNL A   1      41.312  33.725  30.882  1.00  0.00     0.031 A 
ATOM     42  C   UNL A   1      41.675  33.657  32.314  1.00  0.00     0.074 A 
ATOM     43  C   UNL A   1      40.053  33.515  30.427  1.00  0.00     0.049 A 
ATOM     44  N   UNL A   1      42.112  32.624  32.950  1.00  0.00    -0.248 NA
ATOM     45  C   UNL A   1      41.827  34.918  33.061  1.00  0.00     0.031 C 
ATOM     46  C   UNL A   1      39.495  33.830  29.103  1.00  0.00     0.029 A 
ATOM     47  N   UNL A   1      38.960  33.046  31.090  1.00  0.00    -0.354 N 
ATOM     48  C   UNL A   1      42.271  33.045  34.261  1.00  0.00     0.074 A 
ATOM     49  C   UNL A   1      42.384  34.474  34.192  1.00  0.00     0.031 C 
ATOM     50  C   UNL A   1      38.144  33.739  29.135  1.00  0.00     0.029 A 
ATOM     51  C   UNL A   1      37.740  33.206  30.425  1.00  0.00     0.049 A 
ATOM     52  H   UNL A   1      39.025  32.621  31.975  1.00  0.00     0.167 HD
ATOM     53  C   UNL A   1      41.946  32.212  35.290  1.00  0.00     0.034 A 
ATOM     54  C   UNL A   1      36.491  32.913  30.896  1.00  0.00     0.034 A 
ATOM     55  C   UNL A   1      41.765  30.856  34.799  1.00  0.00     0.049 A 
ATOM     56  C   UNL A   1      36.685  31.925  31.986  1.00  0.00     0.074 A 
ATOM     57  C   UNL A   1      42.558  29.958  34.110  1.00  0.00     0.029 A 
ATOM     58  N   UNL A   1      40.470  30.416  34.623  1.00  0.00    -0.354 N 
ATOM     59  N   UNL A   1      37.152  30.725  31.778  1.00  0.00    -0.248 NA
ATOM     60  C   UNL A   1      36.860  32.430  33.339  1.00  0.00     0.031 C 
ATOM     61  C   UNL A   1      41.681  29.334  33.171  1.00  0.00     0.029 A 
ATOM     62  C   UNL A   1      40.382  29.792  33.402  1.00  0.00     0.049 A 
ATOM     63  H   UNL A   1      39.731  30.529  35.264  1.00  0.00     0.167 HD
ATOM     64  C   UNL A   1      38.070  30.521  32.797  1.00  0.00     0.074 A 
ATOM     65  C   UNL A   1      37.770  31.558  33.786  1.00  0.00     0.031 C 
ATOM     66  C   UNL A   1      39.170  29.732  32.602  1.00  0.00     0.034 A 
BRANCH  53  67
ATOM     67  C   UNL A   1      41.361  32.658  36.616  1.00  0.00     0.023 A 
ATOM     68  C   UNL A   1      40.048  32.234  36.891  1.00  0.00     0.031 A 
ATOM     69  C   UNL A   1      41.864  33.669  37.468  1.00  0.00     0.131 A 
ATOM     70  C   UNL A   1      39.259  32.891  37.849  1.00  0.00     0.055 A 
ATOM     71  C   UNL A   1      41.094  34.278  38.465  1.00  0.00     0.041 A 
ATOM     72  F   UNL A   1      43.089  34.190  37.349  1.00  0.00    -0.206 F 
ATOM     73  C   UNL A   1      39.771  33.918  38.634  1.00  0.00     0.022 A 
BRANCH  70  74
ATOM     74  S   UNL A   1      37.495  32.499  37.908  1.00  0.00     0.124 S 
ATOM     75  O   UNL A   1      37.511  31.060  37.671  1.00  0.00    -0.237 OA
ATOM     76  O   UNL A   1      37.140  32.928  39.257  1.00  0.00    -0.237 OA
ATOM     77  O   UNL A   1      36.934  33.306  36.827  1.00  0.00    -0.744 OA
ENDBRANCH  70  74
ENDBRANCH  53  67
BRANCH  54  78
ATOM     78  C   UNL A   1      35.203  33.650  30.691  1.00  0.00     0.023 A 
ATOM     79  C   UNL A   1      34.746  34.693  31.538  1.00  0.00     0.031 A 
ATOM     80  C   UNL A   1      34.526  33.506  29.461  1.00  0.00     0.131 A 
ATOM     81  C   UNL A   1      33.674  35.533  31.134  1.00  0.00     0.055 A 
ATOM     82  C   UNL A   1      33.477  34.341  29.065  1.00  0.00     0.041 A 
ATOM     83  F   UNL A   1      34.927  32.599  28.555  1.00  0.00    -0.206 F 
ATOM     84  C   UNL A   1      33.053  35.366  29.895  1.00  0.00     0.022 A 
BRANCH  81  85
ATOM     85  S   UNL A   1      33.107  36.924  32.179  1.00  0.00     0.124 S 
ATOM     86  O   UNL A   1      31.848  36.423  32.716  1.00  0.00    -0.237 OA
ATOM     87  O   UNL A   1      34.204  37.075  33.128  1.00  0.00    -0.237 OA
ATOM     88  O   UNL A   1      32.968  38.033  31.232  1.00  0.00    -0.744 OA
ENDBRANCH  81  85
ENDBRANCH  54  78
BRANCH  66  89
ATOM     89  C   UNL A   1      39.198  28.842  31.369  1.00  0.00     0.023 A 
ATOM     90  C   UNL A   1      39.797  29.169  30.129  1.00  0.00     0.031 A 
ATOM     91  C   UNL A   1      38.663  27.550  31.511  1.00  0.00     0.131 A 
ATOM     92  C   UNL A   1      39.828  28.216  29.087  1.00  0.00     0.055 A 
ATOM     93  C   UNL A   1      38.718  26.605  30.489  1.00  0.00     0.041 A 
ATOM     94  F   UNL A   1      38.100  27.170  32.670  1.00  0.00    -0.206 F 
ATOM     95  C   UNL A   1      39.295  26.937  29.269  1.00  0.00     0.022 A 
BRANCH  92  96
ATOM     96  S   UNL A   1      40.537  28.628  27.456  1.00  0.00     0.124 S 
ATOM     97  O   UNL A   1      41.710  29.428  27.785  1.00  0.00    -0.237 OA
ATOM     98  O   UNL A   1      40.802  27.310  26.883  1.00  0.00    -0.237 OA
ATOM     99  O   UNL A   1      39.461  29.369  26.794  1.00  0.00    -0.744 OA
ENDBRANCH  92  96
ENDBRANCH  66  89
ENDBRANCH  40  41
ENDBRANCH  32  35
ENDBRANCH  30  31
ENDBRANCH  29  30
ENDBRANCH   1  29
TORSDOF 17
ENDMDL
