MODEL 1
REMARK VINA RESULT:     -11.1      0.000      0.000
REMARK SMILES CCCC[C@@H](C(=O)NCCCNC(=O)c1ccc(-c2c3nc(c(-c4cc(S(=O)(=O)[O-])ccc4F)c4ccc([nH]4)c(-c4cc(S(=O)(=O)[O-])ccc4F)c4nc(c(-c5cc(S(=O)(=O)[O-])ccc5F)c5ccc2[nH]5)C=C4)C=C3)cc1)C1(O)Cc2ccccc2C1
REMARK SMILES IDX 10 1 9 2 8 3 6 4 7 5 5 7 4 8 3 9 2 10 1 11 78 12 80 13 87 14
REMARK SMILES IDX 81 15 86 16 82 17 85 18 83 19 84 20 79 21 11 23 12 24 13 25
REMARK SMILES IDX 14 27 15 28 16 29 77 30 17 31 76 32 18 33 19 34 20 35 70 36
REMARK SMILES IDX 21 37 75 38 69 39 71 40 22 41 74 42 68 43 67 44 23 46 55 47
REMARK SMILES IDX 35 48 54 49 36 50 39 51 53 52 72 53 37 54 38 55 52 57 73 58
REMARK SMILES IDX 40 59 24 60 25 61 33 62 26 63 32 64 34 65 31 66 27 67 28 68
REMARK SMILES IDX 29 69 30 70 56 71 57 72 65 73 58 74 64 75 66 76 63 77 59 78
REMARK SMILES IDX 60 79 61 80 62 81 41 82 42 83 50 84 43 85 49 86 51 87 48 88
REMARK SMILES IDX 44 89 45 90 46 91 47 92
REMARK H PARENT 8 6 79 22 12 26 71 45 39 56
REMARK Flexibility Score: inf
ROOT
ATOM      1  C   UNL A   1      34.935  22.434  24.714  1.00  0.00     0.042 C 
ENDROOT
BRANCH   1   2
ATOM      2  C   UNL A   1      33.460  22.314  25.065  1.00  0.00     0.117 C 
BRANCH   2   3
ATOM      3  N   UNL A   1      33.154  22.945  26.332  1.00  0.00    -0.356 N 
ATOM      4  C   UNL A   1      32.130  23.821  26.513  1.00  0.00     0.226 C 
ATOM      5  O   UNL A   1      31.223  23.422  27.252  1.00  0.00    -0.275 OA
ATOM      6  H   UNL A   1      33.718  22.725  27.107  1.00  0.00     0.163 HD
BRANCH   4   7
ATOM      7  C   UNL A   1      32.046  25.202  25.819  1.00  0.00     0.111 C 
BRANCH   7   8
ATOM      8  C   UNL A   1      31.547  26.450  26.608  1.00  0.00     0.016 C 
BRANCH   8   9
ATOM      9  C   UNL A   1      32.320  27.750  26.839  1.00  0.00     0.001 C 
BRANCH   9  10
ATOM     10  C   UNL A   1      33.720  27.893  26.263  1.00  0.00    -0.003 C 
ATOM     11  C   UNL A   1      34.426  29.134  26.772  1.00  0.00     0.004 C 
ENDBRANCH   9  10
ENDBRANCH   8   9
ENDBRANCH   7   8
BRANCH   7  12
ATOM     12  C   UNL A   1      31.163  25.116  24.456  1.00  0.00     0.084 C 
ATOM     13  C   UNL A   1      32.044  24.931  23.180  1.00  0.00     0.072 C 
ATOM     14  C   UNL A   1      30.302  26.354  24.006  1.00  0.00     0.072 C 
ATOM     15  C   UNL A   1      32.420  26.356  22.940  1.00  0.00    -0.042 A 
ATOM     16  C   UNL A   1      31.345  27.178  23.300  1.00  0.00    -0.042 A 
ATOM     17  C   UNL A   1      33.643  26.890  22.586  1.00  0.00     0.004 A 
ATOM     18  C   UNL A   1      31.411  28.549  23.143  1.00  0.00     0.004 A 
ATOM     19  C   UNL A   1      33.753  28.279  22.524  1.00  0.00     0.000 A 
ATOM     20  C   UNL A   1      32.636  29.100  22.757  1.00  0.00     0.000 A 
BRANCH  12  21
ATOM     21  O   UNL A   1      30.282  23.985  24.583  1.00  0.00    -0.388 OA
ATOM     22  H   UNL A   1      29.641  24.152  25.292  1.00  0.00     0.211 HD
ENDBRANCH  12  21
ENDBRANCH   7  12
ENDBRANCH   4   7
ENDBRANCH   2   3
ENDBRANCH   1   2
BRANCH   1  23
ATOM     23  C   UNL A   1      35.854  22.352  25.920  1.00  0.00     0.118 C 
BRANCH  23  24
ATOM     24  N   UNL A   1      36.822  21.271  25.792  1.00  0.00    -0.352 N 
ATOM     25  C   UNL A   1      38.197  21.295  25.767  1.00  0.00     0.251 C 
ATOM     26  H   UNL A   1      36.426  20.373  25.711  1.00  0.00     0.163 HD
ATOM     27  O   UNL A   1      38.796  20.294  25.384  1.00  0.00    -0.269 OA
BRANCH  25  28
ATOM     28  C   UNL A   1      38.951  22.505  26.172  1.00  0.00     0.039 A 
ATOM     29  C   UNL A   1      40.094  22.356  26.967  1.00  0.00     0.014 A 
ATOM     30  C   UNL A   1      38.520  23.786  25.827  1.00  0.00     0.014 A 
ATOM     31  C   UNL A   1      40.825  23.482  27.358  1.00  0.00     0.010 A 
ATOM     32  C   UNL A   1      39.306  24.895  26.125  1.00  0.00     0.010 A 
ATOM     33  C   UNL A   1      40.458  24.760  26.911  1.00  0.00    -0.014 A 
BRANCH  33  34
ATOM     34  C   UNL A   1      41.236  25.973  27.287  1.00  0.00     0.031 A 
ATOM     35  C   UNL A   1      40.593  27.045  28.130  1.00  0.00     0.074 A 
ATOM     36  C   UNL A   1      42.491  26.137  26.823  1.00  0.00     0.049 A 
ATOM     37  N   UNL A   1      41.060  28.216  28.481  1.00  0.00    -0.248 NA
ATOM     38  C   UNL A   1      39.230  26.777  28.613  1.00  0.00     0.031 C 
ATOM     39  C   UNL A   1      43.208  25.188  25.967  1.00  0.00     0.029 A 
ATOM     40  N   UNL A   1      43.385  27.164  26.995  1.00  0.00    -0.354 N 
ATOM     41  C   UNL A   1      40.044  28.829  29.207  1.00  0.00     0.074 A 
ATOM     42  C   UNL A   1      38.912  27.928  29.185  1.00  0.00     0.031 C 
ATOM     43  C   UNL A   1      44.438  25.661  25.718  1.00  0.00     0.029 A 
ATOM     44  C   UNL A   1      44.584  26.970  26.347  1.00  0.00     0.049 A 
ATOM     45  H   UNL A   1      43.188  27.964  27.534  1.00  0.00     0.167 HD
ATOM     46  C   UNL A   1      40.061  30.020  29.857  1.00  0.00     0.034 A 
ATOM     47  C   UNL A   1      45.671  27.763  26.257  1.00  0.00     0.034 A 
ATOM     48  C   UNL A   1      41.208  30.894  29.889  1.00  0.00     0.049 A 
ATOM     49  C   UNL A   1      45.659  29.094  26.969  1.00  0.00     0.074 A 
ATOM     50  C   UNL A   1      41.354  32.099  30.555  1.00  0.00     0.029 A 
ATOM     51  N   UNL A   1      42.404  30.661  29.224  1.00  0.00    -0.354 N 
ATOM     52  N   UNL A   1      44.702  29.638  27.686  1.00  0.00    -0.248 NA
ATOM     53  C   UNL A   1      46.875  29.910  26.869  1.00  0.00     0.031 C 
ATOM     54  C   UNL A   1      42.611  32.624  30.239  1.00  0.00     0.029 A 
ATOM     55  C   UNL A   1      43.282  31.711  29.442  1.00  0.00     0.049 A 
ATOM     56  H   UNL A   1      42.600  29.866  28.677  1.00  0.00     0.167 HD
ATOM     57  C   UNL A   1      45.219  30.845  28.152  1.00  0.00     0.074 A 
ATOM     58  C   UNL A   1      46.572  30.938  27.647  1.00  0.00     0.031 C 
ATOM     59  C   UNL A   1      44.629  31.790  28.928  1.00  0.00     0.034 A 
BRANCH  46  60
ATOM     60  C   UNL A   1      38.798  30.446  30.567  1.00  0.00     0.023 A 
ATOM     61  C   UNL A   1      37.838  31.263  29.943  1.00  0.00     0.031 A 
ATOM     62  C   UNL A   1      38.556  30.048  31.894  1.00  0.00     0.131 A 
ATOM     63  C   UNL A   1      36.723  31.715  30.666  1.00  0.00     0.055 A 
ATOM     64  C   UNL A   1      37.401  30.431  32.581  1.00  0.00     0.041 A 
ATOM     65  F   UNL A   1      39.444  29.286  32.552  1.00  0.00    -0.206 F 
ATOM     66  C   UNL A   1      36.484  31.282  31.971  1.00  0.00     0.022 A 
BRANCH  63  67
ATOM     67  S   UNL A   1      35.668  32.988  29.922  1.00  0.00     0.124 S 
ATOM     68  O   UNL A   1      34.645  32.176  29.267  1.00  0.00    -0.237 OA
ATOM     69  O   UNL A   1      35.231  33.754  31.083  1.00  0.00    -0.237 OA
ATOM     70  O   UNL A   1      36.570  33.692  29.012  1.00  0.00    -0.744 OA
ENDBRANCH  63  67
ENDBRANCH  46  60
BRANCH  47  71
ATOM     71  C   UNL A   1      46.860  27.339  25.460  1.00  0.00     0.023 A 
ATOM     72  C   UNL A   1      47.068  27.823  24.158  1.00  0.00     0.031 A 
ATOM     73  C   UNL A   1      47.778  26.400  25.966  1.00  0.00     0.131 A 
ATOM     74  C   UNL A   1      48.129  27.326  23.386  1.00  0.00     0.055 A 
ATOM     75  C   UNL A   1      48.868  25.954  25.216  1.00  0.00     0.041 A 
ATOM     76  F   UNL A   1      47.631  25.906  27.205  1.00  0.00    -0.206 F 
ATOM     77  C   UNL A   1      49.039  26.406  23.911  1.00  0.00     0.022 A 
BRANCH  74  78
ATOM     78  S   UNL A   1      48.241  27.822  21.645  1.00  0.00     0.124 S 
ATOM     79  O   UNL A   1      48.446  26.539  20.984  1.00  0.00    -0.237 OA
ATOM     80  O   UNL A   1      46.947  28.459  21.428  1.00  0.00    -0.237 OA
ATOM     81  O   UNL A   1      49.390  28.726  21.623  1.00  0.00    -0.744 OA
ENDBRANCH  74  78
ENDBRANCH  47  71
BRANCH  59  82
ATOM     82  C   UNL A   1      45.471  32.979  29.319  1.00  0.00     0.023 A 
ATOM     83  C   UNL A   1      45.495  34.157  28.552  1.00  0.00     0.031 A 
ATOM     84  C   UNL A   1      46.270  32.928  30.477  1.00  0.00     0.131 A 
ATOM     85  C   UNL A   1      46.344  35.211  28.918  1.00  0.00     0.055 A 
ATOM     86  C   UNL A   1      47.062  34.006  30.871  1.00  0.00     0.041 A 
ATOM     87  F   UNL A   1      46.288  31.827  31.246  1.00  0.00    -0.206 F 
ATOM     88  C   UNL A   1      47.114  35.151  30.083  1.00  0.00     0.022 A 
BRANCH  85  89
ATOM     89  S   UNL A   1      46.502  36.630  27.799  1.00  0.00     0.124 S 
ATOM     90  O   UNL A   1      46.426  37.755  28.724  1.00  0.00    -0.237 OA
ATOM     91  O   UNL A   1      47.805  36.398  27.183  1.00  0.00    -0.237 OA
ATOM     92  O   UNL A   1      45.359  36.487  26.900  1.00  0.00    -0.744 OA
ENDBRANCH  85  89
ENDBRANCH  59  82
ENDBRANCH  33  34
ENDBRANCH  25  28
ENDBRANCH  23  24
ENDBRANCH   1  23
TORSDOF 18
ENDMDL
MODEL 2
REMARK VINA RESULT:     -11.1      5.886     10.932
REMARK SMILES CCCC[C@@H](C(=O)NCCCNC(=O)c1ccc(-c2c3nc(c(-c4cc(S(=O)(=O)[O-])ccc4F)c4ccc([nH]4)c(-c4cc(S(=O)(=O)[O-])ccc4F)c4nc(c(-c5cc(S(=O)(=O)[O-])ccc5F)c5ccc2[nH]5)C=C4)C=C3)cc1)C1(O)Cc2ccccc2C1
REMARK SMILES IDX 10 1 9 2 8 3 6 4 7 5 5 7 4 8 3 9 2 10 1 11 78 12 80 13 87 14
REMARK SMILES IDX 81 15 86 16 82 17 85 18 83 19 84 20 79 21 11 23 12 24 13 25
REMARK SMILES IDX 14 27 15 28 16 29 77 30 17 31 76 32 18 33 19 34 20 35 70 36
REMARK SMILES IDX 21 37 75 38 69 39 71 40 22 41 74 42 68 43 67 44 23 46 55 47
REMARK SMILES IDX 35 48 54 49 36 50 39 51 53 52 72 53 37 54 38 55 52 57 73 58
REMARK SMILES IDX 40 59 24 60 25 61 33 62 26 63 32 64 34 65 31 66 27 67 28 68
REMARK SMILES IDX 29 69 30 70 56 71 57 72 65 73 58 74 64 75 66 76 63 77 59 78
REMARK SMILES IDX 60 79 61 80 62 81 41 82 42 83 50 84 43 85 49 86 51 87 48 88
REMARK SMILES IDX 44 89 45 90 46 91 47 92
REMARK H PARENT 8 6 79 22 12 26 71 45 39 56
REMARK Flexibility Score: inf
ROOT
ATOM      1  C   UNL A   1      31.511  32.321  26.973  1.00  0.00     0.042 C 
ENDROOT
BRANCH   1   2
ATOM      2  C   UNL A   1      31.656  30.934  26.367  1.00  0.00     0.117 C 
BRANCH   2   3
ATOM      3  N   UNL A   1      32.552  30.098  27.138  1.00  0.00    -0.356 N 
ATOM      4  C   UNL A   1      33.445  29.235  26.586  1.00  0.00     0.226 C 
ATOM      5  O   UNL A   1      34.633  29.524  26.765  1.00  0.00    -0.275 OA
ATOM      6  H   UNL A   1      32.514  30.161  28.120  1.00  0.00     0.163 HD
BRANCH   4   7
ATOM      7  C   UNL A   1      33.041  28.002  25.742  1.00  0.00     0.111 C 
BRANCH   7   8
ATOM      8  C   UNL A   1      33.889  26.695  25.803  1.00  0.00     0.016 C 
BRANCH   8   9
ATOM      9  C   UNL A   1      33.372  25.288  26.108  1.00  0.00     0.001 C 
BRANCH   9  10
ATOM     10  C   UNL A   1      31.928  25.107  26.548  1.00  0.00    -0.003 C 
ATOM     11  C   UNL A   1      31.521  23.648  26.597  1.00  0.00     0.004 C 
ENDBRANCH   9  10
ENDBRANCH   8   9
ENDBRANCH   7   8
BRANCH   7  12
ATOM     12  C   UNL A   1      32.886  28.396  24.172  1.00  0.00     0.084 C 
ATOM     13  C   UNL A   1      31.397  28.610  23.752  1.00  0.00     0.072 C 
ATOM     14  C   UNL A   1      33.328  27.370  23.064  1.00  0.00     0.072 C 
ATOM     15  C   UNL A   1      31.008  27.188  23.514  1.00  0.00    -0.042 A 
ATOM     16  C   UNL A   1      32.105  26.497  22.985  1.00  0.00    -0.042 A 
ATOM     17  C   UNL A   1      29.850  26.527  23.873  1.00  0.00     0.004 A 
ATOM     18  C   UNL A   1      32.008  25.164  22.636  1.00  0.00     0.004 A 
ATOM     19  C   UNL A   1      29.778  25.157  23.621  1.00  0.00     0.000 A 
ATOM     20  C   UNL A   1      30.830  24.490  22.967  1.00  0.00     0.000 A 
BRANCH  12  21
ATOM     21  O   UNL A   1      33.611  29.621  23.960  1.00  0.00    -0.388 OA
ATOM     22  H   UNL A   1      33.095  30.366  24.306  1.00  0.00     0.211 HD
ENDBRANCH  12  21
ENDBRANCH   7  12
ENDBRANCH   4   7
ENDBRANCH   2   3
ENDBRANCH   1   2
BRANCH   1  23
ATOM     23  C   UNL A   1      32.838  33.015  27.224  1.00  0.00     0.118 C 
BRANCH  23  24
ATOM     24  N   UNL A   1      32.659  34.328  27.829  1.00  0.00    -0.352 N 
ATOM     25  C   UNL A   1      33.200  34.871  28.970  1.00  0.00     0.251 C 
ATOM     26  H   UNL A   1      32.049  34.925  27.338  1.00  0.00     0.163 HD
ATOM     27  O   UNL A   1      32.701  35.896  29.427  1.00  0.00    -0.269 OA
BRANCH  25  28
ATOM     28  C   UNL A   1      34.350  34.234  29.654  1.00  0.00     0.039 A 
ATOM     29  C   UNL A   1      35.649  34.589  29.269  1.00  0.00     0.014 A 
ATOM     30  C   UNL A   1      34.169  33.255  30.631  1.00  0.00     0.014 A 
ATOM     31  C   UNL A   1      36.750  34.004  29.903  1.00  0.00     0.010 A 
ATOM     32  C   UNL A   1      35.261  32.754  31.335  1.00  0.00     0.010 A 
ATOM     33  C   UNL A   1      36.566  33.108  30.967  1.00  0.00    -0.014 A 
BRANCH  33  34
ATOM     34  C   UNL A   1      37.720  32.495  31.681  1.00  0.00     0.031 A 
ATOM     35  C   UNL A   1      38.477  31.357  31.044  1.00  0.00     0.074 A 
ATOM     36  C   UNL A   1      38.046  32.917  32.919  1.00  0.00     0.049 A 
ATOM     37  N   UNL A   1      39.442  30.623  31.537  1.00  0.00    -0.248 NA
ATOM     38  C   UNL A   1      38.071  30.972  29.683  1.00  0.00     0.031 C 
ATOM     39  C   UNL A   1      37.364  33.984  33.656  1.00  0.00     0.029 A 
ATOM     40  N   UNL A   1      39.027  32.497  33.782  1.00  0.00    -0.354 N 
ATOM     41  C   UNL A   1      39.743  29.682  30.558  1.00  0.00     0.074 A 
ATOM     42  C   UNL A   1      38.810  29.895  29.472  1.00  0.00     0.031 C 
ATOM     43  C   UNL A   1      37.966  34.154  34.843  1.00  0.00     0.029 A 
ATOM     44  C   UNL A   1      39.042  33.177  34.979  1.00  0.00     0.049 A 
ATOM     45  H   UNL A   1      39.662  31.776  33.565  1.00  0.00     0.167 HD
ATOM     46  C   UNL A   1      40.724  28.745  30.550  1.00  0.00     0.034 A 
ATOM     47  C   UNL A   1      39.823  33.021  36.067  1.00  0.00     0.034 A 
ATOM     48  C   UNL A   1      41.661  28.563  31.632  1.00  0.00     0.049 A 
ATOM     49  C   UNL A   1      40.893  31.957  36.045  1.00  0.00     0.074 A 
ATOM     50  C   UNL A   1      42.724  27.680  31.711  1.00  0.00     0.029 A 
ATOM     51  N   UNL A   1      41.646  29.274  32.825  1.00  0.00    -0.354 N 
ATOM     52  N   UNL A   1      41.189  31.103  35.092  1.00  0.00    -0.248 NA
ATOM     53  C   UNL A   1      41.739  31.843  37.240  1.00  0.00     0.031 C 
ATOM     54  C   UNL A   1      43.308  27.811  32.975  1.00  0.00     0.029 A 
ATOM     55  C   UNL A   1      42.663  28.831  33.656  1.00  0.00     0.049 A 
ATOM     56  H   UNL A   1      41.007  29.988  33.048  1.00  0.00     0.167 HD
ATOM     57  C   UNL A   1      42.281  30.376  35.561  1.00  0.00     0.074 A 
ATOM     58  C   UNL A   1      42.597  30.903  36.872  1.00  0.00     0.031 C 
ATOM     59  C   UNL A   1      42.963  29.367  34.962  1.00  0.00     0.034 A 
BRANCH  46  60
ATOM     60  C   UNL A   1      40.817  27.840  29.345  1.00  0.00     0.023 A 
ATOM     61  C   UNL A   1      41.786  28.039  28.344  1.00  0.00     0.031 A 
ATOM     62  C   UNL A   1      39.915  26.773  29.180  1.00  0.00     0.131 A 
ATOM     63  C   UNL A   1      41.783  27.235  27.194  1.00  0.00     0.055 A 
ATOM     64  C   UNL A   1      39.972  25.924  28.073  1.00  0.00     0.041 A 
ATOM     65  F   UNL A   1      38.955  26.545  30.090  1.00  0.00    -0.206 F 
ATOM     66  C   UNL A   1      40.900  26.161  27.064  1.00  0.00     0.022 A 
BRANCH  63  67
ATOM     67  S   UNL A   1      42.854  27.704  25.808  1.00  0.00     0.124 S 
ATOM     68  O   UNL A   1      42.669  29.153  25.769  1.00  0.00    -0.237 OA
ATOM     69  O   UNL A   1      44.164  27.239  26.250  1.00  0.00    -0.237 OA
ATOM     70  O   UNL A   1      42.284  26.980  24.674  1.00  0.00    -0.744 OA
ENDBRANCH  63  67
ENDBRANCH  46  60
BRANCH  47  71
ATOM     71  C   UNL A   1      39.627  33.876  37.274  1.00  0.00     0.023 A 
ATOM     72  C   UNL A   1      38.953  33.387  38.406  1.00  0.00     0.031 A 
ATOM     73  C   UNL A   1      40.060  35.214  37.296  1.00  0.00     0.131 A 
ATOM     74  C   UNL A   1      38.682  34.242  39.484  1.00  0.00     0.055 A 
ATOM     75  C   UNL A   1      39.842  36.044  38.397  1.00  0.00     0.041 A 
ATOM     76  F   UNL A   1      40.713  35.734  36.244  1.00  0.00    -0.206 F 
ATOM     77  C   UNL A   1      39.134  35.563  39.495  1.00  0.00     0.022 A 
BRANCH  74  78
ATOM     78  S   UNL A   1      37.634  33.630  40.833  1.00  0.00     0.124 S 
ATOM     79  O   UNL A   1      36.571  32.956  40.099  1.00  0.00    -0.237 OA
ATOM     80  O   UNL A   1      38.557  32.770  41.566  1.00  0.00    -0.237 OA
ATOM     81  O   UNL A   1      37.234  34.850  41.532  1.00  0.00    -0.744 OA
ENDBRANCH  74  78
ENDBRANCH  47  71
BRANCH  59  82
ATOM     82  C   UNL A   1      44.152  28.807  35.705  1.00  0.00     0.023 A 
ATOM     83  C   UNL A   1      44.028  27.731  36.601  1.00  0.00     0.031 A 
ATOM     84  C   UNL A   1      45.428  29.367  35.516  1.00  0.00     0.131 A 
ATOM     85  C   UNL A   1      45.148  27.288  37.319  1.00  0.00     0.055 A 
ATOM     86  C   UNL A   1      46.551  28.879  36.185  1.00  0.00     0.041 A 
ATOM     87  F   UNL A   1      45.604  30.398  34.674  1.00  0.00    -0.206 F 
ATOM     88  C   UNL A   1      46.413  27.843  37.103  1.00  0.00     0.022 A 
BRANCH  85  89
ATOM     89  S   UNL A   1      44.915  26.038  38.612  1.00  0.00     0.124 S 
ATOM     90  O   UNL A   1      44.184  26.786  39.629  1.00  0.00    -0.237 OA
ATOM     91  O   UNL A   1      44.157  25.004  37.913  1.00  0.00    -0.237 OA
ATOM     92  O   UNL A   1      46.280  25.664  38.978  1.00  0.00    -0.744 OA
ENDBRANCH  85  89
ENDBRANCH  59  82
ENDBRANCH  33  34
ENDBRANCH  25  28
ENDBRANCH  23  24
ENDBRANCH   1  23
TORSDOF 18
ENDMDL
MODEL 3
REMARK VINA RESULT:     -11.1      1.103      7.762
REMARK SMILES CCCC[C@@H](C(=O)NCCCNC(=O)c1ccc(-c2c3nc(c(-c4cc(S(=O)(=O)[O-])ccc4F)c4ccc([nH]4)c(-c4cc(S(=O)(=O)[O-])ccc4F)c4nc(c(-c5cc(S(=O)(=O)[O-])ccc5F)c5ccc2[nH]5)C=C4)C=C3)cc1)C1(O)Cc2ccccc2C1
REMARK SMILES IDX 10 1 9 2 8 3 6 4 7 5 5 7 4 8 3 9 2 10 1 11 78 12 80 13 87 14
REMARK SMILES IDX 81 15 86 16 82 17 85 18 83 19 84 20 79 21 11 23 12 24 13 25
REMARK SMILES IDX 14 27 15 28 16 29 77 30 17 31 76 32 18 33 19 34 20 35 70 36
REMARK SMILES IDX 21 37 75 38 69 39 71 40 22 41 74 42 68 43 67 44 23 46 55 47
REMARK SMILES IDX 35 48 54 49 36 50 39 51 53 52 72 53 37 54 38 55 52 57 73 58
REMARK SMILES IDX 40 59 24 60 25 61 33 62 26 63 32 64 34 65 31 66 27 67 28 68
REMARK SMILES IDX 29 69 30 70 56 71 57 72 65 73 58 74 64 75 66 76 63 77 59 78
REMARK SMILES IDX 60 79 61 80 62 81 41 82 42 83 50 84 43 85 49 86 51 87 48 88
REMARK SMILES IDX 44 89 45 90 46 91 47 92
REMARK H PARENT 8 6 79 22 12 26 71 45 39 56
REMARK Flexibility Score: inf
ROOT
ATOM      1  C   UNL A   1      35.913  21.632  25.489  1.00  0.00     0.042 C 
ENDROOT
BRANCH   1   2
ATOM      2  C   UNL A   1      34.657  21.972  24.702  1.00  0.00     0.117 C 
BRANCH   2   3
ATOM      3  N   UNL A   1      33.487  22.036  25.553  1.00  0.00    -0.356 N 
ATOM      4  C   UNL A   1      32.312  22.611  25.183  1.00  0.00     0.226 C 
ATOM      5  O   UNL A   1      31.361  21.831  25.065  1.00  0.00    -0.275 OA
ATOM      6  H   UNL A   1      33.546  21.639  26.452  1.00  0.00     0.163 HD
BRANCH   4   7
ATOM      7  C   UNL A   1      32.153  24.118  24.870  1.00  0.00     0.111 C 
BRANCH   7   8
ATOM      8  C   UNL A   1      33.387  24.965  24.432  1.00  0.00     0.016 C 
BRANCH   8   9
ATOM      9  C   UNL A   1      33.660  25.519  23.033  1.00  0.00     0.001 C 
BRANCH   9  10
ATOM     10  C   UNL A   1      32.493  25.978  22.175  1.00  0.00    -0.003 C 
ATOM     11  C   UNL A   1      32.659  25.588  20.720  1.00  0.00     0.004 C 
ENDBRANCH   9  10
ENDBRANCH   8   9
ENDBRANCH   7   8
BRANCH   7  12
ATOM     12  C   UNL A   1      31.455  24.902  26.112  1.00  0.00     0.084 C 
ATOM     13  C   UNL A   1      29.929  25.144  25.888  1.00  0.00     0.072 C 
ATOM     14  C   UNL A   1      31.907  26.368  26.462  1.00  0.00     0.072 C 
ATOM     15  C   UNL A   1      30.002  26.377  25.050  1.00  0.00    -0.042 A 
ATOM     16  C   UNL A   1      31.083  27.156  25.479  1.00  0.00    -0.042 A 
ATOM     17  C   UNL A   1      29.283  26.709  23.919  1.00  0.00     0.004 A 
ATOM     18  C   UNL A   1      31.360  28.377  24.895  1.00  0.00     0.004 A 
ATOM     19  C   UNL A   1      29.620  27.890  23.258  1.00  0.00     0.000 A 
ATOM     20  C   UNL A   1      30.619  28.739  23.766  1.00  0.00     0.000 A 
BRANCH  12  21
ATOM     21  O   UNL A   1      31.632  24.090  27.288  1.00  0.00    -0.388 OA
ATOM     22  H   UNL A   1      32.166  23.311  27.066  1.00  0.00     0.211 HD
ENDBRANCH  12  21
ENDBRANCH   7  12
ENDBRANCH   4   7
ENDBRANCH   2   3
ENDBRANCH   1   2
BRANCH   1  23
ATOM     23  C   UNL A   1      37.128  21.380  24.615  1.00  0.00     0.118 C 
BRANCH  23  24
ATOM     24  N   UNL A   1      38.020  20.387  25.197  1.00  0.00    -0.352 N 
ATOM     25  C   UNL A   1      39.265  20.523  25.765  1.00  0.00     0.251 C 
ATOM     26  H   UNL A   1      37.674  19.466  25.181  1.00  0.00     0.163 HD
ATOM     27  O   UNL A   1      39.942  19.515  25.946  1.00  0.00    -0.269 OA
BRANCH  25  28
ATOM     28  C   UNL A   1      39.799  21.855  26.138  1.00  0.00     0.039 A 
ATOM     29  C   UNL A   1      41.166  21.985  26.409  1.00  0.00     0.014 A 
ATOM     30  C   UNL A   1      38.964  22.964  26.277  1.00  0.00     0.014 A 
ATOM     31  C   UNL A   1      41.693  23.232  26.759  1.00  0.00     0.010 A 
ATOM     32  C   UNL A   1      39.505  24.224  26.519  1.00  0.00     0.010 A 
ATOM     33  C   UNL A   1      40.873  24.371  26.782  1.00  0.00    -0.014 A 
BRANCH  33  34
ATOM     34  C   UNL A   1      41.414  25.716  27.121  1.00  0.00     0.031 A 
ATOM     35  C   UNL A   1      42.777  26.126  26.622  1.00  0.00     0.074 A 
ATOM     36  C   UNL A   1      40.710  26.542  27.923  1.00  0.00     0.049 A 
ATOM     37  N   UNL A   1      43.467  27.205  26.885  1.00  0.00    -0.248 NA
ATOM     38  C   UNL A   1      43.468  25.176  25.735  1.00  0.00     0.031 C 
ATOM     39  C   UNL A   1      39.397  26.243  28.500  1.00  0.00     0.029 A 
ATOM     40  N   UNL A   1      41.002  27.795  28.400  1.00  0.00    -0.354 N 
ATOM     41  C   UNL A   1      44.678  27.056  26.214  1.00  0.00     0.074 A 
ATOM     42  C   UNL A   1      44.651  25.750  25.590  1.00  0.00     0.031 C 
ATOM     43  C   UNL A   1      38.985  27.295  29.225  1.00  0.00     0.029 A 
ATOM     44  C   UNL A   1      40.023  28.321  29.211  1.00  0.00     0.049 A 
ATOM     45  H   UNL A   1      41.834  28.274  28.181  1.00  0.00     0.167 HD
ATOM     46  C   UNL A   1      45.704  27.936  26.103  1.00  0.00     0.034 A 
ATOM     47  C   UNL A   1      39.973  29.491  29.881  1.00  0.00     0.034 A 
ATOM     48  C   UNL A   1      45.702  29.244  26.712  1.00  0.00     0.049 A 
ATOM     49  C   UNL A   1      41.136  30.445  29.761  1.00  0.00     0.074 A 
ATOM     50  C   UNL A   1      46.663  30.235  26.626  1.00  0.00     0.029 A 
ATOM     51  N   UNL A   1      44.690  29.742  27.523  1.00  0.00    -0.354 N 
ATOM     52  N   UNL A   1      42.255  30.303  29.088  1.00  0.00    -0.248 NA
ATOM     53  C   UNL A   1      41.025  31.719  30.483  1.00  0.00     0.031 C 
ATOM     54  C   UNL A   1      46.265  31.303  27.437  1.00  0.00     0.029 A 
ATOM     55  C   UNL A   1      45.017  31.014  27.965  1.00  0.00     0.049 A 
ATOM     56  H   UNL A   1      43.862  29.262  27.750  1.00  0.00     0.167 HD
ATOM     57  C   UNL A   1      42.963  31.487  29.276  1.00  0.00     0.074 A 
ATOM     58  C   UNL A   1      42.138  32.334  30.112  1.00  0.00     0.031 C 
ATOM     59  C   UNL A   1      44.183  31.845  28.801  1.00  0.00     0.034 A 
BRANCH  46  60
ATOM     60  C   UNL A   1      46.914  27.503  25.310  1.00  0.00     0.023 A 
ATOM     61  C   UNL A   1      47.122  27.931  23.987  1.00  0.00     0.031 A 
ATOM     62  C   UNL A   1      47.865  26.634  25.875  1.00  0.00     0.131 A 
ATOM     63  C   UNL A   1      48.209  27.434  23.251  1.00  0.00     0.055 A 
ATOM     64  C   UNL A   1      48.991  26.210  25.166  1.00  0.00     0.041 A 
ATOM     65  F   UNL A   1      47.711  26.174  27.127  1.00  0.00    -0.206 F 
ATOM     66  C   UNL A   1      49.160  26.598  23.840  1.00  0.00     0.022 A 
BRANCH  63  67
ATOM     67  S   UNL A   1      48.282  27.782  21.473  1.00  0.00     0.124 S 
ATOM     68  O   UNL A   1      46.926  28.261  21.211  1.00  0.00    -0.237 OA
ATOM     69  O   UNL A   1      49.341  28.781  21.389  1.00  0.00    -0.237 OA
ATOM     70  O   UNL A   1      48.599  26.483  20.882  1.00  0.00    -0.744 OA
ENDBRANCH  63  67
ENDBRANCH  46  60
BRANCH  47  71
ATOM     71  C   UNL A   1      38.795  29.832  30.732  1.00  0.00     0.023 A 
ATOM     72  C   UNL A   1      37.768  30.659  30.248  1.00  0.00     0.031 A 
ATOM     73  C   UNL A   1      38.703  29.381  32.061  1.00  0.00     0.131 A 
ATOM     74  C   UNL A   1      36.728  31.057  31.100  1.00  0.00     0.055 A 
ATOM     75  C   UNL A   1      37.633  29.730  32.888  1.00  0.00     0.041 A 
ATOM     76  F   UNL A   1      39.653  28.585  32.576  1.00  0.00    -0.206 F 
ATOM     77  C   UNL A   1      36.645  30.587  32.412  1.00  0.00     0.022 A 
BRANCH  74  78
ATOM     78  S   UNL A   1      35.537  32.286  30.499  1.00  0.00     0.124 S 
ATOM     79  O   UNL A   1      34.541  32.278  31.563  1.00  0.00    -0.237 OA
ATOM     80  O   UNL A   1      36.363  33.484  30.399  1.00  0.00    -0.237 OA
ATOM     81  O   UNL A   1      35.090  31.731  29.222  1.00  0.00    -0.744 OA
ENDBRANCH  74  78
ENDBRANCH  47  71
BRANCH  59  82
ATOM     82  C   UNL A   1      44.669  33.234  29.134  1.00  0.00     0.023 A 
ATOM     83  C   UNL A   1      44.346  34.345  28.335  1.00  0.00     0.031 A 
ATOM     84  C   UNL A   1      45.477  33.446  30.265  1.00  0.00     0.131 A 
ATOM     85  C   UNL A   1      44.875  35.606  28.646  1.00  0.00     0.055 A 
ATOM     86  C   UNL A   1      45.947  34.714  30.606  1.00  0.00     0.041 A 
ATOM     87  F   UNL A   1      45.820  32.421  31.062  1.00  0.00    -0.206 F 
ATOM     88  C   UNL A   1      45.659  35.801  29.786  1.00  0.00     0.022 A 
BRANCH  85  89
ATOM     89  S   UNL A   1      44.605  36.973  27.486  1.00  0.00     0.124 S 
ATOM     90  O   UNL A   1      44.514  38.119  28.384  1.00  0.00    -0.237 OA
ATOM     91  O   UNL A   1      45.800  36.913  26.649  1.00  0.00    -0.237 OA
ATOM     92  O   UNL A   1      43.359  36.611  26.812  1.00  0.00    -0.744 OA
ENDBRANCH  85  89
ENDBRANCH  59  82
ENDBRANCH  33  34
ENDBRANCH  25  28
ENDBRANCH  23  24
ENDBRANCH   1  23
TORSDOF 18
ENDMDL
