MODEL 1
REMARK VINA RESULT:     -11.9      0.000      0.000
REMARK SMILES NC(=O)C[C@H](NC(=O)C1(c2ccccc2)CCN(C(=O)[C@@H]2CCC[NH2+]2)CC1)C(=O)NCCCNC(=O)c1ccc(-c2c3nc(c(-c4cc(S(=O)(=O)[O-])ccc4F)c4ccc([nH]4)c(-c4cc(S(=O)(=O)[O-])ccc4F)c4nc(c(-c5cc(S(=O)(=O)[O-])ccc5F)c5ccc2[nH]5)C=C4)C=C3)cc1
REMARK SMILES IDX 32 1 31 2 30 3 28 4 29 5 5 7 4 8 2 9 1 10 3 13 6 14 7 15
REMARK SMILES IDX 8 17 9 18 16 19 27 20 17 21 26 22 18 23 19 24 20 25 10 26
REMARK SMILES IDX 11 27 15 28 12 29 14 30 13 31 21 32 22 33 25 34 23 35 24 36
REMARK SMILES IDX 33 39 34 40 35 41 36 43 37 44 38 45 99 46 39 47 98 48 40 49
REMARK SMILES IDX 41 50 42 51 92 52 43 53 97 54 91 55 93 56 44 57 96 58 90 59
REMARK SMILES IDX 89 60 45 62 77 63 57 64 76 65 58 66 61 67 75 68 94 69 59 70
REMARK SMILES IDX 60 71 74 73 95 74 62 75 46 76 47 77 55 78 48 79 54 80 56 81
REMARK SMILES IDX 53 82 49 83 50 84 51 85 52 86 78 87 79 88 87 89 80 90 86 91
REMARK SMILES IDX 88 92 85 93 81 94 82 95 83 96 84 97 63 98 64 99 72 100
REMARK SMILES IDX 65 101 71 102 73 103 70 104 66 105 67 106 68 107 69 108
REMARK H PARENT 30 6 1 11 1 12 6 16 25 37 25 38 34 42 93 61 61 72
REMARK Flexibility Score: inf
ROOT
ATOM      1  C   UNL A   1      32.828  28.382  25.954  1.00  0.00     0.042 C 
ENDROOT
BRANCH   1   2
ATOM      2  C   UNL A   1      32.862  26.871  26.060  1.00  0.00     0.117 C 
BRANCH   2   3
ATOM      3  N   UNL A   1      33.729  26.232  25.091  1.00  0.00    -0.354 N 
ATOM      4  C   UNL A   1      33.441  25.342  24.106  1.00  0.00     0.243 C 
ATOM      5  O   UNL A   1      34.225  25.282  23.152  1.00  0.00    -0.273 OA
ATOM      6  H   UNL A   1      34.678  26.484  25.157  1.00  0.00     0.163 HD
BRANCH   4   7
ATOM      7  C   UNL A   1      32.150  24.497  24.087  1.00  0.00     0.180 C 
BRANCH   7   8
ATOM      8  C   UNL A   1      30.893  25.302  23.751  1.00  0.00     0.134 C 
BRANCH   8   9
ATOM      9  C   UNL A   1      31.005  26.218  22.564  1.00  0.00     0.220 C 
ATOM     10  N   UNL A   1      31.629  25.704  21.469  1.00  0.00    -0.370 N 
ATOM     11  H   UNL A   1      31.734  26.254  20.658  1.00  0.00     0.159 HD
ATOM     12  H   UNL A   1      31.976  24.783  21.486  1.00  0.00     0.159 HD
ATOM     13  O   UNL A   1      30.549  27.355  22.555  1.00  0.00    -0.275 OA
ENDBRANCH   8   9
ENDBRANCH   7   8
BRANCH   7  14
ATOM     14  N   UNL A   1      32.003  23.568  25.208  1.00  0.00    -0.343 N 
ATOM     15  C   UNL A   1      32.731  22.514  25.657  1.00  0.00     0.231 C 
ATOM     16  H   UNL A   1      31.205  23.748  25.756  1.00  0.00     0.164 HD
ATOM     17  O   UNL A   1      32.387  22.121  26.781  1.00  0.00    -0.274 OA
BRANCH  15  18
ATOM     18  C   UNL A   1      33.889  21.791  24.885  1.00  0.00     0.077 C 
ATOM     19  C   UNL A   1      33.560  21.490  23.394  1.00  0.00     0.043 C 
ATOM     20  C   UNL A   1      34.052  20.371  25.557  1.00  0.00     0.043 C 
ATOM     21  C   UNL A   1      32.350  20.570  23.233  1.00  0.00     0.121 C 
ATOM     22  C   UNL A   1      32.865  19.434  25.322  1.00  0.00     0.121 C 
ATOM     23  N   UNL A   1      32.599  19.298  23.898  1.00  0.00    -0.337 N 
ATOM     24  C   UNL A   1      32.583  18.134  23.142  1.00  0.00     0.280 C 
ATOM     25  O   UNL A   1      32.324  18.175  21.932  1.00  0.00    -0.268 OA
BRANCH  18  26
ATOM     26  C   UNL A   1      35.204  22.604  25.058  1.00  0.00    -0.032 A 
ATOM     27  C   UNL A   1      36.201  22.624  24.062  1.00  0.00     0.005 A 
ATOM     28  C   UNL A   1      35.488  23.318  26.235  1.00  0.00     0.005 A 
ATOM     29  C   UNL A   1      37.416  23.297  24.241  1.00  0.00     0.000 A 
ATOM     30  C   UNL A   1      36.722  23.950  26.436  1.00  0.00     0.000 A 
ATOM     31  C   UNL A   1      37.686  23.940  25.439  1.00  0.00     0.000 A 
ENDBRANCH  18  26
BRANCH  24  32
ATOM     32  C   UNL A   1      32.879  16.757  23.771  1.00  0.00     0.272 C 
ATOM     33  C   UNL A   1      32.156  16.438  25.066  1.00  0.00     0.081 C 
ATOM     34  N   UNL A   1      34.323  16.505  23.993  1.00  0.00    -0.336 N 
ATOM     35  C   UNL A   1      33.059  15.404  25.707  1.00  0.00     0.068 C 
ATOM     36  C   UNL A   1      34.459  15.803  25.272  1.00  0.00     0.261 C 
ATOM     37  H   UNL A   1      34.830  17.390  24.026  1.00  0.00     0.346 HD
ATOM     38  H   UNL A   1      34.709  15.943  23.234  1.00  0.00     0.346 HD
ENDBRANCH  24  32
ENDBRANCH  15  18
ENDBRANCH   7  14
ENDBRANCH   4   7
ENDBRANCH   2   3
ENDBRANCH   1   2
BRANCH   1  39
ATOM     39  C   UNL A   1      34.098  29.067  26.433  1.00  0.00     0.118 C 
BRANCH  39  40
ATOM     40  N   UNL A   1      33.889  30.465  26.793  1.00  0.00    -0.352 N 
ATOM     41  C   UNL A   1      34.531  31.266  27.706  1.00  0.00     0.251 C 
ATOM     42  H   UNL A   1      33.165  30.910  26.296  1.00  0.00     0.163 HD
ATOM     43  O   UNL A   1      34.053  32.365  27.980  1.00  0.00    -0.269 OA
BRANCH  41  44
ATOM     44  C   UNL A   1      35.762  30.803  28.381  1.00  0.00     0.039 A 
ATOM     45  C   UNL A   1      35.667  29.828  29.378  1.00  0.00     0.014 A 
ATOM     46  C   UNL A   1      37.009  31.323  28.036  1.00  0.00     0.014 A 
ATOM     47  C   UNL A   1      36.830  29.314  29.957  1.00  0.00     0.010 A 
ATOM     48  C   UNL A   1      38.166  30.730  28.524  1.00  0.00     0.010 A 
ATOM     49  C   UNL A   1      38.092  29.721  29.495  1.00  0.00    -0.014 A 
BRANCH  49  50
ATOM     50  C   UNL A   1      39.347  29.112  30.009  1.00  0.00     0.031 A 
ATOM     51  C   UNL A   1      40.058  29.730  31.182  1.00  0.00     0.074 A 
ATOM     52  C   UNL A   1      39.893  28.065  29.358  1.00  0.00     0.049 A 
ATOM     53  N   UNL A   1      41.214  29.417  31.710  1.00  0.00    -0.248 NA
ATOM     54  C   UNL A   1      39.402  30.883  31.815  1.00  0.00     0.031 C 
ATOM     55  C   UNL A   1      39.332  27.425  28.166  1.00  0.00     0.029 A 
ATOM     56  N   UNL A   1      41.048  27.365  29.595  1.00  0.00    -0.354 N 
ATOM     57  C   UNL A   1      41.435  30.353  32.717  1.00  0.00     0.074 A 
ATOM     58  C   UNL A   1      40.329  31.284  32.670  1.00  0.00     0.031 C 
ATOM     59  C   UNL A   1      40.129  26.412  27.794  1.00  0.00     0.029 A 
ATOM     60  C   UNL A   1      41.282  26.361  28.685  1.00  0.00     0.049 A 
ATOM     61  H   UNL A   1      41.653  27.563  30.346  1.00  0.00     0.167 HD
ATOM     62  C   UNL A   1      42.452  30.411  33.613  1.00  0.00     0.034 A 
ATOM     63  C   UNL A   1      42.316  25.504  28.571  1.00  0.00     0.034 A 
ATOM     64  C   UNL A   1      43.532  29.455  33.653  1.00  0.00     0.049 A 
ATOM     65  C   UNL A   1      43.432  25.579  29.577  1.00  0.00     0.074 A 
ATOM     66  C   UNL A   1      44.565  29.359  34.567  1.00  0.00     0.029 A 
ATOM     67  N   UNL A   1      43.727  28.436  32.727  1.00  0.00    -0.354 N 
ATOM     68  N   UNL A   1      43.591  26.420  30.574  1.00  0.00    -0.248 NA
ATOM     69  C   UNL A   1      44.504  24.584  29.451  1.00  0.00     0.031 C 
ATOM     70  C   UNL A   1      45.423  28.333  34.152  1.00  0.00     0.029 A 
ATOM     71  C   UNL A   1      44.885  27.734  33.023  1.00  0.00     0.049 A 
ATOM     72  H   UNL A   1      43.128  28.242  31.969  1.00  0.00     0.167 HD
ATOM     73  C   UNL A   1      44.773  26.044  31.204  1.00  0.00     0.074 A 
ATOM     74  C   UNL A   1      45.273  24.888  30.486  1.00  0.00     0.031 C 
ATOM     75  C   UNL A   1      45.387  26.601  32.280  1.00  0.00     0.034 A 
BRANCH  62  76
ATOM     76  C   UNL A   1      42.445  31.562  34.595  1.00  0.00     0.023 A 
ATOM     77  C   UNL A   1      41.611  31.565  35.729  1.00  0.00     0.031 A 
ATOM     78  C   UNL A   1      43.236  32.701  34.365  1.00  0.00     0.131 A 
ATOM     79  C   UNL A   1      41.507  32.717  36.523  1.00  0.00     0.055 A 
ATOM     80  C   UNL A   1      43.201  33.809  35.216  1.00  0.00     0.041 A 
ATOM     81  F   UNL A   1      44.040  32.771  33.292  1.00  0.00    -0.206 F 
ATOM     82  C   UNL A   1      42.315  33.831  36.290  1.00  0.00     0.022 A 
BRANCH  79  83
ATOM     83  S   UNL A   1      40.165  32.807  37.742  1.00  0.00     0.124 S 
ATOM     84  O   UNL A   1      39.233  31.805  37.227  1.00  0.00    -0.237 OA
ATOM     85  O   UNL A   1      40.847  32.467  38.985  1.00  0.00    -0.237 OA
ATOM     86  O   UNL A   1      39.701  34.189  37.640  1.00  0.00    -0.744 OA
ENDBRANCH  79  83
ENDBRANCH  62  76
BRANCH  63  87
ATOM     87  C   UNL A   1      42.342  24.514  27.457  1.00  0.00     0.023 A 
ATOM     88  C   UNL A   1      41.628  23.308  27.538  1.00  0.00     0.031 A 
ATOM     89  C   UNL A   1      43.083  24.765  26.288  1.00  0.00     0.131 A 
ATOM     90  C   UNL A   1      41.690  22.387  26.481  1.00  0.00     0.055 A 
ATOM     91  C   UNL A   1      43.105  23.867  25.221  1.00  0.00     0.041 A 
ATOM     92  F   UNL A   1      43.774  25.909  26.156  1.00  0.00    -0.206 F 
ATOM     93  C   UNL A   1      42.412  22.664  25.317  1.00  0.00     0.022 A 
BRANCH  90  94
ATOM     94  S   UNL A   1      40.846  20.792  26.664  1.00  0.00     0.124 S 
ATOM     95  O   UNL A   1      39.563  21.060  26.026  1.00  0.00    -0.237 OA
ATOM     96  O   UNL A   1      41.744  19.890  25.951  1.00  0.00    -0.237 OA
ATOM     97  O   UNL A   1      40.795  20.599  28.113  1.00  0.00    -0.744 OA
ENDBRANCH  90  94
ENDBRANCH  63  87
BRANCH  75  98
ATOM     98  C   UNL A   1      46.662  25.945  32.753  1.00  0.00     0.023 A 
ATOM     99  C   UNL A   1      46.648  24.881  33.671  1.00  0.00     0.031 A 
ATOM    100  C   UNL A   1      47.908  26.398  32.285  1.00  0.00     0.131 A 
ATOM    101  C   UNL A   1      47.856  24.342  34.136  1.00  0.00     0.055 A 
ATOM    102  C   UNL A   1      49.106  25.815  32.702  1.00  0.00     0.041 A 
ATOM    103  F   UNL A   1      47.982  27.414  31.411  1.00  0.00    -0.206 F 
ATOM    104  C   UNL A   1      49.084  24.790  33.643  1.00  0.00     0.022 A 
BRANCH 101 105
ATOM    105  S   UNL A   1      47.807  23.113  35.469  1.00  0.00     0.124 S 
ATOM    106  O   UNL A   1      48.597  22.024  34.906  1.00  0.00    -0.237 OA
ATOM    107  O   UNL A   1      48.415  23.835  36.583  1.00  0.00    -0.237 OA
ATOM    108  O   UNL A   1      46.381  22.830  35.621  1.00  0.00    -0.744 OA
ENDBRANCH 101 105
ENDBRANCH  75  98
ENDBRANCH  49  50
ENDBRANCH  41  44
ENDBRANCH  39  40
ENDBRANCH   1  39
TORSDOF 19
ENDMDL
MODEL 2
REMARK VINA RESULT:     -11.8      4.860      8.667
REMARK SMILES NC(=O)C[C@H](NC(=O)C1(c2ccccc2)CCN(C(=O)[C@@H]2CCC[NH2+]2)CC1)C(=O)NCCCNC(=O)c1ccc(-c2c3nc(c(-c4cc(S(=O)(=O)[O-])ccc4F)c4ccc([nH]4)c(-c4cc(S(=O)(=O)[O-])ccc4F)c4nc(c(-c5cc(S(=O)(=O)[O-])ccc5F)c5ccc2[nH]5)C=C4)C=C3)cc1
REMARK SMILES IDX 32 1 31 2 30 3 28 4 29 5 5 7 4 8 2 9 1 10 3 13 6 14 7 15
REMARK SMILES IDX 8 17 9 18 16 19 27 20 17 21 26 22 18 23 19 24 20 25 10 26
REMARK SMILES IDX 11 27 15 28 12 29 14 30 13 31 21 32 22 33 25 34 23 35 24 36
REMARK SMILES IDX 33 39 34 40 35 41 36 43 37 44 38 45 99 46 39 47 98 48 40 49
REMARK SMILES IDX 41 50 42 51 92 52 43 53 97 54 91 55 93 56 44 57 96 58 90 59
REMARK SMILES IDX 89 60 45 62 77 63 57 64 76 65 58 66 61 67 75 68 94 69 59 70
REMARK SMILES IDX 60 71 74 73 95 74 62 75 46 76 47 77 55 78 48 79 54 80 56 81
REMARK SMILES IDX 53 82 49 83 50 84 51 85 52 86 78 87 79 88 87 89 80 90 86 91
REMARK SMILES IDX 88 92 85 93 81 94 82 95 83 96 84 97 63 98 64 99 72 100
REMARK SMILES IDX 65 101 71 102 73 103 70 104 66 105 67 106 68 107 69 108
REMARK H PARENT 30 6 1 11 1 12 6 16 25 37 25 38 34 42 93 61 61 72
REMARK Flexibility Score: inf
ROOT
ATOM      1  C   UNL A   1      36.002  22.587  25.871  1.00  0.00     0.042 C 
ENDROOT
BRANCH   1   2
ATOM      2  C   UNL A   1      34.868  23.401  25.282  1.00  0.00     0.117 C 
BRANCH   2   3
ATOM      3  N   UNL A   1      33.810  22.602  24.700  1.00  0.00    -0.354 N 
ATOM      4  C   UNL A   1      32.643  22.978  24.115  1.00  0.00     0.243 C 
ATOM      5  O   UNL A   1      32.129  22.185  23.318  1.00  0.00    -0.273 OA
ATOM      6  H   UNL A   1      33.960  21.629  24.734  1.00  0.00     0.163 HD
BRANCH   4   7
ATOM      7  C   UNL A   1      32.005  24.368  24.327  1.00  0.00     0.180 C 
BRANCH   7   8
ATOM      8  C   UNL A   1      30.644  24.320  25.022  1.00  0.00     0.134 C 
BRANCH   8   9
ATOM      9  C   UNL A   1      30.628  23.672  26.379  1.00  0.00     0.220 C 
ATOM     10  N   UNL A   1      29.908  22.521  26.485  1.00  0.00    -0.370 N 
ATOM     11  H   UNL A   1      29.859  22.048  27.347  1.00  0.00     0.159 HD
ATOM     12  H   UNL A   1      29.437  22.161  25.698  1.00  0.00     0.159 HD
ATOM     13  O   UNL A   1      31.235  24.126  27.341  1.00  0.00    -0.275 OA
ENDBRANCH   8   9
ENDBRANCH   7   8
BRANCH   7  14
ATOM     14  N   UNL A   1      32.073  25.260  23.170  1.00  0.00    -0.343 N 
ATOM     15  C   UNL A   1      31.934  26.601  23.008  1.00  0.00     0.231 C 
ATOM     16  H   UNL A   1      32.260  24.787  22.327  1.00  0.00     0.164 HD
ATOM     17  O   UNL A   1      32.285  27.000  21.888  1.00  0.00    -0.274 OA
BRANCH  15  18
ATOM     18  C   UNL A   1      31.370  27.610  24.067  1.00  0.00     0.077 C 
ATOM     19  C   UNL A   1      29.965  27.227  24.616  1.00  0.00     0.043 C 
ATOM     20  C   UNL A   1      31.147  28.976  23.308  1.00  0.00     0.043 C 
ATOM     21  C   UNL A   1      28.900  27.176  23.522  1.00  0.00     0.121 C 
ATOM     22  C   UNL A   1      30.026  28.931  22.267  1.00  0.00     0.121 C 
ATOM     23  N   UNL A   1      28.785  28.478  22.878  1.00  0.00    -0.337 N 
ATOM     24  C   UNL A   1      27.566  29.142  22.925  1.00  0.00     0.280 C 
ATOM     25  O   UNL A   1      26.588  28.618  23.472  1.00  0.00    -0.268 OA
BRANCH  18  26
ATOM     26  C   UNL A   1      32.422  27.806  25.197  1.00  0.00    -0.032 A 
ATOM     27  C   UNL A   1      32.177  28.644  26.304  1.00  0.00     0.005 A 
ATOM     28  C   UNL A   1      33.690  27.201  25.146  1.00  0.00     0.005 A 
ATOM     29  C   UNL A   1      33.146  28.878  27.286  1.00  0.00     0.000 A 
ATOM     30  C   UNL A   1      34.678  27.473  26.100  1.00  0.00     0.000 A 
ATOM     31  C   UNL A   1      34.406  28.312  27.172  1.00  0.00     0.000 A 
ENDBRANCH  18  26
BRANCH  24  32
ATOM     32  C   UNL A   1      27.384  30.541  22.301  1.00  0.00     0.272 C 
ATOM     33  C   UNL A   1      27.978  30.746  20.920  1.00  0.00     0.081 C 
ATOM     34  N   UNL A   1      27.871  31.643  23.164  1.00  0.00    -0.336 N 
ATOM     35  C   UNL A   1      28.185  32.246  20.865  1.00  0.00     0.068 C 
ATOM     36  C   UNL A   1      28.513  32.635  22.296  1.00  0.00     0.261 C 
ATOM     37  H   UNL A   1      28.547  31.284  23.839  1.00  0.00     0.346 HD
ATOM     38  H   UNL A   1      27.098  32.064  23.678  1.00  0.00     0.346 HD
ENDBRANCH  24  32
ENDBRANCH  15  18
ENDBRANCH   7  14
ENDBRANCH   4   7
ENDBRANCH   2   3
ENDBRANCH   1   2
BRANCH   1  39
ATOM     39  C   UNL A   1      37.101  22.245  24.878  1.00  0.00     0.118 C 
BRANCH  39  40
ATOM     40  N   UNL A   1      37.973  21.171  25.341  1.00  0.00    -0.352 N 
ATOM     41  C   UNL A   1      39.162  21.208  26.028  1.00  0.00     0.251 C 
ATOM     42  H   UNL A   1      37.653  20.265  25.125  1.00  0.00     0.163 HD
ATOM     43  O   UNL A   1      39.822  20.177  26.141  1.00  0.00    -0.269 OA
BRANCH  41  44
ATOM     44  C   UNL A   1      39.666  22.477  26.595  1.00  0.00     0.039 A 
ATOM     45  C   UNL A   1      40.639  22.436  27.599  1.00  0.00     0.014 A 
ATOM     46  C   UNL A   1      39.188  23.706  26.142  1.00  0.00     0.014 A 
ATOM     47  C   UNL A   1      41.192  23.627  28.076  1.00  0.00     0.010 A 
ATOM     48  C   UNL A   1      39.820  24.880  26.529  1.00  0.00     0.010 A 
ATOM     49  C   UNL A   1      40.827  24.857  27.504  1.00  0.00    -0.014 A 
BRANCH  49  50
ATOM     50  C   UNL A   1      41.478  26.131  27.910  1.00  0.00     0.031 A 
ATOM     51  C   UNL A   1      40.683  27.188  28.627  1.00  0.00     0.074 A 
ATOM     52  C   UNL A   1      42.753  26.370  27.545  1.00  0.00     0.049 A 
ATOM     53  N   UNL A   1      41.034  28.402  28.966  1.00  0.00    -0.248 NA
ATOM     54  C   UNL A   1      39.292  26.850  28.962  1.00  0.00     0.031 C 
ATOM     55  C   UNL A   1      43.603  25.449  26.786  1.00  0.00     0.029 A 
ATOM     56  N   UNL A   1      43.553  27.466  27.748  1.00  0.00    -0.354 N 
ATOM     57  C   UNL A   1      39.899  28.980  29.530  1.00  0.00     0.074 A 
ATOM     58  C   UNL A   1      38.835  28.007  29.413  1.00  0.00     0.031 C 
ATOM     59  C   UNL A   1      44.811  26.007  26.612  1.00  0.00     0.029 A 
ATOM     60  C   UNL A   1      44.808  27.343  27.198  1.00  0.00     0.049 A 
ATOM     61  H   UNL A   1      43.258  28.265  28.240  1.00  0.00     0.167 HD
ATOM     62  C   UNL A   1      39.768  30.197  30.113  1.00  0.00     0.034 A 
ATOM     63  C   UNL A   1      45.838  28.211  27.158  1.00  0.00     0.034 A 
ATOM     64  C   UNL A   1      40.852  31.141  30.237  1.00  0.00     0.049 A 
ATOM     65  C   UNL A   1      45.676  29.555  27.815  1.00  0.00     0.074 A 
ATOM     66  C   UNL A   1      40.863  32.363  30.885  1.00  0.00     0.029 A 
ATOM     67  N   UNL A   1      42.118  30.975  29.685  1.00  0.00    -0.354 N 
ATOM     68  N   UNL A   1      44.621  30.060  28.414  1.00  0.00    -0.248 NA
ATOM     69  C   UNL A   1      46.845  30.443  27.800  1.00  0.00     0.031 C 
ATOM     70  C   UNL A   1      42.106  32.966  30.663  1.00  0.00     0.029 A 
ATOM     71  C   UNL A   1      42.903  32.088  29.943  1.00  0.00     0.049 A 
ATOM     72  H   UNL A   1      42.414  30.180  29.184  1.00  0.00     0.167 HD
ATOM     73  C   UNL A   1      45.006  31.320  28.863  1.00  0.00     0.074 A 
ATOM     74  C   UNL A   1      46.395  31.486  28.483  1.00  0.00     0.031 C 
ATOM     75  C   UNL A   1      44.279  32.252  29.532  1.00  0.00     0.034 A 
BRANCH  62  76
ATOM     76  C   UNL A   1      38.396  30.573  30.631  1.00  0.00     0.023 A 
ATOM     77  C   UNL A   1      37.453  31.231  29.820  1.00  0.00     0.031 A 
ATOM     78  C   UNL A   1      38.047  30.328  31.970  1.00  0.00     0.131 A 
ATOM     79  C   UNL A   1      36.260  31.713  30.380  1.00  0.00     0.055 A 
ATOM     80  C   UNL A   1      36.815  30.723  32.497  1.00  0.00     0.041 A 
ATOM     81  F   UNL A   1      38.908  29.720  32.802  1.00  0.00    -0.206 F 
ATOM     82  C   UNL A   1      35.921  31.442  31.706  1.00  0.00     0.022 A 
BRANCH  79  83
ATOM     83  S   UNL A   1      35.250  32.861  29.401  1.00  0.00     0.124 S 
ATOM     84  O   UNL A   1      34.697  33.726  30.442  1.00  0.00    -0.237 OA
ATOM     85  O   UNL A   1      36.236  33.473  28.519  1.00  0.00    -0.237 OA
ATOM     86  O   UNL A   1      34.278  31.990  28.745  1.00  0.00    -0.744 OA
ENDBRANCH  79  83
ENDBRANCH  62  76
BRANCH  63  87
ATOM     87  C   UNL A   1      47.101  27.837  26.461  1.00  0.00     0.023 A 
ATOM     88  C   UNL A   1      47.218  27.934  25.065  1.00  0.00     0.031 A 
ATOM     89  C   UNL A   1      48.215  27.379  27.187  1.00  0.00     0.131 A 
ATOM     90  C   UNL A   1      48.414  27.553  24.437  1.00  0.00     0.055 A 
ATOM     91  C   UNL A   1      49.417  27.046  26.562  1.00  0.00     0.041 A 
ATOM     92  F   UNL A   1      48.159  27.279  28.525  1.00  0.00    -0.206 F 
ATOM     93  C   UNL A   1      49.519  27.124  25.177  1.00  0.00     0.022 A 
BRANCH  90  94
ATOM     94  S   UNL A   1      48.495  27.585  22.625  1.00  0.00     0.124 S 
ATOM     95  O   UNL A   1      49.751  28.289  22.396  1.00  0.00    -0.237 OA
ATOM     96  O   UNL A   1      48.484  26.164  22.296  1.00  0.00    -0.237 OA
ATOM     97  O   UNL A   1      47.289  28.319  22.244  1.00  0.00    -0.744 OA
ENDBRANCH  90  94
ENDBRANCH  63  87
BRANCH  75  98
ATOM     98  C   UNL A   1      44.990  33.529  29.910  1.00  0.00     0.023 A 
ATOM     99  C   UNL A   1      44.885  34.692  29.128  1.00  0.00     0.031 A 
ATOM    100  C   UNL A   1      45.793  33.578  31.064  1.00  0.00     0.131 A 
ATOM    101  C   UNL A   1      45.615  35.838  29.477  1.00  0.00     0.055 A 
ATOM    102  C   UNL A   1      46.466  34.741  31.442  1.00  0.00     0.041 A 
ATOM    103  F   UNL A   1      45.934  32.496  31.845  1.00  0.00    -0.206 F 
ATOM    104  C   UNL A   1      46.389  35.875  30.640  1.00  0.00     0.022 A 
BRANCH 101 105
ATOM    105  S   UNL A   1      45.617  37.249  28.339  1.00  0.00     0.124 S 
ATOM    106  O   UNL A   1      45.297  36.612  27.066  1.00  0.00    -0.237 OA
ATOM    107  O   UNL A   1      44.579  38.107  28.902  1.00  0.00    -0.237 OA
ATOM    108  O   UNL A   1      46.977  37.774  28.445  1.00  0.00    -0.744 OA
ENDBRANCH 101 105
ENDBRANCH  75  98
ENDBRANCH  49  50
ENDBRANCH  41  44
ENDBRANCH  39  40
ENDBRANCH   1  39
TORSDOF 19
ENDMDL
MODEL 3
REMARK VINA RESULT:     -11.8      4.511      9.914
REMARK SMILES NC(=O)C[C@H](NC(=O)C1(c2ccccc2)CCN(C(=O)[C@@H]2CCC[NH2+]2)CC1)C(=O)NCCCNC(=O)c1ccc(-c2c3nc(c(-c4cc(S(=O)(=O)[O-])ccc4F)c4ccc([nH]4)c(-c4cc(S(=O)(=O)[O-])ccc4F)c4nc(c(-c5cc(S(=O)(=O)[O-])ccc5F)c5ccc2[nH]5)C=C4)C=C3)cc1
REMARK SMILES IDX 32 1 31 2 30 3 28 4 29 5 5 7 4 8 2 9 1 10 3 13 6 14 7 15
REMARK SMILES IDX 8 17 9 18 16 19 27 20 17 21 26 22 18 23 19 24 20 25 10 26
REMARK SMILES IDX 11 27 15 28 12 29 14 30 13 31 21 32 22 33 25 34 23 35 24 36
REMARK SMILES IDX 33 39 34 40 35 41 36 43 37 44 38 45 99 46 39 47 98 48 40 49
REMARK SMILES IDX 41 50 42 51 92 52 43 53 97 54 91 55 93 56 44 57 96 58 90 59
REMARK SMILES IDX 89 60 45 62 77 63 57 64 76 65 58 66 61 67 75 68 94 69 59 70
REMARK SMILES IDX 60 71 74 73 95 74 62 75 46 76 47 77 55 78 48 79 54 80 56 81
REMARK SMILES IDX 53 82 49 83 50 84 51 85 52 86 78 87 79 88 87 89 80 90 86 91
REMARK SMILES IDX 88 92 85 93 81 94 82 95 83 96 84 97 63 98 64 99 72 100
REMARK SMILES IDX 65 101 71 102 73 103 70 104 66 105 67 106 68 107 69 108
REMARK H PARENT 30 6 1 11 1 12 6 16 25 37 25 38 34 42 93 61 61 72
REMARK Flexibility Score: inf
ROOT
ATOM      1  C   UNL A   1      36.430  22.966  24.259  1.00  0.00     0.042 C 
ENDROOT
BRANCH   1   2
ATOM      2  C   UNL A   1      35.281  23.941  24.096  1.00  0.00     0.117 C 
BRANCH   2   3
ATOM      3  N   UNL A   1      34.709  23.958  22.765  1.00  0.00    -0.354 N 
ATOM      4  C   UNL A   1      33.456  24.278  22.351  1.00  0.00     0.243 C 
ATOM      5  O   UNL A   1      33.325  24.646  21.177  1.00  0.00    -0.273 OA
ATOM      6  H   UNL A   1      35.328  23.696  22.046  1.00  0.00     0.163 HD
BRANCH   4   7
ATOM      7  C   UNL A   1      32.236  24.297  23.296  1.00  0.00     0.180 C 
BRANCH   7   8
ATOM      8  C   UNL A   1      31.340  23.064  23.168  1.00  0.00     0.134 C 
BRANCH   8   9
ATOM      9  C   UNL A   1      32.053  21.763  22.927  1.00  0.00     0.220 C 
ATOM     10  N   UNL A   1      31.708  21.093  21.793  1.00  0.00    -0.370 N 
ATOM     11  H   UNL A   1      32.140  20.234  21.577  1.00  0.00     0.159 HD
ATOM     12  H   UNL A   1      31.027  21.467  21.187  1.00  0.00     0.159 HD
ATOM     13  O   UNL A   1      32.912  21.323  23.682  1.00  0.00    -0.275 OA
ENDBRANCH   8   9
ENDBRANCH   7   8
BRANCH   7  14
ATOM     14  N   UNL A   1      31.521  25.572  23.356  1.00  0.00    -0.343 N 
ATOM     15  C   UNL A   1      31.434  26.558  24.285  1.00  0.00     0.231 C 
ATOM     16  H   UNL A   1      30.990  25.755  22.548  1.00  0.00     0.164 HD
ATOM     17  O   UNL A   1      30.893  27.589  23.860  1.00  0.00    -0.274 OA
BRANCH  15  18
ATOM     18  C   UNL A   1      31.920  26.475  25.774  1.00  0.00     0.077 C 
ATOM     19  C   UNL A   1      31.320  27.578  26.694  1.00  0.00     0.043 C 
ATOM     20  C   UNL A   1      33.471  26.767  25.753  1.00  0.00     0.043 C 
ATOM     21  C   UNL A   1      31.693  28.989  26.241  1.00  0.00     0.121 C 
ATOM     22  C   UNL A   1      33.826  28.206  25.372  1.00  0.00     0.121 C 
ATOM     23  N   UNL A   1      33.140  29.147  26.245  1.00  0.00    -0.337 N 
ATOM     24  C   UNL A   1      33.705  30.119  27.060  1.00  0.00     0.280 C 
ATOM     25  O   UNL A   1      32.986  30.861  27.741  1.00  0.00    -0.268 OA
BRANCH  18  26
ATOM     26  C   UNL A   1      31.666  25.038  26.315  1.00  0.00    -0.032 A 
ATOM     27  C   UNL A   1      32.726  24.191  26.697  1.00  0.00     0.005 A 
ATOM     28  C   UNL A   1      30.373  24.493  26.402  1.00  0.00     0.005 A 
ATOM     29  C   UNL A   1      32.508  22.874  27.118  1.00  0.00     0.000 A 
ATOM     30  C   UNL A   1      30.156  23.161  26.775  1.00  0.00     0.000 A 
ATOM     31  C   UNL A   1      31.224  22.350  27.134  1.00  0.00     0.000 A 
ENDBRANCH  18  26
BRANCH  24  32
ATOM     32  C   UNL A   1      35.233  30.315  27.146  1.00  0.00     0.272 C 
ATOM     33  C   UNL A   1      35.983  29.371  28.067  1.00  0.00     0.081 C 
ATOM     34  N   UNL A   1      35.635  31.697  27.500  1.00  0.00    -0.336 N 
ATOM     35  C   UNL A   1      37.235  30.156  28.402  1.00  0.00     0.068 C 
ATOM     36  C   UNL A   1      36.782  31.606  28.408  1.00  0.00     0.261 C 
ATOM     37  H   UNL A   1      34.862  32.176  27.963  1.00  0.00     0.346 HD
ATOM     38  H   UNL A   1      35.882  32.224  26.663  1.00  0.00     0.346 HD
ENDBRANCH  24  32
ENDBRANCH  15  18
ENDBRANCH   7  14
ENDBRANCH   4   7
ENDBRANCH   2   3
ENDBRANCH   1   2
BRANCH   1  39
ATOM     39  C   UNL A   1      36.767  22.641  25.705  1.00  0.00     0.118 C 
BRANCH  39  40
ATOM     40  N   UNL A   1      37.783  21.601  25.833  1.00  0.00    -0.352 N 
ATOM     41  C   UNL A   1      39.102  21.671  26.210  1.00  0.00     0.251 C 
ATOM     42  H   UNL A   1      37.468  20.695  25.611  1.00  0.00     0.163 HD
ATOM     43  O   UNL A   1      39.823  20.687  26.055  1.00  0.00    -0.269 OA
BRANCH  41  44
ATOM     44  C   UNL A   1      39.663  22.922  26.761  1.00  0.00     0.039 A 
ATOM     45  C   UNL A   1      40.608  22.850  27.789  1.00  0.00     0.014 A 
ATOM     46  C   UNL A   1      39.266  24.165  26.270  1.00  0.00     0.014 A 
ATOM     47  C   UNL A   1      41.217  24.020  28.253  1.00  0.00     0.010 A 
ATOM     48  C   UNL A   1      39.954  25.311  26.646  1.00  0.00     0.010 A 
ATOM     49  C   UNL A   1      40.935  25.254  27.647  1.00  0.00    -0.014 A 
BRANCH  49  50
ATOM     50  C   UNL A   1      41.647  26.499  28.040  1.00  0.00     0.031 A 
ATOM     51  C   UNL A   1      43.047  26.753  27.548  1.00  0.00     0.074 A 
ATOM     52  C   UNL A   1      41.069  27.347  28.914  1.00  0.00     0.049 A 
ATOM     53  N   UNL A   1      43.873  27.717  27.862  1.00  0.00    -0.248 NA
ATOM     54  C   UNL A   1      43.606  25.762  26.617  1.00  0.00     0.031 C 
ATOM     55  C   UNL A   1      39.745  27.170  29.514  1.00  0.00     0.029 A 
ATOM     56  N   UNL A   1      41.527  28.517  29.464  1.00  0.00    -0.354 N 
ATOM     57  C   UNL A   1      45.058  27.433  27.188  1.00  0.00     0.074 A 
ATOM     58  C   UNL A   1      44.861  26.168  26.515  1.00  0.00     0.031 C 
ATOM     59  C   UNL A   1      39.487  28.207  30.326  1.00  0.00     0.029 A 
ATOM     60  C   UNL A   1      40.644  29.095  30.346  1.00  0.00     0.049 A 
ATOM     61  H   UNL A   1      42.405  28.907  29.248  1.00  0.00     0.167 HD
ATOM     62  C   UNL A   1      46.192  28.174  27.118  1.00  0.00     0.034 A 
ATOM     63  C   UNL A   1      40.758  30.206  31.100  1.00  0.00     0.034 A 
ATOM     64  C   UNL A   1      46.356  29.444  27.782  1.00  0.00     0.049 A 
ATOM     65  C   UNL A   1      42.021  31.018  31.005  1.00  0.00     0.074 A 
ATOM     66  C   UNL A   1      47.420  30.324  27.712  1.00  0.00     0.029 A 
ATOM     67  N   UNL A   1      45.431  30.011  28.654  1.00  0.00    -0.354 N 
ATOM     68  N   UNL A   1      43.106  30.780  30.303  1.00  0.00    -0.248 NA
ATOM     69  C   UNL A   1      42.073  32.254  31.795  1.00  0.00     0.031 C 
ATOM     70  C   UNL A   1      47.174  31.382  28.595  1.00  0.00     0.029 A 
ATOM     71  C   UNL A   1      45.919  31.206  29.159  1.00  0.00     0.049 A 
ATOM     72  H   UNL A   1      44.556  29.618  28.879  1.00  0.00     0.167 HD
ATOM     73  C   UNL A   1      43.963  31.846  30.554  1.00  0.00     0.074 A 
ATOM     74  C   UNL A   1      43.260  32.737  31.456  1.00  0.00     0.031 C 
ATOM     75  C   UNL A   1      45.217  32.070  30.081  1.00  0.00     0.034 A 
BRANCH  62  76
ATOM     76  C   UNL A   1      47.343  27.604  26.317  1.00  0.00     0.023 A 
ATOM     77  C   UNL A   1      47.569  27.973  24.978  1.00  0.00     0.031 A 
ATOM     78  C   UNL A   1      48.190  26.632  26.877  1.00  0.00     0.131 A 
ATOM     79  C   UNL A   1      48.538  27.301  24.217  1.00  0.00     0.055 A 
ATOM     80  C   UNL A   1      49.219  26.037  26.143  1.00  0.00     0.041 A 
ATOM     81  F   UNL A   1      48.018  26.221  28.144  1.00  0.00    -0.206 F 
ATOM     82  C   UNL A   1      49.383  26.354  24.796  1.00  0.00     0.022 A 
BRANCH  79  83
ATOM     83  S   UNL A   1      48.547  27.548  22.419  1.00  0.00     0.124 S 
ATOM     84  O   UNL A   1      47.247  28.180  22.202  1.00  0.00    -0.237 OA
ATOM     85  O   UNL A   1      49.712  28.403  22.225  1.00  0.00    -0.237 OA
ATOM     86  O   UNL A   1      48.669  26.193  21.887  1.00  0.00    -0.744 OA
ENDBRANCH  79  83
ENDBRANCH  62  76
BRANCH  63  87
ATOM     87  C   UNL A   1      39.648  30.604  32.012  1.00  0.00     0.023 A 
ATOM     88  C   UNL A   1      38.699  31.563  31.627  1.00  0.00     0.031 A 
ATOM     89  C   UNL A   1      39.521  30.022  33.286  1.00  0.00     0.131 A 
ATOM     90  C   UNL A   1      37.678  31.932  32.518  1.00  0.00     0.055 A 
ATOM     91  C   UNL A   1      38.478  30.357  34.150  1.00  0.00     0.041 A 
ATOM     92  F   UNL A   1      40.396  29.090  33.698  1.00  0.00    -0.206 F 
ATOM     93  C   UNL A   1      37.552  31.325  33.770  1.00  0.00     0.022 A 
BRANCH  90  94
ATOM     94  S   UNL A   1      36.534  33.254  32.034  1.00  0.00     0.124 S 
ATOM     95  O   UNL A   1      35.378  32.493  31.575  1.00  0.00    -0.237 OA
ATOM     96  O   UNL A   1      36.368  33.984  33.286  1.00  0.00    -0.237 OA
ATOM     97  O   UNL A   1      37.266  33.970  30.990  1.00  0.00    -0.744 OA
ENDBRANCH  90  94
ENDBRANCH  63  87
BRANCH  75  98
ATOM     98  C   UNL A   1      45.894  33.346  30.520  1.00  0.00     0.023 A 
ATOM     99  C   UNL A   1      45.752  34.543  29.797  1.00  0.00     0.031 A 
ATOM    100  C   UNL A   1      46.700  33.360  31.671  1.00  0.00     0.131 A 
ATOM    101  C   UNL A   1      46.450  35.691  30.200  1.00  0.00     0.055 A 
ATOM    102  C   UNL A   1      47.341  34.522  32.105  1.00  0.00     0.041 A 
ATOM    103  F   UNL A   1      46.876  32.245  32.398  1.00  0.00    -0.206 F 
ATOM    104  C   UNL A   1      47.229  35.692  31.361  1.00  0.00     0.022 A 
BRANCH 101 105
ATOM    105  S   UNL A   1      46.406  37.157  29.134  1.00  0.00     0.124 S 
ATOM    106  O   UNL A   1      47.546  37.923  29.626  1.00  0.00    -0.237 OA
ATOM    107  O   UNL A   1      46.552  36.579  27.801  1.00  0.00    -0.237 OA
ATOM    108  O   UNL A   1      45.097  37.745  29.413  1.00  0.00    -0.744 OA
ENDBRANCH 101 105
ENDBRANCH  75  98
ENDBRANCH  49  50
ENDBRANCH  41  44
ENDBRANCH  39  40
ENDBRANCH   1  39
TORSDOF 19
ENDMDL
