MODEL 1
REMARK VINA RESULT:     -12.4      0.000      0.000
REMARK SMILES COc1cc(/C=N/c2cccc(F)c2)ccc1OCc1cccc(C(=O)NCCCNC(=O)c2ccc(-c3c4nc(c(-c5cc(S(=O)(=O)[O-])ccc5F)c5ccc([nH]5)c(-c5cc(S(=O)(=O)[O-])ccc5F)c5nc(c(-c6cc(S(=O)(=O)[O-])ccc6F)c6ccc3[nH]6)C=C5)C=C4)cc2)c1
REMARK SMILES IDX 28 1 27 2 25 3 26 4 24 6 20 7 21 8 97 9 22 10 23 11 19 12
REMARK SMILES IDX 18 13 17 14 3 15 4 16 5 17 16 18 15 19 2 20 1 21 6 22 7 23
REMARK SMILES IDX 8 24 9 25 14 26 10 27 12 28 11 29 13 30 29 31 30 32 31 33
REMARK SMILES IDX 32 34 33 36 34 37 35 38 96 39 36 40 95 41 37 42 38 43 39 44
REMARK SMILES IDX 89 45 40 46 94 47 88 48 90 49 41 50 93 51 87 52 86 53 42 55
REMARK SMILES IDX 74 56 54 57 73 58 55 59 58 60 72 61 91 62 56 63 57 64 71 66
REMARK SMILES IDX 92 67 59 68 43 69 44 70 52 71 45 72 51 73 53 74 50 75 46 76
REMARK SMILES IDX 47 77 48 78 49 79 75 80 76 81 84 82 77 83 83 84 85 85 82 86
REMARK SMILES IDX 78 87 79 88 80 89 81 90 60 91 61 92 69 93 62 94 68 95 70 96
REMARK SMILES IDX 67 97 63 98 64 99 65 100 66 101
REMARK H PARENT 27 5 31 35 90 54 58 65
REMARK Flexibility Score: inf
ROOT
ATOM      1  C   UNL A   1      37.288  20.613  24.763  1.00  0.00     0.118 C 
ENDROOT
BRANCH   1   2
ATOM      2  N   UNL A   1      37.717  21.947  25.134  1.00  0.00    -0.352 N 
ATOM      3  C   UNL A   1      37.075  23.024  25.688  1.00  0.00     0.251 C 
ATOM      4  O   UNL A   1      37.779  23.997  25.969  1.00  0.00    -0.269 OA
ATOM      5  H   UNL A   1      38.669  22.114  24.952  1.00  0.00     0.163 HD
BRANCH   3   6
ATOM      6  C   UNL A   1      35.610  23.091  25.976  1.00  0.00     0.040 A 
ATOM      7  C   UNL A   1      33.387  24.144  25.926  1.00  0.00    -0.010 A 
ATOM      8  C   UNL A   1      32.889  23.091  26.697  1.00  0.00     0.007 A 
ATOM      9  C   UNL A   1      34.759  24.138  25.613  1.00  0.00     0.021 A 
ATOM     10  C   UNL A   1      33.712  22.027  27.065  1.00  0.00     0.001 A 
ATOM     11  C   UNL A   1      35.057  22.022  26.698  1.00  0.00     0.014 A 
BRANCH   7  12
ATOM     12  C   UNL A   1      32.560  25.282  25.336  1.00  0.00     0.265 C 
BRANCH  12  13
ATOM     13  O   UNL A   1      33.219  26.331  24.634  1.00  0.00    -0.485 OA
BRANCH  13  14
ATOM     14  C   UNL A   1      33.191  27.601  25.135  1.00  0.00     0.161 A 
ATOM     15  C   UNL A   1      32.396  28.679  24.714  1.00  0.00     0.161 A 
ATOM     16  C   UNL A   1      32.377  29.858  25.474  1.00  0.00     0.060 A 
ATOM     17  C   UNL A   1      33.152  29.945  26.636  1.00  0.00    -0.003 A 
ATOM     18  C   UNL A   1      34.013  27.734  26.259  1.00  0.00     0.051 A 
ATOM     19  C   UNL A   1      33.986  28.894  27.020  1.00  0.00     0.014 A 
BRANCH  15  20
ATOM     20  O   UNL A   1      31.728  28.594  23.523  1.00  0.00    -0.493 OA
ATOM     21  C   UNL A   1      30.371  29.030  23.565  1.00  0.00     0.278 C 
ENDBRANCH  15  20
BRANCH  17  22
ATOM     22  C   UNL A   1      33.186  31.158  27.469  1.00  0.00     0.120 C 
ATOM     23  N   UNL A   1      34.274  31.814  27.722  1.00  0.00    -0.256 NA
BRANCH  23  24
ATOM     24  C   UNL A   1      34.143  32.855  28.659  1.00  0.00     0.066 A 
ATOM     25  C   UNL A   1      33.471  34.032  28.322  1.00  0.00     0.028 A 
ATOM     26  C   UNL A   1      34.735  32.745  29.921  1.00  0.00     0.067 A 
ATOM     27  C   UNL A   1      33.378  35.084  29.240  1.00  0.00     0.005 A 
ATOM     28  C   UNL A   1      34.634  33.789  30.829  1.00  0.00     0.125 A 
ATOM     29  C   UNL A   1      33.963  34.960  30.500  1.00  0.00     0.039 A 
ATOM     30  F   UNL A   1      35.198  33.666  32.038  1.00  0.00    -0.207 F 
ENDBRANCH  23  24
ENDBRANCH  17  22
ENDBRANCH  13  14
ENDBRANCH  12  13
ENDBRANCH   7  12
ENDBRANCH   3   6
ENDBRANCH   1   2
BRANCH   1  31
ATOM     31  C   UNL A   1      38.363  19.562  25.041  1.00  0.00     0.042 C 
BRANCH  31  32
ATOM     32  C   UNL A   1      39.427  20.025  26.031  1.00  0.00     0.118 C 
BRANCH  32  33
ATOM     33  N   UNL A   1      40.587  19.146  26.024  1.00  0.00    -0.352 N 
ATOM     34  C   UNL A   1      41.923  19.446  25.985  1.00  0.00     0.251 C 
ATOM     35  H   UNL A   1      40.378  18.185  26.052  1.00  0.00     0.163 HD
ATOM     36  O   UNL A   1      42.722  18.552  25.694  1.00  0.00    -0.269 OA
BRANCH  34  37
ATOM     37  C   UNL A   1      42.411  20.810  26.283  1.00  0.00     0.039 A 
ATOM     38  C   UNL A   1      42.590  21.187  27.617  1.00  0.00     0.014 A 
ATOM     39  C   UNL A   1      42.631  21.740  25.263  1.00  0.00     0.014 A 
ATOM     40  C   UNL A   1      43.032  22.476  27.924  1.00  0.00     0.010 A 
ATOM     41  C   UNL A   1      43.147  22.998  25.565  1.00  0.00     0.010 A 
ATOM     42  C   UNL A   1      43.340  23.384  26.898  1.00  0.00    -0.014 A 
BRANCH  42  43
ATOM     43  C   UNL A   1      43.847  24.748  27.201  1.00  0.00     0.031 A 
ATOM     44  C   UNL A   1      42.908  25.802  27.723  1.00  0.00     0.074 A 
ATOM     45  C   UNL A   1      45.132  25.054  26.939  1.00  0.00     0.049 A 
ATOM     46  N   UNL A   1      43.130  27.070  27.957  1.00  0.00    -0.248 NA
ATOM     47  C   UNL A   1      41.524  25.377  27.984  1.00  0.00     0.031 C 
ATOM     48  C   UNL A   1      46.124  24.126  26.389  1.00  0.00     0.029 A 
ATOM     49  N   UNL A   1      45.825  26.229  27.083  1.00  0.00    -0.354 N 
ATOM     50  C   UNL A   1      41.912  27.599  28.372  1.00  0.00     0.074 A 
ATOM     51  C   UNL A   1      40.944  26.527  28.296  1.00  0.00     0.031 C 
ATOM     52  C   UNL A   1      47.298  24.763  26.258  1.00  0.00     0.029 A 
ATOM     53  C   UNL A   1      47.134  26.154  26.668  1.00  0.00     0.049 A 
ATOM     54  H   UNL A   1      45.421  27.050  27.450  1.00  0.00     0.167 HD
ATOM     55  C   UNL A   1      41.634  28.857  28.798  1.00  0.00     0.034 A 
ATOM     56  C   UNL A   1      48.089  27.103  26.608  1.00  0.00     0.034 A 
ATOM     57  C   UNL A   1      42.620  29.909  28.878  1.00  0.00     0.049 A 
ATOM     58  C   UNL A   1      47.758  28.495  27.077  1.00  0.00     0.074 A 
ATOM     59  C   UNL A   1      42.468  31.201  29.350  1.00  0.00     0.029 A 
ATOM     60  N   UNL A   1      43.944  29.791  28.467  1.00  0.00    -0.354 N 
ATOM     61  N   UNL A   1      46.615  28.967  27.522  1.00  0.00    -0.248 NA
ATOM     62  C   UNL A   1      48.847  29.479  27.053  1.00  0.00     0.031 C 
ATOM     63  C   UNL A   1      43.677  31.883  29.161  1.00  0.00     0.029 A 
ATOM     64  C   UNL A   1      44.608  30.995  28.645  1.00  0.00     0.049 A 
ATOM     65  H   UNL A   1      44.349  28.972  28.101  1.00  0.00     0.167 HD
ATOM     66  C   UNL A   1      46.857  30.297  27.854  1.00  0.00     0.074 A 
ATOM     67  C   UNL A   1      48.258  30.544  27.575  1.00  0.00     0.031 C 
ATOM     68  C   UNL A   1      46.002  31.229  28.347  1.00  0.00     0.034 A 
BRANCH  55  69
ATOM     69  C   UNL A   1      40.203  29.163  29.179  1.00  0.00     0.023 A 
ATOM     70  C   UNL A   1      39.785  29.193  30.522  1.00  0.00     0.031 A 
ATOM     71  C   UNL A   1      39.232  29.389  28.187  1.00  0.00     0.131 A 
ATOM     72  C   UNL A   1      38.425  29.353  30.831  1.00  0.00     0.055 A 
ATOM     73  C   UNL A   1      37.895  29.636  28.506  1.00  0.00     0.041 A 
ATOM     74  F   UNL A   1      39.562  29.354  26.886  1.00  0.00    -0.206 F 
ATOM     75  C   UNL A   1      37.480  29.600  29.834  1.00  0.00     0.022 A 
BRANCH  72  76
ATOM     76  S   UNL A   1      37.890  29.068  32.541  1.00  0.00     0.124 S 
ATOM     77  O   UNL A   1      38.795  29.943  33.283  1.00  0.00    -0.237 OA
ATOM     78  O   UNL A   1      36.490  29.477  32.506  1.00  0.00    -0.237 OA
ATOM     79  O   UNL A   1      38.118  27.637  32.738  1.00  0.00    -0.744 OA
ENDBRANCH  72  76
ENDBRANCH  55  69
BRANCH  56  80
ATOM     80  C   UNL A   1      49.441  26.774  26.072  1.00  0.00     0.023 A 
ATOM     81  C   UNL A   1      49.838  27.199  24.795  1.00  0.00     0.031 A 
ATOM     82  C   UNL A   1      50.348  26.004  26.823  1.00  0.00     0.131 A 
ATOM     83  C   UNL A   1      51.092  26.818  24.289  1.00  0.00     0.055 A 
ATOM     84  C   UNL A   1      51.614  25.672  26.336  1.00  0.00     0.041 A 
ATOM     85  F   UNL A   1      50.022  25.579  28.054  1.00  0.00    -0.206 F 
ATOM     86  C   UNL A   1      51.986  26.069  25.056  1.00  0.00     0.022 A 
BRANCH  83  87
ATOM     87  S   UNL A   1      51.505  27.253  22.577  1.00  0.00     0.124 S 
ATOM     88  O   UNL A   1      52.602  26.334  22.294  1.00  0.00    -0.237 OA
ATOM     89  O   UNL A   1      50.249  26.987  21.885  1.00  0.00    -0.237 OA
ATOM     90  O   UNL A   1      51.879  28.663  22.666  1.00  0.00    -0.744 OA
ENDBRANCH  83  87
ENDBRANCH  56  80
BRANCH  68  91
ATOM     91  C   UNL A   1      46.578  32.590  28.655  1.00  0.00     0.023 A 
ATOM     92  C   UNL A   1      46.688  33.587  27.671  1.00  0.00     0.031 A 
ATOM     93  C   UNL A   1      47.035  32.886  29.952  1.00  0.00     0.131 A 
ATOM     94  C   UNL A   1      47.294  34.814  27.983  1.00  0.00     0.055 A 
ATOM     95  C   UNL A   1      47.581  34.131  30.272  1.00  0.00     0.041 A 
ATOM     96  F   UNL A   1      46.959  31.970  30.929  1.00  0.00    -0.206 F 
ATOM     97  C   UNL A   1      47.724  35.099  29.282  1.00  0.00     0.022 A 
BRANCH  94  98
ATOM     98  S   UNL A   1      47.599  36.001  26.646  1.00  0.00     0.124 S 
ATOM     99  O   UNL A   1      48.365  37.038  27.330  1.00  0.00    -0.237 OA
ATOM    100  O   UNL A   1      48.338  35.198  25.677  1.00  0.00    -0.237 OA
ATOM    101  O   UNL A   1      46.256  36.398  26.227  1.00  0.00    -0.744 OA
ENDBRANCH  94  98
ENDBRANCH  68  91
ENDBRANCH  42  43
ENDBRANCH  34  37
ENDBRANCH  32  33
ENDBRANCH  31  32
ENDBRANCH   1  31
TORSDOF 19
ENDMDL
MODEL 2
REMARK VINA RESULT:     -11.7      4.250     10.072
REMARK SMILES COc1cc(/C=N/c2cccc(F)c2)ccc1OCc1cccc(C(=O)NCCCNC(=O)c2ccc(-c3c4nc(c(-c5cc(S(=O)(=O)[O-])ccc5F)c5ccc([nH]5)c(-c5cc(S(=O)(=O)[O-])ccc5F)c5nc(c(-c6cc(S(=O)(=O)[O-])ccc6F)c6ccc3[nH]6)C=C5)C=C4)cc2)c1
REMARK SMILES IDX 28 1 27 2 25 3 26 4 24 6 20 7 21 8 97 9 22 10 23 11 19 12
REMARK SMILES IDX 18 13 17 14 3 15 4 16 5 17 16 18 15 19 2 20 1 21 6 22 7 23
REMARK SMILES IDX 8 24 9 25 14 26 10 27 12 28 11 29 13 30 29 31 30 32 31 33
REMARK SMILES IDX 32 34 33 36 34 37 35 38 96 39 36 40 95 41 37 42 38 43 39 44
REMARK SMILES IDX 89 45 40 46 94 47 88 48 90 49 41 50 93 51 87 52 86 53 42 55
REMARK SMILES IDX 74 56 54 57 73 58 55 59 58 60 72 61 91 62 56 63 57 64 71 66
REMARK SMILES IDX 92 67 59 68 43 69 44 70 52 71 45 72 51 73 53 74 50 75 46 76
REMARK SMILES IDX 47 77 48 78 49 79 75 80 76 81 84 82 77 83 83 84 85 85 82 86
REMARK SMILES IDX 78 87 79 88 80 89 81 90 60 91 61 92 69 93 62 94 68 95 70 96
REMARK SMILES IDX 67 97 63 98 64 99 65 100 66 101
REMARK H PARENT 27 5 31 35 90 54 58 65
REMARK Flexibility Score: inf
ROOT
ATOM      1  C   UNL A   1      43.822  24.197  25.600  1.00  0.00     0.118 C 
ENDROOT
BRANCH   1   2
ATOM      2  N   UNL A   1      45.229  24.099  25.939  1.00  0.00    -0.352 N 
ATOM      3  C   UNL A   1      45.908  23.998  27.125  1.00  0.00     0.251 C 
ATOM      4  O   UNL A   1      47.128  23.831  27.046  1.00  0.00    -0.269 OA
ATOM      5  H   UNL A   1      45.820  24.105  25.152  1.00  0.00     0.163 HD
BRANCH   3   6
ATOM      6  C   UNL A   1      45.279  24.067  28.479  1.00  0.00     0.040 A 
ATOM      7  C   UNL A   1      44.916  25.045  30.707  1.00  0.00    -0.010 A 
ATOM      8  C   UNL A   1      44.073  23.976  31.020  1.00  0.00     0.007 A 
ATOM      9  C   UNL A   1      45.536  25.045  29.444  1.00  0.00     0.021 A 
ATOM     10  C   UNL A   1      43.789  22.991  30.074  1.00  0.00     0.001 A 
ATOM     11  C   UNL A   1      44.379  23.043  28.812  1.00  0.00     0.014 A 
BRANCH   7  12
ATOM     12  C   UNL A   1      45.184  26.255  31.595  1.00  0.00     0.265 C 
BRANCH  12  13
ATOM     13  O   UNL A   1      44.840  27.555  31.124  1.00  0.00    -0.485 OA
BRANCH  13  14
ATOM     14  C   UNL A   1      44.003  28.342  31.863  1.00  0.00     0.161 A 
ATOM     15  C   UNL A   1      44.330  29.472  32.629  1.00  0.00     0.161 A 
ATOM     16  C   UNL A   1      43.302  30.258  33.170  1.00  0.00     0.060 A 
ATOM     17  C   UNL A   1      41.967  29.903  32.943  1.00  0.00    -0.003 A 
ATOM     18  C   UNL A   1      42.666  27.964  31.708  1.00  0.00     0.051 A 
ATOM     19  C   UNL A   1      41.646  28.747  32.231  1.00  0.00     0.014 A 
BRANCH  15  20
ATOM     20  O   UNL A   1      45.644  29.732  32.910  1.00  0.00    -0.493 OA
ATOM     21  C   UNL A   1      45.992  31.116  32.914  1.00  0.00     0.278 C 
ENDBRANCH  15  20
BRANCH  17  22
ATOM     22  C   UNL A   1      40.844  30.678  33.494  1.00  0.00     0.120 C 
ATOM     23  N   UNL A   1      41.004  31.706  34.266  1.00  0.00    -0.256 NA
BRANCH  23  24
ATOM     24  C   UNL A   1      39.823  32.228  34.822  1.00  0.00     0.066 A 
ATOM     25  C   UNL A   1      39.197  33.336  34.246  1.00  0.00     0.028 A 
ATOM     26  C   UNL A   1      39.292  31.678  35.993  1.00  0.00     0.067 A 
ATOM     27  C   UNL A   1      38.045  33.881  34.825  1.00  0.00     0.005 A 
ATOM     28  C   UNL A   1      38.147  32.219  36.558  1.00  0.00     0.125 A 
ATOM     29  C   UNL A   1      37.518  33.319  35.987  1.00  0.00     0.039 A 
ATOM     30  F   UNL A   1      37.643  31.676  37.675  1.00  0.00    -0.207 F 
ENDBRANCH  23  24
ENDBRANCH  17  22
ENDBRANCH  13  14
ENDBRANCH  12  13
ENDBRANCH   7  12
ENDBRANCH   3   6
ENDBRANCH   1   2
BRANCH   1  31
ATOM     31  C   UNL A   1      43.286  22.907  24.981  1.00  0.00     0.042 C 
BRANCH  31  32
ATOM     32  C   UNL A   1      42.658  21.958  25.998  1.00  0.00     0.118 C 
BRANCH  32  33
ATOM     33  N   UNL A   1      41.212  21.893  25.852  1.00  0.00    -0.352 N 
ATOM     34  C   UNL A   1      40.238  22.737  26.317  1.00  0.00     0.251 C 
ATOM     35  H   UNL A   1      40.881  21.121  25.340  1.00  0.00     0.163 HD
ATOM     36  O   UNL A   1      39.069  22.342  26.330  1.00  0.00    -0.269 OA
BRANCH  34  37
ATOM     37  C   UNL A   1      40.568  24.097  26.796  1.00  0.00     0.039 A 
ATOM     38  C   UNL A   1      40.445  25.173  25.912  1.00  0.00     0.014 A 
ATOM     39  C   UNL A   1      41.057  24.312  28.088  1.00  0.00     0.014 A 
ATOM     40  C   UNL A   1      40.770  26.464  26.336  1.00  0.00     0.010 A 
ATOM     41  C   UNL A   1      41.303  25.607  28.534  1.00  0.00     0.010 A 
ATOM     42  C   UNL A   1      41.175  26.696  27.660  1.00  0.00    -0.014 A 
BRANCH  42  43
ATOM     43  C   UNL A   1      41.489  28.066  28.143  1.00  0.00     0.031 A 
ATOM     44  C   UNL A   1      42.915  28.545  28.174  1.00  0.00     0.074 A 
ATOM     45  C   UNL A   1      40.499  28.846  28.618  1.00  0.00     0.049 A 
ATOM     46  N   UNL A   1      43.405  29.663  28.646  1.00  0.00    -0.248 NA
ATOM     47  C   UNL A   1      43.929  27.627  27.632  1.00  0.00     0.031 C 
ATOM     48  C   UNL A   1      39.085  28.470  28.680  1.00  0.00     0.029 A 
ATOM     49  N   UNL A   1      40.528  30.109  29.153  1.00  0.00    -0.354 N 
ATOM     50  C   UNL A   1      44.783  29.575  28.477  1.00  0.00     0.074 A 
ATOM     51  C   UNL A   1      45.052  28.268  27.917  1.00  0.00     0.031 C 
ATOM     52  C   UNL A   1      38.382  29.485  29.207  1.00  0.00     0.029 A 
ATOM     53  C   UNL A   1      39.297  30.564  29.563  1.00  0.00     0.049 A 
ATOM     54  H   UNL A   1      41.354  30.640  29.235  1.00  0.00     0.167 HD
ATOM     55  C   UNL A   1      45.732  30.508  28.743  1.00  0.00     0.034 A 
ATOM     56  C   UNL A   1      38.947  31.713  30.174  1.00  0.00     0.034 A 
ATOM     57  C   UNL A   1      45.439  31.812  29.289  1.00  0.00     0.049 A 
ATOM     58  C   UNL A   1      40.016  32.732  30.469  1.00  0.00     0.074 A 
ATOM     59  C   UNL A   1      46.309  32.858  29.543  1.00  0.00     0.029 A 
ATOM     60  N   UNL A   1      44.175  32.246  29.676  1.00  0.00    -0.354 N 
ATOM     61  N   UNL A   1      41.310  32.658  30.251  1.00  0.00    -0.248 NA
ATOM     62  C   UNL A   1      39.579  33.994  31.077  1.00  0.00     0.031 C 
ATOM     63  C   UNL A   1      45.586  33.895  30.144  1.00  0.00     0.029 A 
ATOM     64  C   UNL A   1      44.250  33.531  30.194  1.00  0.00     0.049 A 
ATOM     65  H   UNL A   1      43.349  31.718  29.594  1.00  0.00     0.167 HD
ATOM     66  C   UNL A   1      41.836  33.877  30.672  1.00  0.00     0.074 A 
ATOM     67  C   UNL A   1      40.717  34.670  31.139  1.00  0.00     0.031 C 
ATOM     68  C   UNL A   1      43.125  34.303  30.671  1.00  0.00     0.034 A 
BRANCH  55  69
ATOM     69  C   UNL A   1      47.172  30.133  28.472  1.00  0.00     0.023 A 
ATOM     70  C   UNL A   1      47.953  29.460  29.429  1.00  0.00     0.031 A 
ATOM     71  C   UNL A   1      47.786  30.485  27.257  1.00  0.00     0.131 A 
ATOM     72  C   UNL A   1      49.320  29.243  29.193  1.00  0.00     0.055 A 
ATOM     73  C   UNL A   1      49.125  30.186  26.993  1.00  0.00     0.041 A 
ATOM     74  F   UNL A   1      47.101  31.146  26.310  1.00  0.00    -0.206 F 
ATOM     75  C   UNL A   1      49.906  29.577  27.971  1.00  0.00     0.022 A 
BRANCH  72  76
ATOM     76  S   UNL A   1      50.352  28.666  30.569  1.00  0.00     0.124 S 
ATOM     77  O   UNL A   1      50.487  29.882  31.367  1.00  0.00    -0.237 OA
ATOM     78  O   UNL A   1      49.539  27.605  31.151  1.00  0.00    -0.237 OA
ATOM     79  O   UNL A   1      51.581  28.222  29.912  1.00  0.00    -0.744 OA
ENDBRANCH  72  76
ENDBRANCH  55  69
BRANCH  56  80
ATOM     80  C   UNL A   1      37.527  31.956  30.559  1.00  0.00     0.023 A 
ATOM     81  C   UNL A   1      36.647  32.630  29.699  1.00  0.00     0.031 A 
ATOM     82  C   UNL A   1      37.037  31.538  31.809  1.00  0.00     0.131 A 
ATOM     83  C   UNL A   1      35.334  32.904  30.115  1.00  0.00     0.055 A 
ATOM     84  C   UNL A   1      35.715  31.767  32.198  1.00  0.00     0.041 A 
ATOM     85  F   UNL A   1      37.834  30.882  32.667  1.00  0.00    -0.206 F 
ATOM     86  C   UNL A   1      34.859  32.465  31.353  1.00  0.00     0.022 A 
BRANCH  83  87
ATOM     87  S   UNL A   1      34.275  33.913  29.042  1.00  0.00     0.124 S 
ATOM     88  O   UNL A   1      33.337  34.483  30.001  1.00  0.00    -0.237 OA
ATOM     89  O   UNL A   1      35.237  34.839  28.453  1.00  0.00    -0.237 OA
ATOM     90  O   UNL A   1      33.705  32.938  28.115  1.00  0.00    -0.744 OA
ENDBRANCH  83  87
ENDBRANCH  56  80
BRANCH  68  91
ATOM     91  C   UNL A   1      43.380  35.710  31.152  1.00  0.00     0.023 A 
ATOM     92  C   UNL A   1      43.520  36.785  30.257  1.00  0.00     0.031 A 
ATOM     93  C   UNL A   1      43.498  35.976  32.528  1.00  0.00     0.131 A 
ATOM     94  C   UNL A   1      43.825  38.065  30.743  1.00  0.00     0.055 A 
ATOM     95  C   UNL A   1      43.741  37.263  33.010  1.00  0.00     0.041 A 
ATOM     96  F   UNL A   1      43.378  34.987  33.428  1.00  0.00    -0.206 F 
ATOM     97  C   UNL A   1      43.919  38.314  32.115  1.00  0.00     0.022 A 
BRANCH  94  98
ATOM     98  S   UNL A   1      44.193  39.384  29.554  1.00  0.00     0.124 S 
ATOM     99  O   UNL A   1      43.357  39.010  28.418  1.00  0.00    -0.237 OA
ATOM    100  O   UNL A   1      43.784  40.583  30.279  1.00  0.00    -0.237 OA
ATOM    101  O   UNL A   1      45.633  39.255  29.333  1.00  0.00    -0.744 OA
ENDBRANCH  94  98
ENDBRANCH  68  91
ENDBRANCH  42  43
ENDBRANCH  34  37
ENDBRANCH  32  33
ENDBRANCH  31  32
ENDBRANCH   1  31
TORSDOF 19
ENDMDL
MODEL 3
REMARK VINA RESULT:     -11.6      1.941      2.233
REMARK SMILES COc1cc(/C=N/c2cccc(F)c2)ccc1OCc1cccc(C(=O)NCCCNC(=O)c2ccc(-c3c4nc(c(-c5cc(S(=O)(=O)[O-])ccc5F)c5ccc([nH]5)c(-c5cc(S(=O)(=O)[O-])ccc5F)c5nc(c(-c6cc(S(=O)(=O)[O-])ccc6F)c6ccc3[nH]6)C=C5)C=C4)cc2)c1
REMARK SMILES IDX 28 1 27 2 25 3 26 4 24 6 20 7 21 8 97 9 22 10 23 11 19 12
REMARK SMILES IDX 18 13 17 14 3 15 4 16 5 17 16 18 15 19 2 20 1 21 6 22 7 23
REMARK SMILES IDX 8 24 9 25 14 26 10 27 12 28 11 29 13 30 29 31 30 32 31 33
REMARK SMILES IDX 32 34 33 36 34 37 35 38 96 39 36 40 95 41 37 42 38 43 39 44
REMARK SMILES IDX 89 45 40 46 94 47 88 48 90 49 41 50 93 51 87 52 86 53 42 55
REMARK SMILES IDX 74 56 54 57 73 58 55 59 58 60 72 61 91 62 56 63 57 64 71 66
REMARK SMILES IDX 92 67 59 68 43 69 44 70 52 71 45 72 51 73 53 74 50 75 46 76
REMARK SMILES IDX 47 77 48 78 49 79 75 80 76 81 84 82 77 83 83 84 85 85 82 86
REMARK SMILES IDX 78 87 79 88 80 89 81 90 60 91 61 92 69 93 62 94 68 95 70 96
REMARK SMILES IDX 67 97 63 98 64 99 65 100 66 101
REMARK H PARENT 27 5 31 35 90 54 58 65
REMARK Flexibility Score: inf
ROOT
ATOM      1  C   UNL A   1      37.359  20.546  24.873  1.00  0.00     0.118 C 
ENDROOT
BRANCH   1   2
ATOM      2  N   UNL A   1      37.692  21.884  25.322  1.00  0.00    -0.352 N 
ATOM      3  C   UNL A   1      36.987  23.058  25.388  1.00  0.00     0.251 C 
ATOM      4  O   UNL A   1      37.558  24.009  25.927  1.00  0.00    -0.269 OA
ATOM      5  H   UNL A   1      38.616  21.966  25.650  1.00  0.00     0.163 HD
BRANCH   3   6
ATOM      6  C   UNL A   1      35.600  23.253  24.869  1.00  0.00     0.040 A 
ATOM      7  C   UNL A   1      33.210  23.798  25.081  1.00  0.00    -0.010 A 
ATOM      8  C   UNL A   1      33.033  23.471  23.735  1.00  0.00     0.007 A 
ATOM      9  C   UNL A   1      34.496  23.643  25.632  1.00  0.00     0.021 A 
ATOM     10  C   UNL A   1      34.118  23.089  22.946  1.00  0.00     0.001 A 
ATOM     11  C   UNL A   1      35.391  22.992  23.506  1.00  0.00     0.014 A 
BRANCH   7  12
ATOM     12  C   UNL A   1      32.139  24.370  26.005  1.00  0.00     0.265 C 
BRANCH  12  13
ATOM     13  O   UNL A   1      31.273  25.390  25.519  1.00  0.00    -0.485 OA
BRANCH  13  14
ATOM     14  C   UNL A   1      31.662  26.698  25.591  1.00  0.00     0.161 A 
ATOM     15  C   UNL A   1      31.083  27.809  24.957  1.00  0.00     0.161 A 
ATOM     16  C   UNL A   1      31.512  29.099  25.300  1.00  0.00     0.060 A 
ATOM     17  C   UNL A   1      32.514  29.261  26.265  1.00  0.00    -0.003 A 
ATOM     18  C   UNL A   1      32.710  26.877  26.499  1.00  0.00     0.051 A 
ATOM     19  C   UNL A   1      33.129  28.153  26.850  1.00  0.00     0.014 A 
BRANCH  15  20
ATOM     20  O   UNL A   1      30.176  27.608  23.952  1.00  0.00    -0.493 OA
ATOM     21  C   UNL A   1      30.320  28.482  22.833  1.00  0.00     0.278 C 
ENDBRANCH  15  20
BRANCH  17  22
ATOM     22  C   UNL A   1      33.018  30.586  26.658  1.00  0.00     0.120 C 
ATOM     23  N   UNL A   1      33.927  30.758  27.565  1.00  0.00    -0.256 NA
BRANCH  23  24
ATOM     24  C   UNL A   1      34.174  32.095  27.922  1.00  0.00     0.066 A 
ATOM     25  C   UNL A   1      33.135  33.029  27.935  1.00  0.00     0.028 A 
ATOM     26  C   UNL A   1      35.475  32.518  28.213  1.00  0.00     0.067 A 
ATOM     27  C   UNL A   1      33.389  34.369  28.249  1.00  0.00     0.005 A 
ATOM     28  C   UNL A   1      35.719  33.847  28.530  1.00  0.00     0.125 A 
ATOM     29  C   UNL A   1      34.689  34.779  28.548  1.00  0.00     0.039 A 
ATOM     30  F   UNL A   1      36.968  34.237  28.817  1.00  0.00    -0.207 F 
ENDBRANCH  23  24
ENDBRANCH  17  22
ENDBRANCH  13  14
ENDBRANCH  12  13
ENDBRANCH   7  12
ENDBRANCH   3   6
ENDBRANCH   1   2
BRANCH   1  31
ATOM     31  C   UNL A   1      38.446  19.531  25.228  1.00  0.00     0.042 C 
BRANCH  31  32
ATOM     32  C   UNL A   1      39.579  20.118  26.063  1.00  0.00     0.118 C 
BRANCH  32  33
ATOM     33  N   UNL A   1      40.769  19.280  26.021  1.00  0.00    -0.352 N 
ATOM     34  C   UNL A   1      42.093  19.626  25.957  1.00  0.00     0.251 C 
ATOM     35  H   UNL A   1      40.594  18.312  26.042  1.00  0.00     0.163 HD
ATOM     36  O   UNL A   1      42.915  18.764  25.638  1.00  0.00    -0.269 OA
BRANCH  34  37
ATOM     37  C   UNL A   1      42.540  21.003  26.260  1.00  0.00     0.039 A 
ATOM     38  C   UNL A   1      42.509  21.447  27.586  1.00  0.00     0.014 A 
ATOM     39  C   UNL A   1      42.927  21.880  25.244  1.00  0.00     0.014 A 
ATOM     40  C   UNL A   1      42.908  22.749  27.895  1.00  0.00     0.010 A 
ATOM     41  C   UNL A   1      43.400  23.151  25.561  1.00  0.00     0.010 A 
ATOM     42  C   UNL A   1      43.383  23.604  26.887  1.00  0.00    -0.014 A 
BRANCH  42  43
ATOM     43  C   UNL A   1      43.848  24.981  27.198  1.00  0.00     0.031 A 
ATOM     44  C   UNL A   1      42.877  26.002  27.729  1.00  0.00     0.074 A 
ATOM     45  C   UNL A   1      45.123  25.328  26.936  1.00  0.00     0.049 A 
ATOM     46  N   UNL A   1      43.061  27.274  27.971  1.00  0.00    -0.248 NA
ATOM     47  C   UNL A   1      41.508  25.532  27.989  1.00  0.00     0.031 C 
ATOM     48  C   UNL A   1      46.141  24.435  26.378  1.00  0.00     0.029 A 
ATOM     49  N   UNL A   1      45.778  26.523  27.087  1.00  0.00    -0.354 N 
ATOM     50  C   UNL A   1      41.828  27.763  28.392  1.00  0.00     0.074 A 
ATOM     51  C   UNL A   1      40.893  26.661  28.311  1.00  0.00     0.031 C 
ATOM     52  C   UNL A   1      47.295  25.110  26.249  1.00  0.00     0.029 A 
ATOM     53  C   UNL A   1      47.088  26.492  26.669  1.00  0.00     0.049 A 
ATOM     54  H   UNL A   1      45.351  27.329  27.460  1.00  0.00     0.167 HD
ATOM     55  C   UNL A   1      41.512  29.008  28.827  1.00  0.00     0.034 A 
ATOM     56  C   UNL A   1      48.014  27.470  26.614  1.00  0.00     0.034 A 
ATOM     57  C   UNL A   1      42.465  30.089  28.913  1.00  0.00     0.049 A 
ATOM     58  C   UNL A   1      47.641  28.848  27.093  1.00  0.00     0.074 A 
ATOM     59  C   UNL A   1      42.274  31.373  29.394  1.00  0.00     0.029 A 
ATOM     60  N   UNL A   1      43.791  30.016  28.498  1.00  0.00    -0.354 N 
ATOM     61  N   UNL A   1      46.484  29.282  27.543  1.00  0.00    -0.248 NA
ATOM     62  C   UNL A   1      48.699  29.865  27.073  1.00  0.00     0.031 C 
ATOM     63  C   UNL A   1      43.461  32.093  29.208  1.00  0.00     0.029 A 
ATOM     64  C   UNL A   1      44.418  31.239  28.684  1.00  0.00     0.049 A 
ATOM     65  H   UNL A   1      44.221  29.212  28.126  1.00  0.00     0.167 HD
ATOM     66  C   UNL A   1      46.686  30.616  27.884  1.00  0.00     0.074 A 
ATOM     67  C   UNL A   1      48.078  30.908  27.604  1.00  0.00     0.031 C 
ATOM     68  C   UNL A   1      45.804  31.518  28.385  1.00  0.00     0.034 A 
BRANCH  55  69
ATOM     69  C   UNL A   1      40.073  29.267  29.213  1.00  0.00     0.023 A 
ATOM     70  C   UNL A   1      39.665  29.315  30.558  1.00  0.00     0.031 A 
ATOM     71  C   UNL A   1      39.086  29.429  28.224  1.00  0.00     0.131 A 
ATOM     72  C   UNL A   1      38.302  29.429  30.875  1.00  0.00     0.055 A 
ATOM     73  C   UNL A   1      37.742  29.631  28.548  1.00  0.00     0.041 A 
ATOM     74  F   UNL A   1      39.407  29.373  26.922  1.00  0.00    -0.206 F 
ATOM     75  C   UNL A   1      37.340  29.613  29.880  1.00  0.00     0.022 A 
BRANCH  72  76
ATOM     76  S   UNL A   1      37.791  29.167  32.597  1.00  0.00     0.124 S 
ATOM     77  O   UNL A   1      38.852  29.858  33.327  1.00  0.00    -0.237 OA
ATOM     78  O   UNL A   1      36.476  29.794  32.635  1.00  0.00    -0.237 OA
ATOM     79  O   UNL A   1      37.794  27.712  32.737  1.00  0.00    -0.744 OA
ENDBRANCH  72  76
ENDBRANCH  55  69
BRANCH  56  80
ATOM     80  C   UNL A   1      49.374  27.186  26.073  1.00  0.00     0.023 A 
ATOM     81  C   UNL A   1      50.469  26.992  26.929  1.00  0.00     0.031 A 
ATOM     82  C   UNL A   1      49.603  27.131  24.686  1.00  0.00     0.131 A 
ATOM     83  C   UNL A   1      51.751  26.794  26.391  1.00  0.00     0.055 A 
ATOM     84  C   UNL A   1      50.870  26.881  24.156  1.00  0.00     0.041 A 
ATOM     85  F   UNL A   1      48.588  27.301  23.823  1.00  0.00    -0.206 F 
ATOM     86  C   UNL A   1      51.956  26.723  25.011  1.00  0.00     0.022 A 
BRANCH  83  87
ATOM     87  S   UNL A   1      53.164  26.704  27.525  1.00  0.00     0.124 S 
ATOM     88  O   UNL A   1      54.112  25.906  26.756  1.00  0.00    -0.237 OA
ATOM     89  O   UNL A   1      53.502  28.113  27.698  1.00  0.00    -0.237 OA
ATOM     90  O   UNL A   1      52.609  26.048  28.707  1.00  0.00    -0.744 OA
ENDBRANCH  83  87
ENDBRANCH  56  80
BRANCH  68  91
ATOM     91  C   UNL A   1      46.338  32.893  28.701  1.00  0.00     0.023 A 
ATOM     92  C   UNL A   1      46.873  33.207  29.963  1.00  0.00     0.031 A 
ATOM     93  C   UNL A   1      46.298  33.908  27.729  1.00  0.00     0.131 A 
ATOM     94  C   UNL A   1      47.294  34.517  30.237  1.00  0.00     0.055 A 
ATOM     95  C   UNL A   1      46.776  35.194  27.988  1.00  0.00     0.041 A 
ATOM     96  F   UNL A   1      45.794  33.666  26.508  1.00  0.00    -0.206 F 
ATOM     97  C   UNL A   1      47.266  35.507  29.252  1.00  0.00     0.022 A 
BRANCH  94  98
ATOM     98  S   UNL A   1      47.793  34.935  31.931  1.00  0.00     0.124 S 
ATOM     99  O   UNL A   1      46.546  35.440  32.498  1.00  0.00    -0.237 OA
ATOM    100  O   UNL A   1      48.254  33.650  32.447  1.00  0.00    -0.237 OA
ATOM    101  O   UNL A   1      48.838  35.939  31.742  1.00  0.00    -0.744 OA
ENDBRANCH  94  98
ENDBRANCH  68  91
ENDBRANCH  42  43
ENDBRANCH  34  37
ENDBRANCH  32  33
ENDBRANCH  31  32
ENDBRANCH   1  31
TORSDOF 19
ENDMDL
