MODEL 1
REMARK VINA RESULT:     -13.5      0.000      0.000
REMARK SMILES NS(=O)(=O)c1ccc(-n2nc(C(F)(F)F)cc2-c2ccc(CC(=O)NCCCNC(=O)c3ccc(-c4c5nc(c(-c6cc(S(=O)(=O)[O-])ccc6F)c6ccc([nH]6)c(-c6cc(S(=O)(=O)[O-])ccc6F)c6nc(c(-c7cc(S(=O)(=O)[O-])ccc7F)c7ccc4[nH]7)C=C6)C=C5)cc3)cc2)cc1
REMARK SMILES IDX 26 1 25 2 23 3 24 4 22 6 21 7 18 8 19 9 96 10 20 11 95 12
REMARK SMILES IDX 17 13 9 14 10 15 11 16 16 17 8 18 5 19 6 20 98 21 7 22 97 23
REMARK SMILES IDX 2 24 3 25 4 26 1 27 12 30 13 31 14 32 15 33 27 34 28 35
REMARK SMILES IDX 29 36 30 37 31 39 32 40 33 41 94 42 34 43 93 44 35 45 36 46
REMARK SMILES IDX 37 47 87 48 38 49 92 50 86 51 88 52 39 53 91 54 85 55 84 56
REMARK SMILES IDX 40 58 72 59 52 60 71 61 53 62 56 63 70 64 89 65 54 66 55 67
REMARK SMILES IDX 69 69 90 70 57 71 41 72 42 73 50 74 43 75 49 76 51 77 48 78
REMARK SMILES IDX 44 79 45 80 46 81 47 82 73 83 74 84 82 85 75 86 81 87 83 88
REMARK SMILES IDX 80 89 76 90 77 91 78 92 79 93 58 94 59 95 67 96 60 97 66 98
REMARK SMILES IDX 68 99 65 100 61 101 62 102 63 103 64 104
REMARK H PARENT 25 5 1 28 1 29 29 38 88 57 56 68
REMARK Flexibility Score: inf
ROOT
ATOM      1  C   UNL A   1      34.610  32.951  28.891  1.00  0.00     0.117 C 
ENDROOT
BRANCH   1   2
ATOM      2  N   UNL A   1      33.532  32.602  27.979  1.00  0.00    -0.356 N 
ATOM      3  C   UNL A   1      33.183  31.379  27.479  1.00  0.00     0.224 C 
ATOM      4  O   UNL A   1      32.238  31.310  26.693  1.00  0.00    -0.275 OA
ATOM      5  H   UNL A   1      32.974  33.355  27.677  1.00  0.00     0.163 HD
BRANCH   3   6
ATOM      6  C   UNL A   1      33.925  30.131  27.927  1.00  0.00     0.135 C 
BRANCH   6   7
ATOM      7  C   UNL A   1      33.548  28.884  27.166  1.00  0.00    -0.039 A 
ATOM      8  C   UNL A   1      32.818  26.602  25.675  1.00  0.00     0.000 A 
ATOM      9  C   UNL A   1      31.996  27.079  26.710  1.00  0.00     0.010 A 
ATOM     10  C   UNL A   1      34.029  27.253  25.426  1.00  0.00     0.010 A 
ATOM     11  C   UNL A   1      32.351  28.215  27.441  1.00  0.00     0.005 A 
ATOM     12  C   UNL A   1      34.396  28.374  26.172  1.00  0.00     0.005 A 
BRANCH   8  13
ATOM     13  C   UNL A   1      32.428  25.444  24.868  1.00  0.00     0.075 A 
ATOM     14  N   UNL A   1      31.379  25.413  23.959  1.00  0.00    -0.233 N 
ATOM     15  N   UNL A   1      31.091  24.155  23.549  1.00  0.00    -0.163 NA
ATOM     16  C   UNL A   1      32.082  23.393  24.034  1.00  0.00     0.167 A 
ATOM     17  C   UNL A   1      32.922  24.152  24.888  1.00  0.00     0.064 A 
BRANCH  14  18
ATOM     18  C   UNL A   1      30.606  26.493  23.487  1.00  0.00     0.065 A 
ATOM     19  C   UNL A   1      29.103  28.688  22.783  1.00  0.00     0.082 A 
ATOM     20  C   UNL A   1      30.434  28.620  22.367  1.00  0.00     0.024 A 
ATOM     21  C   UNL A   1      28.500  27.651  23.497  1.00  0.00     0.024 A 
ATOM     22  C   UNL A   1      31.202  27.522  22.743  1.00  0.00     0.030 A 
ATOM     23  C   UNL A   1      29.249  26.528  23.821  1.00  0.00     0.030 A 
BRANCH  19  24
ATOM     24  S   UNL A   1      28.094  30.063  22.342  1.00  0.00     0.238 S 
ATOM     25  O   UNL A   1      26.911  30.013  23.155  1.00  0.00    -0.207 OA
ATOM     26  O   UNL A   1      28.082  30.068  20.897  1.00  0.00    -0.207 OA
BRANCH  24  27
ATOM     27  N   UNL A   1      28.967  31.397  22.907  1.00  0.00    -0.225 NA
ATOM     28  H   UNL A   1      29.727  31.606  22.259  1.00  0.00     0.137 HD
ATOM     29  H   UNL A   1      29.352  31.187  23.827  1.00  0.00     0.137 HD
ENDBRANCH  24  27
ENDBRANCH  19  24
ENDBRANCH  14  18
BRANCH  16  30
ATOM     30  C   UNL A   1      32.209  21.933  23.699  1.00  0.00     0.435 C 
ATOM     31  F   UNL A   1      31.544  21.128  24.567  1.00  0.00    -0.164 F 
ATOM     32  F   UNL A   1      31.740  21.652  22.453  1.00  0.00    -0.164 F 
ATOM     33  F   UNL A   1      33.509  21.525  23.715  1.00  0.00    -0.164 F 
ENDBRANCH  16  30
ENDBRANCH   8  13
ENDBRANCH   6   7
ENDBRANCH   3   6
ENDBRANCH   1   2
BRANCH   1  34
ATOM     34  C   UNL A   1      35.975  33.015  28.200  1.00  0.00     0.042 C 
BRANCH  34  35
ATOM     35  C   UNL A   1      37.004  32.119  28.873  1.00  0.00     0.118 C 
BRANCH  35  36
ATOM     36  N   UNL A   1      36.457  31.334  29.983  1.00  0.00    -0.352 N 
ATOM     37  C   UNL A   1      36.687  29.999  30.285  1.00  0.00     0.251 C 
ATOM     38  H   UNL A   1      35.849  31.813  30.591  1.00  0.00     0.163 HD
ATOM     39  O   UNL A   1      35.906  29.390  31.010  1.00  0.00    -0.269 OA
BRANCH  37  40
ATOM     40  C   UNL A   1      37.881  29.333  29.723  1.00  0.00     0.039 A 
ATOM     41  C   UNL A   1      38.414  29.650  28.471  1.00  0.00     0.014 A 
ATOM     42  C   UNL A   1      38.497  28.373  30.514  1.00  0.00     0.014 A 
ATOM     43  C   UNL A   1      39.615  29.052  28.074  1.00  0.00     0.010 A 
ATOM     44  C   UNL A   1      39.772  27.971  30.229  1.00  0.00     0.010 A 
ATOM     45  C   UNL A   1      40.313  28.231  28.976  1.00  0.00    -0.014 A 
BRANCH  45  46
ATOM     46  C   UNL A   1      41.681  27.747  28.737  1.00  0.00     0.031 A 
ATOM     47  C   UNL A   1      41.768  26.420  28.047  1.00  0.00     0.074 A 
ATOM     48  C   UNL A   1      42.760  28.566  28.875  1.00  0.00     0.049 A 
ATOM     49  N   UNL A   1      42.591  25.461  28.297  1.00  0.00    -0.248 NA
ATOM     50  C   UNL A   1      40.810  26.079  26.982  1.00  0.00     0.031 C 
ATOM     51  C   UNL A   1      42.785  29.960  29.348  1.00  0.00     0.029 A 
ATOM     52  N   UNL A   1      44.064  28.379  28.505  1.00  0.00    -0.354 N 
ATOM     53  C   UNL A   1      42.386  24.481  27.329  1.00  0.00     0.074 A 
ATOM     54  C   UNL A   1      41.261  24.900  26.550  1.00  0.00     0.031 C 
ATOM     55  C   UNL A   1      43.958  30.548  29.020  1.00  0.00     0.029 A 
ATOM     56  C   UNL A   1      44.846  29.545  28.457  1.00  0.00     0.049 A 
ATOM     57  H   UNL A   1      44.427  27.491  28.288  1.00  0.00     0.167 HD
ATOM     58  C   UNL A   1      43.254  23.448  27.184  1.00  0.00     0.034 A 
ATOM     59  C   UNL A   1      46.132  29.693  28.012  1.00  0.00     0.034 A 
ATOM     60  C   UNL A   1      43.961  23.212  28.412  1.00  0.00     0.049 A 
ATOM     61  C   UNL A   1      46.744  28.346  28.086  1.00  0.00     0.074 A 
ATOM     62  C   UNL A   1      43.523  22.909  29.687  1.00  0.00     0.029 A 
ATOM     63  N   UNL A   1      45.221  23.745  28.559  1.00  0.00    -0.354 N 
ATOM     64  N   UNL A   1      46.941  27.723  29.214  1.00  0.00    -0.248 NA
ATOM     65  C   UNL A   1      46.642  27.494  26.911  1.00  0.00     0.031 C 
ATOM     66  C   UNL A   1      44.262  23.793  30.522  1.00  0.00     0.029 A 
ATOM     67  C   UNL A   1      45.208  24.458  29.736  1.00  0.00     0.049 A 
ATOM     68  H   UNL A   1      45.981  23.638  27.944  1.00  0.00     0.167 HD
ATOM     69  C   UNL A   1      46.516  26.427  28.975  1.00  0.00     0.074 A 
ATOM     70  C   UNL A   1      46.428  26.320  27.516  1.00  0.00     0.031 C 
ATOM     71  C   UNL A   1      45.995  25.652  29.973  1.00  0.00     0.034 A 
BRANCH  58  72
ATOM     72  C   UNL A   1      43.686  22.857  25.875  1.00  0.00     0.023 A 
ATOM     73  C   UNL A   1      43.731  21.455  25.786  1.00  0.00     0.031 A 
ATOM     74  C   UNL A   1      44.380  23.578  24.882  1.00  0.00     0.131 A 
ATOM     75  C   UNL A   1      44.533  20.824  24.822  1.00  0.00     0.055 A 
ATOM     76  C   UNL A   1      45.124  22.944  23.881  1.00  0.00     0.041 A 
ATOM     77  F   UNL A   1      44.462  24.915  24.906  1.00  0.00    -0.206 F 
ATOM     78  C   UNL A   1      45.233  21.560  23.868  1.00  0.00     0.022 A 
BRANCH  75  79
ATOM     79  S   UNL A   1      44.799  19.039  24.980  1.00  0.00     0.124 S 
ATOM     80  O   UNL A   1      46.200  18.982  25.385  1.00  0.00    -0.237 OA
ATOM     81  O   UNL A   1      43.822  18.676  26.001  1.00  0.00    -0.237 OA
ATOM     82  O   UNL A   1      44.515  18.533  23.639  1.00  0.00    -0.744 OA
ENDBRANCH  75  79
ENDBRANCH  58  72
BRANCH  59  83
ATOM     83  C   UNL A   1      46.793  30.846  27.312  1.00  0.00     0.023 A 
ATOM     84  C   UNL A   1      46.093  31.974  26.804  1.00  0.00     0.031 A 
ATOM     85  C   UNL A   1      48.198  30.971  27.381  1.00  0.00     0.131 A 
ATOM     86  C   UNL A   1      46.795  33.148  26.411  1.00  0.00     0.055 A 
ATOM     87  C   UNL A   1      48.881  32.132  27.002  1.00  0.00     0.041 A 
ATOM     88  F   UNL A   1      48.955  29.997  27.909  1.00  0.00    -0.206 F 
ATOM     89  C   UNL A   1      48.183  33.230  26.528  1.00  0.00     0.022 A 
BRANCH  86  90
ATOM     90  S   UNL A   1      45.915  34.644  25.823  1.00  0.00     0.124 S 
ATOM     91  O   UNL A   1      46.992  35.622  25.724  1.00  0.00    -0.237 OA
ATOM     92  O   UNL A   1      45.326  34.196  24.566  1.00  0.00    -0.237 OA
ATOM     93  O   UNL A   1      44.945  34.912  26.886  1.00  0.00    -0.744 OA
ENDBRANCH  86  90
ENDBRANCH  59  83
BRANCH  71  94
ATOM     94  C   UNL A   1      46.061  26.148  31.409  1.00  0.00     0.023 A 
ATOM     95  C   UNL A   1      44.997  26.757  32.119  1.00  0.00     0.031 A 
ATOM     96  C   UNL A   1      47.230  25.848  32.132  1.00  0.00     0.131 A 
ATOM     97  C   UNL A   1      45.137  27.048  33.493  1.00  0.00     0.055 A 
ATOM     98  C   UNL A   1      47.350  26.100  33.497  1.00  0.00     0.041 A 
ATOM     99  F   UNL A   1      48.272  25.254  31.528  1.00  0.00    -0.206 F 
ATOM    100  C   UNL A   1      46.306  26.710  34.182  1.00  0.00     0.022 A 
BRANCH  97 101
ATOM    101  S   UNL A   1      43.817  27.908  34.412  1.00  0.00     0.124 S 
ATOM    102  O   UNL A   1      42.619  27.142  34.088  1.00  0.00    -0.237 OA
ATOM    103  O   UNL A   1      44.277  27.817  35.794  1.00  0.00    -0.237 OA
ATOM    104  O   UNL A   1      43.841  29.261  33.852  1.00  0.00    -0.744 OA
ENDBRANCH  97 101
ENDBRANCH  71  94
ENDBRANCH  45  46
ENDBRANCH  37  40
ENDBRANCH  35  36
ENDBRANCH  34  35
ENDBRANCH   1  34
TORSDOF 19
ENDMDL
MODEL 2
REMARK VINA RESULT:     -13.2      3.232      7.968
REMARK SMILES NS(=O)(=O)c1ccc(-n2nc(C(F)(F)F)cc2-c2ccc(CC(=O)NCCCNC(=O)c3ccc(-c4c5nc(c(-c6cc(S(=O)(=O)[O-])ccc6F)c6ccc([nH]6)c(-c6cc(S(=O)(=O)[O-])ccc6F)c6nc(c(-c7cc(S(=O)(=O)[O-])ccc7F)c7ccc4[nH]7)C=C6)C=C5)cc3)cc2)cc1
REMARK SMILES IDX 26 1 25 2 23 3 24 4 22 6 21 7 18 8 19 9 96 10 20 11 95 12
REMARK SMILES IDX 17 13 9 14 10 15 11 16 16 17 8 18 5 19 6 20 98 21 7 22 97 23
REMARK SMILES IDX 2 24 3 25 4 26 1 27 12 30 13 31 14 32 15 33 27 34 28 35
REMARK SMILES IDX 29 36 30 37 31 39 32 40 33 41 94 42 34 43 93 44 35 45 36 46
REMARK SMILES IDX 37 47 87 48 38 49 92 50 86 51 88 52 39 53 91 54 85 55 84 56
REMARK SMILES IDX 40 58 72 59 52 60 71 61 53 62 56 63 70 64 89 65 54 66 55 67
REMARK SMILES IDX 69 69 90 70 57 71 41 72 42 73 50 74 43 75 49 76 51 77 48 78
REMARK SMILES IDX 44 79 45 80 46 81 47 82 73 83 74 84 82 85 75 86 81 87 83 88
REMARK SMILES IDX 80 89 76 90 77 91 78 92 79 93 58 94 59 95 67 96 60 97 66 98
REMARK SMILES IDX 68 99 65 100 61 101 62 102 63 103 64 104
REMARK H PARENT 25 5 1 28 1 29 29 38 88 57 56 68
REMARK Flexibility Score: inf
ROOT
ATOM      1  C   UNL A   1      33.134  28.990  24.887  1.00  0.00     0.117 C 
ENDROOT
BRANCH   1   2
ATOM      2  N   UNL A   1      33.837  28.801  23.628  1.00  0.00    -0.356 N 
ATOM      3  C   UNL A   1      33.534  27.975  22.582  1.00  0.00     0.224 C 
ATOM      4  O   UNL A   1      34.287  27.955  21.608  1.00  0.00    -0.275 OA
ATOM      5  H   UNL A   1      34.648  29.347  23.511  1.00  0.00     0.163 HD
BRANCH   3   6
ATOM      6  C   UNL A   1      32.269  27.135  22.614  1.00  0.00     0.135 C 
BRANCH   6   7
ATOM      7  C   UNL A   1      32.500  25.685  22.960  1.00  0.00    -0.039 A 
ATOM      8  C   UNL A   1      32.997  22.998  23.661  1.00  0.00     0.000 A 
ATOM      9  C   UNL A   1      33.455  23.519  22.440  1.00  0.00     0.010 A 
ATOM     10  C   UNL A   1      32.250  23.823  24.505  1.00  0.00     0.010 A 
ATOM     11  C   UNL A   1      33.220  24.852  22.096  1.00  0.00     0.005 A 
ATOM     12  C   UNL A   1      31.993  25.149  24.152  1.00  0.00     0.005 A 
BRANCH   8  13
ATOM     13  C   UNL A   1      33.286  21.616  24.053  1.00  0.00     0.075 A 
ATOM     14  N   UNL A   1      34.483  21.166  24.592  1.00  0.00    -0.233 N 
ATOM     15  N   UNL A   1      34.559  19.814  24.621  1.00  0.00    -0.163 NA
ATOM     16  C   UNL A   1      33.330  19.389  24.291  1.00  0.00     0.167 A 
ATOM     17  C   UNL A   1      32.513  20.479  23.900  1.00  0.00     0.064 A 
BRANCH  14  18
ATOM     18  C   UNL A   1      35.578  21.934  25.041  1.00  0.00     0.065 A 
ATOM     19  C   UNL A   1      37.684  23.334  26.126  1.00  0.00     0.082 A 
ATOM     20  C   UNL A   1      37.952  22.286  25.243  1.00  0.00     0.024 A 
ATOM     21  C   UNL A   1      36.379  23.724  26.429  1.00  0.00     0.024 A 
ATOM     22  C   UNL A   1      36.890  21.562  24.713  1.00  0.00     0.030 A 
ATOM     23  C   UNL A   1      35.316  23.041  25.854  1.00  0.00     0.030 A 
BRANCH  19  24
ATOM     24  S   UNL A   1      38.996  24.272  26.833  1.00  0.00     0.238 S 
ATOM     25  O   UNL A   1      38.431  25.115  27.848  1.00  0.00    -0.207 OA
ATOM     26  O   UNL A   1      39.753  24.763  25.704  1.00  0.00    -0.207 OA
BRANCH  24  27
ATOM     27  N   UNL A   1      39.908  23.118  27.668  1.00  0.00    -0.225 NA
ATOM     28  H   UNL A   1      40.075  22.313  27.064  1.00  0.00     0.137 HD
ATOM     29  H   UNL A   1      39.399  22.820  28.500  1.00  0.00     0.137 HD
ENDBRANCH  24  27
ENDBRANCH  19  24
ENDBRANCH  14  18
BRANCH  16  30
ATOM     30  C   UNL A   1      32.949  17.935  24.328  1.00  0.00     0.435 C 
ATOM     31  F   UNL A   1      31.760  17.713  24.947  1.00  0.00    -0.164 F 
ATOM     32  F   UNL A   1      32.856  17.399  23.081  1.00  0.00    -0.164 F 
ATOM     33  F   UNL A   1      33.874  17.189  24.993  1.00  0.00    -0.164 F 
ENDBRANCH  16  30
ENDBRANCH   8  13
ENDBRANCH   6   7
ENDBRANCH   3   6
ENDBRANCH   1   2
BRANCH   1  34
ATOM     34  C   UNL A   1      33.783  28.230  26.048  1.00  0.00     0.042 C 
BRANCH  34  35
ATOM     35  C   UNL A   1      33.906  29.086  27.300  1.00  0.00     0.118 C 
BRANCH  35  36
ATOM     36  N   UNL A   1      34.263  30.480  27.021  1.00  0.00    -0.352 N 
ATOM     37  C   UNL A   1      35.331  31.210  27.523  1.00  0.00     0.251 C 
ATOM     38  H   UNL A   1      33.669  30.960  26.399  1.00  0.00     0.163 HD
ATOM     39  O   UNL A   1      35.306  32.436  27.491  1.00  0.00    -0.269 OA
BRANCH  37  40
ATOM     40  C   UNL A   1      36.488  30.487  28.091  1.00  0.00     0.039 A 
ATOM     41  C   UNL A   1      36.816  29.174  27.738  1.00  0.00     0.014 A 
ATOM     42  C   UNL A   1      37.285  31.181  28.990  1.00  0.00     0.014 A 
ATOM     43  C   UNL A   1      37.999  28.614  28.236  1.00  0.00     0.010 A 
ATOM     44  C   UNL A   1      38.538  30.722  29.286  1.00  0.00     0.010 A 
ATOM     45  C   UNL A   1      38.880  29.409  28.990  1.00  0.00    -0.014 A 
BRANCH  45  46
ATOM     46  C   UNL A   1      40.237  28.983  29.360  1.00  0.00     0.031 A 
ATOM     47  C   UNL A   1      40.487  28.881  30.833  1.00  0.00     0.074 A 
ATOM     48  C   UNL A   1      41.093  28.456  28.440  1.00  0.00     0.049 A 
ATOM     49  N   UNL A   1      41.549  29.230  31.473  1.00  0.00    -0.248 NA
ATOM     50  C   UNL A   1      39.430  28.377  31.726  1.00  0.00     0.031 C 
ATOM     51  C   UNL A   1      40.887  28.309  26.990  1.00  0.00     0.029 A 
ATOM     52  N   UNL A   1      42.291  27.818  28.612  1.00  0.00    -0.354 N 
ATOM     53  C   UNL A   1      41.379  28.838  32.798  1.00  0.00     0.074 A 
ATOM     54  C   UNL A   1      40.045  28.332  32.910  1.00  0.00     0.031 C 
ATOM     55  C   UNL A   1      41.785  27.441  26.472  1.00  0.00     0.029 A 
ATOM     56  C   UNL A   1      42.742  27.082  27.504  1.00  0.00     0.049 A 
ATOM     57  H   UNL A   1      42.800  27.871  29.452  1.00  0.00     0.167 HD
ATOM     58  C   UNL A   1      42.415  28.859  33.673  1.00  0.00     0.034 A 
ATOM     59  C   UNL A   1      43.827  26.251  27.414  1.00  0.00     0.034 A 
ATOM     60  C   UNL A   1      43.408  29.808  33.250  1.00  0.00     0.049 A 
ATOM     61  C   UNL A   1      44.744  26.664  28.502  1.00  0.00     0.074 A 
ATOM     62  C   UNL A   1      43.344  31.166  33.005  1.00  0.00     0.029 A 
ATOM     63  N   UNL A   1      44.505  29.348  32.559  1.00  0.00    -0.354 N 
ATOM     64  N   UNL A   1      45.325  27.832  28.529  1.00  0.00    -0.248 NA
ATOM     65  C   UNL A   1      44.596  26.011  29.793  1.00  0.00     0.031 C 
ATOM     66  C   UNL A   1      44.013  31.321  31.759  1.00  0.00     0.029 A 
ATOM     67  C   UNL A   1      44.579  30.092  31.404  1.00  0.00     0.049 A 
ATOM     68  H   UNL A   1      45.116  28.628  32.836  1.00  0.00     0.167 HD
ATOM     69  C   UNL A   1      45.181  28.263  29.837  1.00  0.00     0.074 A 
ATOM     70  C   UNL A   1      44.805  27.064  30.592  1.00  0.00     0.031 C 
ATOM     71  C   UNL A   1      45.090  29.591  30.143  1.00  0.00     0.034 A 
BRANCH  58  72
ATOM     72  C   UNL A   1      42.680  27.827  34.728  1.00  0.00     0.023 A 
ATOM     73  C   UNL A   1      43.420  26.693  34.348  1.00  0.00     0.031 A 
ATOM     74  C   UNL A   1      41.954  27.735  35.933  1.00  0.00     0.131 A 
ATOM     75  C   UNL A   1      43.328  25.500  35.081  1.00  0.00     0.055 A 
ATOM     76  C   UNL A   1      41.919  26.563  36.697  1.00  0.00     0.041 A 
ATOM     77  F   UNL A   1      41.160  28.728  36.358  1.00  0.00    -0.206 F 
ATOM     78  C   UNL A   1      42.580  25.426  36.254  1.00  0.00     0.022 A 
BRANCH  75  79
ATOM     79  S   UNL A   1      44.039  24.003  34.350  1.00  0.00     0.124 S 
ATOM     80  O   UNL A   1      42.899  23.092  34.371  1.00  0.00    -0.237 OA
ATOM     81  O   UNL A   1      44.457  24.475  33.034  1.00  0.00    -0.237 OA
ATOM     82  O   UNL A   1      45.127  23.662  35.264  1.00  0.00    -0.744 OA
ENDBRANCH  75  79
ENDBRANCH  58  72
BRANCH  59  83
ATOM     83  C   UNL A   1      44.024  24.991  26.623  1.00  0.00     0.023 A 
ATOM     84  C   UNL A   1      43.336  23.775  26.880  1.00  0.00     0.031 A 
ATOM     85  C   UNL A   1      44.720  25.058  25.396  1.00  0.00     0.131 A 
ATOM     86  C   UNL A   1      43.356  22.714  25.932  1.00  0.00     0.055 A 
ATOM     87  C   UNL A   1      44.727  24.015  24.463  1.00  0.00     0.041 A 
ATOM     88  F   UNL A   1      45.346  26.183  25.015  1.00  0.00    -0.206 F 
ATOM     89  C   UNL A   1      44.035  22.844  24.720  1.00  0.00     0.022 A 
BRANCH  86  90
ATOM     90  S   UNL A   1      42.418  21.163  26.203  1.00  0.00     0.124 S 
ATOM     91  O   UNL A   1      41.145  21.448  25.552  1.00  0.00    -0.237 OA
ATOM     92  O   UNL A   1      43.265  20.161  25.565  1.00  0.00    -0.237 OA
ATOM     93  O   UNL A   1      42.346  21.056  27.661  1.00  0.00    -0.744 OA
ENDBRANCH  86  90
ENDBRANCH  59  83
BRANCH  71  94
ATOM     94  C   UNL A   1      45.346  30.623  29.056  1.00  0.00     0.023 A 
ATOM     95  C   UNL A   1      46.621  31.052  28.612  1.00  0.00     0.031 A 
ATOM     96  C   UNL A   1      44.226  31.081  28.337  1.00  0.00     0.131 A 
ATOM     97  C   UNL A   1      46.731  31.912  27.498  1.00  0.00     0.055 A 
ATOM     98  C   UNL A   1      44.341  31.897  27.214  1.00  0.00     0.041 A 
ATOM     99  F   UNL A   1      42.987  30.700  28.690  1.00  0.00    -0.206 F 
ATOM    100  C   UNL A   1      45.594  32.323  26.795  1.00  0.00     0.022 A 
BRANCH  97 101
ATOM    101  S   UNL A   1      48.353  32.547  26.957  1.00  0.00     0.124 S 
ATOM    102  O   UNL A   1      48.026  33.389  25.811  1.00  0.00    -0.237 OA
ATOM    103  O   UNL A   1      48.836  33.246  28.144  1.00  0.00    -0.237 OA
ATOM    104  O   UNL A   1      49.098  31.332  26.623  1.00  0.00    -0.744 OA
ENDBRANCH  97 101
ENDBRANCH  71  94
ENDBRANCH  45  46
ENDBRANCH  37  40
ENDBRANCH  35  36
ENDBRANCH  34  35
ENDBRANCH   1  34
TORSDOF 19
ENDMDL
MODEL 3
REMARK VINA RESULT:     -13.1      1.332      1.625
REMARK SMILES NS(=O)(=O)c1ccc(-n2nc(C(F)(F)F)cc2-c2ccc(CC(=O)NCCCNC(=O)c3ccc(-c4c5nc(c(-c6cc(S(=O)(=O)[O-])ccc6F)c6ccc([nH]6)c(-c6cc(S(=O)(=O)[O-])ccc6F)c6nc(c(-c7cc(S(=O)(=O)[O-])ccc7F)c7ccc4[nH]7)C=C6)C=C5)cc3)cc2)cc1
REMARK SMILES IDX 26 1 25 2 23 3 24 4 22 6 21 7 18 8 19 9 96 10 20 11 95 12
REMARK SMILES IDX 17 13 9 14 10 15 11 16 16 17 8 18 5 19 6 20 98 21 7 22 97 23
REMARK SMILES IDX 2 24 3 25 4 26 1 27 12 30 13 31 14 32 15 33 27 34 28 35
REMARK SMILES IDX 29 36 30 37 31 39 32 40 33 41 94 42 34 43 93 44 35 45 36 46
REMARK SMILES IDX 37 47 87 48 38 49 92 50 86 51 88 52 39 53 91 54 85 55 84 56
REMARK SMILES IDX 40 58 72 59 52 60 71 61 53 62 56 63 70 64 89 65 54 66 55 67
REMARK SMILES IDX 69 69 90 70 57 71 41 72 42 73 50 74 43 75 49 76 51 77 48 78
REMARK SMILES IDX 44 79 45 80 46 81 47 82 73 83 74 84 82 85 75 86 81 87 83 88
REMARK SMILES IDX 80 89 76 90 77 91 78 92 79 93 58 94 59 95 67 96 60 97 66 98
REMARK SMILES IDX 68 99 65 100 61 101 62 102 63 103 64 104
REMARK H PARENT 25 5 1 28 1 29 29 38 88 57 56 68
REMARK Flexibility Score: inf
ROOT
ATOM      1  C   UNL A   1      34.550  32.979  28.734  1.00  0.00     0.117 C 
ENDROOT
BRANCH   1   2
ATOM      2  N   UNL A   1      33.494  32.579  27.818  1.00  0.00    -0.356 N 
ATOM      3  C   UNL A   1      33.153  31.330  27.381  1.00  0.00     0.224 C 
ATOM      4  O   UNL A   1      32.227  31.217  26.578  1.00  0.00    -0.275 OA
ATOM      5  H   UNL A   1      32.944  33.314  27.461  1.00  0.00     0.163 HD
BRANCH   3   6
ATOM      6  C   UNL A   1      33.882  30.109  27.916  1.00  0.00     0.135 C 
BRANCH   6   7
ATOM      7  C   UNL A   1      33.586  28.836  27.164  1.00  0.00    -0.039 A 
ATOM      8  C   UNL A   1      32.997  26.502  25.691  1.00  0.00     0.000 A 
ATOM      9  C   UNL A   1      32.197  26.887  26.779  1.00  0.00     0.010 A 
ATOM     10  C   UNL A   1      34.119  27.273  25.378  1.00  0.00     0.010 A 
ATOM     11  C   UNL A   1      32.480  28.048  27.502  1.00  0.00     0.005 A 
ATOM     12  C   UNL A   1      34.417  28.420  26.115  1.00  0.00     0.005 A 
BRANCH   8  13
ATOM     13  C   UNL A   1      32.676  25.316  24.894  1.00  0.00     0.075 A 
ATOM     14  N   UNL A   1      31.597  25.195  24.029  1.00  0.00    -0.233 N 
ATOM     15  N   UNL A   1      31.402  23.918  23.624  1.00  0.00    -0.163 NA
ATOM     16  C   UNL A   1      32.476  23.244  24.064  1.00  0.00     0.167 A 
ATOM     17  C   UNL A   1      33.282  24.072  24.886  1.00  0.00     0.064 A 
BRANCH  14  18
ATOM     18  C   UNL A   1      30.713  26.205  23.596  1.00  0.00     0.065 A 
ATOM     19  C   UNL A   1      29.012  28.273  22.961  1.00  0.00     0.082 A 
ATOM     20  C   UNL A   1      30.294  28.259  22.408  1.00  0.00     0.024 A 
ATOM     21  C   UNL A   1      28.553  27.241  23.781  1.00  0.00     0.024 A 
ATOM     22  C   UNL A   1      31.164  27.227  22.748  1.00  0.00     0.030 A 
ATOM     23  C   UNL A   1      29.399  26.180  24.073  1.00  0.00     0.030 A 
BRANCH  19  24
ATOM     24  S   UNL A   1      27.879  29.564  22.572  1.00  0.00     0.238 S 
ATOM     25  O   UNL A   1      27.959  29.802  21.158  1.00  0.00    -0.207 OA
ATOM     26  O   UNL A   1      28.110  30.578  23.576  1.00  0.00    -0.207 OA
BRANCH  24  27
ATOM     27  N   UNL A   1      26.364  28.855  22.820  1.00  0.00    -0.225 NA
ATOM     28  H   UNL A   1      26.143  28.864  23.816  1.00  0.00     0.137 HD
ATOM     29  H   UNL A   1      26.380  27.892  22.483  1.00  0.00     0.137 HD
ENDBRANCH  24  27
ENDBRANCH  19  24
ENDBRANCH  14  18
BRANCH  16  30
ATOM     30  C   UNL A   1      32.716  21.802  23.715  1.00  0.00     0.435 C 
ATOM     31  F   UNL A   1      32.023  20.942  24.505  1.00  0.00    -0.164 F 
ATOM     32  F   UNL A   1      32.376  21.524  22.427  1.00  0.00    -0.164 F 
ATOM     33  F   UNL A   1      34.029  21.466  23.841  1.00  0.00    -0.164 F 
ENDBRANCH  16  30
ENDBRANCH   8  13
ENDBRANCH   6   7
ENDBRANCH   3   6
ENDBRANCH   1   2
BRANCH   1  34
ATOM     34  C   UNL A   1      35.923  33.058  28.059  1.00  0.00     0.042 C 
BRANCH  34  35
ATOM     35  C   UNL A   1      36.947  32.155  28.729  1.00  0.00     0.118 C 
BRANCH  35  36
ATOM     36  N   UNL A   1      36.418  31.434  29.891  1.00  0.00    -0.352 N 
ATOM     37  C   UNL A   1      36.677  30.127  30.280  1.00  0.00     0.251 C 
ATOM     38  H   UNL A   1      35.800  31.939  30.467  1.00  0.00     0.163 HD
ATOM     39  O   UNL A   1      35.911  29.551  31.046  1.00  0.00    -0.269 OA
BRANCH  37  40
ATOM     40  C   UNL A   1      37.885  29.451  29.761  1.00  0.00     0.039 A 
ATOM     41  C   UNL A   1      38.546  29.856  28.598  1.00  0.00     0.014 A 
ATOM     42  C   UNL A   1      38.379  28.388  30.504  1.00  0.00     0.014 A 
ATOM     43  C   UNL A   1      39.750  29.231  28.250  1.00  0.00     0.010 A 
ATOM     44  C   UNL A   1      39.654  27.943  30.292  1.00  0.00     0.010 A 
ATOM     45  C   UNL A   1      40.321  28.289  29.123  1.00  0.00    -0.014 A 
BRANCH  45  46
ATOM     46  C   UNL A   1      41.680  27.754  28.958  1.00  0.00     0.031 A 
ATOM     47  C   UNL A   1      41.767  26.493  28.154  1.00  0.00     0.074 A 
ATOM     48  C   UNL A   1      42.780  28.495  29.267  1.00  0.00     0.049 A 
ATOM     49  N   UNL A   1      42.518  25.471  28.380  1.00  0.00    -0.248 NA
ATOM     50  C   UNL A   1      40.895  26.305  26.983  1.00  0.00     0.031 C 
ATOM     51  C   UNL A   1      42.828  29.837  29.872  1.00  0.00     0.029 A 
ATOM     52  N   UNL A   1      44.101  28.271  28.995  1.00  0.00    -0.354 N 
ATOM     53  C   UNL A   1      42.355  24.596  27.309  1.00  0.00     0.074 A 
ATOM     54  C   UNL A   1      41.327  25.147  26.480  1.00  0.00     0.031 C 
ATOM     55  C   UNL A   1      44.053  30.386  29.704  1.00  0.00     0.029 A 
ATOM     56  C   UNL A   1      44.939  29.391  29.126  1.00  0.00     0.049 A 
ATOM     57  H   UNL A   1      44.441  27.388  28.725  1.00  0.00     0.167 HD
ATOM     58  C   UNL A   1      43.183  23.534  27.140  1.00  0.00     0.034 A 
ATOM     59  C   UNL A   1      46.266  29.507  28.810  1.00  0.00     0.034 A 
ATOM     60  C   UNL A   1      43.763  23.148  28.397  1.00  0.00     0.049 A 
ATOM     61  C   UNL A   1      46.804  28.127  28.806  1.00  0.00     0.074 A 
ATOM     62  C   UNL A   1      43.197  22.754  29.594  1.00  0.00     0.029 A 
ATOM     63  N   UNL A   1      45.028  23.594  28.703  1.00  0.00    -0.354 N 
ATOM     64  N   UNL A   1      46.868  27.393  29.883  1.00  0.00    -0.248 NA
ATOM     65  C   UNL A   1      46.769  27.393  27.551  1.00  0.00     0.031 C 
ATOM     66  C   UNL A   1      43.897  23.516  30.571  1.00  0.00     0.029 A 
ATOM     67  C   UNL A   1      44.942  24.195  29.937  1.00  0.00     0.049 A 
ATOM     68  H   UNL A   1      45.835  23.501  28.147  1.00  0.00     0.167 HD
ATOM     69  C   UNL A   1      46.406  26.150  29.484  1.00  0.00     0.074 A 
ATOM     70  C   UNL A   1      46.446  26.182  28.020  1.00  0.00     0.031 C 
ATOM     71  C   UNL A   1      45.760  25.318  30.355  1.00  0.00     0.034 A 
BRANCH  58  72
ATOM     72  C   UNL A   1      43.703  23.042  25.823  1.00  0.00     0.023 A 
ATOM     73  C   UNL A   1      43.584  21.667  25.557  1.00  0.00     0.031 A 
ATOM     74  C   UNL A   1      44.605  23.768  25.018  1.00  0.00     0.131 A 
ATOM     75  C   UNL A   1      44.419  21.045  24.617  1.00  0.00     0.055 A 
ATOM     76  C   UNL A   1      45.388  23.155  24.034  1.00  0.00     0.041 A 
ATOM     77  F   UNL A   1      44.850  25.068  25.226  1.00  0.00    -0.206 F 
ATOM     78  C   UNL A   1      45.323  21.780  23.852  1.00  0.00     0.022 A 
BRANCH  75  79
ATOM     79  S   UNL A   1      44.436  19.234  24.568  1.00  0.00     0.124 S 
ATOM     80  O   UNL A   1      43.132  18.910  25.138  1.00  0.00    -0.237 OA
ATOM     81  O   UNL A   1      44.595  18.970  23.141  1.00  0.00    -0.237 OA
ATOM     82  O   UNL A   1      45.586  18.882  25.398  1.00  0.00    -0.744 OA
ENDBRANCH  75  79
ENDBRANCH  58  72
BRANCH  59  83
ATOM     83  C   UNL A   1      47.042  30.680  28.284  1.00  0.00     0.023 A 
ATOM     84  C   UNL A   1      46.513  31.642  27.381  1.00  0.00     0.031 A 
ATOM     85  C   UNL A   1      48.266  31.020  28.900  1.00  0.00     0.131 A 
ATOM     86  C   UNL A   1      47.194  32.869  27.146  1.00  0.00     0.055 A 
ATOM     87  C   UNL A   1      48.926  32.233  28.671  1.00  0.00     0.041 A 
ATOM     88  F   UNL A   1      48.823  30.220  29.823  1.00  0.00    -0.206 F 
ATOM     89  C   UNL A   1      48.388  33.168  27.804  1.00  0.00     0.022 A 
BRANCH  86  90
ATOM     90  S   UNL A   1      46.501  34.160  26.045  1.00  0.00     0.124 S 
ATOM     91  O   UNL A   1      46.097  35.195  26.989  1.00  0.00    -0.237 OA
ATOM     92  O   UNL A   1      47.627  34.478  25.175  1.00  0.00    -0.237 OA
ATOM     93  O   UNL A   1      45.390  33.480  25.375  1.00  0.00    -0.744 OA
ENDBRANCH  86  90
ENDBRANCH  59  83
BRANCH  71  94
ATOM     94  C   UNL A   1      45.718  25.676  31.832  1.00  0.00     0.023 A 
ATOM     95  C   UNL A   1      46.775  25.484  32.755  1.00  0.00     0.031 A 
ATOM     96  C   UNL A   1      44.589  26.385  32.282  1.00  0.00     0.131 A 
ATOM     97  C   UNL A   1      46.666  25.986  34.070  1.00  0.00     0.055 A 
ATOM     98  C   UNL A   1      44.502  26.913  33.568  1.00  0.00     0.041 A 
ATOM     99  F   UNL A   1      43.557  26.620  31.455  1.00  0.00    -0.206 F 
ATOM    100  C   UNL A   1      45.538  26.709  34.471  1.00  0.00     0.022 A 
BRANCH  97 101
ATOM    101  S   UNL A   1      47.974  25.682  35.305  1.00  0.00     0.124 S 
ATOM    102  O   UNL A   1      48.447  27.020  35.641  1.00  0.00    -0.237 OA
ATOM    103  O   UNL A   1      47.258  24.974  36.362  1.00  0.00    -0.237 OA
ATOM    104  O   UNL A   1      48.943  24.861  34.576  1.00  0.00    -0.744 OA
ENDBRANCH  97 101
ENDBRANCH  71  94
ENDBRANCH  45  46
ENDBRANCH  37  40
ENDBRANCH  35  36
ENDBRANCH  34  35
ENDBRANCH   1  34
TORSDOF 19
ENDMDL
