MODEL 1
REMARK VINA RESULT:     -11.1      0.000      0.000
REMARK SMILES C[C@H](C(=O)NCCCNC(=O)c1ccc(-c2c3nc(c(-c4cc(S(=O)(=O)[O-])ccc4F)c4ccc([nH]4)c(-c4cc(S(=O)(=O)[O-])ccc4F)c4nc(c(-c5cc(S(=O)(=O)[O-])ccc5F)c5ccc2[nH]5)C=C4)C=C3)cc1)[C@H](C)[N@@H+]1CC[C@H]([NH+](C)C)C1
REMARK SMILES IDX 7 1 6 2 5 3 3 4 4 5 2 7 1 8 75 9 76 10 77 11 78 12 84 13
REMARK SMILES IDX 79 15 80 16 81 17 82 18 83 19 8 21 9 22 10 23 11 25 12 26
REMARK SMILES IDX 13 27 74 28 14 29 73 30 15 31 16 32 17 33 67 34 18 35 72 36
REMARK SMILES IDX 66 37 68 38 19 39 71 40 65 41 64 42 20 44 52 45 32 46 51 47
REMARK SMILES IDX 33 48 36 49 50 50 69 51 34 52 35 53 49 55 70 56 37 57 21 58
REMARK SMILES IDX 22 59 30 60 23 61 29 62 31 63 28 64 24 65 25 66 26 67 27 68
REMARK SMILES IDX 53 69 54 70 62 71 55 72 61 73 63 74 60 75 56 76 57 77 58 78
REMARK SMILES IDX 59 79 38 80 39 81 47 82 40 83 46 84 48 85 45 86 41 87 42 88
REMARK SMILES IDX 43 89 44 90
REMARK H PARENT 5 6 77 14 81 20 9 24 68 43 36 54
REMARK Flexibility Score: inf
ROOT
ATOM      1  C   UNL A   1      31.543  32.077  26.540  1.00  0.00     0.042 C 
ENDROOT
BRANCH   1   2
ATOM      2  C   UNL A   1      31.687  30.634  26.065  1.00  0.00     0.117 C 
BRANCH   2   3
ATOM      3  N   UNL A   1      31.795  29.724  27.190  1.00  0.00    -0.356 N 
ATOM      4  C   UNL A   1      31.858  28.362  27.208  1.00  0.00     0.228 C 
ATOM      5  O   UNL A   1      31.760  27.804  28.299  1.00  0.00    -0.275 OA
ATOM      6  H   UNL A   1      31.828  30.154  28.075  1.00  0.00     0.163 HD
BRANCH   4   7
ATOM      7  C   UNL A   1      32.140  27.620  25.904  1.00  0.00     0.133 C 
ATOM      8  C   UNL A   1      33.074  26.447  26.226  1.00  0.00     0.024 C 
BRANCH   7   9
ATOM      9  C   UNL A   1      30.839  27.250  25.137  1.00  0.00     0.193 C 
ATOM     10  C   UNL A   1      30.223  25.917  25.605  1.00  0.00     0.076 C 
BRANCH   9  11
ATOM     11  N   UNL A   1      30.925  27.144  23.648  1.00  0.00    -0.327 N 
ATOM     12  C   UNL A   1      31.823  28.052  22.925  1.00  0.00     0.269 C 
ATOM     13  C   UNL A   1      29.593  27.374  23.024  1.00  0.00     0.328 C 
ATOM     14  H   UNL A   1      31.305  26.203  23.554  1.00  0.00     0.348 HD
ATOM     15  C   UNL A   1      31.022  29.310  22.669  1.00  0.00     0.132 C 
ATOM     16  C   UNL A   1      29.646  28.752  22.313  1.00  0.00     0.245 C 
BRANCH  16  17
ATOM     17  N   UNL A   1      28.554  29.721  22.501  1.00  0.00    -0.333 N 
ATOM     18  C   UNL A   1      27.336  29.065  22.975  1.00  0.00     0.332 C 
ATOM     19  C   UNL A   1      28.886  30.849  23.374  1.00  0.00     0.332 C 
ATOM     20  H   UNL A   1      28.397  30.115  21.574  1.00  0.00     0.348 HD
ENDBRANCH  16  17
ENDBRANCH   9  11
ENDBRANCH   7   9
ENDBRANCH   4   7
ENDBRANCH   2   3
ENDBRANCH   1   2
BRANCH   1  21
ATOM     21  C   UNL A   1      32.768  32.608  27.279  1.00  0.00     0.118 C 
BRANCH  21  22
ATOM     22  N   UNL A   1      32.609  33.994  27.693  1.00  0.00    -0.352 N 
ATOM     23  C   UNL A   1      33.208  34.686  28.715  1.00  0.00     0.251 C 
ATOM     24  H   UNL A   1      31.972  34.516  27.156  1.00  0.00     0.163 HD
ATOM     25  O   UNL A   1      32.769  35.790  29.021  1.00  0.00    -0.269 OA
BRANCH  23  26
ATOM     26  C   UNL A   1      34.351  34.104  29.452  1.00  0.00     0.039 A 
ATOM     27  C   UNL A   1      34.086  33.279  30.548  1.00  0.00     0.014 A 
ATOM     28  C   UNL A   1      35.673  34.388  29.097  1.00  0.00     0.014 A 
ATOM     29  C   UNL A   1      35.144  32.700  31.250  1.00  0.00     0.010 A 
ATOM     30  C   UNL A   1      36.724  33.742  29.745  1.00  0.00     0.010 A 
ATOM     31  C   UNL A   1      36.471  32.897  30.834  1.00  0.00    -0.014 A 
BRANCH  31  32
ATOM     32  C   UNL A   1      37.590  32.213  31.536  1.00  0.00     0.031 A 
ATOM     33  C   UNL A   1      38.336  31.086  30.875  1.00  0.00     0.074 A 
ATOM     34  C   UNL A   1      37.917  32.601  32.784  1.00  0.00     0.049 A 
ATOM     35  N   UNL A   1      39.343  30.384  31.328  1.00  0.00    -0.248 NA
ATOM     36  C   UNL A   1      37.872  30.676  29.541  1.00  0.00     0.031 C 
ATOM     37  C   UNL A   1      37.230  33.646  33.549  1.00  0.00     0.029 A 
ATOM     38  N   UNL A   1      38.909  32.173  33.629  1.00  0.00    -0.354 N 
ATOM     39  C   UNL A   1      39.635  29.453  30.337  1.00  0.00     0.074 A 
ATOM     40  C   UNL A   1      38.648  29.632  29.294  1.00  0.00     0.031 C 
ATOM     41  C   UNL A   1      37.849  33.806  34.729  1.00  0.00     0.029 A 
ATOM     42  C   UNL A   1      38.943  32.847  34.829  1.00  0.00     0.049 A 
ATOM     43  H   UNL A   1      39.538  31.451  33.399  1.00  0.00     0.167 HD
ATOM     44  C   UNL A   1      40.649  28.553  30.288  1.00  0.00     0.034 A 
ATOM     45  C   UNL A   1      39.762  32.707  35.891  1.00  0.00     0.034 A 
ATOM     46  C   UNL A   1      41.624  28.386  31.340  1.00  0.00     0.049 A 
ATOM     47  C   UNL A   1      40.867  31.684  35.822  1.00  0.00     0.074 A 
ATOM     48  C   UNL A   1      42.715  27.536  31.379  1.00  0.00     0.029 A 
ATOM     49  N   UNL A   1      41.621  29.078  32.547  1.00  0.00    -0.354 N 
ATOM     50  N   UNL A   1      41.166  30.853  34.851  1.00  0.00    -0.248 NA
ATOM     51  C   UNL A   1      41.754  31.596  36.988  1.00  0.00     0.031 C 
ATOM     52  C   UNL A   1      43.325  27.657  32.632  1.00  0.00     0.029 A 
ATOM     53  C   UNL A   1      42.670  28.649  33.347  1.00  0.00     0.049 A 
ATOM     54  H   UNL A   1      40.968  29.771  32.797  1.00  0.00     0.167 HD
ATOM     55  C   UNL A   1      42.295  30.160  35.280  1.00  0.00     0.074 A 
ATOM     56  C   UNL A   1      42.637  30.695  36.582  1.00  0.00     0.031 C 
ATOM     57  C   UNL A   1      42.989  29.173  34.655  1.00  0.00     0.034 A 
BRANCH  44  58
ATOM     58  C   UNL A   1      40.736  27.668  29.065  1.00  0.00     0.023 A 
ATOM     59  C   UNL A   1      41.671  27.910  28.043  1.00  0.00     0.031 A 
ATOM     60  C   UNL A   1      39.859  26.579  28.905  1.00  0.00     0.131 A 
ATOM     61  C   UNL A   1      41.657  27.130  26.877  1.00  0.00     0.055 A 
ATOM     62  C   UNL A   1      39.908  25.752  27.781  1.00  0.00     0.041 A 
ATOM     63  F   UNL A   1      38.928  26.308  29.834  1.00  0.00    -0.206 F 
ATOM     64  C   UNL A   1      40.800  26.034  26.750  1.00  0.00     0.022 A 
BRANCH  61  65
ATOM     65  S   UNL A   1      42.669  27.658  25.468  1.00  0.00     0.124 S 
ATOM     66  O   UNL A   1      42.560  26.505  24.578  1.00  0.00    -0.237 OA
ATOM     67  O   UNL A   1      41.990  28.872  25.028  1.00  0.00    -0.237 OA
ATOM     68  O   UNL A   1      43.993  27.861  26.054  1.00  0.00    -0.744 OA
ENDBRANCH  61  65
ENDBRANCH  44  58
BRANCH  45  69
ATOM     69  C   UNL A   1      39.569  33.548  37.108  1.00  0.00     0.023 A 
ATOM     70  C   UNL A   1      39.020  33.010  38.283  1.00  0.00     0.031 A 
ATOM     71  C   UNL A   1      39.890  34.917  37.099  1.00  0.00     0.131 A 
ATOM     72  C   UNL A   1      38.762  33.845  39.381  1.00  0.00     0.055 A 
ATOM     73  C   UNL A   1      39.687  35.731  38.214  1.00  0.00     0.041 A 
ATOM     74  F   UNL A   1      40.421  35.483  36.003  1.00  0.00    -0.206 F 
ATOM     75  C   UNL A   1      39.105  35.199  39.360  1.00  0.00     0.022 A 
BRANCH  72  76
ATOM     76  S   UNL A   1      37.879  33.157  40.809  1.00  0.00     0.124 S 
ATOM     77  O   UNL A   1      38.329  31.770  40.796  1.00  0.00    -0.237 OA
ATOM     78  O   UNL A   1      38.379  33.986  41.901  1.00  0.00    -0.237 OA
ATOM     79  O   UNL A   1      36.471  33.360  40.469  1.00  0.00    -0.744 OA
ENDBRANCH  72  76
ENDBRANCH  45  69
BRANCH  57  80
ATOM     80  C   UNL A   1      44.208  28.638  35.371  1.00  0.00     0.023 A 
ATOM     81  C   UNL A   1      44.122  27.565  36.275  1.00  0.00     0.031 A 
ATOM     82  C   UNL A   1      45.465  29.237  35.176  1.00  0.00     0.131 A 
ATOM     83  C   UNL A   1      45.254  27.175  37.007  1.00  0.00     0.055 A 
ATOM     84  C   UNL A   1      46.604  28.794  35.851  1.00  0.00     0.041 A 
ATOM     85  F   UNL A   1      45.609  30.268  34.328  1.00  0.00    -0.206 F 
ATOM     86  C   UNL A   1      46.498  27.770  36.788  1.00  0.00     0.022 A 
BRANCH  83  87
ATOM     87  S   UNL A   1      45.048  25.968  38.346  1.00  0.00     0.124 S 
ATOM     88  O   UNL A   1      44.638  24.773  37.617  1.00  0.00    -0.237 OA
ATOM     89  O   UNL A   1      46.383  25.928  38.937  1.00  0.00    -0.237 OA
ATOM     90  O   UNL A   1      44.015  26.565  39.190  1.00  0.00    -0.744 OA
ENDBRANCH  83  87
ENDBRANCH  57  80
ENDBRANCH  31  32
ENDBRANCH  23  26
ENDBRANCH  21  22
ENDBRANCH   1  21
TORSDOF 16
ENDMDL
MODEL 2
REMARK VINA RESULT:     -10.8      4.005      9.325
REMARK SMILES C[C@H](C(=O)NCCCNC(=O)c1ccc(-c2c3nc(c(-c4cc(S(=O)(=O)[O-])ccc4F)c4ccc([nH]4)c(-c4cc(S(=O)(=O)[O-])ccc4F)c4nc(c(-c5cc(S(=O)(=O)[O-])ccc5F)c5ccc2[nH]5)C=C4)C=C3)cc1)[C@H](C)[N@@H+]1CC[C@H]([NH+](C)C)C1
REMARK SMILES IDX 7 1 6 2 5 3 3 4 4 5 2 7 1 8 75 9 76 10 77 11 78 12 84 13
REMARK SMILES IDX 79 15 80 16 81 17 82 18 83 19 8 21 9 22 10 23 11 25 12 26
REMARK SMILES IDX 13 27 74 28 14 29 73 30 15 31 16 32 17 33 67 34 18 35 72 36
REMARK SMILES IDX 66 37 68 38 19 39 71 40 65 41 64 42 20 44 52 45 32 46 51 47
REMARK SMILES IDX 33 48 36 49 50 50 69 51 34 52 35 53 49 55 70 56 37 57 21 58
REMARK SMILES IDX 22 59 30 60 23 61 29 62 31 63 28 64 24 65 25 66 26 67 27 68
REMARK SMILES IDX 53 69 54 70 62 71 55 72 61 73 63 74 60 75 56 76 57 77 58 78
REMARK SMILES IDX 59 79 38 80 39 81 47 82 40 83 46 84 48 85 45 86 41 87 42 88
REMARK SMILES IDX 43 89 44 90
REMARK H PARENT 5 6 77 14 81 20 9 24 68 43 36 54
REMARK Flexibility Score: inf
ROOT
ATOM      1  C   UNL A   1      33.713  28.511  25.562  1.00  0.00     0.042 C 
ENDROOT
BRANCH   1   2
ATOM      2  C   UNL A   1      33.248  27.117  25.151  1.00  0.00     0.117 C 
BRANCH   2   3
ATOM      3  N   UNL A   1      33.323  26.947  23.712  1.00  0.00    -0.356 N 
ATOM      4  C   UNL A   1      33.647  25.844  22.979  1.00  0.00     0.228 C 
ATOM      5  O   UNL A   1      33.821  25.996  21.771  1.00  0.00    -0.275 OA
ATOM      6  H   UNL A   1      33.107  27.750  23.184  1.00  0.00     0.163 HD
BRANCH   4   7
ATOM      7  C   UNL A   1      33.678  24.483  23.669  1.00  0.00     0.133 C 
ATOM      8  C   UNL A   1      33.073  23.455  22.706  1.00  0.00     0.024 C 
BRANCH   7   9
ATOM      9  C   UNL A   1      35.086  24.132  24.227  1.00  0.00     0.193 C 
ATOM     10  C   UNL A   1      35.789  23.017  23.428  1.00  0.00     0.076 C 
BRANCH   9  11
ATOM     11  N   UNL A   1      35.174  23.708  25.658  1.00  0.00    -0.327 N 
ATOM     12  C   UNL A   1      35.792  22.415  25.977  1.00  0.00     0.269 C 
ATOM     13  C   UNL A   1      33.818  23.625  26.268  1.00  0.00     0.328 C 
ATOM     14  H   UNL A   1      35.785  24.436  26.027  1.00  0.00     0.348 HD
ATOM     15  C   UNL A   1      34.685  21.389  25.865  1.00  0.00     0.132 C 
ATOM     16  C   UNL A   1      33.497  22.123  26.483  1.00  0.00     0.245 C 
BRANCH  16  17
ATOM     17  N   UNL A   1      32.193  21.580  26.069  1.00  0.00    -0.333 N 
ATOM     18  C   UNL A   1      31.217  22.648  25.855  1.00  0.00     0.332 C 
ATOM     19  C   UNL A   1      32.244  20.706  24.896  1.00  0.00     0.332 C 
ATOM     20  H   UNL A   1      31.899  20.993  26.849  1.00  0.00     0.348 HD
ENDBRANCH  16  17
ENDBRANCH   9  11
ENDBRANCH   7   9
ENDBRANCH   4   7
ENDBRANCH   2   3
ENDBRANCH   1   2
BRANCH   1  21
ATOM     21  C   UNL A   1      33.291  28.910  26.974  1.00  0.00     0.118 C 
BRANCH  21  22
ATOM     22  N   UNL A   1      33.343  30.349  27.183  1.00  0.00    -0.352 N 
ATOM     23  C   UNL A   1      34.261  31.112  27.859  1.00  0.00     0.251 C 
ATOM     24  H   UNL A   1      32.604  30.854  26.775  1.00  0.00     0.163 HD
ATOM     25  O   UNL A   1      33.997  32.288  28.093  1.00  0.00    -0.269 OA
BRANCH  23  26
ATOM     26  C   UNL A   1      35.538  30.524  28.319  1.00  0.00     0.039 A 
ATOM     27  C   UNL A   1      36.693  30.773  27.574  1.00  0.00     0.014 A 
ATOM     28  C   UNL A   1      35.601  29.706  29.451  1.00  0.00     0.014 A 
ATOM     29  C   UNL A   1      37.914  30.248  27.996  1.00  0.00     0.010 A 
ATOM     30  C   UNL A   1      36.834  29.253  29.918  1.00  0.00     0.010 A 
ATOM     31  C   UNL A   1      38.003  29.513  29.190  1.00  0.00    -0.014 A 
BRANCH  31  32
ATOM     32  C   UNL A   1      39.321  29.023  29.676  1.00  0.00     0.031 A 
ATOM     33  C   UNL A   1      40.001  29.683  30.846  1.00  0.00     0.074 A 
ATOM     34  C   UNL A   1      39.912  27.990  29.044  1.00  0.00     0.049 A 
ATOM     35  N   UNL A   1      41.141  29.385  31.414  1.00  0.00    -0.248 NA
ATOM     36  C   UNL A   1      39.324  30.847  31.435  1.00  0.00     0.031 C 
ATOM     37  C   UNL A   1      39.375  27.305  27.865  1.00  0.00     0.029 A 
ATOM     38  N   UNL A   1      41.087  27.330  29.302  1.00  0.00    -0.354 N 
ATOM     39  C   UNL A   1      41.318  30.320  32.428  1.00  0.00     0.074 A 
ATOM     40  C   UNL A   1      40.203  31.240  32.344  1.00  0.00     0.031 C 
ATOM     41  C   UNL A   1      40.195  26.296  27.531  1.00  0.00     0.029 A 
ATOM     42  C   UNL A   1      41.338  26.290  28.436  1.00  0.00     0.049 A 
ATOM     43  H   UNL A   1      41.693  27.578  30.036  1.00  0.00     0.167 HD
ATOM     44  C   UNL A   1      42.301  30.388  33.361  1.00  0.00     0.034 A 
ATOM     45  C   UNL A   1      42.374  25.429  28.377  1.00  0.00     0.034 A 
ATOM     46  C   UNL A   1      43.406  29.462  33.428  1.00  0.00     0.049 A 
ATOM     47  C   UNL A   1      43.466  25.539  29.410  1.00  0.00     0.074 A 
ATOM     48  C   UNL A   1      44.434  29.411  34.353  1.00  0.00     0.029 A 
ATOM     49  N   UNL A   1      43.636  28.427  32.527  1.00  0.00    -0.354 N 
ATOM     50  N   UNL A   1      43.586  26.392  30.400  1.00  0.00    -0.248 NA
ATOM     51  C   UNL A   1      44.552  24.556  29.325  1.00  0.00     0.031 C 
ATOM     52  C   UNL A   1      45.323  28.400  33.971  1.00  0.00     0.029 A 
ATOM     53  C   UNL A   1      44.805  27.757  32.857  1.00  0.00     0.049 A 
ATOM     54  H   UNL A   1      43.053  28.203  31.766  1.00  0.00     0.167 HD
ATOM     55  C   UNL A   1      44.750  26.031  31.074  1.00  0.00     0.074 A 
ATOM     56  C   UNL A   1      45.274  24.865  30.392  1.00  0.00     0.031 C 
ATOM     57  C   UNL A   1      45.332  26.607  32.156  1.00  0.00     0.034 A 
BRANCH  44  58
ATOM     58  C   UNL A   1      42.230  31.516  34.366  1.00  0.00     0.023 A 
ATOM     59  C   UNL A   1      41.311  31.500  35.430  1.00  0.00     0.031 A 
ATOM     60  C   UNL A   1      43.075  32.634  34.248  1.00  0.00     0.131 A 
ATOM     61  C   UNL A   1      41.204  32.607  36.284  1.00  0.00     0.055 A 
ATOM     62  C   UNL A   1      43.024  33.695  35.154  1.00  0.00     0.041 A 
ATOM     63  F   UNL A   1      43.959  32.721  33.241  1.00  0.00    -0.206 F 
ATOM     64  C   UNL A   1      42.074  33.694  36.171  1.00  0.00     0.022 A 
BRANCH  61  65
ATOM     65  S   UNL A   1      39.815  32.673  37.449  1.00  0.00     0.124 S 
ATOM     66  O   UNL A   1      39.291  34.015  37.206  1.00  0.00    -0.237 OA
ATOM     67  O   UNL A   1      38.975  31.568  37.002  1.00  0.00    -0.237 OA
ATOM     68  O   UNL A   1      40.451  32.487  38.752  1.00  0.00    -0.744 OA
ENDBRANCH  61  65
ENDBRANCH  44  58
BRANCH  45  69
ATOM     69  C   UNL A   1      42.434  24.394  27.304  1.00  0.00     0.023 A 
ATOM     70  C   UNL A   1      41.600  23.265  27.335  1.00  0.00     0.031 A 
ATOM     71  C   UNL A   1      43.362  24.498  26.252  1.00  0.00     0.131 A 
ATOM     72  C   UNL A   1      41.745  22.261  26.365  1.00  0.00     0.055 A 
ATOM     73  C   UNL A   1      43.461  23.526  25.256  1.00  0.00     0.041 A 
ATOM     74  F   UNL A   1      44.182  25.558  26.171  1.00  0.00    -0.206 F 
ATOM     75  C   UNL A   1      42.659  22.391  25.317  1.00  0.00     0.022 A 
BRANCH  72  76
ATOM     76  S   UNL A   1      40.785  20.732  26.546  1.00  0.00     0.124 S 
ATOM     77  O   UNL A   1      40.852  20.508  27.985  1.00  0.00    -0.237 OA
ATOM     78  O   UNL A   1      39.484  21.127  26.016  1.00  0.00    -0.237 OA
ATOM     79  O   UNL A   1      41.522  19.769  25.729  1.00  0.00    -0.744 OA
ENDBRANCH  72  76
ENDBRANCH  45  69
BRANCH  57  80
ATOM     80  C   UNL A   1      46.588  25.954  32.684  1.00  0.00     0.023 A 
ATOM     81  C   UNL A   1      47.852  26.230  32.135  1.00  0.00     0.031 A 
ATOM     82  C   UNL A   1      46.515  25.011  33.725  1.00  0.00     0.131 A 
ATOM     83  C   UNL A   1      48.977  25.515  32.573  1.00  0.00     0.055 A 
ATOM     84  C   UNL A   1      47.649  24.358  34.209  1.00  0.00     0.041 A 
ATOM     85  F   UNL A   1      45.335  24.702  34.287  1.00  0.00    -0.206 F 
ATOM     86  C   UNL A   1      48.887  24.595  33.619  1.00  0.00     0.022 A 
BRANCH  83  87
ATOM     87  S   UNL A   1      50.537  25.709  31.665  1.00  0.00     0.124 S 
ATOM     88  O   UNL A   1      50.568  27.148  31.420  1.00  0.00    -0.237 OA
ATOM     89  O   UNL A   1      51.518  25.204  32.620  1.00  0.00    -0.237 OA
ATOM     90  O   UNL A   1      50.347  24.882  30.476  1.00  0.00    -0.744 OA
ENDBRANCH  83  87
ENDBRANCH  57  80
ENDBRANCH  31  32
ENDBRANCH  23  26
ENDBRANCH  21  22
ENDBRANCH   1  21
TORSDOF 16
ENDMDL
MODEL 3
REMARK VINA RESULT:     -10.8      1.957      8.251
REMARK SMILES C[C@H](C(=O)NCCCNC(=O)c1ccc(-c2c3nc(c(-c4cc(S(=O)(=O)[O-])ccc4F)c4ccc([nH]4)c(-c4cc(S(=O)(=O)[O-])ccc4F)c4nc(c(-c5cc(S(=O)(=O)[O-])ccc5F)c5ccc2[nH]5)C=C4)C=C3)cc1)[C@H](C)[N@@H+]1CC[C@H]([NH+](C)C)C1
REMARK SMILES IDX 7 1 6 2 5 3 3 4 4 5 2 7 1 8 75 9 76 10 77 11 78 12 84 13
REMARK SMILES IDX 79 15 80 16 81 17 82 18 83 19 8 21 9 22 10 23 11 25 12 26
REMARK SMILES IDX 13 27 74 28 14 29 73 30 15 31 16 32 17 33 67 34 18 35 72 36
REMARK SMILES IDX 66 37 68 38 19 39 71 40 65 41 64 42 20 44 52 45 32 46 51 47
REMARK SMILES IDX 33 48 36 49 50 50 69 51 34 52 35 53 49 55 70 56 37 57 21 58
REMARK SMILES IDX 22 59 30 60 23 61 29 62 31 63 28 64 24 65 25 66 26 67 27 68
REMARK SMILES IDX 53 69 54 70 62 71 55 72 61 73 63 74 60 75 56 76 57 77 58 78
REMARK SMILES IDX 59 79 38 80 39 81 47 82 40 83 46 84 48 85 45 86 41 87 42 88
REMARK SMILES IDX 43 89 44 90
REMARK H PARENT 5 6 77 14 81 20 9 24 68 43 36 54
REMARK Flexibility Score: inf
ROOT
ATOM      1  C   UNL A   1      31.426  31.624  26.492  1.00  0.00     0.042 C 
ENDROOT
BRANCH   1   2
ATOM      2  C   UNL A   1      31.482  30.136  26.158  1.00  0.00     0.117 C 
BRANCH   2   3
ATOM      3  N   UNL A   1      31.855  29.927  24.771  1.00  0.00    -0.356 N 
ATOM      4  C   UNL A   1      31.465  28.955  23.899  1.00  0.00     0.228 C 
ATOM      5  O   UNL A   1      32.063  28.881  22.827  1.00  0.00    -0.275 OA
ATOM      6  H   UNL A   1      32.486  30.588  24.404  1.00  0.00     0.163 HD
BRANCH   4   7
ATOM      7  C   UNL A   1      30.261  28.087  24.253  1.00  0.00     0.133 C 
ATOM      8  C   UNL A   1      29.258  28.184  23.098  1.00  0.00     0.024 C 
BRANCH   7   9
ATOM      9  C   UNL A   1      30.669  26.645  24.668  1.00  0.00     0.193 C 
ATOM     10  C   UNL A   1      31.099  26.543  26.145  1.00  0.00     0.076 C 
BRANCH   9  11
ATOM     11  N   UNL A   1      31.764  25.989  23.891  1.00  0.00    -0.327 N 
ATOM     12  C   UNL A   1      31.410  25.123  22.760  1.00  0.00     0.269 C 
ATOM     13  C   UNL A   1      32.589  25.118  24.773  1.00  0.00     0.328 C 
ATOM     14  H   UNL A   1      32.234  26.809  23.510  1.00  0.00     0.348 HD
ATOM     15  C   UNL A   1      31.169  23.750  23.350  1.00  0.00     0.132 C 
ATOM     16  C   UNL A   1      32.277  23.646  24.395  1.00  0.00     0.245 C 
BRANCH  16  17
ATOM     17  N   UNL A   1      31.998  22.657  25.449  1.00  0.00    -0.333 N 
ATOM     18  C   UNL A   1      30.639  22.804  25.969  1.00  0.00     0.332 C 
ATOM     19  C   UNL A   1      32.235  21.267  25.056  1.00  0.00     0.332 C 
ATOM     20  H   UNL A   1      32.674  22.865  26.183  1.00  0.00     0.348 HD
ENDBRANCH  16  17
ENDBRANCH   9  11
ENDBRANCH   7   9
ENDBRANCH   4   7
ENDBRANCH   2   3
ENDBRANCH   1   2
BRANCH   1  21
ATOM     21  C   UNL A   1      32.731  32.178  27.057  1.00  0.00     0.118 C 
BRANCH  21  22
ATOM     22  N   UNL A   1      32.610  33.567  27.474  1.00  0.00    -0.352 N 
ATOM     23  C   UNL A   1      33.288  34.262  28.444  1.00  0.00     0.251 C 
ATOM     24  H   UNL A   1      31.937  34.090  26.983  1.00  0.00     0.163 HD
ATOM     25  O   UNL A   1      32.877  35.370  28.775  1.00  0.00    -0.269 OA
BRANCH  23  26
ATOM     26  C   UNL A   1      34.479  33.678  29.097  1.00  0.00     0.039 A 
ATOM     27  C   UNL A   1      34.301  32.595  29.962  1.00  0.00     0.014 A 
ATOM     28  C   UNL A   1      35.758  34.205  28.894  1.00  0.00     0.014 A 
ATOM     29  C   UNL A   1      35.409  32.011  30.576  1.00  0.00     0.010 A 
ATOM     30  C   UNL A   1      36.871  33.569  29.440  1.00  0.00     0.010 A 
ATOM     31  C   UNL A   1      36.707  32.469  30.294  1.00  0.00    -0.014 A 
BRANCH  31  32
ATOM     32  C   UNL A   1      37.891  31.792  30.889  1.00  0.00     0.031 A 
ATOM     33  C   UNL A   1      38.328  32.107  32.294  1.00  0.00     0.074 A 
ATOM     34  C   UNL A   1      38.584  30.907  30.147  1.00  0.00     0.049 A 
ATOM     35  N   UNL A   1      39.324  31.608  32.981  1.00  0.00    -0.248 NA
ATOM     36  C   UNL A   1      37.562  33.136  33.012  1.00  0.00     0.031 C 
ATOM     37  C   UNL A   1      38.288  30.561  28.753  1.00  0.00     0.029 A 
ATOM     38  N   UNL A   1      39.672  30.130  30.455  1.00  0.00    -0.354 N 
ATOM     39  C   UNL A   1      39.304  32.258  34.210  1.00  0.00     0.074 A 
ATOM     40  C   UNL A   1      38.243  33.241  34.143  1.00  0.00     0.031 C 
ATOM     41  C   UNL A   1      39.144  29.612  28.344  1.00  0.00     0.029 A 
ATOM     42  C   UNL A   1      40.079  29.315  29.423  1.00  0.00     0.049 A 
ATOM     43  H   UNL A   1      40.120  30.154  31.331  1.00  0.00     0.167 HD
ATOM     44  C   UNL A   1      40.077  32.036  35.302  1.00  0.00     0.034 A 
ATOM     45  C   UNL A   1      41.093  28.429  29.353  1.00  0.00     0.034 A 
ATOM     46  C   UNL A   1      41.133  31.052  35.350  1.00  0.00     0.049 A 
ATOM     47  C   UNL A   1      41.953  28.216  30.572  1.00  0.00     0.074 A 
ATOM     48  C   UNL A   1      41.951  30.715  36.414  1.00  0.00     0.029 A 
ATOM     49  N   UNL A   1      41.527  30.252  34.282  1.00  0.00    -0.354 N 
ATOM     50  N   UNL A   1      41.881  28.797  31.748  1.00  0.00    -0.248 NA
ATOM     51  C   UNL A   1      43.020  27.215  30.458  1.00  0.00     0.031 C 
ATOM     52  C   UNL A   1      42.884  29.770  35.972  1.00  0.00     0.029 A 
ATOM     53  C   UNL A   1      42.594  29.449  34.655  1.00  0.00     0.049 A 
ATOM     54  H   UNL A   1      41.108  30.256  33.391  1.00  0.00     0.167 HD
ATOM     55  C   UNL A   1      42.879  28.210  32.522  1.00  0.00     0.074 A 
ATOM     56  C   UNL A   1      43.514  27.212  31.687  1.00  0.00     0.031 C 
ATOM     57  C   UNL A   1      43.237  28.471  33.806  1.00  0.00     0.034 A 
BRANCH  44  58
ATOM     58  C   UNL A   1      39.819  32.891  36.522  1.00  0.00     0.023 A 
ATOM     59  C   UNL A   1      39.006  32.444  37.579  1.00  0.00     0.031 A 
ATOM     60  C   UNL A   1      40.375  34.179  36.625  1.00  0.00     0.131 A 
ATOM     61  C   UNL A   1      38.707  33.301  38.648  1.00  0.00     0.055 A 
ATOM     62  C   UNL A   1      40.145  34.996  37.735  1.00  0.00     0.041 A 
ATOM     63  F   UNL A   1      41.142  34.674  35.640  1.00  0.00    -0.206 F 
ATOM     64  C   UNL A   1      39.293  34.565  38.748  1.00  0.00     0.022 A 
BRANCH  61  65
ATOM     65  S   UNL A   1      37.425  32.799  39.829  1.00  0.00     0.124 S 
ATOM     66  O   UNL A   1      37.474  33.892  40.798  1.00  0.00    -0.237 OA
ATOM     67  O   UNL A   1      36.232  32.738  38.994  1.00  0.00    -0.237 OA
ATOM     68  O   UNL A   1      37.904  31.512  40.329  1.00  0.00    -0.744 OA
ENDBRANCH  61  65
ENDBRANCH  44  58
BRANCH  45  69
ATOM     69  C   UNL A   1      41.356  27.681  28.089  1.00  0.00     0.023 A 
ATOM     70  C   UNL A   1      41.061  26.313  27.979  1.00  0.00     0.031 A 
ATOM     71  C   UNL A   1      41.950  28.317  26.984  1.00  0.00     0.131 A 
ATOM     72  C   UNL A   1      41.407  25.614  26.812  1.00  0.00     0.055 A 
ATOM     73  C   UNL A   1      42.237  27.631  25.803  1.00  0.00     0.041 A 
ATOM     74  F   UNL A   1      42.250  29.625  27.033  1.00  0.00    -0.206 F 
ATOM     75  C   UNL A   1      41.979  26.267  25.718  1.00  0.00     0.022 A 
BRANCH  72  76
ATOM     76  S   UNL A   1      41.186  23.813  26.779  1.00  0.00     0.124 S 
ATOM     77  O   UNL A   1      39.765  23.694  26.474  1.00  0.00    -0.237 OA
ATOM     78  O   UNL A   1      42.107  23.416  25.718  1.00  0.00    -0.237 OA
ATOM     79  O   UNL A   1      41.573  23.398  28.126  1.00  0.00    -0.744 OA
ENDBRANCH  72  76
ENDBRANCH  45  69
BRANCH  57  80
ATOM     80  C   UNL A   1      44.350  27.630  34.387  1.00  0.00     0.023 A 
ATOM     81  C   UNL A   1      44.109  26.352  34.922  1.00  0.00     0.031 A 
ATOM     82  C   UNL A   1      45.663  28.130  34.442  1.00  0.00     0.131 A 
ATOM     83  C   UNL A   1      45.146  25.654  35.559  1.00  0.00     0.055 A 
ATOM     84  C   UNL A   1      46.707  27.398  35.009  1.00  0.00     0.041 A 
ATOM     85  F   UNL A   1      45.954  29.346  33.951  1.00  0.00    -0.206 F 
ATOM     86  C   UNL A   1      46.447  26.159  35.589  1.00  0.00     0.022 A 
BRANCH  83  87
ATOM     87  S   UNL A   1      44.741  24.134  36.464  1.00  0.00     0.124 S 
ATOM     88  O   UNL A   1      44.626  24.619  37.835  1.00  0.00    -0.237 OA
ATOM     89  O   UNL A   1      43.495  23.716  35.829  1.00  0.00    -0.237 OA
ATOM     90  O   UNL A   1      45.889  23.266  36.208  1.00  0.00    -0.744 OA
ENDBRANCH  83  87
ENDBRANCH  57  80
ENDBRANCH  31  32
ENDBRANCH  23  26
ENDBRANCH  21  22
ENDBRANCH   1  21
TORSDOF 16
ENDMDL
