MODEL 1
REMARK VINA RESULT:     -12.8      0.000      0.000
REMARK SMILES Cc1ccnc(C(=O)c2[nH]c3ccc(C(C)(C)C)cc3c2CC(=O)NCCCNC(=O)c2ccc(-c3c4nc(c(-c5cc(S(=O)(=O)[O-])ccc5F)c5ccc([nH]5)c(-c5cc(S(=O)(=O)[O-])ccc5F)c5nc(c(-c6cc(S(=O)(=O)[O-])ccc6F)c6ccc3[nH]6)C=C5)C=C4)cc2)c1
REMARK SMILES IDX 27 1 26 2 25 3 23 4 24 5 22 7 21 8 9 9 10 10 11 11 20 13
REMARK SMILES IDX 12 14 19 15 13 16 14 17 7 18 8 19 6 20 1 21 2 22 3 23 95 24
REMARK SMILES IDX 4 25 5 26 15 27 16 28 17 29 18 30 28 31 29 32 30 33 31 35
REMARK SMILES IDX 32 36 33 37 94 38 34 39 93 40 35 41 36 42 37 43 87 44 38 45
REMARK SMILES IDX 92 46 86 47 88 48 39 49 91 50 85 51 84 52 40 54 72 55 52 56
REMARK SMILES IDX 71 57 53 58 56 59 70 60 89 61 54 62 55 63 69 65 90 66 57 67
REMARK SMILES IDX 41 68 42 69 50 70 43 71 49 72 51 73 48 74 44 75 45 76 46 77
REMARK SMILES IDX 47 78 73 79 74 80 82 81 75 82 81 83 83 84 80 85 76 86 77 87
REMARK SMILES IDX 78 88 79 89 58 90 59 91 67 92 60 93 66 94 68 95 65 96 61 97
REMARK SMILES IDX 62 98 63 99 64 100
REMARK H PARENT 25 6 10 12 29 34 88 53 56 64
REMARK Flexibility Score: inf
ROOT
ATOM      1  C   UNL A   1      37.915  20.060  25.005  1.00  0.00     0.042 C 
ENDROOT
BRANCH   1   2
ATOM      2  C   UNL A   1      36.603  20.814  25.211  1.00  0.00     0.117 C 
BRANCH   2   3
ATOM      3  N   UNL A   1      36.325  21.803  24.187  1.00  0.00    -0.356 N 
ATOM      4  C   UNL A   1      35.864  23.082  24.313  1.00  0.00     0.224 C 
ATOM      5  O   UNL A   1      35.914  23.815  23.321  1.00  0.00    -0.275 OA
ATOM      6  H   UNL A   1      36.493  21.507  23.263  1.00  0.00     0.163 HD
BRANCH   4   7
ATOM      7  C   UNL A   1      35.432  23.631  25.662  1.00  0.00     0.138 C 
BRANCH   7   8
ATOM      8  C   UNL A   1      33.947  23.747  25.864  1.00  0.00    -0.002 A 
ATOM      9  C   UNL A   1      33.036  22.720  26.092  1.00  0.00     0.093 A 
ATOM     10  N   UNL A   1      31.800  23.298  26.273  1.00  0.00    -0.352 N 
ATOM     11  C   UNL A   1      31.864  24.653  26.068  1.00  0.00     0.046 A 
ATOM     12  H   UNL A   1      30.982  22.807  26.516  1.00  0.00     0.167 HD
ATOM     13  C   UNL A   1      33.190  24.966  25.797  1.00  0.00     0.004 A 
ATOM     14  C   UNL A   1      30.858  25.621  26.126  1.00  0.00     0.027 A 
ATOM     15  C   UNL A   1      33.519  26.318  25.558  1.00  0.00     0.015 A 
ATOM     16  C   UNL A   1      31.220  26.955  25.894  1.00  0.00     0.006 A 
ATOM     17  C   UNL A   1      32.540  27.335  25.607  1.00  0.00    -0.042 A 
BRANCH   9  18
ATOM     18  C   UNL A   1      33.266  21.288  26.212  1.00  0.00     0.227 C 
ATOM     19  O   UNL A   1      33.648  20.793  27.265  1.00  0.00    -0.285 OA
BRANCH  18  20
ATOM     20  C   UNL A   1      32.998  20.419  25.004  1.00  0.00     0.113 A 
ATOM     21  C   UNL A   1      33.414  16.859  23.755  1.00  0.00     0.044 C 
ATOM     22  C   UNL A   1      33.077  18.318  23.825  1.00  0.00    -0.047 A 
ATOM     23  C   UNL A   1      32.462  18.955  22.745  1.00  0.00     0.023 A 
ATOM     24  C   UNL A   1      33.330  19.063  24.982  1.00  0.00     0.036 A 
ATOM     25  C   UNL A   1      32.151  20.300  22.854  1.00  0.00     0.112 A 
ATOM     26  N   UNL A   1      32.410  21.042  23.949  1.00  0.00    -0.253 NA
ENDBRANCH  18  20
ENDBRANCH   9  18
BRANCH  17  27
ATOM     27  C   UNL A   1      32.951  28.801  25.376  1.00  0.00    -0.013 C 
ATOM     28  C   UNL A   1      34.008  29.206  26.426  1.00  0.00     0.016 C 
ATOM     29  C   UNL A   1      33.551  28.961  23.962  1.00  0.00     0.016 C 
ATOM     30  C   UNL A   1      31.781  29.804  25.489  1.00  0.00     0.016 C 
ENDBRANCH  17  27
ENDBRANCH   7   8
ENDBRANCH   4   7
ENDBRANCH   2   3
ENDBRANCH   1   2
BRANCH   1  31
ATOM     31  C   UNL A   1      39.052  20.474  25.935  1.00  0.00     0.118 C 
BRANCH  31  32
ATOM     32  N   UNL A   1      40.145  19.514  25.943  1.00  0.00    -0.352 N 
ATOM     33  C   UNL A   1      41.502  19.705  26.037  1.00  0.00     0.251 C 
ATOM     34  H   UNL A   1      39.867  18.573  25.870  1.00  0.00     0.163 HD
ATOM     35  O   UNL A   1      42.248  18.749  25.832  1.00  0.00    -0.269 OA
BRANCH  33  36
ATOM     36  C   UNL A   1      42.081  21.030  26.362  1.00  0.00     0.039 A 
ATOM     37  C   UNL A   1      42.339  21.333  27.705  1.00  0.00     0.014 A 
ATOM     38  C   UNL A   1      42.295  22.005  25.382  1.00  0.00     0.014 A 
ATOM     39  C   UNL A   1      42.855  22.584  28.060  1.00  0.00     0.010 A 
ATOM     40  C   UNL A   1      42.842  23.242  25.732  1.00  0.00     0.010 A 
ATOM     41  C   UNL A   1      43.125  23.542  27.073  1.00  0.00    -0.014 A 
BRANCH  41  42
ATOM     42  C   UNL A   1      43.682  24.872  27.426  1.00  0.00     0.031 A 
ATOM     43  C   UNL A   1      42.797  25.923  28.033  1.00  0.00     0.074 A 
ATOM     44  C   UNL A   1      44.965  25.161  27.138  1.00  0.00     0.049 A 
ATOM     45  N   UNL A   1      43.048  27.188  28.256  1.00  0.00    -0.248 NA
ATOM     46  C   UNL A   1      41.444  25.496  28.419  1.00  0.00     0.031 C 
ATOM     47  C   UNL A   1      45.926  24.241  26.525  1.00  0.00     0.029 A 
ATOM     48  N   UNL A   1      45.673  26.324  27.302  1.00  0.00    -0.354 N 
ATOM     49  C   UNL A   1      41.871  27.722  28.766  1.00  0.00     0.074 A 
ATOM     50  C   UNL A   1      40.910  26.637  28.830  1.00  0.00     0.031 C 
ATOM     51  C   UNL A   1      47.095  24.882  26.353  1.00  0.00     0.029 A 
ATOM     52  C   UNL A   1      46.955  26.259  26.816  1.00  0.00     0.049 A 
ATOM     53  H   UNL A   1      45.297  27.129  27.726  1.00  0.00     0.167 HD
ATOM     54  C   UNL A   1      41.608  29.000  29.136  1.00  0.00     0.034 A 
ATOM     55  C   UNL A   1      47.903  27.210  26.726  1.00  0.00     0.034 A 
ATOM     56  C   UNL A   1      42.569  30.073  29.107  1.00  0.00     0.049 A 
ATOM     57  C   UNL A   1      47.612  28.602  27.201  1.00  0.00     0.074 A 
ATOM     58  C   UNL A   1      42.409  31.390  29.503  1.00  0.00     0.029 A 
ATOM     59  N   UNL A   1      43.876  29.948  28.662  1.00  0.00    -0.354 N 
ATOM     60  N   UNL A   1      46.486  29.098  27.654  1.00  0.00    -0.248 NA
ATOM     61  C   UNL A   1      48.722  29.564  27.148  1.00  0.00     0.031 C 
ATOM     62  C   UNL A   1      43.615  32.069  29.275  1.00  0.00     0.029 A 
ATOM     63  C   UNL A   1      44.532  31.165  28.765  1.00  0.00     0.049 A 
ATOM     64  H   UNL A   1      44.279  29.118  28.321  1.00  0.00     0.167 HD
ATOM     65  C   UNL A   1      46.748  30.435  27.926  1.00  0.00     0.074 A 
ATOM     66  C   UNL A   1      48.139  30.669  27.594  1.00  0.00     0.031 C 
ATOM     67  C   UNL A   1      45.910  31.385  28.407  1.00  0.00     0.034 A 
BRANCH  54  68
ATOM     68  C   UNL A   1      40.197  29.305  29.550  1.00  0.00     0.023 A 
ATOM     69  C   UNL A   1      39.830  29.398  30.904  1.00  0.00     0.031 A 
ATOM     70  C   UNL A   1      39.200  29.458  28.573  1.00  0.00     0.131 A 
ATOM     71  C   UNL A   1      38.484  29.591  31.246  1.00  0.00     0.055 A 
ATOM     72  C   UNL A   1      37.869  29.694  28.918  1.00  0.00     0.041 A 
ATOM     73  F   UNL A   1      39.502  29.354  27.268  1.00  0.00    -0.206 F 
ATOM     74  C   UNL A   1      37.503  29.752  30.261  1.00  0.00     0.022 A 
BRANCH  71  75
ATOM     75  S   UNL A   1      38.011  29.529  33.000  1.00  0.00     0.124 S 
ATOM     76  O   UNL A   1      39.301  29.688  33.665  1.00  0.00    -0.237 OA
ATOM     77  O   UNL A   1      37.088  30.652  33.118  1.00  0.00    -0.237 OA
ATOM     78  O   UNL A   1      37.403  28.207  33.143  1.00  0.00    -0.744 OA
ENDBRANCH  71  75
ENDBRANCH  54  68
BRANCH  55  79
ATOM     79  C   UNL A   1      49.204  26.890  26.093  1.00  0.00     0.023 A 
ATOM     80  C   UNL A   1      49.479  27.272  24.769  1.00  0.00     0.031 A 
ATOM     81  C   UNL A   1      50.186  26.201  26.822  1.00  0.00     0.131 A 
ATOM     82  C   UNL A   1      50.719  26.948  24.198  1.00  0.00     0.055 A 
ATOM     83  C   UNL A   1      51.419  25.885  26.254  1.00  0.00     0.041 A 
ATOM     84  F   UNL A   1      49.959  25.836  28.094  1.00  0.00    -0.206 F 
ATOM     85  C   UNL A   1      51.690  26.257  24.935  1.00  0.00     0.022 A 
BRANCH  82  86
ATOM     86  S   UNL A   1      51.054  27.453  22.477  1.00  0.00     0.124 S 
ATOM     87  O   UNL A   1      50.018  26.740  21.740  1.00  0.00    -0.237 OA
ATOM     88  O   UNL A   1      50.905  28.904  22.545  1.00  0.00    -0.237 OA
ATOM     89  O   UNL A   1      52.419  26.986  22.243  1.00  0.00    -0.744 OA
ENDBRANCH  82  86
ENDBRANCH  55  79
BRANCH  67  90
ATOM     90  C   UNL A   1      46.491  32.753  28.607  1.00  0.00     0.023 A 
ATOM     91  C   UNL A   1      46.466  33.709  27.577  1.00  0.00     0.031 A 
ATOM     92  C   UNL A   1      47.087  33.095  29.831  1.00  0.00     0.131 A 
ATOM     93  C   UNL A   1      47.054  34.965  27.781  1.00  0.00     0.055 A 
ATOM     94  C   UNL A   1      47.656  34.352  30.035  1.00  0.00     0.041 A 
ATOM     95  F   UNL A   1      47.138  32.206  30.836  1.00  0.00    -0.206 F 
ATOM     96  C   UNL A   1      47.645  35.293  29.006  1.00  0.00     0.022 A 
BRANCH  93  97
ATOM     97  S   UNL A   1      47.068  36.163  26.413  1.00  0.00     0.124 S 
ATOM     98  O   UNL A   1      46.418  35.413  25.343  1.00  0.00    -0.237 OA
ATOM     99  O   UNL A   1      46.306  37.279  26.963  1.00  0.00    -0.237 OA
ATOM    100  O   UNL A   1      48.490  36.430  26.204  1.00  0.00    -0.744 OA
ENDBRANCH  93  97
ENDBRANCH  67  90
ENDBRANCH  41  42
ENDBRANCH  33  36
ENDBRANCH  31  32
ENDBRANCH   1  31
TORSDOF 17
ENDMDL
MODEL 2
REMARK VINA RESULT:     -12.8      5.553     11.439
REMARK SMILES Cc1ccnc(C(=O)c2[nH]c3ccc(C(C)(C)C)cc3c2CC(=O)NCCCNC(=O)c2ccc(-c3c4nc(c(-c5cc(S(=O)(=O)[O-])ccc5F)c5ccc([nH]5)c(-c5cc(S(=O)(=O)[O-])ccc5F)c5nc(c(-c6cc(S(=O)(=O)[O-])ccc6F)c6ccc3[nH]6)C=C5)C=C4)cc2)c1
REMARK SMILES IDX 27 1 26 2 25 3 23 4 24 5 22 7 21 8 9 9 10 10 11 11 20 13
REMARK SMILES IDX 12 14 19 15 13 16 14 17 7 18 8 19 6 20 1 21 2 22 3 23 95 24
REMARK SMILES IDX 4 25 5 26 15 27 16 28 17 29 18 30 28 31 29 32 30 33 31 35
REMARK SMILES IDX 32 36 33 37 94 38 34 39 93 40 35 41 36 42 37 43 87 44 38 45
REMARK SMILES IDX 92 46 86 47 88 48 39 49 91 50 85 51 84 52 40 54 72 55 52 56
REMARK SMILES IDX 71 57 53 58 56 59 70 60 89 61 54 62 55 63 69 65 90 66 57 67
REMARK SMILES IDX 41 68 42 69 50 70 43 71 49 72 51 73 48 74 44 75 45 76 46 77
REMARK SMILES IDX 47 78 73 79 74 80 82 81 75 82 81 83 83 84 80 85 76 86 77 87
REMARK SMILES IDX 78 88 79 89 58 90 59 91 67 92 60 93 66 94 68 95 65 96 61 97
REMARK SMILES IDX 62 98 63 99 64 100
REMARK H PARENT 25 6 10 12 29 34 88 53 56 64
REMARK Flexibility Score: inf
ROOT
ATOM      1  C   UNL A   1      31.570  31.365  26.447  1.00  0.00     0.042 C 
ENDROOT
BRANCH   1   2
ATOM      2  C   UNL A   1      31.849  30.105  25.633  1.00  0.00     0.117 C 
BRANCH   2   3
ATOM      3  N   UNL A   1      31.465  28.875  26.299  1.00  0.00    -0.356 N 
ATOM      4  C   UNL A   1      32.125  27.682  26.373  1.00  0.00     0.224 C 
ATOM      5  O   UNL A   1      31.714  26.844  27.182  1.00  0.00    -0.275 OA
ATOM      6  H   UNL A   1      30.600  28.906  26.767  1.00  0.00     0.163 HD
BRANCH   4   7
ATOM      7  C   UNL A   1      33.403  27.441  25.589  1.00  0.00     0.138 C 
BRANCH   7   8
ATOM      8  C   UNL A   1      33.247  26.623  24.338  1.00  0.00    -0.002 A 
ATOM      9  C   UNL A   1      32.716  27.027  23.116  1.00  0.00     0.093 A 
ATOM     10  N   UNL A   1      32.826  25.964  22.248  1.00  0.00    -0.352 N 
ATOM     11  C   UNL A   1      33.313  24.857  22.895  1.00  0.00     0.046 A 
ATOM     12  H   UNL A   1      32.587  25.994  21.294  1.00  0.00     0.167 HD
ATOM     13  C   UNL A   1      33.574  25.230  24.207  1.00  0.00     0.004 A 
ATOM     14  C   UNL A   1      33.563  23.571  22.413  1.00  0.00     0.027 A 
ATOM     15  C   UNL A   1      34.100  24.255  25.084  1.00  0.00     0.015 A 
ATOM     16  C   UNL A   1      34.094  22.629  23.306  1.00  0.00     0.006 A 
ATOM     17  C   UNL A   1      34.372  22.941  24.645  1.00  0.00    -0.042 A 
BRANCH   9  18
ATOM     18  C   UNL A   1      32.196  28.327  22.717  1.00  0.00     0.227 C 
ATOM     19  O   UNL A   1      32.946  29.233  22.378  1.00  0.00    -0.285 OA
BRANCH  18  20
ATOM     20  C   UNL A   1      30.697  28.523  22.711  1.00  0.00     0.113 A 
ATOM     21  C   UNL A   1      28.009  30.820  21.331  1.00  0.00     0.044 C 
ATOM     22  C   UNL A   1      28.703  29.712  22.065  1.00  0.00    -0.047 A 
ATOM     23  C   UNL A   1      27.965  28.770  22.785  1.00  0.00     0.023 A 
ATOM     24  C   UNL A   1      30.093  29.571  22.013  1.00  0.00     0.036 A 
ATOM     25  C   UNL A   1      28.640  27.752  23.436  1.00  0.00     0.112 A 
ATOM     26  N   UNL A   1      29.981  27.613  23.421  1.00  0.00    -0.253 NA
ENDBRANCH  18  20
ENDBRANCH   9  18
BRANCH  17  27
ATOM     27  C   UNL A   1      34.980  21.921  25.626  1.00  0.00    -0.013 C 
ATOM     28  C   UNL A   1      34.345  22.113  27.021  1.00  0.00     0.016 C 
ATOM     29  C   UNL A   1      34.697  20.484  25.132  1.00  0.00     0.016 C 
ATOM     30  C   UNL A   1      36.510  22.049  25.796  1.00  0.00     0.016 C 
ENDBRANCH  17  27
ENDBRANCH   7   8
ENDBRANCH   4   7
ENDBRANCH   2   3
ENDBRANCH   1   2
BRANCH   1  31
ATOM     31  C   UNL A   1      32.760  31.901  27.239  1.00  0.00     0.118 C 
BRANCH  31  32
ATOM     32  N   UNL A   1      32.616  33.307  27.584  1.00  0.00    -0.352 N 
ATOM     33  C   UNL A   1      33.270  34.070  28.519  1.00  0.00     0.251 C 
ATOM     34  H   UNL A   1      31.937  33.791  27.061  1.00  0.00     0.163 HD
ATOM     35  O   UNL A   1      32.846  35.198  28.762  1.00  0.00    -0.269 OA
BRANCH  33  36
ATOM     36  C   UNL A   1      34.458  33.561  29.246  1.00  0.00     0.039 A 
ATOM     37  C   UNL A   1      35.704  34.143  28.976  1.00  0.00     0.014 A 
ATOM     38  C   UNL A   1      34.381  32.473  30.120  1.00  0.00     0.014 A 
ATOM     39  C   UNL A   1      36.856  33.673  29.614  1.00  0.00     0.010 A 
ATOM     40  C   UNL A   1      35.526  32.025  30.784  1.00  0.00     0.010 A 
ATOM     41  C   UNL A   1      36.773  32.620  30.536  1.00  0.00    -0.014 A 
BRANCH  41  42
ATOM     42  C   UNL A   1      37.980  32.111  31.232  1.00  0.00     0.031 A 
ATOM     43  C   UNL A   1      38.836  31.058  30.587  1.00  0.00     0.074 A 
ATOM     44  C   UNL A   1      38.272  32.543  32.473  1.00  0.00     0.049 A 
ATOM     45  N   UNL A   1      39.826  30.370  31.095  1.00  0.00    -0.248 NA
ATOM     46  C   UNL A   1      38.518  30.721  29.191  1.00  0.00     0.031 C 
ATOM     47  C   UNL A   1      37.510  33.543  33.226  1.00  0.00     0.029 A 
ATOM     48  N   UNL A   1      39.277  32.173  33.330  1.00  0.00    -0.354 N 
ATOM     49  C   UNL A   1      40.222  29.486  30.100  1.00  0.00     0.074 A 
ATOM     50  C   UNL A   1      39.371  29.735  28.953  1.00  0.00     0.031 C 
ATOM     51  C   UNL A   1      38.070  33.697  34.438  1.00  0.00     0.029 A 
ATOM     52  C   UNL A   1      39.207  32.789  34.555  1.00  0.00     0.049 A 
ATOM     53  H   UNL A   1      39.980  31.528  33.090  1.00  0.00     0.167 HD
ATOM     54  C   UNL A   1      41.197  28.543  30.139  1.00  0.00     0.034 A 
ATOM     55  C   UNL A   1      39.956  32.619  35.661  1.00  0.00     0.034 A 
ATOM     56  C   UNL A   1      42.068  28.315  31.263  1.00  0.00     0.049 A 
ATOM     57  C   UNL A   1      41.071  31.615  35.661  1.00  0.00     0.074 A 
ATOM     58  C   UNL A   1      43.113  27.415  31.381  1.00  0.00     0.029 A 
ATOM     59  N   UNL A   1      42.000  29.003  32.466  1.00  0.00    -0.354 N 
ATOM     60  N   UNL A   1      41.414  30.768  34.722  1.00  0.00    -0.248 NA
ATOM     61  C   UNL A   1      41.897  31.547  36.875  1.00  0.00     0.031 C 
ATOM     62  C   UNL A   1      43.662  27.541  32.665  1.00  0.00     0.029 A 
ATOM     63  C   UNL A   1      42.977  28.542  33.333  1.00  0.00     0.049 A 
ATOM     64  H   UNL A   1      41.352  29.714  32.673  1.00  0.00     0.167 HD
ATOM     65  C   UNL A   1      42.487  30.052  35.238  1.00  0.00     0.074 A 
ATOM     66  C   UNL A   1      42.741  30.571  36.567  1.00  0.00     0.031 C 
ATOM     67  C   UNL A   1      43.200  29.053  34.662  1.00  0.00     0.034 A 
BRANCH  54  68
ATOM     68  C   UNL A   1      41.322  27.653  28.936  1.00  0.00     0.023 A 
ATOM     69  C   UNL A   1      42.304  27.874  27.956  1.00  0.00     0.031 A 
ATOM     70  C   UNL A   1      40.412  26.599  28.750  1.00  0.00     0.131 A 
ATOM     71  C   UNL A   1      42.325  27.075  26.803  1.00  0.00     0.055 A 
ATOM     72  C   UNL A   1      40.465  25.780  27.622  1.00  0.00     0.041 A 
ATOM     73  F   UNL A   1      39.444  26.367  29.650  1.00  0.00    -0.206 F 
ATOM     74  C   UNL A   1      41.419  26.022  26.636  1.00  0.00     0.022 A 
BRANCH  71  75
ATOM     75  S   UNL A   1      43.489  27.494  25.471  1.00  0.00     0.124 S 
ATOM     76  O   UNL A   1      44.200  26.231  25.285  1.00  0.00    -0.237 OA
ATOM     77  O   UNL A   1      42.599  27.891  24.387  1.00  0.00    -0.237 OA
ATOM     78  O   UNL A   1      44.291  28.573  26.045  1.00  0.00    -0.744 OA
ENDBRANCH  71  75
ENDBRANCH  54  68
BRANCH  55  79
ATOM     79  C   UNL A   1      39.627  33.375  36.892  1.00  0.00     0.023 A 
ATOM     80  C   UNL A   1      40.298  34.569  37.209  1.00  0.00     0.031 A 
ATOM     81  C   UNL A   1      38.629  32.905  37.758  1.00  0.00     0.131 A 
ATOM     82  C   UNL A   1      39.967  35.258  38.386  1.00  0.00     0.055 A 
ATOM     83  C   UNL A   1      38.298  33.593  38.924  1.00  0.00     0.041 A 
ATOM     84  F   UNL A   1      37.960  31.775  37.475  1.00  0.00    -0.206 F 
ATOM     85  C   UNL A   1      38.970  34.775  39.244  1.00  0.00     0.022 A 
BRANCH  82  86
ATOM     86  S   UNL A   1      40.851  36.805  38.777  1.00  0.00     0.124 S 
ATOM     87  O   UNL A   1      41.651  37.015  37.576  1.00  0.00    -0.237 OA
ATOM     88  O   UNL A   1      39.754  37.746  38.986  1.00  0.00    -0.237 OA
ATOM     89  O   UNL A   1      41.611  36.470  39.981  1.00  0.00    -0.744 OA
ENDBRANCH  82  86
ENDBRANCH  55  79
BRANCH  67  90
ATOM     90  C   UNL A   1      44.320  28.475  35.472  1.00  0.00     0.023 A 
ATOM     91  C   UNL A   1      44.077  27.496  36.451  1.00  0.00     0.031 A 
ATOM     92  C   UNL A   1      45.637  28.919  35.275  1.00  0.00     0.131 A 
ATOM     93  C   UNL A   1      45.141  27.004  37.220  1.00  0.00     0.055 A 
ATOM     94  C   UNL A   1      46.695  28.415  36.031  1.00  0.00     0.041 A 
ATOM     95  F   UNL A   1      45.909  29.859  34.355  1.00  0.00    -0.206 F 
ATOM     96  C   UNL A   1      46.450  27.455  37.013  1.00  0.00     0.022 A 
BRANCH  93  97
ATOM     97  S   UNL A   1      44.794  25.785  38.525  1.00  0.00     0.124 S 
ATOM     98  O   UNL A   1      46.113  25.580  39.112  1.00  0.00    -0.237 OA
ATOM     99  O   UNL A   1      43.825  26.486  39.362  1.00  0.00    -0.237 OA
ATOM    100  O   UNL A   1      44.259  24.639  37.790  1.00  0.00    -0.744 OA
ENDBRANCH  93  97
ENDBRANCH  67  90
ENDBRANCH  41  42
ENDBRANCH  33  36
ENDBRANCH  31  32
ENDBRANCH   1  31
TORSDOF 17
ENDMDL
MODEL 3
REMARK VINA RESULT:     -12.6      5.582     11.530
REMARK SMILES Cc1ccnc(C(=O)c2[nH]c3ccc(C(C)(C)C)cc3c2CC(=O)NCCCNC(=O)c2ccc(-c3c4nc(c(-c5cc(S(=O)(=O)[O-])ccc5F)c5ccc([nH]5)c(-c5cc(S(=O)(=O)[O-])ccc5F)c5nc(c(-c6cc(S(=O)(=O)[O-])ccc6F)c6ccc3[nH]6)C=C5)C=C4)cc2)c1
REMARK SMILES IDX 27 1 26 2 25 3 23 4 24 5 22 7 21 8 9 9 10 10 11 11 20 13
REMARK SMILES IDX 12 14 19 15 13 16 14 17 7 18 8 19 6 20 1 21 2 22 3 23 95 24
REMARK SMILES IDX 4 25 5 26 15 27 16 28 17 29 18 30 28 31 29 32 30 33 31 35
REMARK SMILES IDX 32 36 33 37 94 38 34 39 93 40 35 41 36 42 37 43 87 44 38 45
REMARK SMILES IDX 92 46 86 47 88 48 39 49 91 50 85 51 84 52 40 54 72 55 52 56
REMARK SMILES IDX 71 57 53 58 56 59 70 60 89 61 54 62 55 63 69 65 90 66 57 67
REMARK SMILES IDX 41 68 42 69 50 70 43 71 49 72 51 73 48 74 44 75 45 76 46 77
REMARK SMILES IDX 47 78 73 79 74 80 82 81 75 82 81 83 83 84 80 85 76 86 77 87
REMARK SMILES IDX 78 88 79 89 58 90 59 91 67 92 60 93 66 94 68 95 65 96 61 97
REMARK SMILES IDX 62 98 63 99 64 100
REMARK H PARENT 25 6 10 12 29 34 88 53 56 64
REMARK Flexibility Score: inf
ROOT
ATOM      1  C   UNL A   1      31.543  31.542  26.665  1.00  0.00     0.042 C 
ENDROOT
BRANCH   1   2
ATOM      2  C   UNL A   1      31.722  30.265  25.850  1.00  0.00     0.117 C 
BRANCH   2   3
ATOM      3  N   UNL A   1      31.343  29.056  26.558  1.00  0.00    -0.356 N 
ATOM      4  C   UNL A   1      31.516  27.749  26.205  1.00  0.00     0.224 C 
ATOM      5  O   UNL A   1      31.316  26.886  27.065  1.00  0.00    -0.275 OA
ATOM      6  H   UNL A   1      30.894  29.201  27.422  1.00  0.00     0.163 HD
BRANCH   4   7
ATOM      7  C   UNL A   1      32.069  27.371  24.841  1.00  0.00     0.138 C 
BRANCH   7   8
ATOM      8  C   UNL A   1      31.549  26.082  24.270  1.00  0.00    -0.002 A 
ATOM      9  C   UNL A   1      30.256  25.803  23.836  1.00  0.00     0.093 A 
ATOM     10  N   UNL A   1      30.256  24.518  23.341  1.00  0.00    -0.352 N 
ATOM     11  C   UNL A   1      31.477  23.923  23.536  1.00  0.00     0.046 A 
ATOM     12  H   UNL A   1      29.486  24.085  22.907  1.00  0.00     0.167 HD
ATOM     13  C   UNL A   1      32.305  24.869  24.126  1.00  0.00     0.004 A 
ATOM     14  C   UNL A   1      31.913  22.637  23.212  1.00  0.00     0.027 A 
ATOM     15  C   UNL A   1      33.636  24.497  24.420  1.00  0.00     0.015 A 
ATOM     16  C   UNL A   1      33.243  22.303  23.508  1.00  0.00     0.006 A 
ATOM     17  C   UNL A   1      34.126  23.209  24.112  1.00  0.00    -0.042 A 
BRANCH   9  18
ATOM     18  C   UNL A   1      29.085  26.666  23.799  1.00  0.00     0.227 C 
ATOM     19  O   UNL A   1      28.021  26.314  24.292  1.00  0.00    -0.285 OA
BRANCH  18  20
ATOM     20  C   UNL A   1      29.223  28.026  23.152  1.00  0.00     0.113 A 
ATOM     21  C   UNL A   1      27.692  31.499  23.186  1.00  0.00     0.044 C 
ATOM     22  C   UNL A   1      28.557  30.322  22.847  1.00  0.00    -0.047 A 
ATOM     23  C   UNL A   1      29.574  30.442  21.898  1.00  0.00     0.023 A 
ATOM     24  C   UNL A   1      28.394  29.095  23.499  1.00  0.00     0.036 A 
ATOM     25  C   UNL A   1      30.363  29.337  21.624  1.00  0.00     0.112 A 
ATOM     26  N   UNL A   1      30.206  28.139  22.221  1.00  0.00    -0.253 NA
ENDBRANCH  18  20
ENDBRANCH   9  18
BRANCH  17  27
ATOM     27  C   UNL A   1      35.595  22.859  24.417  1.00  0.00    -0.013 C 
ATOM     28  C   UNL A   1      35.673  21.419  24.967  1.00  0.00     0.016 C 
ATOM     29  C   UNL A   1      36.438  22.957  23.126  1.00  0.00     0.016 C 
ATOM     30  C   UNL A   1      36.255  23.787  25.461  1.00  0.00     0.016 C 
ENDBRANCH  17  27
ENDBRANCH   7   8
ENDBRANCH   4   7
ENDBRANCH   2   3
ENDBRANCH   1   2
BRANCH   1  31
ATOM     31  C   UNL A   1      32.840  32.217  27.105  1.00  0.00     0.118 C 
BRANCH  31  32
ATOM     32  N   UNL A   1      32.632  33.580  27.569  1.00  0.00    -0.352 N 
ATOM     33  C   UNL A   1      33.240  34.283  28.580  1.00  0.00     0.251 C 
ATOM     34  H   UNL A   1      31.942  34.081  27.078  1.00  0.00     0.163 HD
ATOM     35  O   UNL A   1      32.766  35.368  28.912  1.00  0.00    -0.269 OA
BRANCH  33  36
ATOM     36  C   UNL A   1      34.438  33.760  29.281  1.00  0.00     0.039 A 
ATOM     37  C   UNL A   1      35.701  34.062  28.757  1.00  0.00     0.014 A 
ATOM     38  C   UNL A   1      34.335  32.913  30.389  1.00  0.00     0.014 A 
ATOM     39  C   UNL A   1      36.856  33.562  29.367  1.00  0.00     0.010 A 
ATOM     40  C   UNL A   1      35.490  32.442  31.019  1.00  0.00     0.010 A 
ATOM     41  C   UNL A   1      36.759  32.761  30.514  1.00  0.00    -0.014 A 
BRANCH  41  42
ATOM     42  C   UNL A   1      37.971  32.229  31.184  1.00  0.00     0.031 A 
ATOM     43  C   UNL A   1      38.755  31.114  30.550  1.00  0.00     0.074 A 
ATOM     44  C   UNL A   1      38.331  32.697  32.393  1.00  0.00     0.049 A 
ATOM     45  N   UNL A   1      39.735  30.404  31.048  1.00  0.00    -0.248 NA
ATOM     46  C   UNL A   1      38.367  30.735  29.183  1.00  0.00     0.031 C 
ATOM     47  C   UNL A   1      37.643  33.758  33.132  1.00  0.00     0.029 A 
ATOM     48  N   UNL A   1      39.353  32.318  33.226  1.00  0.00    -0.354 N 
ATOM     49  C   UNL A   1      40.052  29.464  30.076  1.00  0.00     0.074 A 
ATOM     50  C   UNL A   1      39.167  29.705  28.954  1.00  0.00     0.031 C 
ATOM     51  C   UNL A   1      38.257  33.936  34.315  1.00  0.00     0.029 A 
ATOM     52  C   UNL A   1      39.358  32.985  34.426  1.00  0.00     0.049 A 
ATOM     53  H   UNL A   1      40.018  31.633  32.985  1.00  0.00     0.167 HD
ATOM     54  C   UNL A   1      40.988  28.482  30.117  1.00  0.00     0.034 A 
ATOM     55  C   UNL A   1      40.144  32.826  35.508  1.00  0.00     0.034 A 
ATOM     56  C   UNL A   1      41.893  28.262  31.216  1.00  0.00     0.049 A 
ATOM     57  C   UNL A   1      41.214  31.776  35.506  1.00  0.00     0.074 A 
ATOM     58  C   UNL A   1      42.903  27.322  31.330  1.00  0.00     0.029 A 
ATOM     59  N   UNL A   1      41.903  28.999  32.390  1.00  0.00    -0.354 N 
ATOM     60  N   UNL A   1      41.483  30.877  34.591  1.00  0.00    -0.248 NA
ATOM     61  C   UNL A   1      42.085  31.720  36.689  1.00  0.00     0.031 C 
ATOM     62  C   UNL A   1      43.509  27.475  32.585  1.00  0.00     0.029 A 
ATOM     63  C   UNL A   1      42.894  28.531  33.238  1.00  0.00     0.049 A 
ATOM     64  H   UNL A   1      41.294  29.746  32.592  1.00  0.00     0.167 HD
ATOM     65  C   UNL A   1      42.546  30.136  35.095  1.00  0.00     0.074 A 
ATOM     66  C   UNL A   1      42.874  30.697  36.390  1.00  0.00     0.031 C 
ATOM     67  C   UNL A   1      43.191  29.085  34.534  1.00  0.00     0.034 A 
BRANCH  54  68
ATOM     68  C   UNL A   1      41.027  27.540  28.948  1.00  0.00     0.023 A 
ATOM     69  C   UNL A   1      41.952  27.701  27.903  1.00  0.00     0.031 A 
ATOM     70  C   UNL A   1      40.091  26.496  28.862  1.00  0.00     0.131 A 
ATOM     71  C   UNL A   1      41.891  26.854  26.786  1.00  0.00     0.055 A 
ATOM     72  C   UNL A   1      40.063  25.629  27.770  1.00  0.00     0.041 A 
ATOM     73  F   UNL A   1      39.174  26.320  29.827  1.00  0.00    -0.206 F 
ATOM     74  C   UNL A   1      40.960  25.811  26.719  1.00  0.00     0.022 A 
BRANCH  71  75
ATOM     75  S   UNL A   1      42.980  27.194  25.371  1.00  0.00     0.124 S 
ATOM     76  O   UNL A   1      42.277  28.290  24.708  1.00  0.00    -0.237 OA
ATOM     77  O   UNL A   1      44.239  27.542  26.019  1.00  0.00    -0.237 OA
ATOM     78  O   UNL A   1      42.988  25.932  24.634  1.00  0.00    -0.744 OA
ENDBRANCH  71  75
ENDBRANCH  54  68
BRANCH  55  79
ATOM     79  C   UNL A   1      39.897  33.645  36.718  1.00  0.00     0.023 A 
ATOM     80  C   UNL A   1      39.200  33.119  37.819  1.00  0.00     0.031 A 
ATOM     81  C   UNL A   1      40.369  34.965  36.778  1.00  0.00     0.131 A 
ATOM     82  C   UNL A   1      38.978  33.924  38.947  1.00  0.00     0.055 A 
ATOM     83  C   UNL A   1      40.152  35.761  37.902  1.00  0.00     0.041 A 
ATOM     84  F   UNL A   1      41.052  35.491  35.748  1.00  0.00    -0.206 F 
ATOM     85  C   UNL A   1      39.452  35.242  38.993  1.00  0.00     0.022 A 
BRANCH  82  86
ATOM     86  S   UNL A   1      38.070  33.220  40.364  1.00  0.00     0.124 S 
ATOM     87  O   UNL A   1      37.891  34.383  41.224  1.00  0.00    -0.237 OA
ATOM     88  O   UNL A   1      36.861  32.701  39.732  1.00  0.00    -0.237 OA
ATOM     89  O   UNL A   1      38.981  32.199  40.880  1.00  0.00    -0.744 OA
ENDBRANCH  82  86
ENDBRANCH  55  79
BRANCH  67  90
ATOM     90  C   UNL A   1      44.319  28.491  35.324  1.00  0.00     0.023 A 
ATOM     91  C   UNL A   1      44.084  27.488  36.279  1.00  0.00     0.031 A 
ATOM     92  C   UNL A   1      45.633  28.945  35.130  1.00  0.00     0.131 A 
ATOM     93  C   UNL A   1      45.154  26.981  37.031  1.00  0.00     0.055 A 
ATOM     94  C   UNL A   1      46.696  28.426  35.868  1.00  0.00     0.041 A 
ATOM     95  F   UNL A   1      45.896  29.908  34.232  1.00  0.00    -0.206 F 
ATOM     96  C   UNL A   1      46.460  27.442  36.828  1.00  0.00     0.022 A 
BRANCH  93  97
ATOM     97  S   UNL A   1      44.818  25.729  38.307  1.00  0.00     0.124 S 
ATOM     98  O   UNL A   1      44.137  26.512  39.332  1.00  0.00    -0.237 OA
ATOM     99  O   UNL A   1      43.993  24.762  37.590  1.00  0.00    -0.237 OA
ATOM    100  O   UNL A   1      46.149  25.251  38.678  1.00  0.00    -0.744 OA
ENDBRANCH  93  97
ENDBRANCH  67  90
ENDBRANCH  41  42
ENDBRANCH  33  36
ENDBRANCH  31  32
ENDBRANCH   1  31
TORSDOF 17
ENDMDL
