MODEL 1
REMARK VINA RESULT:     -11.6      0.000      0.000
REMARK SMILES O=C(NCc1ccc(C(=O)NCCCNC(=O)c2ccc(-c3c4nc(c(-c5cc(S(=O)(=O)[O-])ccc5F)c5ccc([nH]5)c(-c5cc(S(=O)(=O)[O-])ccc5F)c5nc(c(-c6cc(S(=O)(=O)[O-])ccc6F)c6ccc3[nH]6)C=C5)C=C4)cc2)cc1)Nc1ccccc1Br
REMARK SMILES IDX 13 1 12 2 11 3 9 4 10 5 8 7 5 8 6 9 82 10 7 11 81 12 4 13
REMARK SMILES IDX 3 14 1 15 2 16 83 17 84 20 85 21 89 22 86 23 88 24 90 25
REMARK SMILES IDX 87 26 14 27 15 28 16 29 17 31 18 32 19 33 80 34 20 35 79 36
REMARK SMILES IDX 21 37 22 38 23 39 73 40 24 41 78 42 72 43 74 44 25 45 77 46
REMARK SMILES IDX 71 47 70 48 26 50 58 51 38 52 57 53 39 54 42 55 56 56 75 57
REMARK SMILES IDX 40 58 41 59 55 61 76 62 43 63 27 64 28 65 36 66 29 67 35 68
REMARK SMILES IDX 37 69 34 70 30 71 31 72 32 73 33 74 59 75 60 76 68 77 61 78
REMARK SMILES IDX 67 79 69 80 66 81 62 82 63 83 64 84 65 85 44 86 45 87 53 88
REMARK SMILES IDX 46 89 52 90 54 91 51 92 47 93 48 94 49 95 50 96
REMARK H PARENT 11 6 3 18 83 19 15 30 74 49 42 60
REMARK Flexibility Score: inf
ROOT
ATOM      1  C   UNL A   1      33.626  36.221  28.813  1.00  0.00     0.042 C 
ENDROOT
BRANCH   1   2
ATOM      2  C   UNL A   1      34.588  35.388  27.966  1.00  0.00     0.118 C 
BRANCH   2   3
ATOM      3  N   UNL A   1      35.797  35.063  28.704  1.00  0.00    -0.352 N 
ATOM      4  C   UNL A   1      36.432  33.871  28.939  1.00  0.00     0.251 C 
ATOM      5  O   UNL A   1      37.514  33.898  29.526  1.00  0.00    -0.269 OA
ATOM      6  H   UNL A   1      36.241  35.842  29.110  1.00  0.00     0.163 HD
BRANCH   4   7
ATOM      7  C   UNL A   1      35.900  32.563  28.470  1.00  0.00     0.039 A 
ATOM      8  C   UNL A   1      35.048  30.031  27.557  1.00  0.00    -0.029 A 
ATOM      9  C   UNL A   1      36.412  30.310  27.710  1.00  0.00     0.006 A 
ATOM     10  C   UNL A   1      34.116  31.013  27.916  1.00  0.00     0.006 A 
ATOM     11  C   UNL A   1      36.832  31.567  28.157  1.00  0.00     0.014 A 
ATOM     12  C   UNL A   1      34.539  32.261  28.386  1.00  0.00     0.014 A 
BRANCH   8  13
ATOM     13  C   UNL A   1      34.579  28.677  27.094  1.00  0.00     0.153 C 
BRANCH  13  14
ATOM     14  N   UNL A   1      33.267  28.350  27.613  1.00  0.00    -0.334 N 
ATOM     15  O   UNL A   1      31.080  27.948  27.636  1.00  0.00    -0.248 OA
ATOM     16  C   UNL A   1      32.082  28.171  26.967  1.00  0.00     0.319 C 
ATOM     17  N   UNL A   1      32.139  28.203  25.602  1.00  0.00    -0.307 N 
ATOM     18  H   UNL A   1      33.225  28.238  28.590  1.00  0.00     0.165 HD
ATOM     19  H   UNL A   1      33.035  28.164  25.198  1.00  0.00     0.171 HD
BRANCH  17  20
ATOM     20  C   UNL A   1      31.046  28.284  24.712  1.00  0.00     0.057 A 
ATOM     21  C   UNL A   1      30.719  29.585  24.286  1.00  0.00     0.027 A 
ATOM     22  C   UNL A   1      30.250  27.215  24.264  1.00  0.00     0.041 A 
ATOM     23  C   UNL A   1      29.683  29.812  23.379  1.00  0.00     0.002 A 
ATOM     24  C   UNL A   1      29.217  27.451  23.342  1.00  0.00     0.018 A 
ATOM     25  Br  UNL A   1      30.304  25.457  24.992  1.00  0.00    -0.049 Br
ATOM     26  C   UNL A   1      28.941  28.742  22.893  1.00  0.00     0.001 A 
ENDBRANCH  17  20
ENDBRANCH  13  14
ENDBRANCH   8  13
ENDBRANCH   4   7
ENDBRANCH   2   3
ENDBRANCH   1   2
BRANCH   1  27
ATOM     27  C   UNL A   1      32.790  35.390  29.783  1.00  0.00     0.118 C 
BRANCH  27  28
ATOM     28  N   UNL A   1      32.361  36.168  30.935  1.00  0.00    -0.352 N 
ATOM     29  C   UNL A   1      32.734  36.072  32.253  1.00  0.00     0.251 C 
ATOM     30  H   UNL A   1      31.701  36.872  30.739  1.00  0.00     0.163 HD
ATOM     31  O   UNL A   1      32.075  36.667  33.101  1.00  0.00    -0.269 OA
BRANCH  29  32
ATOM     32  C   UNL A   1      33.901  35.254  32.657  1.00  0.00     0.039 A 
ATOM     33  C   UNL A   1      35.185  35.736  32.380  1.00  0.00     0.014 A 
ATOM     34  C   UNL A   1      33.745  34.000  33.252  1.00  0.00     0.014 A 
ATOM     35  C   UNL A   1      36.306  34.986  32.744  1.00  0.00     0.010 A 
ATOM     36  C   UNL A   1      34.864  33.281  33.672  1.00  0.00     0.010 A 
ATOM     37  C   UNL A   1      36.157  33.764  33.418  1.00  0.00    -0.014 A 
BRANCH  37  38
ATOM     38  C   UNL A   1      37.339  32.973  33.851  1.00  0.00     0.031 A 
ATOM     39  C   UNL A   1      38.098  33.363  35.091  1.00  0.00     0.074 A 
ATOM     40  C   UNL A   1      37.761  31.937  33.098  1.00  0.00     0.049 A 
ATOM     41  N   UNL A   1      39.205  32.865  35.577  1.00  0.00    -0.248 NA
ATOM     42  C   UNL A   1      37.549  34.483  35.871  1.00  0.00     0.031 C 
ATOM     43  C   UNL A   1      37.126  31.482  31.859  1.00  0.00     0.029 A 
ATOM     44  N   UNL A   1      38.829  31.089  33.252  1.00  0.00    -0.354 N 
ATOM     45  C   UNL A   1      39.492  33.611  36.715  1.00  0.00     0.074 A 
ATOM     46  C   UNL A   1      38.471  34.635  36.810  1.00  0.00     0.031 C 
ATOM     47  C   UNL A   1      37.812  30.436  31.371  1.00  0.00     0.029 A 
ATOM     48  C   UNL A   1      38.958  30.172  32.235  1.00  0.00     0.049 A 
ATOM     49  H   UNL A   1      39.445  31.134  34.019  1.00  0.00     0.167 HD
ATOM     50  C   UNL A   1      40.498  33.445  37.611  1.00  0.00     0.034 A 
ATOM     51  C   UNL A   1      39.902  29.236  32.013  1.00  0.00     0.034 A 
ATOM     52  C   UNL A   1      41.504  32.416  37.506  1.00  0.00     0.049 A 
ATOM     53  C   UNL A   1      41.024  29.082  33.010  1.00  0.00     0.074 A 
ATOM     54  C   UNL A   1      42.551  32.140  38.368  1.00  0.00     0.029 A 
ATOM     55  N   UNL A   1      41.590  31.491  36.473  1.00  0.00    -0.354 N 
ATOM     56  N   UNL A   1      41.262  29.778  34.098  1.00  0.00    -0.248 NA
ATOM     57  C   UNL A   1      41.994  28.009  32.759  1.00  0.00     0.031 C 
ATOM     58  C   UNL A   1      43.301  31.088  37.829  1.00  0.00     0.029 A 
ATOM     59  C   UNL A   1      42.681  30.659  36.667  1.00  0.00     0.049 A 
ATOM     60  H   UNL A   1      40.965  31.434  35.712  1.00  0.00     0.167 HD
ATOM     61  C   UNL A   1      42.392  29.207  34.674  1.00  0.00     0.074 A 
ATOM     62  C   UNL A   1      42.776  28.098  33.824  1.00  0.00     0.031 C 
ATOM     63  C   UNL A   1      43.054  29.562  35.805  1.00  0.00     0.034 A 
BRANCH  50  64
ATOM     64  C   UNL A   1      40.564  34.413  38.767  1.00  0.00     0.023 A 
ATOM     65  C   UNL A   1      39.799  34.221  39.931  1.00  0.00     0.031 A 
ATOM     66  C   UNL A   1      41.386  35.553  38.702  1.00  0.00     0.131 A 
ATOM     67  C   UNL A   1      39.815  35.186  40.949  1.00  0.00     0.055 A 
ATOM     68  C   UNL A   1      41.458  36.470  39.753  1.00  0.00     0.041 A 
ATOM     69  F   UNL A   1      42.125  35.800  37.610  1.00  0.00    -0.206 F 
ATOM     70  C   UNL A   1      40.658  36.297  40.879  1.00  0.00     0.022 A 
BRANCH  67  71
ATOM     71  S   UNL A   1      38.620  35.036  42.305  1.00  0.00     0.124 S 
ATOM     72  O   UNL A   1      37.359  34.935  41.574  1.00  0.00    -0.237 OA
ATOM     73  O   UNL A   1      39.063  33.824  42.984  1.00  0.00    -0.237 OA
ATOM     74  O   UNL A   1      38.799  36.274  43.059  1.00  0.00    -0.744 OA
ENDBRANCH  67  71
ENDBRANCH  50  64
BRANCH  51  75
ATOM     75  C   UNL A   1      39.851  28.385  30.790  1.00  0.00     0.023 A 
ATOM     76  C   UNL A   1      40.575  28.724  29.637  1.00  0.00     0.031 A 
ATOM     77  C   UNL A   1      39.034  27.241  30.741  1.00  0.00     0.131 A 
ATOM     78  C   UNL A   1      40.429  27.962  28.467  1.00  0.00     0.055 A 
ATOM     79  C   UNL A   1      38.934  26.454  29.592  1.00  0.00     0.041 A 
ATOM     80  F   UNL A   1      38.324  26.866  31.817  1.00  0.00    -0.206 F 
ATOM     81  C   UNL A   1      39.623  26.822  28.441  1.00  0.00     0.022 A 
BRANCH  78  82
ATOM     82  S   UNL A   1      41.235  28.538  26.948  1.00  0.00     0.124 S 
ATOM     83  O   UNL A   1      40.125  29.169  26.243  1.00  0.00    -0.237 OA
ATOM     84  O   UNL A   1      42.257  29.438  27.472  1.00  0.00    -0.237 OA
ATOM     85  O   UNL A   1      41.741  27.307  26.344  1.00  0.00    -0.744 OA
ENDBRANCH  78  82
ENDBRANCH  51  75
BRANCH  63  86
ATOM     86  C   UNL A   1      44.232  28.707  36.204  1.00  0.00     0.023 A 
ATOM     87  C   UNL A   1      44.101  27.647  37.118  1.00  0.00     0.031 A 
ATOM     88  C   UNL A   1      45.506  28.970  35.672  1.00  0.00     0.131 A 
ATOM     89  C   UNL A   1      45.235  26.923  37.514  1.00  0.00     0.055 A 
ATOM     90  C   UNL A   1      46.621  28.210  36.026  1.00  0.00     0.041 A 
ATOM     91  F   UNL A   1      45.687  29.972  34.797  1.00  0.00    -0.206 F 
ATOM     92  C   UNL A   1      46.492  27.188  36.963  1.00  0.00     0.022 A 
BRANCH  89  93
ATOM     93  S   UNL A   1      45.063  25.685  38.828  1.00  0.00     0.124 S 
ATOM     94  O   UNL A   1      46.449  25.475  39.231  1.00  0.00    -0.237 OA
ATOM     95  O   UNL A   1      44.215  26.373  39.796  1.00  0.00    -0.237 OA
ATOM     96  O   UNL A   1      44.434  24.552  38.151  1.00  0.00    -0.744 OA
ENDBRANCH  89  93
ENDBRANCH  63  86
ENDBRANCH  37  38
ENDBRANCH  29  32
ENDBRANCH  27  28
ENDBRANCH   1  27
TORSDOF 16
ENDMDL
MODEL 2
REMARK VINA RESULT:     -11.5      6.757     11.501
REMARK SMILES O=C(NCc1ccc(C(=O)NCCCNC(=O)c2ccc(-c3c4nc(c(-c5cc(S(=O)(=O)[O-])ccc5F)c5ccc([nH]5)c(-c5cc(S(=O)(=O)[O-])ccc5F)c5nc(c(-c6cc(S(=O)(=O)[O-])ccc6F)c6ccc3[nH]6)C=C5)C=C4)cc2)cc1)Nc1ccccc1Br
REMARK SMILES IDX 13 1 12 2 11 3 9 4 10 5 8 7 5 8 6 9 82 10 7 11 81 12 4 13
REMARK SMILES IDX 3 14 1 15 2 16 83 17 84 20 85 21 89 22 86 23 88 24 90 25
REMARK SMILES IDX 87 26 14 27 15 28 16 29 17 31 18 32 19 33 80 34 20 35 79 36
REMARK SMILES IDX 21 37 22 38 23 39 73 40 24 41 78 42 72 43 74 44 25 45 77 46
REMARK SMILES IDX 71 47 70 48 26 50 58 51 38 52 57 53 39 54 42 55 56 56 75 57
REMARK SMILES IDX 40 58 41 59 55 61 76 62 43 63 27 64 28 65 36 66 29 67 35 68
REMARK SMILES IDX 37 69 34 70 30 71 31 72 32 73 33 74 59 75 60 76 68 77 61 78
REMARK SMILES IDX 67 79 69 80 66 81 62 82 63 83 64 84 65 85 44 86 45 87 53 88
REMARK SMILES IDX 46 89 52 90 54 91 51 92 47 93 48 94 49 95 50 96
REMARK H PARENT 11 6 3 18 83 19 15 30 74 49 42 60
REMARK Flexibility Score: inf
ROOT
ATOM      1  C   UNL A   1      38.222  19.695  25.020  1.00  0.00     0.042 C 
ENDROOT
BRANCH   1   2
ATOM      2  C   UNL A   1      36.977  20.583  25.008  1.00  0.00     0.118 C 
BRANCH   2   3
ATOM      3  N   UNL A   1      37.069  21.610  23.985  1.00  0.00    -0.352 N 
ATOM      4  C   UNL A   1      36.202  22.602  23.604  1.00  0.00     0.251 C 
ATOM      5  O   UNL A   1      36.583  23.408  22.755  1.00  0.00    -0.269 OA
ATOM      6  H   UNL A   1      37.907  21.589  23.469  1.00  0.00     0.163 HD
BRANCH   4   7
ATOM      7  C   UNL A   1      34.854  22.775  24.208  1.00  0.00     0.039 A 
ATOM      8  C   UNL A   1      32.370  23.183  25.485  1.00  0.00    -0.029 A 
ATOM      9  C   UNL A   1      33.545  23.710  26.033  1.00  0.00     0.006 A 
ATOM     10  C   UNL A   1      32.444  22.496  24.267  1.00  0.00     0.006 A 
ATOM     11  C   UNL A   1      34.776  23.503  25.403  1.00  0.00     0.014 A 
ATOM     12  C   UNL A   1      33.673  22.312  23.626  1.00  0.00     0.014 A 
BRANCH   8  13
ATOM     13  C   UNL A   1      31.034  23.412  26.143  1.00  0.00     0.153 C 
BRANCH  13  14
ATOM     14  N   UNL A   1      30.947  24.723  26.753  1.00  0.00    -0.334 N 
ATOM     15  O   UNL A   1      30.790  26.936  26.915  1.00  0.00    -0.248 OA
ATOM     16  C   UNL A   1      30.780  25.950  26.187  1.00  0.00     0.319 C 
ATOM     17  N   UNL A   1      30.559  25.958  24.838  1.00  0.00    -0.307 N 
ATOM     18  H   UNL A   1      31.018  24.728  27.734  1.00  0.00     0.165 HD
ATOM     19  H   UNL A   1      30.353  25.090  24.422  1.00  0.00     0.171 HD
BRANCH  17  20
ATOM     20  C   UNL A   1      30.594  27.080  23.982  1.00  0.00     0.057 A 
ATOM     21  C   UNL A   1      29.338  27.533  23.541  1.00  0.00     0.027 A 
ATOM     22  C   UNL A   1      31.744  27.735  23.509  1.00  0.00     0.041 A 
ATOM     23  C   UNL A   1      29.219  28.653  22.718  1.00  0.00     0.002 A 
ATOM     24  C   UNL A   1      31.616  28.870  22.691  1.00  0.00     0.018 A 
ATOM     25  Br  UNL A   1      33.516  27.068  23.700  1.00  0.00    -0.049 Br
ATOM     26  C   UNL A   1      30.358  29.333  22.306  1.00  0.00     0.001 A 
ENDBRANCH  17  20
ENDBRANCH  13  14
ENDBRANCH   8  13
ENDBRANCH   4   7
ENDBRANCH   2   3
ENDBRANCH   1   2
BRANCH   1  27
ATOM     27  C   UNL A   1      39.281  20.142  26.025  1.00  0.00     0.118 C 
BRANCH  27  28
ATOM     28  N   UNL A   1      40.442  19.267  26.016  1.00  0.00    -0.352 N 
ATOM     29  C   UNL A   1      41.780  19.577  26.028  1.00  0.00     0.251 C 
ATOM     30  H   UNL A   1      40.238  18.304  25.997  1.00  0.00     0.163 HD
ATOM     31  O   UNL A   1      42.596  18.694  25.777  1.00  0.00    -0.269 OA
BRANCH  29  32
ATOM     32  C   UNL A   1      42.241  20.953  26.326  1.00  0.00     0.039 A 
ATOM     33  C   UNL A   1      42.563  21.282  27.646  1.00  0.00     0.014 A 
ATOM     34  C   UNL A   1      42.304  21.934  25.332  1.00  0.00     0.014 A 
ATOM     35  C   UNL A   1      42.996  22.573  27.959  1.00  0.00     0.010 A 
ATOM     36  C   UNL A   1      42.797  23.204  25.633  1.00  0.00     0.010 A 
ATOM     37  C   UNL A   1      43.143  23.539  26.951  1.00  0.00    -0.014 A 
BRANCH  37  38
ATOM     38  C   UNL A   1      43.642  24.905  27.258  1.00  0.00     0.031 A 
ATOM     39  C   UNL A   1      42.697  25.957  27.774  1.00  0.00     0.074 A 
ATOM     40  C   UNL A   1      44.933  25.213  27.020  1.00  0.00     0.049 A 
ATOM     41  N   UNL A   1      42.915  27.226  28.006  1.00  0.00    -0.248 NA
ATOM     42  C   UNL A   1      41.316  25.526  28.037  1.00  0.00     0.031 C 
ATOM     43  C   UNL A   1      45.937  24.287  26.491  1.00  0.00     0.029 A 
ATOM     44  N   UNL A   1      45.620  26.392  27.174  1.00  0.00    -0.354 N 
ATOM     45  C   UNL A   1      41.700  27.749  28.436  1.00  0.00     0.074 A 
ATOM     46  C   UNL A   1      40.737  26.669  28.375  1.00  0.00     0.031 C 
ATOM     47  C   UNL A   1      47.110  24.930  26.373  1.00  0.00     0.029 A 
ATOM     48  C   UNL A   1      46.934  26.322  26.775  1.00  0.00     0.049 A 
ATOM     49  H   UNL A   1      45.210  27.210  27.538  1.00  0.00     0.167 HD
ATOM     50  C   UNL A   1      41.419  29.005  28.864  1.00  0.00     0.034 A 
ATOM     51  C   UNL A   1      47.885  27.276  26.720  1.00  0.00     0.034 A 
ATOM     52  C   UNL A   1      42.392  30.069  28.926  1.00  0.00     0.049 A 
ATOM     53  C   UNL A   1      47.545  28.671  27.181  1.00  0.00     0.074 A 
ATOM     54  C   UNL A   1      42.223  31.371  29.367  1.00  0.00     0.029 A 
ATOM     55  N   UNL A   1      43.719  29.956  28.532  1.00  0.00    -0.354 N 
ATOM     56  N   UNL A   1      46.397  29.140  27.614  1.00  0.00    -0.248 NA
ATOM     57  C   UNL A   1      48.630  29.660  27.162  1.00  0.00     0.031 C 
ATOM     58  C   UNL A   1      43.430  32.057  29.188  1.00  0.00     0.029 A 
ATOM     59  C   UNL A   1      44.373  31.166  28.703  1.00  0.00     0.049 A 
ATOM     60  H   UNL A   1      44.137  29.134  28.183  1.00  0.00     0.167 HD
ATOM     61  C   UNL A   1      46.632  30.471  27.944  1.00  0.00     0.074 A 
ATOM     62  C   UNL A   1      48.034  30.724  27.679  1.00  0.00     0.031 C 
ATOM     63  C   UNL A   1      45.770  31.402  28.426  1.00  0.00     0.034 A 
BRANCH  50  64
ATOM     64  C   UNL A   1      39.996  29.294  29.279  1.00  0.00     0.023 A 
ATOM     65  C   UNL A   1      39.615  29.309  30.632  1.00  0.00     0.031 A 
ATOM     66  C   UNL A   1      39.004  29.541  28.314  1.00  0.00     0.131 A 
ATOM     67  C   UNL A   1      38.267  29.491  30.979  1.00  0.00     0.055 A 
ATOM     68  C   UNL A   1      37.678  29.801  28.669  1.00  0.00     0.041 A 
ATOM     69  F   UNL A   1      39.303  29.522  27.006  1.00  0.00    -0.206 F 
ATOM     70  C   UNL A   1      37.300  29.762  30.008  1.00  0.00     0.022 A 
BRANCH  67  71
ATOM     71  S   UNL A   1      37.775  29.238  32.706  1.00  0.00     0.124 S 
ATOM     72  O   UNL A   1      36.456  29.864  32.730  1.00  0.00    -0.237 OA
ATOM     73  O   UNL A   1      37.795  27.785  32.831  1.00  0.00    -0.237 OA
ATOM     74  O   UNL A   1      38.806  29.944  33.464  1.00  0.00    -0.744 OA
ENDBRANCH  67  71
ENDBRANCH  50  64
BRANCH  51  75
ATOM     75  C   UNL A   1      49.243  26.960  26.189  1.00  0.00     0.023 A 
ATOM     76  C   UNL A   1      49.638  27.379  24.909  1.00  0.00     0.031 A 
ATOM     77  C   UNL A   1      50.149  26.190  26.939  1.00  0.00     0.131 A 
ATOM     78  C   UNL A   1      50.882  26.981  24.395  1.00  0.00     0.055 A 
ATOM     79  C   UNL A   1      51.408  25.843  26.445  1.00  0.00     0.041 A 
ATOM     80  F   UNL A   1      49.825  25.768  28.172  1.00  0.00    -0.206 F 
ATOM     81  C   UNL A   1      51.775  26.227  25.159  1.00  0.00     0.022 A 
BRANCH  78  82
ATOM     82  S   UNL A   1      51.279  27.385  22.672  1.00  0.00     0.124 S 
ATOM     83  O   UNL A   1      51.255  28.844  22.696  1.00  0.00    -0.237 OA
ATOM     84  O   UNL A   1      52.592  26.768  22.512  1.00  0.00    -0.237 OA
ATOM     85  O   UNL A   1      50.199  26.754  21.918  1.00  0.00    -0.744 OA
ENDBRANCH  78  82
ENDBRANCH  51  75
BRANCH  63  86
ATOM     86  C   UNL A   1      46.340  32.764  28.739  1.00  0.00     0.023 A 
ATOM     87  C   UNL A   1      46.291  33.819  27.811  1.00  0.00     0.031 A 
ATOM     88  C   UNL A   1      46.955  33.002  29.981  1.00  0.00     0.131 A 
ATOM     89  C   UNL A   1      46.895  35.047  28.117  1.00  0.00     0.055 A 
ATOM     90  C   UNL A   1      47.504  34.244  30.303  1.00  0.00     0.041 A 
ATOM     91  F   UNL A   1      47.031  32.030  30.903  1.00  0.00    -0.206 F 
ATOM     92  C   UNL A   1      47.487  35.272  29.363  1.00  0.00     0.022 A 
BRANCH  89  93
ATOM     93  S   UNL A   1      46.973  36.323  26.831  1.00  0.00     0.124 S 
ATOM     94  O   UNL A   1      47.582  35.598  25.721  1.00  0.00    -0.237 OA
ATOM     95  O   UNL A   1      45.570  36.684  26.663  1.00  0.00    -0.237 OA
ATOM     96  O   UNL A   1      47.811  37.362  27.429  1.00  0.00    -0.744 OA
ENDBRANCH  89  93
ENDBRANCH  63  86
ENDBRANCH  37  38
ENDBRANCH  29  32
ENDBRANCH  27  28
ENDBRANCH   1  27
TORSDOF 16
ENDMDL
MODEL 3
REMARK VINA RESULT:     -11.4      2.855      8.663
REMARK SMILES O=C(NCc1ccc(C(=O)NCCCNC(=O)c2ccc(-c3c4nc(c(-c5cc(S(=O)(=O)[O-])ccc5F)c5ccc([nH]5)c(-c5cc(S(=O)(=O)[O-])ccc5F)c5nc(c(-c6cc(S(=O)(=O)[O-])ccc6F)c6ccc3[nH]6)C=C5)C=C4)cc2)cc1)Nc1ccccc1Br
REMARK SMILES IDX 13 1 12 2 11 3 9 4 10 5 8 7 5 8 6 9 82 10 7 11 81 12 4 13
REMARK SMILES IDX 3 14 1 15 2 16 83 17 84 20 85 21 89 22 86 23 88 24 90 25
REMARK SMILES IDX 87 26 14 27 15 28 16 29 17 31 18 32 19 33 80 34 20 35 79 36
REMARK SMILES IDX 21 37 22 38 23 39 73 40 24 41 78 42 72 43 74 44 25 45 77 46
REMARK SMILES IDX 71 47 70 48 26 50 58 51 38 52 57 53 39 54 42 55 56 56 75 57
REMARK SMILES IDX 40 58 41 59 55 61 76 62 43 63 27 64 28 65 36 66 29 67 35 68
REMARK SMILES IDX 37 69 34 70 30 71 31 72 32 73 33 74 59 75 60 76 68 77 61 78
REMARK SMILES IDX 67 79 69 80 66 81 62 82 63 83 64 84 65 85 44 86 45 87 53 88
REMARK SMILES IDX 46 89 52 90 54 91 51 92 47 93 48 94 49 95 50 96
REMARK H PARENT 11 6 3 18 83 19 15 30 74 49 42 60
REMARK Flexibility Score: inf
ROOT
ATOM      1  C   UNL A   1      31.436  32.223  26.832  1.00  0.00     0.042 C 
ENDROOT
BRANCH   1   2
ATOM      2  C   UNL A   1      31.584  30.743  26.478  1.00  0.00     0.118 C 
BRANCH   2   3
ATOM      3  N   UNL A   1      32.859  30.215  26.932  1.00  0.00    -0.352 N 
ATOM      4  C   UNL A   1      33.490  29.021  26.698  1.00  0.00     0.251 C 
ATOM      5  O   UNL A   1      34.630  28.873  27.138  1.00  0.00    -0.269 OA
ATOM      6  H   UNL A   1      33.363  30.828  27.515  1.00  0.00     0.163 HD
BRANCH   4   7
ATOM      7  C   UNL A   1      32.880  27.927  25.896  1.00  0.00     0.039 A 
ATOM      8  C   UNL A   1      31.629  25.810  24.509  1.00  0.00    -0.029 A 
ATOM      9  C   UNL A   1      31.237  26.135  25.813  1.00  0.00     0.006 A 
ATOM     10  C   UNL A   1      32.615  26.587  23.888  1.00  0.00     0.006 A 
ATOM     11  C   UNL A   1      31.862  27.180  26.501  1.00  0.00     0.014 A 
ATOM     12  C   UNL A   1      33.221  27.648  24.570  1.00  0.00     0.014 A 
BRANCH   8  13
ATOM     13  C   UNL A   1      30.955  24.699  23.748  1.00  0.00     0.153 C 
BRANCH  13  14
ATOM     14  N   UNL A   1      31.757  24.236  22.635  1.00  0.00    -0.334 N 
ATOM     15  O   UNL A   1      33.415  23.237  21.538  1.00  0.00    -0.248 OA
ATOM     16  C   UNL A   1      32.871  23.454  22.615  1.00  0.00     0.319 C 
ATOM     17  N   UNL A   1      33.250  22.929  23.818  1.00  0.00    -0.307 N 
ATOM     18  H   UNL A   1      31.448  24.535  21.750  1.00  0.00     0.165 HD
ATOM     19  H   UNL A   1      32.600  22.999  24.553  1.00  0.00     0.171 HD
BRANCH  17  20
ATOM     20  C   UNL A   1      34.477  22.296  24.116  1.00  0.00     0.057 A 
ATOM     21  C   UNL A   1      35.625  23.011  23.732  1.00  0.00     0.027 A 
ATOM     22  C   UNL A   1      34.643  21.029  24.704  1.00  0.00     0.041 A 
ATOM     23  C   UNL A   1      36.906  22.521  23.995  1.00  0.00     0.002 A 
ATOM     24  C   UNL A   1      35.935  20.549  24.976  1.00  0.00     0.018 A 
ATOM     25  Br  UNL A   1      33.238  19.773  24.965  1.00  0.00    -0.049 Br
ATOM     26  C   UNL A   1      37.061  21.297  24.633  1.00  0.00     0.001 A 
ENDBRANCH  17  20
ENDBRANCH  13  14
ENDBRANCH   8  13
ENDBRANCH   4   7
ENDBRANCH   2   3
ENDBRANCH   1   2
BRANCH   1  27
ATOM     27  C   UNL A   1      32.750  32.889  27.232  1.00  0.00     0.118 C 
BRANCH  27  28
ATOM     28  N   UNL A   1      32.546  34.248  27.710  1.00  0.00    -0.352 N 
ATOM     29  C   UNL A   1      33.123  34.907  28.768  1.00  0.00     0.251 C 
ATOM     30  H   UNL A   1      31.894  34.777  27.195  1.00  0.00     0.163 HD
ATOM     31  O   UNL A   1      32.636  35.970  29.142  1.00  0.00    -0.269 OA
BRANCH  29  32
ATOM     32  C   UNL A   1      34.305  34.344  29.462  1.00  0.00     0.039 A 
ATOM     33  C   UNL A   1      34.104  33.590  30.623  1.00  0.00     0.014 A 
ATOM     34  C   UNL A   1      35.604  34.597  29.016  1.00  0.00     0.014 A 
ATOM     35  C   UNL A   1      35.199  33.049  31.303  1.00  0.00     0.010 A 
ATOM     36  C   UNL A   1      36.693  34.005  29.658  1.00  0.00     0.010 A 
ATOM     37  C   UNL A   1      36.501  33.229  30.812  1.00  0.00    -0.014 A 
BRANCH  37  38
ATOM     38  C   UNL A   1      37.675  32.627  31.498  1.00  0.00     0.031 A 
ATOM     39  C   UNL A   1      38.400  31.463  30.876  1.00  0.00     0.074 A 
ATOM     40  C   UNL A   1      38.053  33.091  32.706  1.00  0.00     0.049 A 
ATOM     41  N   UNL A   1      39.376  30.740  31.359  1.00  0.00    -0.248 NA
ATOM     42  C   UNL A   1      37.943  31.043  29.542  1.00  0.00     0.031 C 
ATOM     43  C   UNL A   1      37.408  34.193  33.425  1.00  0.00     0.029 A 
ATOM     44  N   UNL A   1      39.056  32.688  33.551  1.00  0.00    -0.354 N 
ATOM     45  C   UNL A   1      39.649  29.775  30.396  1.00  0.00     0.074 A 
ATOM     46  C   UNL A   1      38.692  29.972  29.326  1.00  0.00     0.031 C 
ATOM     47  C   UNL A   1      38.037  34.382  34.596  1.00  0.00     0.029 A 
ATOM     48  C   UNL A   1      39.098  33.390  34.734  1.00  0.00     0.049 A 
ATOM     49  H   UNL A   1      39.686  31.964  33.332  1.00  0.00     0.167 HD
ATOM     50  C   UNL A   1      40.621  28.828  30.392  1.00  0.00     0.034 A 
ATOM     51  C   UNL A   1      39.890  33.240  35.814  1.00  0.00     0.034 A 
ATOM     52  C   UNL A   1      41.572  28.649  31.462  1.00  0.00     0.049 A 
ATOM     53  C   UNL A   1      40.951  32.167  35.797  1.00  0.00     0.074 A 
ATOM     54  C   UNL A   1      42.613  27.740  31.551  1.00  0.00     0.029 A 
ATOM     55  N   UNL A   1      41.597  29.393  32.635  1.00  0.00    -0.354 N 
ATOM     56  N   UNL A   1      41.214  31.283  34.863  1.00  0.00    -0.248 NA
ATOM     57  C   UNL A   1      41.829  32.083  36.970  1.00  0.00     0.031 C 
ATOM     58  C   UNL A   1      43.231  27.898  32.797  1.00  0.00     0.029 A 
ATOM     59  C   UNL A   1      42.622  28.952  33.458  1.00  0.00     0.049 A 
ATOM     60  H   UNL A   1      40.978  30.128  32.851  1.00  0.00     0.167 HD
ATOM     61  C   UNL A   1      42.307  30.557  35.325  1.00  0.00     0.074 A 
ATOM     62  C   UNL A   1      42.664  31.119  36.612  1.00  0.00     0.031 C 
ATOM     63  C   UNL A   1      42.960  29.520  34.742  1.00  0.00     0.034 A 
BRANCH  50  64
ATOM     64  C   UNL A   1      40.686  27.906  29.198  1.00  0.00     0.023 A 
ATOM     65  C   UNL A   1      41.611  28.112  28.160  1.00  0.00     0.031 A 
ATOM     66  C   UNL A   1      39.803  26.817  29.084  1.00  0.00     0.131 A 
ATOM     67  C   UNL A   1      41.584  27.291  27.022  1.00  0.00     0.055 A 
ATOM     68  C   UNL A   1      39.834  25.955  27.987  1.00  0.00     0.041 A 
ATOM     69  F   UNL A   1      38.886  26.580  30.035  1.00  0.00    -0.206 F 
ATOM     70  C   UNL A   1      40.718  26.198  26.940  1.00  0.00     0.022 A 
BRANCH  67  71
ATOM     71  S   UNL A   1      42.606  27.751  25.596  1.00  0.00     0.124 S 
ATOM     72  O   UNL A   1      43.898  28.002  26.231  1.00  0.00    -0.237 OA
ATOM     73  O   UNL A   1      42.528  26.563  24.755  1.00  0.00    -0.237 OA
ATOM     74  O   UNL A   1      41.940  28.938  25.065  1.00  0.00    -0.744 OA
ENDBRANCH  67  71
ENDBRANCH  50  64
BRANCH  51  75
ATOM     75  C   UNL A   1      39.703  34.104  37.015  1.00  0.00     0.023 A 
ATOM     76  C   UNL A   1      39.102  33.608  38.182  1.00  0.00     0.031 A 
ATOM     77  C   UNL A   1      40.079  35.459  36.994  1.00  0.00     0.131 A 
ATOM     78  C   UNL A   1      38.846  34.470  39.260  1.00  0.00     0.055 A 
ATOM     79  C   UNL A   1      39.873  36.301  38.089  1.00  0.00     0.041 A 
ATOM     80  F   UNL A   1      40.664  35.986  35.905  1.00  0.00    -0.206 F 
ATOM     81  C   UNL A   1      39.239  35.810  39.226  1.00  0.00     0.022 A 
BRANCH  78  82
ATOM     82  S   UNL A   1      37.904  33.836  40.674  1.00  0.00     0.124 S 
ATOM     83  O   UNL A   1      38.887  32.977  41.325  1.00  0.00    -0.237 OA
ATOM     84  O   UNL A   1      37.557  35.065  41.380  1.00  0.00    -0.237 OA
ATOM     85  O   UNL A   1      36.782  33.140  40.049  1.00  0.00    -0.744 OA
ENDBRANCH  78  82
ENDBRANCH  51  75
BRANCH  63  86
ATOM     86  C   UNL A   1      44.156  28.965  35.476  1.00  0.00     0.023 A 
ATOM     87  C   UNL A   1      44.033  27.924  36.412  1.00  0.00     0.031 A 
ATOM     88  C   UNL A   1      45.436  29.498  35.242  1.00  0.00     0.131 A 
ATOM     89  C   UNL A   1      45.160  27.487  37.123  1.00  0.00     0.055 A 
ATOM     90  C   UNL A   1      46.564  29.020  35.911  1.00  0.00     0.041 A 
ATOM     91  F   UNL A   1      45.610  30.494  34.359  1.00  0.00    -0.206 F 
ATOM     92  C   UNL A   1      46.428  28.017  36.867  1.00  0.00     0.022 A 
BRANCH  89  93
ATOM     93  S   UNL A   1      44.935  26.273  38.452  1.00  0.00     0.124 S 
ATOM     94  O   UNL A   1      46.022  26.616  39.363  1.00  0.00    -0.237 OA
ATOM     95  O   UNL A   1      43.588  26.573  38.924  1.00  0.00    -0.237 OA
ATOM     96  O   UNL A   1      45.079  24.988  37.770  1.00  0.00    -0.744 OA
ENDBRANCH  89  93
ENDBRANCH  63  86
ENDBRANCH  37  38
ENDBRANCH  29  32
ENDBRANCH  27  28
ENDBRANCH   1  27
TORSDOF 16
ENDMDL
