MODEL 1
REMARK VINA RESULT:     -11.3      0.000      0.000
REMARK SMILES O=C(CCCNS(=O)(=O)c1ccc(N2CCCC2=O)cc1)NCCCNC(=O)c1ccc(-c2c3nc(c(-c4cc(S(=O)(=O)[O-])ccc4F)c4ccc([nH]4)c(-c4cc(S(=O)(=O)[O-])ccc4F)c4nc(c(-c5cc(S(=O)(=O)[O-])ccc5F)c5ccc2[nH]5)C=C4)C=C3)cc1
REMARK SMILES IDX 1 1 2 2 22 3 3 5 4 6 5 7 6 8 7 10 8 11 9 12 10 13 11 14
REMARK SMILES IDX 21 15 12 16 20 17 13 18 14 19 15 20 18 21 16 22 17 23 19 24
REMARK SMILES IDX 23 25 24 26 25 27 26 28 27 29 28 31 29 32 30 33 91 34 31 35
REMARK SMILES IDX 90 36 32 37 33 38 34 39 84 40 35 41 89 42 83 43 85 44 36 45
REMARK SMILES IDX 88 46 82 47 81 48 37 50 69 51 49 52 68 53 50 54 53 55 67 56
REMARK SMILES IDX 86 57 51 58 52 59 66 61 87 62 54 63 38 64 39 65 47 66 40 67
REMARK SMILES IDX 46 68 48 69 45 70 41 71 42 72 43 73 44 74 70 75 71 76 79 77
REMARK SMILES IDX 72 78 78 79 80 80 77 81 73 82 74 83 75 84 76 85 55 86 56 87
REMARK SMILES IDX 64 88 57 89 63 90 65 91 62 92 58 93 59 94 60 95 61 96
REMARK H PARENT 22 4 6 9 26 30 85 49 53 60
REMARK Flexibility Score: inf
ROOT
ATOM      1  O   UNL A   1      33.306  29.304  24.213  1.00  0.00    -0.275 OA
ATOM      2  C   UNL A   1      32.091  29.472  24.165  1.00  0.00     0.220 C 
ATOM      3  N   UNL A   1      31.349  30.058  25.163  1.00  0.00    -0.356 N 
ATOM      4  H   UNL A   1      30.388  30.213  25.014  1.00  0.00     0.163 HD
ENDROOT
BRANCH   2   5
ATOM      5  C   UNL A   1      31.266  28.951  23.012  1.00  0.00     0.101 C 
BRANCH   5   6
ATOM      6  C   UNL A   1      29.936  28.394  23.519  1.00  0.00     0.026 C 
BRANCH   6   7
ATOM      7  C   UNL A   1      30.034  26.990  24.117  1.00  0.00     0.099 C 
BRANCH   7   8
ATOM      8  N   UNL A   1      31.441  26.671  24.362  1.00  0.00    -0.211 NA
ATOM      9  H   UNL A   1      31.962  27.536  24.226  1.00  0.00     0.141 HD
BRANCH   8  10
ATOM     10  S   UNL A   1      31.941  26.038  25.835  1.00  0.00     0.240 S 
ATOM     11  O   UNL A   1      33.187  26.697  26.154  1.00  0.00    -0.207 OA
ATOM     12  O   UNL A   1      30.784  26.099  26.698  1.00  0.00    -0.207 OA
BRANCH  10  13
ATOM     13  C   UNL A   1      32.276  24.323  25.529  1.00  0.00     0.082 A 
ATOM     14  C   UNL A   1      32.167  23.414  26.585  1.00  0.00     0.024 A 
ATOM     15  C   UNL A   1      32.676  23.885  24.268  1.00  0.00     0.024 A 
ATOM     16  C   UNL A   1      32.483  22.066  26.375  1.00  0.00     0.028 A 
ATOM     17  C   UNL A   1      33.074  22.562  24.089  1.00  0.00     0.028 A 
ATOM     18  C   UNL A   1      32.980  21.641  25.136  1.00  0.00     0.044 A 
BRANCH  18  19
ATOM     19  N   UNL A   1      33.382  20.306  24.930  1.00  0.00    -0.312 N 
ATOM     20  C   UNL A   1      32.463  19.283  24.506  1.00  0.00     0.126 C 
ATOM     21  C   UNL A   1      34.709  19.874  24.881  1.00  0.00     0.227 C 
ATOM     22  C   UNL A   1      33.259  17.998  24.619  1.00  0.00     0.032 C 
ATOM     23  C   UNL A   1      34.708  18.430  24.454  1.00  0.00     0.102 C 
ATOM     24  O   UNL A   1      35.726  20.512  25.109  1.00  0.00    -0.275 OA
ENDBRANCH  18  19
ENDBRANCH  10  13
ENDBRANCH   8  10
ENDBRANCH   7   8
ENDBRANCH   6   7
ENDBRANCH   5   6
ENDBRANCH   2   5
BRANCH   3  25
ATOM     25  C   UNL A   1      31.939  30.453  26.425  1.00  0.00     0.117 C 
BRANCH  25  26
ATOM     26  C   UNL A   1      31.585  31.877  26.829  1.00  0.00     0.042 C 
BRANCH  26  27
ATOM     27  C   UNL A   1      32.757  32.854  26.868  1.00  0.00     0.118 C 
BRANCH  27  28
ATOM     28  N   UNL A   1      32.503  34.040  27.671  1.00  0.00    -0.352 N 
ATOM     29  C   UNL A   1      33.176  34.504  28.777  1.00  0.00     0.251 C 
ATOM     30  H   UNL A   1      31.740  34.589  27.381  1.00  0.00     0.163 HD
ATOM     31  O   UNL A   1      32.764  35.487  29.386  1.00  0.00    -0.269 OA
BRANCH  29  32
ATOM     32  C   UNL A   1      34.382  33.792  29.250  1.00  0.00     0.039 A 
ATOM     33  C   UNL A   1      35.641  34.299  28.923  1.00  0.00     0.014 A 
ATOM     34  C   UNL A   1      34.268  32.639  30.035  1.00  0.00     0.014 A 
ATOM     35  C   UNL A   1      36.786  33.707  29.460  1.00  0.00     0.010 A 
ATOM     36  C   UNL A   1      35.406  32.085  30.615  1.00  0.00     0.010 A 
ATOM     37  C   UNL A   1      36.673  32.625  30.349  1.00  0.00    -0.014 A 
BRANCH  37  38
ATOM     38  C   UNL A   1      37.863  32.077  31.053  1.00  0.00     0.031 A 
ATOM     39  C   UNL A   1      38.648  30.947  30.452  1.00  0.00     0.074 A 
ATOM     40  C   UNL A   1      38.180  32.547  32.276  1.00  0.00     0.049 A 
ATOM     41  N   UNL A   1      39.642  30.267  30.962  1.00  0.00    -0.248 NA
ATOM     42  C   UNL A   1      38.242  30.507  29.110  1.00  0.00     0.031 C 
ATOM     43  C   UNL A   1      37.469  33.618  32.980  1.00  0.00     0.029 A 
ATOM     44  N   UNL A   1      39.166  32.173  33.153  1.00  0.00    -0.354 N 
ATOM     45  C   UNL A   1      39.978  29.310  30.010  1.00  0.00     0.074 A 
ATOM     46  C   UNL A   1      39.045  29.472  28.912  1.00  0.00     0.031 C 
ATOM     47  C   UNL A   1      38.047  33.817  34.175  1.00  0.00     0.029 A 
ATOM     48  C   UNL A   1      39.138  32.863  34.343  1.00  0.00     0.049 A 
ATOM     49  H   UNL A   1      39.832  31.476  32.950  1.00  0.00     0.167 HD
ATOM     50  C   UNL A   1      40.978  28.394  30.043  1.00  0.00     0.034 A 
ATOM     51  C   UNL A   1      39.890  32.728  35.453  1.00  0.00     0.034 A 
ATOM     52  C   UNL A   1      41.900  28.249  31.143  1.00  0.00     0.049 A 
ATOM     53  C   UNL A   1      40.972  31.680  35.481  1.00  0.00     0.074 A 
ATOM     54  C   UNL A   1      42.989  27.399  31.251  1.00  0.00     0.029 A 
ATOM     55  N   UNL A   1      41.838  28.961  32.335  1.00  0.00    -0.354 N 
ATOM     56  N   UNL A   1      41.305  30.814  34.553  1.00  0.00    -0.248 NA
ATOM     57  C   UNL A   1      41.779  31.595  36.705  1.00  0.00     0.031 C 
ATOM     58  C   UNL A   1      43.545  27.553  32.527  1.00  0.00     0.029 A 
ATOM     59  C   UNL A   1      42.845  28.545  33.194  1.00  0.00     0.049 A 
ATOM     60  H   UNL A   1      41.175  29.659  32.540  1.00  0.00     0.167 HD
ATOM     61  C   UNL A   1      42.375  30.094  35.075  1.00  0.00     0.074 A 
ATOM     62  C   UNL A   1      42.639  30.638  36.392  1.00  0.00     0.031 C 
ATOM     63  C   UNL A   1      43.079  29.079  34.515  1.00  0.00     0.034 A 
BRANCH  50  64
ATOM     64  C   UNL A   1      41.098  27.461  28.864  1.00  0.00     0.023 A 
ATOM     65  C   UNL A   1      42.089  27.636  27.882  1.00  0.00     0.031 A 
ATOM     66  C   UNL A   1      40.192  26.398  28.702  1.00  0.00     0.131 A 
ATOM     67  C   UNL A   1      42.107  26.810  26.748  1.00  0.00     0.055 A 
ATOM     68  C   UNL A   1      40.262  25.531  27.609  1.00  0.00     0.041 A 
ATOM     69  F   UNL A   1      39.214  26.192  29.598  1.00  0.00    -0.206 F 
ATOM     70  C   UNL A   1      41.214  25.744  26.616  1.00  0.00     0.022 A 
BRANCH  67  71
ATOM     71  S   UNL A   1      43.228  27.231  25.386  1.00  0.00     0.124 S 
ATOM     72  O   UNL A   1      44.261  27.997  26.078  1.00  0.00    -0.237 OA
ATOM     73  O   UNL A   1      43.629  25.920  24.890  1.00  0.00    -0.237 OA
ATOM     74  O   UNL A   1      42.388  28.011  24.479  1.00  0.00    -0.744 OA
ENDBRANCH  67  71
ENDBRANCH  50  64
BRANCH  51  75
ATOM     75  C   UNL A   1      39.631  33.583  36.644  1.00  0.00     0.023 A 
ATOM     76  C   UNL A   1      39.009  33.058  37.788  1.00  0.00     0.031 A 
ATOM     77  C   UNL A   1      39.970  34.947  36.642  1.00  0.00     0.131 A 
ATOM     78  C   UNL A   1      38.708  33.902  38.868  1.00  0.00     0.055 A 
ATOM     79  C   UNL A   1      39.709  35.773  37.737  1.00  0.00     0.041 A 
ATOM     80  F   UNL A   1      40.573  35.495  35.575  1.00  0.00    -0.206 F 
ATOM     81  C   UNL A   1      39.064  35.253  38.854  1.00  0.00     0.022 A 
BRANCH  78  82
ATOM     82  S   UNL A   1      37.779  33.220  40.268  1.00  0.00     0.124 S 
ATOM     83  O   UNL A   1      38.609  32.084  40.652  1.00  0.00    -0.237 OA
ATOM     84  O   UNL A   1      37.762  34.346  41.197  1.00  0.00    -0.237 OA
ATOM     85  O   UNL A   1      36.484  32.878  39.684  1.00  0.00    -0.744 OA
ENDBRANCH  78  82
ENDBRANCH  51  75
BRANCH  63  86
ATOM     86  C   UNL A   1      44.219  28.517  35.326  1.00  0.00     0.023 A 
ATOM     87  C   UNL A   1      44.018  27.493  36.268  1.00  0.00     0.031 A 
ATOM     88  C   UNL A   1      45.519  29.031  35.171  1.00  0.00     0.131 A 
ATOM     89  C   UNL A   1      45.091  27.050  37.056  1.00  0.00     0.055 A 
ATOM     90  C   UNL A   1      46.592  28.550  35.922  1.00  0.00     0.041 A 
ATOM     91  F   UNL A   1      45.764  30.011  34.288  1.00  0.00    -0.206 F 
ATOM     92  C   UNL A   1      46.379  27.562  36.880  1.00  0.00     0.022 A 
BRANCH  89  93
ATOM     93  S   UNL A   1      44.766  25.847  38.376  1.00  0.00     0.124 S 
ATOM     94  O   UNL A   1      44.242  24.709  37.627  1.00  0.00    -0.237 OA
ATOM     95  O   UNL A   1      46.087  25.668  38.968  1.00  0.00    -0.237 OA
ATOM     96  O   UNL A   1      43.794  26.528  39.229  1.00  0.00    -0.744 OA
ENDBRANCH  89  93
ENDBRANCH  63  86
ENDBRANCH  37  38
ENDBRANCH  29  32
ENDBRANCH  27  28
ENDBRANCH  26  27
ENDBRANCH  25  26
ENDBRANCH   3  25
TORSDOF 19
ENDMDL
MODEL 2
REMARK VINA RESULT:     -11.2      5.487      8.277
REMARK SMILES O=C(CCCNS(=O)(=O)c1ccc(N2CCCC2=O)cc1)NCCCNC(=O)c1ccc(-c2c3nc(c(-c4cc(S(=O)(=O)[O-])ccc4F)c4ccc([nH]4)c(-c4cc(S(=O)(=O)[O-])ccc4F)c4nc(c(-c5cc(S(=O)(=O)[O-])ccc5F)c5ccc2[nH]5)C=C4)C=C3)cc1
REMARK SMILES IDX 1 1 2 2 22 3 3 5 4 6 5 7 6 8 7 10 8 11 9 12 10 13 11 14
REMARK SMILES IDX 21 15 12 16 20 17 13 18 14 19 15 20 18 21 16 22 17 23 19 24
REMARK SMILES IDX 23 25 24 26 25 27 26 28 27 29 28 31 29 32 30 33 91 34 31 35
REMARK SMILES IDX 90 36 32 37 33 38 34 39 84 40 35 41 89 42 83 43 85 44 36 45
REMARK SMILES IDX 88 46 82 47 81 48 37 50 69 51 49 52 68 53 50 54 53 55 67 56
REMARK SMILES IDX 86 57 51 58 52 59 66 61 87 62 54 63 38 64 39 65 47 66 40 67
REMARK SMILES IDX 46 68 48 69 45 70 41 71 42 72 43 73 44 74 70 75 71 76 79 77
REMARK SMILES IDX 72 78 78 79 80 80 77 81 73 82 74 83 75 84 76 85 55 86 56 87
REMARK SMILES IDX 64 88 57 89 63 90 65 91 62 92 58 93 59 94 60 95 61 96
REMARK H PARENT 22 4 6 9 26 30 85 49 53 60
REMARK Flexibility Score: inf
ROOT
ATOM      1  O   UNL A   1      35.173  23.714  22.602  1.00  0.00    -0.275 OA
ATOM      2  C   UNL A   1      34.931  24.117  23.735  1.00  0.00     0.220 C 
ATOM      3  N   UNL A   1      35.122  23.380  24.880  1.00  0.00    -0.356 N 
ATOM      4  H   UNL A   1      34.963  23.804  25.754  1.00  0.00     0.163 HD
ENDROOT
BRANCH   2   5
ATOM      5  C   UNL A   1      34.295  25.467  23.976  1.00  0.00     0.101 C 
BRANCH   5   6
ATOM      6  C   UNL A   1      34.152  25.728  25.475  1.00  0.00     0.026 C 
BRANCH   6   7
ATOM      7  C   UNL A   1      32.704  25.829  25.955  1.00  0.00     0.099 C 
BRANCH   7   8
ATOM      8  N   UNL A   1      31.808  25.711  24.804  1.00  0.00    -0.211 NA
ATOM      9  H   UNL A   1      32.401  25.547  23.991  1.00  0.00     0.141 HD
BRANCH   8  10
ATOM     10  S   UNL A   1      30.602  24.542  24.761  1.00  0.00     0.240 S 
ATOM     11  O   UNL A   1      29.992  24.546  26.071  1.00  0.00    -0.207 OA
ATOM     12  O   UNL A   1      29.853  24.799  23.552  1.00  0.00    -0.207 OA
BRANCH  10  13
ATOM     13  C   UNL A   1      31.442  22.997  24.538  1.00  0.00     0.082 A 
ATOM     14  C   UNL A   1      31.826  22.615  23.250  1.00  0.00     0.024 A 
ATOM     15  C   UNL A   1      31.689  22.152  25.620  1.00  0.00     0.024 A 
ATOM     16  C   UNL A   1      32.440  21.372  23.048  1.00  0.00     0.028 A 
ATOM     17  C   UNL A   1      32.216  20.882  25.399  1.00  0.00     0.028 A 
ATOM     18  C   UNL A   1      32.598  20.480  24.117  1.00  0.00     0.044 A 
BRANCH  18  19
ATOM     19  N   UNL A   1      33.136  19.193  23.919  1.00  0.00    -0.312 N 
ATOM     20  C   UNL A   1      34.036  18.583  24.862  1.00  0.00     0.126 C 
ATOM     21  C   UNL A   1      32.699  18.289  22.949  1.00  0.00     0.227 C 
ATOM     22  C   UNL A   1      34.516  17.328  24.160  1.00  0.00     0.032 C 
ATOM     23  C   UNL A   1      33.392  16.975  23.197  1.00  0.00     0.102 C 
ATOM     24  O   UNL A   1      31.886  18.467  22.053  1.00  0.00    -0.275 OA
ENDBRANCH  18  19
ENDBRANCH  10  13
ENDBRANCH   8  10
ENDBRANCH   7   8
ENDBRANCH   6   7
ENDBRANCH   5   6
ENDBRANCH   2   5
BRANCH   3  25
ATOM     25  C   UNL A   1      35.549  21.997  24.836  1.00  0.00     0.117 C 
BRANCH  25  26
ATOM     26  C   UNL A   1      36.680  21.691  25.808  1.00  0.00     0.042 C 
BRANCH  26  27
ATOM     27  C   UNL A   1      38.083  21.729  25.207  1.00  0.00     0.118 C 
BRANCH  27  28
ATOM     28  N   UNL A   1      39.011  20.797  25.831  1.00  0.00    -0.352 N 
ATOM     29  C   UNL A   1      40.069  21.052  26.671  1.00  0.00     0.251 C 
ATOM     30  H   UNL A   1      38.859  19.848  25.620  1.00  0.00     0.163 HD
ATOM     31  O   UNL A   1      40.804  20.139  27.037  1.00  0.00    -0.269 OA
BRANCH  29  32
ATOM     32  C   UNL A   1      40.337  22.439  27.107  1.00  0.00     0.039 A 
ATOM     33  C   UNL A   1      41.309  22.666  28.084  1.00  0.00     0.014 A 
ATOM     34  C   UNL A   1      39.646  23.512  26.536  1.00  0.00     0.014 A 
ATOM     35  C   UNL A   1      41.657  23.976  28.420  1.00  0.00     0.010 A 
ATOM     36  C   UNL A   1      40.034  24.817  26.831  1.00  0.00     0.010 A 
ATOM     37  C   UNL A   1      41.056  25.061  27.761  1.00  0.00    -0.014 A 
BRANCH  37  38
ATOM     38  C   UNL A   1      41.517  26.456  27.991  1.00  0.00     0.031 A 
ATOM     39  C   UNL A   1      42.910  26.867  27.609  1.00  0.00     0.074 A 
ATOM     40  C   UNL A   1      40.703  27.323  28.625  1.00  0.00     0.049 A 
ATOM     41  N   UNL A   1      43.527  28.000  27.828  1.00  0.00    -0.248 NA
ATOM     42  C   UNL A   1      43.723  25.863  26.909  1.00  0.00     0.031 C 
ATOM     43  C   UNL A   1      39.342  27.028  29.079  1.00  0.00     0.029 A 
ATOM     44  N   UNL A   1      40.907  28.623  29.016  1.00  0.00    -0.354 N 
ATOM     45  C   UNL A   1      44.806  27.844  27.305  1.00  0.00     0.074 A 
ATOM     46  C   UNL A   1      44.886  26.487  26.799  1.00  0.00     0.031 C 
ATOM     47  C   UNL A   1      38.833  28.116  29.679  1.00  0.00     0.029 A 
ATOM     48  C   UNL A   1      39.842  29.169  29.693  1.00  0.00     0.049 A 
ATOM     49  H   UNL A   1      41.739  29.117  28.829  1.00  0.00     0.167 HD
ATOM     50  C   UNL A   1      45.813  28.751  27.239  1.00  0.00     0.034 A 
ATOM     51  C   UNL A   1      39.701  30.374  30.280  1.00  0.00     0.034 A 
ATOM     52  C   UNL A   1      45.716  30.099  27.743  1.00  0.00     0.049 A 
ATOM     53  C   UNL A   1      40.845  31.353  30.226  1.00  0.00     0.074 A 
ATOM     54  C   UNL A   1      46.650  31.119  27.669  1.00  0.00     0.029 A 
ATOM     55  N   UNL A   1      44.623  30.616  28.430  1.00  0.00    -0.354 N 
ATOM     56  N   UNL A   1      42.032  31.204  29.685  1.00  0.00    -0.248 NA
ATOM     57  C   UNL A   1      40.627  32.660  30.857  1.00  0.00     0.031 C 
ATOM     58  C   UNL A   1      46.150  32.228  28.362  1.00  0.00     0.029 A 
ATOM     59  C   UNL A   1      44.875  31.926  28.813  1.00  0.00     0.049 A 
ATOM     60  H   UNL A   1      43.791  30.125  28.616  1.00  0.00     0.167 HD
ATOM     61  C   UNL A   1      42.695  32.410  29.896  1.00  0.00     0.074 A 
ATOM     62  C   UNL A   1      41.771  33.276  30.599  1.00  0.00     0.031 C 
ATOM     63  C   UNL A   1      43.953  32.769  29.537  1.00  0.00     0.034 A 
BRANCH  50  64
ATOM     64  C   UNL A   1      47.114  28.295  26.625  1.00  0.00     0.023 A 
ATOM     65  C   UNL A   1      47.293  28.241  25.231  1.00  0.00     0.031 A 
ATOM     66  C   UNL A   1      48.180  27.882  27.442  1.00  0.00     0.131 A 
ATOM     67  C   UNL A   1      48.479  27.717  24.697  1.00  0.00     0.055 A 
ATOM     68  C   UNL A   1      49.388  27.432  26.905  1.00  0.00     0.041 A 
ATOM     69  F   UNL A   1      48.061  27.895  28.779  1.00  0.00    -0.206 F 
ATOM     70  C   UNL A   1      49.537  27.333  25.524  1.00  0.00     0.022 A 
BRANCH  67  71
ATOM     71  S   UNL A   1      48.568  27.419  22.910  1.00  0.00     0.124 S 
ATOM     72  O   UNL A   1      47.484  28.263  22.414  1.00  0.00    -0.237 OA
ATOM     73  O   UNL A   1      49.920  27.858  22.584  1.00  0.00    -0.237 OA
ATOM     74  O   UNL A   1      48.333  25.982  22.790  1.00  0.00    -0.744 OA
ENDBRANCH  67  71
ENDBRANCH  50  64
BRANCH  51  75
ATOM     75  C   UNL A   1      38.443  30.717  30.998  1.00  0.00     0.023 A 
ATOM     76  C   UNL A   1      37.416  31.426  30.356  1.00  0.00     0.031 A 
ATOM     77  C   UNL A   1      38.265  30.373  32.350  1.00  0.00     0.131 A 
ATOM     78  C   UNL A   1      36.272  31.802  31.077  1.00  0.00     0.055 A 
ATOM     79  C   UNL A   1      37.107  30.711  33.050  1.00  0.00     0.041 A 
ATOM     80  F   UNL A   1      39.217  29.689  33.006  1.00  0.00    -0.206 F 
ATOM     81  C   UNL A   1      36.106  31.440  32.416  1.00  0.00     0.022 A 
BRANCH  78  82
ATOM     82  S   UNL A   1      35.030  32.836  30.254  1.00  0.00     0.124 S 
ATOM     83  O   UNL A   1      35.844  33.938  29.752  1.00  0.00    -0.237 OA
ATOM     84  O   UNL A   1      34.494  31.925  29.249  1.00  0.00    -0.237 OA
ATOM     85  O   UNL A   1      34.107  33.184  31.333  1.00  0.00    -0.744 OA
ENDBRANCH  78  82
ENDBRANCH  51  75
BRANCH  63  86
ATOM     86  C   UNL A   1      44.381  34.173  29.880  1.00  0.00     0.023 A 
ATOM     87  C   UNL A   1      44.181  35.243  28.988  1.00  0.00     0.031 A 
ATOM     88  C   UNL A   1      45.019  34.440  31.103  1.00  0.00     0.131 A 
ATOM     89  C   UNL A   1      44.662  36.520  29.312  1.00  0.00     0.055 A 
ATOM     90  C   UNL A   1      45.449  35.724  31.442  1.00  0.00     0.041 A 
ATOM     91  F   UNL A   1      45.238  33.455  31.988  1.00  0.00    -0.206 F 
ATOM     92  C   UNL A   1      45.282  36.770  30.538  1.00  0.00     0.022 A 
BRANCH  89  93
ATOM     93  S   UNL A   1      44.537  37.839  28.072  1.00  0.00     0.124 S 
ATOM     94  O   UNL A   1      45.552  37.442  27.103  1.00  0.00    -0.237 OA
ATOM     95  O   UNL A   1      43.152  37.723  27.630  1.00  0.00    -0.237 OA
ATOM     96  O   UNL A   1      44.844  39.052  28.829  1.00  0.00    -0.744 OA
ENDBRANCH  89  93
ENDBRANCH  63  86
ENDBRANCH  37  38
ENDBRANCH  29  32
ENDBRANCH  27  28
ENDBRANCH  26  27
ENDBRANCH  25  26
ENDBRANCH   3  25
TORSDOF 19
ENDMDL
MODEL 3
REMARK VINA RESULT:     -11.2      2.390      4.031
REMARK SMILES O=C(CCCNS(=O)(=O)c1ccc(N2CCCC2=O)cc1)NCCCNC(=O)c1ccc(-c2c3nc(c(-c4cc(S(=O)(=O)[O-])ccc4F)c4ccc([nH]4)c(-c4cc(S(=O)(=O)[O-])ccc4F)c4nc(c(-c5cc(S(=O)(=O)[O-])ccc5F)c5ccc2[nH]5)C=C4)C=C3)cc1
REMARK SMILES IDX 1 1 2 2 22 3 3 5 4 6 5 7 6 8 7 10 8 11 9 12 10 13 11 14
REMARK SMILES IDX 21 15 12 16 20 17 13 18 14 19 15 20 18 21 16 22 17 23 19 24
REMARK SMILES IDX 23 25 24 26 25 27 26 28 27 29 28 31 29 32 30 33 91 34 31 35
REMARK SMILES IDX 90 36 32 37 33 38 34 39 84 40 35 41 89 42 83 43 85 44 36 45
REMARK SMILES IDX 88 46 82 47 81 48 37 50 69 51 49 52 68 53 50 54 53 55 67 56
REMARK SMILES IDX 86 57 51 58 52 59 66 61 87 62 54 63 38 64 39 65 47 66 40 67
REMARK SMILES IDX 46 68 48 69 45 70 41 71 42 72 43 73 44 74 70 75 71 76 79 77
REMARK SMILES IDX 72 78 78 79 80 80 77 81 73 82 74 83 75 84 76 85 55 86 56 87
REMARK SMILES IDX 64 88 57 89 63 90 65 91 62 92 58 93 59 94 60 95 61 96
REMARK H PARENT 22 4 6 9 26 30 85 49 53 60
REMARK Flexibility Score: inf
ROOT
ATOM      1  O   UNL A   1      33.668  28.216  27.575  1.00  0.00    -0.275 OA
ATOM      2  C   UNL A   1      32.783  28.020  26.747  1.00  0.00     0.220 C 
ATOM      3  N   UNL A   1      31.773  28.909  26.465  1.00  0.00    -0.356 N 
ATOM      4  H   UNL A   1      31.142  28.700  25.738  1.00  0.00     0.163 HD
ENDROOT
BRANCH   2   5
ATOM      5  C   UNL A   1      32.668  26.707  26.009  1.00  0.00     0.101 C 
BRANCH   5   6
ATOM      6  C   UNL A   1      34.055  26.120  25.748  1.00  0.00     0.026 C 
BRANCH   6   7
ATOM      7  C   UNL A   1      34.182  25.392  24.410  1.00  0.00     0.099 C 
BRANCH   7   8
ATOM      8  N   UNL A   1      33.327  24.205  24.427  1.00  0.00    -0.211 NA
ATOM      9  H   UNL A   1      32.777  24.256  25.283  1.00  0.00     0.141 HD
BRANCH   8  10
ATOM     10  S   UNL A   1      32.243  23.901  23.180  1.00  0.00     0.240 S 
ATOM     11  O   UNL A   1      33.033  23.798  21.976  1.00  0.00    -0.207 OA
ATOM     12  O   UNL A   1      31.398  22.826  23.651  1.00  0.00    -0.207 OA
BRANCH  10  13
ATOM     13  C   UNL A   1      31.229  25.351  23.064  1.00  0.00     0.082 A 
ATOM     14  C   UNL A   1      31.587  26.357  22.162  1.00  0.00     0.024 A 
ATOM     15  C   UNL A   1      30.110  25.510  23.879  1.00  0.00     0.024 A 
ATOM     16  C   UNL A   1      30.830  27.533  22.098  1.00  0.00     0.028 A 
ATOM     17  C   UNL A   1      29.416  26.718  23.873  1.00  0.00     0.028 A 
ATOM     18  C   UNL A   1      29.765  27.738  22.985  1.00  0.00     0.044 A 
BRANCH  18  19
ATOM     19  N   UNL A   1      29.045  28.949  22.993  1.00  0.00    -0.312 N 
ATOM     20  C   UNL A   1      27.652  29.016  22.638  1.00  0.00     0.126 C 
ATOM     21  C   UNL A   1      29.504  30.144  23.549  1.00  0.00     0.227 C 
ATOM     22  C   UNL A   1      27.354  30.501  22.579  1.00  0.00     0.032 C 
ATOM     23  C   UNL A   1      28.368  31.132  23.522  1.00  0.00     0.102 C 
ATOM     24  O   UNL A   1      30.608  30.393  24.013  1.00  0.00    -0.275 OA
ENDBRANCH  18  19
ENDBRANCH  10  13
ENDBRANCH   8  10
ENDBRANCH   7   8
ENDBRANCH   6   7
ENDBRANCH   5   6
ENDBRANCH   2   5
BRANCH   3  25
ATOM     25  C   UNL A   1      31.611  30.144  27.204  1.00  0.00     0.117 C 
BRANCH  25  26
ATOM     26  C   UNL A   1      32.218  31.347  26.497  1.00  0.00     0.042 C 
BRANCH  26  27
ATOM     27  C   UNL A   1      33.230  32.143  27.317  1.00  0.00     0.118 C 
BRANCH  27  28
ATOM     28  N   UNL A   1      32.794  33.495  27.630  1.00  0.00    -0.352 N 
ATOM     29  C   UNL A   1      33.280  34.371  28.572  1.00  0.00     0.251 C 
ATOM     30  H   UNL A   1      32.043  33.831  27.091  1.00  0.00     0.163 HD
ATOM     31  O   UNL A   1      32.728  35.452  28.758  1.00  0.00    -0.269 OA
BRANCH  29  32
ATOM     32  C   UNL A   1      34.456  33.991  29.385  1.00  0.00     0.039 A 
ATOM     33  C   UNL A   1      34.261  33.258  30.558  1.00  0.00     0.014 A 
ATOM     34  C   UNL A   1      35.747  34.338  28.976  1.00  0.00     0.014 A 
ATOM     35  C   UNL A   1      35.367  32.791  31.272  1.00  0.00     0.010 A 
ATOM     36  C   UNL A   1      36.848  33.824  29.658  1.00  0.00     0.010 A 
ATOM     37  C   UNL A   1      36.668  33.030  30.801  1.00  0.00    -0.014 A 
BRANCH  37  38
ATOM     38  C   UNL A   1      37.852  32.414  31.457  1.00  0.00     0.031 A 
ATOM     39  C   UNL A   1      38.568  31.265  30.807  1.00  0.00     0.074 A 
ATOM     40  C   UNL A   1      38.222  32.840  32.681  1.00  0.00     0.049 A 
ATOM     41  N   UNL A   1      39.545  30.531  31.273  1.00  0.00    -0.248 NA
ATOM     42  C   UNL A   1      38.106  30.877  29.468  1.00  0.00     0.031 C 
ATOM     43  C   UNL A   1      37.580  33.923  33.430  1.00  0.00     0.029 A 
ATOM     44  N   UNL A   1      39.216  32.402  33.521  1.00  0.00    -0.354 N 
ATOM     45  C   UNL A   1      39.811  29.584  30.290  1.00  0.00     0.074 A 
ATOM     46  C   UNL A   1      38.857  29.813  29.223  1.00  0.00     0.031 C 
ATOM     47  C   UNL A   1      38.199  34.068  34.612  1.00  0.00     0.029 A 
ATOM     48  C   UNL A   1      39.251  33.063  34.726  1.00  0.00     0.049 A 
ATOM     49  H   UNL A   1      39.843  31.681  33.282  1.00  0.00     0.167 HD
ATOM     50  C   UNL A   1      40.770  28.624  30.273  1.00  0.00     0.034 A 
ATOM     51  C   UNL A   1      40.027  32.869  35.810  1.00  0.00     0.034 A 
ATOM     52  C   UNL A   1      41.716  28.412  31.342  1.00  0.00     0.049 A 
ATOM     53  C   UNL A   1      41.061  31.774  35.783  1.00  0.00     0.074 A 
ATOM     54  C   UNL A   1      42.768  27.514  31.399  1.00  0.00     0.029 A 
ATOM     55  N   UNL A   1      41.718  29.097  32.551  1.00  0.00    -0.354 N 
ATOM     56  N   UNL A   1      41.330  30.918  34.826  1.00  0.00    -0.248 NA
ATOM     57  C   UNL A   1      41.897  31.625  36.981  1.00  0.00     0.031 C 
ATOM     58  C   UNL A   1      43.366  27.612  32.661  1.00  0.00     0.029 A 
ATOM     59  C   UNL A   1      42.729  28.617  33.371  1.00  0.00     0.049 A 
ATOM     60  H   UNL A   1      41.093  29.819  32.791  1.00  0.00     0.167 HD
ATOM     61  C   UNL A   1      42.381  30.139  35.301  1.00  0.00     0.074 A 
ATOM     62  C   UNL A   1      42.705  30.639  36.622  1.00  0.00     0.031 C 
ATOM     63  C   UNL A   1      43.024  29.108  34.697  1.00  0.00     0.034 A 
BRANCH  50  64
ATOM     64  C   UNL A   1      40.817  27.716  29.069  1.00  0.00     0.023 A 
ATOM     65  C   UNL A   1      41.758  27.900  28.041  1.00  0.00     0.031 A 
ATOM     66  C   UNL A   1      39.889  26.668  28.933  1.00  0.00     0.131 A 
ATOM     67  C   UNL A   1      41.705  27.099  26.891  1.00  0.00     0.055 A 
ATOM     68  C   UNL A   1      39.890  25.824  27.819  1.00  0.00     0.041 A 
ATOM     69  F   UNL A   1      38.956  26.454  29.874  1.00  0.00    -0.206 F 
ATOM     70  C   UNL A   1      40.792  26.047  26.782  1.00  0.00     0.022 A 
BRANCH  67  71
ATOM     71  S   UNL A   1      42.759  27.536  25.480  1.00  0.00     0.124 S 
ATOM     72  O   UNL A   1      42.618  26.357  24.629  1.00  0.00    -0.237 OA
ATOM     73  O   UNL A   1      42.137  28.759  24.987  1.00  0.00    -0.237 OA
ATOM     74  O   UNL A   1      44.081  27.707  26.080  1.00  0.00    -0.744 OA
ENDBRANCH  67  71
ENDBRANCH  50  64
BRANCH  51  75
ATOM     75  C   UNL A   1      39.839  33.705  37.028  1.00  0.00     0.023 A 
ATOM     76  C   UNL A   1      40.687  34.791  37.295  1.00  0.00     0.031 A 
ATOM     77  C   UNL A   1      38.832  33.407  37.962  1.00  0.00     0.131 A 
ATOM     78  C   UNL A   1      40.537  35.517  38.487  1.00  0.00     0.055 A 
ATOM     79  C   UNL A   1      38.658  34.159  39.124  1.00  0.00     0.041 A 
ATOM     80  F   UNL A   1      37.991  32.381  37.748  1.00  0.00    -0.206 F 
ATOM     81  C   UNL A   1      39.521  35.215  39.397  1.00  0.00     0.022 A 
BRANCH  78  82
ATOM     82  S   UNL A   1      41.737  36.823  38.863  1.00  0.00     0.124 S 
ATOM     83  O   UNL A   1      42.508  36.218  39.944  1.00  0.00    -0.237 OA
ATOM     84  O   UNL A   1      42.430  36.976  37.588  1.00  0.00    -0.237 OA
ATOM     85  O   UNL A   1      40.898  37.955  39.254  1.00  0.00    -0.744 OA
ENDBRANCH  78  82
ENDBRANCH  51  75
BRANCH  63  86
ATOM     86  C   UNL A   1      44.160  28.477  35.461  1.00  0.00     0.023 A 
ATOM     87  C   UNL A   1      43.933  27.487  36.434  1.00  0.00     0.031 A 
ATOM     88  C   UNL A   1      45.484  28.891  35.230  1.00  0.00     0.131 A 
ATOM     89  C   UNL A   1      45.010  26.980  37.177  1.00  0.00     0.055 A 
ATOM     90  C   UNL A   1      46.557  28.345  35.936  1.00  0.00     0.041 A 
ATOM     91  F   UNL A   1      45.754  29.834  34.316  1.00  0.00    -0.206 F 
ATOM     92  C   UNL A   1      46.321  27.392  36.925  1.00  0.00     0.022 A 
BRANCH  89  93
ATOM     93  S   UNL A   1      44.667  25.828  38.536  1.00  0.00     0.124 S 
ATOM     94  O   UNL A   1      43.393  26.329  39.044  1.00  0.00    -0.237 OA
ATOM     95  O   UNL A   1      44.619  24.541  37.851  1.00  0.00    -0.237 OA
ATOM     96  O   UNL A   1      45.806  26.007  39.435  1.00  0.00    -0.744 OA
ENDBRANCH  89  93
ENDBRANCH  63  86
ENDBRANCH  37  38
ENDBRANCH  29  32
ENDBRANCH  27  28
ENDBRANCH  26  27
ENDBRANCH  25  26
ENDBRANCH   3  25
TORSDOF 19
ENDMDL
