MODEL 1
REMARK VINA RESULT:     -10.7      0.000      0.000
REMARK SMILES C[C@@H](C(=O)NCCCNC(=O)c1ccc(-c2c3nc(c(-c4cc(S(=O)(=O)[O-])ccc4F)c4ccc([nH]4)c(-c4cc(S(=O)(=O)[O-])ccc4F)c4nc(c(-c5cc(S(=O)(=O)[O-])ccc5F)c5ccc2[nH]5)C=C4)C=C3)cc1)c1ccc(OC2CCCC2)cc1F
REMARK SMILES IDX 7 1 6 2 5 3 3 4 4 5 2 7 1 8 75 9 76 10 86 11 77 12 85 13
REMARK SMILES IDX 87 14 78 15 79 16 80 17 81 18 84 19 82 20 83 21 8 22 9 23
REMARK SMILES IDX 10 24 11 26 12 27 13 28 74 29 14 30 73 31 15 32 16 33 17 34
REMARK SMILES IDX 67 35 18 36 72 37 66 38 68 39 19 40 71 41 65 42 64 43 20 45
REMARK SMILES IDX 52 46 32 47 51 48 33 49 36 50 50 51 69 52 34 53 35 54 49 56
REMARK SMILES IDX 70 57 37 58 21 59 22 60 30 61 23 62 29 63 31 64 28 65 24 66
REMARK SMILES IDX 25 67 26 68 27 69 53 70 54 71 62 72 55 73 61 74 63 75 60 76
REMARK SMILES IDX 56 77 57 78 58 79 59 80 38 81 39 82 47 83 40 84 46 85 48 86
REMARK SMILES IDX 45 87 41 88 42 89 43 90 44 91
REMARK H PARENT 5 6 9 25 68 44 36 55
REMARK Flexibility Score: inf
ROOT
ATOM      1  C   UNL A   1      34.423  34.872  28.399  1.00  0.00     0.042 C 
ENDROOT
BRANCH   1   2
ATOM      2  C   UNL A   1      33.143  35.597  28.811  1.00  0.00     0.117 C 
BRANCH   2   3
ATOM      3  N   UNL A   1      33.418  36.674  29.744  1.00  0.00    -0.356 N 
ATOM      4  C   UNL A   1      33.086  36.811  31.060  1.00  0.00     0.227 C 
ATOM      5  O   UNL A   1      33.209  37.944  31.526  1.00  0.00    -0.274 OA
ATOM      6  H   UNL A   1      33.924  37.429  29.364  1.00  0.00     0.163 HD
BRANCH   4   7
ATOM      7  C   UNL A   1      32.580  35.595  31.847  1.00  0.00     0.108 C 
ATOM      8  C   UNL A   1      31.452  36.041  32.788  1.00  0.00     0.023 C 
BRANCH   7   9
ATOM      9  C   UNL A   1      33.606  34.782  32.635  1.00  0.00     0.000 A 
ATOM     10  C   UNL A   1      33.978  33.463  32.361  1.00  0.00     0.011 A 
ATOM     11  C   UNL A   1      34.273  35.417  33.692  1.00  0.00     0.130 A 
ATOM     12  C   UNL A   1      35.007  32.840  33.079  1.00  0.00     0.047 A 
ATOM     13  C   UNL A   1      35.311  34.810  34.398  1.00  0.00     0.086 A 
ATOM     14  F   UNL A   1      33.933  36.669  34.037  1.00  0.00    -0.207 F 
ATOM     15  C   UNL A   1      35.707  33.521  34.075  1.00  0.00     0.122 A 
BRANCH  15  16
ATOM     16  O   UNL A   1      36.721  32.810  34.641  1.00  0.00    -0.490 OA
BRANCH  16  17
ATOM     17  C   UNL A   1      38.052  33.306  34.704  1.00  0.00     0.173 C 
ATOM     18  C   UNL A   1      38.549  34.139  33.524  1.00  0.00     0.045 C 
ATOM     19  C   UNL A   1      38.392  34.088  35.970  1.00  0.00     0.045 C 
ATOM     20  C   UNL A   1      39.770  34.853  34.080  1.00  0.00     0.004 C 
ATOM     21  C   UNL A   1      39.507  35.052  35.571  1.00  0.00     0.004 C 
ENDBRANCH  16  17
ENDBRANCH  15  16
ENDBRANCH   7   9
ENDBRANCH   4   7
ENDBRANCH   2   3
ENDBRANCH   1   2
BRANCH   1  22
ATOM     22  C   UNL A   1      34.582  33.483  29.004  1.00  0.00     0.118 C 
BRANCH  22  23
ATOM     23  N   UNL A   1      33.998  32.443  28.172  1.00  0.00    -0.352 N 
ATOM     24  C   UNL A   1      34.533  31.248  27.764  1.00  0.00     0.251 C 
ATOM     25  H   UNL A   1      33.083  32.624  27.856  1.00  0.00     0.163 HD
ATOM     26  O   UNL A   1      33.962  30.604  26.885  1.00  0.00    -0.269 OA
BRANCH  24  27
ATOM     27  C   UNL A   1      35.795  30.752  28.354  1.00  0.00     0.039 A 
ATOM     28  C   UNL A   1      35.733  29.859  29.427  1.00  0.00     0.014 A 
ATOM     29  C   UNL A   1      37.036  31.170  27.865  1.00  0.00     0.014 A 
ATOM     30  C   UNL A   1      36.912  29.336  29.964  1.00  0.00     0.010 A 
ATOM     31  C   UNL A   1      38.207  30.586  28.347  1.00  0.00     0.010 A 
ATOM     32  C   UNL A   1      38.158  29.665  29.404  1.00  0.00    -0.014 A 
BRANCH  32  33
ATOM     33  C   UNL A   1      39.416  29.056  29.912  1.00  0.00     0.031 A 
ATOM     34  C   UNL A   1      40.099  29.630  31.124  1.00  0.00     0.074 A 
ATOM     35  C   UNL A   1      39.965  28.015  29.256  1.00  0.00     0.049 A 
ATOM     36  N   UNL A   1      41.233  29.283  31.677  1.00  0.00    -0.248 NA
ATOM     37  C   UNL A   1      39.431  30.761  31.784  1.00  0.00     0.031 C 
ATOM     38  C   UNL A   1      39.412  27.386  28.054  1.00  0.00     0.029 A 
ATOM     39  N   UNL A   1      41.112  27.301  29.502  1.00  0.00    -0.354 N 
ATOM     40  C   UNL A   1      41.416  30.152  32.747  1.00  0.00     0.074 A 
ATOM     41  C   UNL A   1      40.311  31.086  32.720  1.00  0.00     0.031 C 
ATOM     42  C   UNL A   1      40.198  26.362  27.691  1.00  0.00     0.029 A 
ATOM     43  C   UNL A   1      41.341  26.292  28.596  1.00  0.00     0.049 A 
ATOM     44  H   UNL A   1      41.713  27.493  30.257  1.00  0.00     0.167 HD
ATOM     45  C   UNL A   1      42.400  30.155  33.681  1.00  0.00     0.034 A 
ATOM     46  C   UNL A   1      42.362  25.417  28.495  1.00  0.00     0.034 A 
ATOM     47  C   UNL A   1      43.497  29.217  33.694  1.00  0.00     0.049 A 
ATOM     48  C   UNL A   1      43.474  25.476  29.511  1.00  0.00     0.074 A 
ATOM     49  C   UNL A   1      44.530  29.111  34.610  1.00  0.00     0.029 A 
ATOM     50  N   UNL A   1      43.709  28.225  32.744  1.00  0.00    -0.354 N 
ATOM     51  N   UNL A   1      43.618  26.288  30.534  1.00  0.00    -0.248 NA
ATOM     52  C   UNL A   1      44.559  24.496  29.363  1.00  0.00     0.031 C 
ATOM     53  C   UNL A   1      45.403  28.111  34.173  1.00  0.00     0.029 A 
ATOM     54  C   UNL A   1      44.873  27.527  33.035  1.00  0.00     0.049 A 
ATOM     55  H   UNL A   1      43.120  28.045  31.976  1.00  0.00     0.167 HD
ATOM     56  C   UNL A   1      44.791  25.890  31.172  1.00  0.00     0.074 A 
ATOM     57  C   UNL A   1      45.305  24.761  30.425  1.00  0.00     0.031 C 
ATOM     58  C   UNL A   1      45.384  26.409  32.277  1.00  0.00     0.034 A 
BRANCH  45  59
ATOM     59  C   UNL A   1      42.340  31.222  34.750  1.00  0.00     0.023 A 
ATOM     60  C   UNL A   1      42.972  32.467  34.584  1.00  0.00     0.031 A 
ATOM     61  C   UNL A   1      41.659  30.987  35.957  1.00  0.00     0.131 A 
ATOM     62  C   UNL A   1      42.977  33.397  35.634  1.00  0.00     0.055 A 
ATOM     63  C   UNL A   1      41.593  31.952  36.966  1.00  0.00     0.041 A 
ATOM     64  F   UNL A   1      41.055  29.810  36.185  1.00  0.00    -0.206 F 
ATOM     65  C   UNL A   1      42.267  33.160  36.814  1.00  0.00     0.022 A 
BRANCH  62  66
ATOM     66  S   UNL A   1      44.044  34.855  35.493  1.00  0.00     0.124 S 
ATOM     67  O   UNL A   1      44.739  34.837  36.778  1.00  0.00    -0.237 OA
ATOM     68  O   UNL A   1      44.856  34.541  34.323  1.00  0.00    -0.237 OA
ATOM     69  O   UNL A   1      43.100  35.957  35.320  1.00  0.00    -0.744 OA
ENDBRANCH  62  66
ENDBRANCH  45  59
BRANCH  46  70
ATOM     70  C   UNL A   1      42.392  24.415  27.390  1.00  0.00     0.023 A 
ATOM     71  C   UNL A   1      41.696  23.199  27.499  1.00  0.00     0.031 A 
ATOM     72  C   UNL A   1      43.149  24.638  26.226  1.00  0.00     0.131 A 
ATOM     73  C   UNL A   1      41.810  22.235  26.486  1.00  0.00     0.055 A 
ATOM     74  C   UNL A   1      43.211  23.699  25.194  1.00  0.00     0.041 A 
ATOM     75  F   UNL A   1      43.832  25.783  26.069  1.00  0.00    -0.206 F 
ATOM     76  C   UNL A   1      42.549  22.484  25.327  1.00  0.00     0.022 A 
BRANCH  73  77
ATOM     77  S   UNL A   1      41.045  20.610  26.745  1.00  0.00     0.124 S 
ATOM     78  O   UNL A   1      39.848  20.713  25.920  1.00  0.00    -0.237 OA
ATOM     79  O   UNL A   1      42.084  19.707  26.261  1.00  0.00    -0.237 OA
ATOM     80  O   UNL A   1      40.811  20.572  28.186  1.00  0.00    -0.744 OA
ENDBRANCH  73  77
ENDBRANCH  46  70
BRANCH  58  81
ATOM     81  C   UNL A   1      46.634  25.722  32.775  1.00  0.00     0.023 A 
ATOM     82  C   UNL A   1      46.588  24.710  33.750  1.00  0.00     0.031 A 
ATOM     83  C   UNL A   1      47.893  26.096  32.269  1.00  0.00     0.131 A 
ATOM     84  C   UNL A   1      47.782  24.148  34.230  1.00  0.00     0.055 A 
ATOM     85  C   UNL A   1      49.070  25.485  32.701  1.00  0.00     0.041 A 
ATOM     86  F   UNL A   1      47.998  27.060  31.341  1.00  0.00    -0.206 F 
ATOM     87  C   UNL A   1      49.021  24.514  33.697  1.00  0.00     0.022 A 
BRANCH  84  88
ATOM     88  S   UNL A   1      47.702  23.002  35.633  1.00  0.00     0.124 S 
ATOM     89  O   UNL A   1      48.675  21.985  35.249  1.00  0.00    -0.237 OA
ATOM     90  O   UNL A   1      48.079  23.855  36.755  1.00  0.00    -0.237 OA
ATOM     91  O   UNL A   1      46.310  22.557  35.634  1.00  0.00    -0.744 OA
ENDBRANCH  84  88
ENDBRANCH  58  81
ENDBRANCH  32  33
ENDBRANCH  24  27
ENDBRANCH  22  23
ENDBRANCH   1  22
TORSDOF 16
ENDMDL
MODEL 2
REMARK VINA RESULT:     -10.6      4.123      7.999
REMARK SMILES C[C@@H](C(=O)NCCCNC(=O)c1ccc(-c2c3nc(c(-c4cc(S(=O)(=O)[O-])ccc4F)c4ccc([nH]4)c(-c4cc(S(=O)(=O)[O-])ccc4F)c4nc(c(-c5cc(S(=O)(=O)[O-])ccc5F)c5ccc2[nH]5)C=C4)C=C3)cc1)c1ccc(OC2CCCC2)cc1F
REMARK SMILES IDX 7 1 6 2 5 3 3 4 4 5 2 7 1 8 75 9 76 10 86 11 77 12 85 13
REMARK SMILES IDX 87 14 78 15 79 16 80 17 81 18 84 19 82 20 83 21 8 22 9 23
REMARK SMILES IDX 10 24 11 26 12 27 13 28 74 29 14 30 73 31 15 32 16 33 17 34
REMARK SMILES IDX 67 35 18 36 72 37 66 38 68 39 19 40 71 41 65 42 64 43 20 45
REMARK SMILES IDX 52 46 32 47 51 48 33 49 36 50 50 51 69 52 34 53 35 54 49 56
REMARK SMILES IDX 70 57 37 58 21 59 22 60 30 61 23 62 29 63 31 64 28 65 24 66
REMARK SMILES IDX 25 67 26 68 27 69 53 70 54 71 62 72 55 73 61 74 63 75 60 76
REMARK SMILES IDX 56 77 57 78 58 79 59 80 38 81 39 82 47 83 40 84 46 85 48 86
REMARK SMILES IDX 45 87 41 88 42 89 43 90 44 91
REMARK H PARENT 5 6 9 25 68 44 36 55
REMARK Flexibility Score: inf
ROOT
ATOM      1  C   UNL A   1      33.184  27.505  26.148  1.00  0.00     0.042 C 
ENDROOT
BRANCH   1   2
ATOM      2  C   UNL A   1      33.646  26.099  25.771  1.00  0.00     0.117 C 
BRANCH   2   3
ATOM      3  N   UNL A   1      33.527  25.863  24.345  1.00  0.00    -0.356 N 
ATOM      4  C   UNL A   1      34.127  24.932  23.549  1.00  0.00     0.227 C 
ATOM      5  O   UNL A   1      34.053  25.138  22.337  1.00  0.00    -0.274 OA
ATOM      6  H   UNL A   1      32.915  26.476  23.875  1.00  0.00     0.163 HD
BRANCH   4   7
ATOM      7  C   UNL A   1      34.850  23.738  24.186  1.00  0.00     0.108 C 
ATOM      8  C   UNL A   1      36.047  23.349  23.308  1.00  0.00     0.023 C 
BRANCH   7   9
ATOM      9  C   UNL A   1      34.023  22.492  24.498  1.00  0.00     0.000 A 
ATOM     10  C   UNL A   1      33.035  21.947  23.674  1.00  0.00     0.011 A 
ATOM     11  C   UNL A   1      34.304  21.800  25.685  1.00  0.00     0.130 A 
ATOM     12  C   UNL A   1      32.406  20.739  24.005  1.00  0.00     0.047 A 
ATOM     13  C   UNL A   1      33.697  20.589  26.011  1.00  0.00     0.086 A 
ATOM     14  F   UNL A   1      35.211  22.294  26.544  1.00  0.00    -0.207 F 
ATOM     15  C   UNL A   1      32.760  20.031  25.153  1.00  0.00     0.122 A 
BRANCH  15  16
ATOM     16  O   UNL A   1      32.111  18.845  25.310  1.00  0.00    -0.490 OA
BRANCH  16  17
ATOM     17  C   UNL A   1      32.590  17.636  24.734  1.00  0.00     0.173 C 
ATOM     18  C   UNL A   1      33.855  17.717  23.882  1.00  0.00     0.045 C 
ATOM     19  C   UNL A   1      32.793  16.487  25.717  1.00  0.00     0.045 C 
ATOM     20  C   UNL A   1      34.325  16.274  23.803  1.00  0.00     0.004 C 
ATOM     21  C   UNL A   1      33.880  15.608  25.104  1.00  0.00     0.004 C 
ENDBRANCH  16  17
ENDBRANCH  15  16
ENDBRANCH   7   9
ENDBRANCH   4   7
ENDBRANCH   2   3
ENDBRANCH   1   2
BRANCH   1  22
ATOM     22  C   UNL A   1      34.152  28.614  25.752  1.00  0.00     0.118 C 
BRANCH  22  23
ATOM     23  N   UNL A   1      33.773  29.906  26.301  1.00  0.00    -0.352 N 
ATOM     24  C   UNL A   1      34.320  30.603  27.348  1.00  0.00     0.251 C 
ATOM     25  H   UNL A   1      33.012  30.344  25.856  1.00  0.00     0.163 HD
ATOM     26  O   UNL A   1      33.720  31.579  27.797  1.00  0.00    -0.269 OA
BRANCH  24  27
ATOM     27  C   UNL A   1      35.602  30.172  27.947  1.00  0.00     0.039 A 
ATOM     28  C   UNL A   1      35.602  29.671  29.251  1.00  0.00     0.014 A 
ATOM     29  C   UNL A   1      36.802  30.270  27.236  1.00  0.00     0.014 A 
ATOM     30  C   UNL A   1      36.794  29.209  29.816  1.00  0.00     0.010 A 
ATOM     31  C   UNL A   1      37.972  29.734  27.769  1.00  0.00     0.010 A 
ATOM     32  C   UNL A   1      37.982  29.200  29.066  1.00  0.00    -0.014 A 
BRANCH  32  33
ATOM     33  C   UNL A   1      39.241  28.638  29.625  1.00  0.00     0.031 A 
ATOM     34  C   UNL A   1      39.875  29.261  30.840  1.00  0.00     0.074 A 
ATOM     35  C   UNL A   1      39.836  27.596  29.011  1.00  0.00     0.049 A 
ATOM     36  N   UNL A   1      41.001  28.958  31.432  1.00  0.00    -0.248 NA
ATOM     37  C   UNL A   1      39.158  30.390  31.451  1.00  0.00     0.031 C 
ATOM     38  C   UNL A   1      39.333  26.922  27.812  1.00  0.00     0.029 A 
ATOM     39  N   UNL A   1      40.993  26.920  29.307  1.00  0.00    -0.354 N 
ATOM     40  C   UNL A   1      41.131  29.859  32.484  1.00  0.00     0.074 A 
ATOM     41  C   UNL A   1      40.003  30.761  32.402  1.00  0.00     0.031 C 
ATOM     42  C   UNL A   1      40.156  25.911  27.497  1.00  0.00     0.029 A 
ATOM     43  C   UNL A   1      41.274  25.894  28.434  1.00  0.00     0.049 A 
ATOM     44  H   UNL A   1      41.568  27.147  30.073  1.00  0.00     0.167 HD
ATOM     45  C   UNL A   1      42.088  29.912  33.445  1.00  0.00     0.034 A 
ATOM     46  C   UNL A   1      42.321  25.045  28.384  1.00  0.00     0.034 A 
ATOM     47  C   UNL A   1      43.208  29.004  33.512  1.00  0.00     0.049 A 
ATOM     48  C   UNL A   1      43.402  25.160  29.429  1.00  0.00     0.074 A 
ATOM     49  C   UNL A   1      44.217  28.950  34.458  1.00  0.00     0.029 A 
ATOM     50  N   UNL A   1      43.473  27.995  32.594  1.00  0.00    -0.354 N 
ATOM     51  N   UNL A   1      43.495  26.001  30.434  1.00  0.00    -0.248 NA
ATOM     52  C   UNL A   1      44.515  24.206  29.336  1.00  0.00     0.031 C 
ATOM     53  C   UNL A   1      45.129  27.963  34.072  1.00  0.00     0.029 A 
ATOM     54  C   UNL A   1      44.646  27.337  32.935  1.00  0.00     0.049 A 
ATOM     55  H   UNL A   1      42.911  27.779  31.815  1.00  0.00     0.167 HD
ATOM     56  C   UNL A   1      44.659  25.651  31.114  1.00  0.00     0.074 A 
ATOM     57  C   UNL A   1      45.224  24.517  30.411  1.00  0.00     0.031 C 
ATOM     58  C   UNL A   1      45.207  26.213  32.221  1.00  0.00     0.034 A 
BRANCH  45  59
ATOM     59  C   UNL A   1      41.970  31.004  34.483  1.00  0.00     0.023 A 
ATOM     60  C   UNL A   1      42.552  32.269  34.291  1.00  0.00     0.031 A 
ATOM     61  C   UNL A   1      41.284  30.773  35.689  1.00  0.00     0.131 A 
ATOM     62  C   UNL A   1      42.504  33.227  35.315  1.00  0.00     0.055 A 
ATOM     63  C   UNL A   1      41.165  31.761  36.669  1.00  0.00     0.041 A 
ATOM     64  F   UNL A   1      40.727  29.578  35.942  1.00  0.00    -0.206 F 
ATOM     65  C   UNL A   1      41.791  32.991  36.492  1.00  0.00     0.022 A 
BRANCH  62  66
ATOM     66  S   UNL A   1      43.511  34.724  35.147  1.00  0.00     0.124 S 
ATOM     67  O   UNL A   1      42.535  35.771  35.441  1.00  0.00    -0.237 OA
ATOM     68  O   UNL A   1      44.551  34.520  36.149  1.00  0.00    -0.237 OA
ATOM     69  O   UNL A   1      43.965  34.678  33.758  1.00  0.00    -0.744 OA
ENDBRANCH  62  66
ENDBRANCH  45  59
BRANCH  46  70
ATOM     70  C   UNL A   1      42.408  24.017  27.307  1.00  0.00     0.023 A 
ATOM     71  C   UNL A   1      41.889  22.725  27.498  1.00  0.00     0.031 A 
ATOM     72  C   UNL A   1      43.047  24.295  26.086  1.00  0.00     0.131 A 
ATOM     73  C   UNL A   1      42.059  21.748  26.506  1.00  0.00     0.055 A 
ATOM     74  C   UNL A   1      43.162  23.336  25.077  1.00  0.00     0.041 A 
ATOM     75  F   UNL A   1      43.559  25.513  25.849  1.00  0.00    -0.206 F 
ATOM     76  C   UNL A   1      42.678  22.050  25.290  1.00  0.00     0.022 A 
BRANCH  73  77
ATOM     77  S   UNL A   1      41.537  20.048  26.862  1.00  0.00     0.124 S 
ATOM     78  O   UNL A   1      40.678  20.240  28.024  1.00  0.00    -0.237 OA
ATOM     79  O   UNL A   1      40.866  19.671  25.622  1.00  0.00    -0.237 OA
ATOM     80  O   UNL A   1      42.796  19.354  27.123  1.00  0.00    -0.744 OA
ENDBRANCH  73  77
ENDBRANCH  46  70
BRANCH  58  81
ATOM     81  C   UNL A   1      46.460  25.573  32.771  1.00  0.00     0.023 A 
ATOM     82  C   UNL A   1      46.414  24.578  33.762  1.00  0.00     0.031 A 
ATOM     83  C   UNL A   1      47.724  25.976  32.298  1.00  0.00     0.131 A 
ATOM     84  C   UNL A   1      47.607  24.061  34.289  1.00  0.00     0.055 A 
ATOM     85  C   UNL A   1      48.904  25.409  32.778  1.00  0.00     0.041 A 
ATOM     86  F   UNL A   1      47.830  26.926  31.356  1.00  0.00    -0.206 F 
ATOM     87  C   UNL A   1      48.851  24.454  33.789  1.00  0.00     0.022 A 
BRANCH  84  88
ATOM     88  S   UNL A   1      47.516  22.937  35.711  1.00  0.00     0.124 S 
ATOM     89  O   UNL A   1      46.183  22.363  35.557  1.00  0.00    -0.237 OA
ATOM     90  O   UNL A   1      48.633  22.030  35.464  1.00  0.00    -0.237 OA
ATOM     91  O   UNL A   1      47.680  23.824  36.861  1.00  0.00    -0.744 OA
ENDBRANCH  84  88
ENDBRANCH  58  81
ENDBRANCH  32  33
ENDBRANCH  24  27
ENDBRANCH  22  23
ENDBRANCH   1  22
TORSDOF 16
ENDMDL
MODEL 3
REMARK VINA RESULT:     -10.6      5.811     10.018
REMARK SMILES C[C@@H](C(=O)NCCCNC(=O)c1ccc(-c2c3nc(c(-c4cc(S(=O)(=O)[O-])ccc4F)c4ccc([nH]4)c(-c4cc(S(=O)(=O)[O-])ccc4F)c4nc(c(-c5cc(S(=O)(=O)[O-])ccc5F)c5ccc2[nH]5)C=C4)C=C3)cc1)c1ccc(OC2CCCC2)cc1F
REMARK SMILES IDX 7 1 6 2 5 3 3 4 4 5 2 7 1 8 75 9 76 10 86 11 77 12 85 13
REMARK SMILES IDX 87 14 78 15 79 16 80 17 81 18 84 19 82 20 83 21 8 22 9 23
REMARK SMILES IDX 10 24 11 26 12 27 13 28 74 29 14 30 73 31 15 32 16 33 17 34
REMARK SMILES IDX 67 35 18 36 72 37 66 38 68 39 19 40 71 41 65 42 64 43 20 45
REMARK SMILES IDX 52 46 32 47 51 48 33 49 36 50 50 51 69 52 34 53 35 54 49 56
REMARK SMILES IDX 70 57 37 58 21 59 22 60 30 61 23 62 29 63 31 64 28 65 24 66
REMARK SMILES IDX 25 67 26 68 27 69 53 70 54 71 62 72 55 73 61 74 63 75 60 76
REMARK SMILES IDX 56 77 57 78 58 79 59 80 38 81 39 82 47 83 40 84 46 85 48 86
REMARK SMILES IDX 45 87 41 88 42 89 43 90 44 91
REMARK H PARENT 5 6 9 25 68 44 36 55
REMARK Flexibility Score: inf
ROOT
ATOM      1  C   UNL A   1      34.757  21.928  25.163  1.00  0.00     0.042 C 
ENDROOT
BRANCH   1   2
ATOM      2  C   UNL A   1      33.819  22.970  24.557  1.00  0.00     0.117 C 
BRANCH   2   3
ATOM      3  N   UNL A   1      32.763  23.339  25.482  1.00  0.00    -0.356 N 
ATOM      4  C   UNL A   1      32.390  24.562  25.958  1.00  0.00     0.227 C 
ATOM      5  O   UNL A   1      31.643  24.548  26.937  1.00  0.00    -0.274 OA
ATOM      6  H   UNL A   1      32.230  22.583  25.822  1.00  0.00     0.163 HD
BRANCH   4   7
ATOM      7  C   UNL A   1      32.920  25.834  25.284  1.00  0.00     0.108 C 
ATOM      8  C   UNL A   1      33.393  26.816  26.366  1.00  0.00     0.023 C 
BRANCH   7   9
ATOM      9  C   UNL A   1      31.994  26.560  24.310  1.00  0.00     0.000 A 
ATOM     10  C   UNL A   1      30.613  26.369  24.208  1.00  0.00     0.011 A 
ATOM     11  C   UNL A   1      32.556  27.538  23.477  1.00  0.00     0.130 A 
ATOM     12  C   UNL A   1      29.837  27.162  23.353  1.00  0.00     0.047 A 
ATOM     13  C   UNL A   1      31.788  28.343  22.638  1.00  0.00     0.086 A 
ATOM     14  F   UNL A   1      33.884  27.741  23.492  1.00  0.00    -0.207 F 
ATOM     15  C   UNL A   1      30.411  28.180  22.592  1.00  0.00     0.122 A 
BRANCH  15  16
ATOM     16  O   UNL A   1      29.524  28.907  21.858  1.00  0.00    -0.490 OA
BRANCH  16  17
ATOM     17  C   UNL A   1      29.363  30.309  22.035  1.00  0.00     0.173 C 
ATOM     18  C   UNL A   1      28.397  31.029  21.097  1.00  0.00     0.045 C 
ATOM     19  C   UNL A   1      29.010  30.747  23.453  1.00  0.00     0.045 C 
ATOM     20  C   UNL A   1      28.127  32.346  21.805  1.00  0.00     0.004 C 
ATOM     21  C   UNL A   1      28.247  32.059  23.300  1.00  0.00     0.004 C 
ENDBRANCH  16  17
ENDBRANCH  15  16
ENDBRANCH   7   9
ENDBRANCH   4   7
ENDBRANCH   2   3
ENDBRANCH   1   2
BRANCH   1  22
ATOM     22  C   UNL A   1      36.232  22.306  25.115  1.00  0.00     0.118 C 
BRANCH  22  23
ATOM     23  N   UNL A   1      37.106  21.162  25.321  1.00  0.00    -0.352 N 
ATOM     24  C   UNL A   1      38.423  21.128  25.704  1.00  0.00     0.251 C 
ATOM     25  H   UNL A   1      36.691  20.283  25.162  1.00  0.00     0.163 HD
ATOM     26  O   UNL A   1      39.046  20.071  25.612  1.00  0.00    -0.269 OA
BRANCH  24  27
ATOM     27  C   UNL A   1      39.092  22.351  26.196  1.00  0.00     0.039 A 
ATOM     28  C   UNL A   1      40.318  22.230  26.855  1.00  0.00     0.014 A 
ATOM     29  C   UNL A   1      38.514  23.612  26.022  1.00  0.00     0.014 A 
ATOM     30  C   UNL A   1      40.993  23.377  27.280  1.00  0.00     0.010 A 
ATOM     31  C   UNL A   1      39.226  24.758  26.373  1.00  0.00     0.010 A 
ATOM     32  C   UNL A   1      40.472  24.654  27.009  1.00  0.00    -0.014 A 
BRANCH  32  33
ATOM     33  C   UNL A   1      41.216  25.885  27.384  1.00  0.00     0.031 A 
ATOM     34  C   UNL A   1      40.563  26.932  28.246  1.00  0.00     0.074 A 
ATOM     35  C   UNL A   1      42.463  26.081  26.911  1.00  0.00     0.049 A 
ATOM     36  N   UNL A   1      41.022  28.098  28.623  1.00  0.00    -0.248 NA
ATOM     37  C   UNL A   1      39.204  26.637  28.725  1.00  0.00     0.031 C 
ATOM     38  C   UNL A   1      43.193  25.152  26.045  1.00  0.00     0.029 A 
ATOM     39  N   UNL A   1      43.338  27.124  27.086  1.00  0.00    -0.354 N 
ATOM     40  C   UNL A   1      40.009  28.677  29.380  1.00  0.00     0.074 A 
ATOM     41  C   UNL A   1      38.889  27.763  29.347  1.00  0.00     0.031 C 
ATOM     42  C   UNL A   1      44.414  25.649  25.796  1.00  0.00     0.029 A 
ATOM     43  C   UNL A   1      44.538  26.956  26.435  1.00  0.00     0.049 A 
ATOM     44  H   UNL A   1      43.127  27.917  27.629  1.00  0.00     0.167 HD
ATOM     45  C   UNL A   1      40.023  29.851  30.061  1.00  0.00     0.034 A 
ATOM     46  C   UNL A   1      45.611  27.767  26.348  1.00  0.00     0.034 A 
ATOM     47  C   UNL A   1      41.151  30.753  30.082  1.00  0.00     0.049 A 
ATOM     48  C   UNL A   1      45.582  29.093  27.066  1.00  0.00     0.074 A 
ATOM     49  C   UNL A   1      41.282  31.951  30.763  1.00  0.00     0.029 A 
ATOM     50  N   UNL A   1      42.339  30.561  29.389  1.00  0.00    -0.354 N 
ATOM     51  N   UNL A   1      44.626  29.614  27.802  1.00  0.00    -0.248 NA
ATOM     52  C   UNL A   1      46.779  29.935  26.949  1.00  0.00     0.031 C 
ATOM     53  C   UNL A   1      42.513  32.518  30.421  1.00  0.00     0.029 A 
ATOM     54  C   UNL A   1      43.193  31.634  29.599  1.00  0.00     0.049 A 
ATOM     55  H   UNL A   1      42.545  29.778  28.828  1.00  0.00     0.167 HD
ATOM     56  C   UNL A   1      45.124  30.830  28.263  1.00  0.00     0.074 A 
ATOM     57  C   UNL A   1      46.466  30.955  27.734  1.00  0.00     0.031 C 
ATOM     58  C   UNL A   1      44.527  31.755  29.057  1.00  0.00     0.034 A 
BRANCH  45  59
ATOM     59  C   UNL A   1      38.771  30.230  30.817  1.00  0.00     0.023 A 
ATOM     60  C   UNL A   1      37.723  30.934  30.200  1.00  0.00     0.031 A 
ATOM     61  C   UNL A   1      38.630  29.901  32.177  1.00  0.00     0.131 A 
ATOM     62  C   UNL A   1      36.617  31.353  30.955  1.00  0.00     0.055 A 
ATOM     63  C   UNL A   1      37.486  30.245  32.903  1.00  0.00     0.041 A 
ATOM     64  F   UNL A   1      39.605  29.250  32.829  1.00  0.00    -0.206 F 
ATOM     65  C   UNL A   1      36.479  30.989  32.296  1.00  0.00     0.022 A 
BRANCH  62  66
ATOM     66  S   UNL A   1      35.438  32.503  30.199  1.00  0.00     0.124 S 
ATOM     67  O   UNL A   1      34.365  32.519  31.190  1.00  0.00    -0.237 OA
ATOM     68  O   UNL A   1      36.220  33.728  30.086  1.00  0.00    -0.237 OA
ATOM     69  O   UNL A   1      35.096  31.861  28.932  1.00  0.00    -0.744 OA
ENDBRANCH  62  66
ENDBRANCH  45  59
BRANCH  46  70
ATOM     70  C   UNL A   1      46.803  27.361  25.548  1.00  0.00     0.023 A 
ATOM     71  C   UNL A   1      46.973  27.808  24.228  1.00  0.00     0.031 A 
ATOM     72  C   UNL A   1      47.769  26.485  26.076  1.00  0.00     0.131 A 
ATOM     73  C   UNL A   1      48.056  27.343  23.465  1.00  0.00     0.055 A 
ATOM     74  C   UNL A   1      48.876  26.072  25.333  1.00  0.00     0.041 A 
ATOM     75  F   UNL A   1      47.656  26.028  27.333  1.00  0.00    -0.206 F 
ATOM     76  C   UNL A   1      49.017  26.491  24.014  1.00  0.00     0.022 A 
BRANCH  73  77
ATOM     77  S   UNL A   1      48.142  27.800  21.712  1.00  0.00     0.124 S 
ATOM     78  O   UNL A   1      49.260  28.736  21.705  1.00  0.00    -0.237 OA
ATOM     79  O   UNL A   1      48.381  26.510  21.074  1.00  0.00    -0.237 OA
ATOM     80  O   UNL A   1      46.831  28.389  21.450  1.00  0.00    -0.744 OA
ENDBRANCH  73  77
ENDBRANCH  46  70
BRANCH  58  81
ATOM     81  C   UNL A   1      45.345  32.964  29.443  1.00  0.00     0.023 A 
ATOM     82  C   UNL A   1      45.328  34.147  28.684  1.00  0.00     0.031 A 
ATOM     83  C   UNL A   1      46.164  32.926  30.587  1.00  0.00     0.131 A 
ATOM     84  C   UNL A   1      46.157  35.221  29.045  1.00  0.00     0.055 A 
ATOM     85  C   UNL A   1      46.934  34.021  30.979  1.00  0.00     0.041 A 
ATOM     86  F   UNL A   1      46.225  31.821  31.348  1.00  0.00    -0.206 F 
ATOM     87  C   UNL A   1      46.943  35.174  30.199  1.00  0.00     0.022 A 
BRANCH  84  88
ATOM     88  S   UNL A   1      46.270  36.647  27.929  1.00  0.00     0.124 S 
ATOM     89  O   UNL A   1      45.114  36.443  27.061  1.00  0.00    -0.237 OA
ATOM     90  O   UNL A   1      46.183  37.774  28.852  1.00  0.00    -0.237 OA
ATOM     91  O   UNL A   1      47.569  36.475  27.282  1.00  0.00    -0.744 OA
ENDBRANCH  84  88
ENDBRANCH  58  81
ENDBRANCH  32  33
ENDBRANCH  24  27
ENDBRANCH  22  23
ENDBRANCH   1  22
TORSDOF 16
ENDMDL
