MODEL 1
REMARK VINA RESULT:     -11.8      0.000      0.000
REMARK SMILES O=C(NCCCNC(=O)c1cc(OC[C@@H]2Cc3cc(F)ccc3O2)cs1)c1ccc(-c2c3nc(c(-c4cc(S(=O)(=O)[O-])ccc4F)c4ccc([nH]4)c(-c4cc(S(=O)(=O)[O-])ccc4F)c4nc(c(-c5cc(S(=O)(=O)[O-])ccc5F)c5ccc2[nH]5)C=C4)C=C3)cc1
REMARK SMILES IDX 5 1 4 2 3 3 1 4 2 5 27 7 28 8 89 9 29 10 88 11 30 12 31 13
REMARK SMILES IDX 32 14 82 15 33 16 87 17 81 18 83 19 34 20 86 21 80 22 79 23
REMARK SMILES IDX 35 25 67 26 47 27 66 28 48 29 51 30 65 31 84 32 49 33 50 34
REMARK SMILES IDX 64 36 85 37 52 38 36 39 37 40 45 41 38 42 44 43 46 44 43 45
REMARK SMILES IDX 39 46 40 47 41 48 42 49 68 50 69 51 77 52 70 53 76 54 78 55
REMARK SMILES IDX 75 56 71 57 72 58 73 59 74 60 53 61 54 62 62 63 55 64 61 65
REMARK SMILES IDX 63 66 60 67 56 68 57 69 58 70 59 71 6 72 7 73 8 74 9 76
REMARK SMILES IDX 10 77 11 78 26 79 12 80 25 81 13 82 14 83 15 84 16 85 24 86
REMARK SMILES IDX 17 87 23 88 18 89 22 90 19 91 21 92 20 93
REMARK H PARENT 3 6 83 24 51 35 7 75
REMARK Flexibility Score: inf
ROOT
ATOM      1  C   UNL A   1      35.864  22.492  26.130  1.00  0.00     0.042 C 
ENDROOT
BRANCH   1   2
ATOM      2  C   UNL A   1      37.013  22.347  25.141  1.00  0.00     0.118 C 
BRANCH   2   3
ATOM      3  N   UNL A   1      37.957  21.314  25.536  1.00  0.00    -0.352 N 
ATOM      4  O   UNL A   1      39.905  20.404  26.157  1.00  0.00    -0.269 OA
ATOM      5  C   UNL A   1      39.199  21.410  26.111  1.00  0.00     0.251 C 
ATOM      6  H   UNL A   1      37.655  20.393  25.360  1.00  0.00     0.163 HD
BRANCH   5   7
ATOM      7  C   UNL A   1      39.696  22.684  26.683  1.00  0.00     0.039 A 
ATOM      8  C   UNL A   1      39.241  23.888  26.132  1.00  0.00     0.014 A 
ATOM      9  C   UNL A   1      40.678  22.708  27.677  1.00  0.00     0.014 A 
ATOM     10  C   UNL A   1      39.757  25.107  26.584  1.00  0.00     0.010 A 
ATOM     11  C   UNL A   1      41.139  23.926  28.176  1.00  0.00     0.010 A 
ATOM     12  C   UNL A   1      40.710  25.135  27.611  1.00  0.00    -0.014 A 
BRANCH  12  13
ATOM     13  C   UNL A   1      41.348  26.403  28.052  1.00  0.00     0.031 A 
ATOM     14  C   UNL A   1      40.516  27.441  28.756  1.00  0.00     0.074 A 
ATOM     15  C   UNL A   1      42.642  26.650  27.773  1.00  0.00     0.049 A 
ATOM     16  N   UNL A   1      40.832  28.663  29.096  1.00  0.00    -0.248 NA
ATOM     17  C   UNL A   1      39.134  27.063  29.101  1.00  0.00     0.031 C 
ATOM     18  C   UNL A   1      43.544  25.728  27.086  1.00  0.00     0.029 A 
ATOM     19  N   UNL A   1      43.416  27.760  28.012  1.00  0.00    -0.354 N 
ATOM     20  C   UNL A   1      39.687  29.206  29.667  1.00  0.00     0.074 A 
ATOM     21  C   UNL A   1      38.656  28.198  29.591  1.00  0.00     0.031 C 
ATOM     22  C   UNL A   1      44.747  26.309  26.956  1.00  0.00     0.029 A 
ATOM     23  C   UNL A   1      44.692  27.663  27.505  1.00  0.00     0.049 A 
ATOM     24  H   UNL A   1      43.090  28.550  28.500  1.00  0.00     0.167 HD
ATOM     25  C   UNL A   1      39.520  30.428  30.222  1.00  0.00     0.034 A 
ATOM     26  C   UNL A   1      45.695  28.567  27.463  1.00  0.00     0.034 A 
ATOM     27  C   UNL A   1      40.571  31.404  30.336  1.00  0.00     0.049 A 
ATOM     28  C   UNL A   1      45.488  29.921  28.096  1.00  0.00     0.074 A 
ATOM     29  C   UNL A   1      40.514  32.647  30.943  1.00  0.00     0.029 A 
ATOM     30  N   UNL A   1      41.861  31.250  29.855  1.00  0.00    -0.354 N 
ATOM     31  N   UNL A   1      44.419  30.395  28.694  1.00  0.00    -0.248 NA
ATOM     32  C   UNL A   1      46.617  30.864  28.064  1.00  0.00     0.031 C 
ATOM     33  C   UNL A   1      41.752  33.266  30.780  1.00  0.00     0.029 A 
ATOM     34  C   UNL A   1      42.604  32.385  30.132  1.00  0.00     0.049 A 
ATOM     35  H   UNL A   1      42.199  30.453  29.385  1.00  0.00     0.167 HD
ATOM     36  C   UNL A   1      44.755  31.675  29.128  1.00  0.00     0.074 A 
ATOM     37  C   UNL A   1      46.134  31.896  28.744  1.00  0.00     0.031 C 
ATOM     38  C   UNL A   1      43.988  32.584  29.780  1.00  0.00     0.034 A 
BRANCH  25  39
ATOM     39  C   UNL A   1      38.172  30.794  30.787  1.00  0.00     0.023 A 
ATOM     40  C   UNL A   1      37.246  31.495  29.991  1.00  0.00     0.031 A 
ATOM     41  C   UNL A   1      37.868  30.591  32.144  1.00  0.00     0.131 A 
ATOM     42  C   UNL A   1      36.079  32.005  30.571  1.00  0.00     0.055 A 
ATOM     43  C   UNL A   1      36.683  31.065  32.707  1.00  0.00     0.041 A 
ATOM     44  F   UNL A   1      38.721  29.928  32.942  1.00  0.00    -0.206 F 
ATOM     45  C   UNL A   1      35.789  31.788  31.922  1.00  0.00     0.022 A 
BRANCH  42  46
ATOM     46  S   UNL A   1      34.924  33.021  29.612  1.00  0.00     0.124 S 
ATOM     47  O   UNL A   1      35.828  33.964  28.954  1.00  0.00    -0.237 OA
ATOM     48  O   UNL A   1      34.306  32.033  28.734  1.00  0.00    -0.237 OA
ATOM     49  O   UNL A   1      34.050  33.607  30.622  1.00  0.00    -0.744 OA
ENDBRANCH  42  46
ENDBRANCH  25  39
BRANCH  26  50
ATOM     50  C   UNL A   1      46.989  28.187  26.824  1.00  0.00     0.023 A 
ATOM     51  C   UNL A   1      47.138  28.208  25.424  1.00  0.00     0.031 A 
ATOM     52  C   UNL A   1      48.061  27.703  27.592  1.00  0.00     0.131 A 
ATOM     53  C   UNL A   1      48.301  27.694  24.836  1.00  0.00     0.055 A 
ATOM     54  C   UNL A   1      49.247  27.256  27.006  1.00  0.00     0.041 A 
ATOM     55  F   UNL A   1      47.964  27.651  28.930  1.00  0.00    -0.206 F 
ATOM     56  C   UNL A   1      49.364  27.234  25.620  1.00  0.00     0.022 A 
BRANCH  53  57
ATOM     57  S   UNL A   1      48.417  27.478  23.038  1.00  0.00     0.124 S 
ATOM     58  O   UNL A   1      47.261  28.234  22.567  1.00  0.00    -0.237 OA
ATOM     59  O   UNL A   1      49.721  28.072  22.748  1.00  0.00    -0.237 OA
ATOM     60  O   UNL A   1      48.344  26.032  22.860  1.00  0.00    -0.744 OA
ENDBRANCH  53  57
ENDBRANCH  26  50
BRANCH  38  61
ATOM     61  C   UNL A   1      44.587  33.917  30.157  1.00  0.00     0.023 A 
ATOM     62  C   UNL A   1      44.610  34.964  29.214  1.00  0.00     0.031 A 
ATOM     63  C   UNL A   1      45.307  34.079  31.351  1.00  0.00     0.131 A 
ATOM     64  C   UNL A   1      45.389  36.102  29.456  1.00  0.00     0.055 A 
ATOM     65  C   UNL A   1      46.043  35.237  31.609  1.00  0.00     0.041 A 
ATOM     66  F   UNL A   1      45.324  33.104  32.275  1.00  0.00    -0.206 F 
ATOM     67  C   UNL A   1      46.101  36.246  30.651  1.00  0.00     0.022 A 
BRANCH  64  68
ATOM     68  S   UNL A   1      45.589  37.385  28.189  1.00  0.00     0.124 S 
ATOM     69  O   UNL A   1      44.389  38.194  28.386  1.00  0.00    -0.237 OA
ATOM     70  O   UNL A   1      46.842  38.019  28.590  1.00  0.00    -0.237 OA
ATOM     71  O   UNL A   1      45.636  36.640  26.935  1.00  0.00    -0.744 OA
ENDBRANCH  64  68
ENDBRANCH  38  61
ENDBRANCH  12  13
ENDBRANCH   5   7
ENDBRANCH   2   3
ENDBRANCH   1   2
BRANCH   1  72
ATOM     72  C   UNL A   1      34.853  21.353  26.109  1.00  0.00     0.118 C 
BRANCH  72  73
ATOM     73  N   UNL A   1      33.524  21.751  26.543  1.00  0.00    -0.351 N 
ATOM     74  C   UNL A   1      32.611  22.563  25.911  1.00  0.00     0.261 C 
ATOM     75  H   UNL A   1      33.238  21.389  27.413  1.00  0.00     0.163 HD
ATOM     76  O   UNL A   1      31.590  22.872  26.533  1.00  0.00    -0.268 OA
BRANCH  74  77
ATOM     77  C   UNL A   1      32.896  23.004  24.563  1.00  0.00     0.096 A 
ATOM     78  C   UNL A   1      33.440  24.202  24.132  1.00  0.00     0.072 A 
ATOM     79  S   UNL A   1      32.552  21.962  23.250  1.00  0.00    -0.135 S 
ATOM     80  C   UNL A   1      33.382  24.330  22.718  1.00  0.00     0.131 A 
ATOM     81  C   UNL A   1      32.967  23.167  22.113  1.00  0.00     0.112 A 
BRANCH  80  82
ATOM     82  O   UNL A   1      33.674  25.401  21.944  1.00  0.00    -0.489 OA
BRANCH  82  83
ATOM     83  C   UNL A   1      32.589  26.283  21.649  1.00  0.00     0.275 C 
BRANCH  83  84
ATOM     84  C   UNL A   1      32.438  27.496  22.584  1.00  0.00     0.215 C 
ATOM     85  C   UNL A   1      33.755  27.997  23.200  1.00  0.00     0.088 C 
ATOM     86  O   UNL A   1      31.493  27.155  23.638  1.00  0.00    -0.486 OA
ATOM     87  C   UNL A   1      33.360  28.096  24.619  1.00  0.00     0.001 A 
ATOM     88  C   UNL A   1      32.083  27.589  24.793  1.00  0.00     0.123 A 
ATOM     89  C   UNL A   1      34.094  28.559  25.697  1.00  0.00     0.047 A 
ATOM     90  C   UNL A   1      31.489  27.520  26.038  1.00  0.00     0.050 A 
ATOM     91  C   UNL A   1      33.508  28.490  26.958  1.00  0.00     0.123 A 
ATOM     92  C   UNL A   1      32.218  27.977  27.138  1.00  0.00     0.043 A 
ATOM     93  F   UNL A   1      34.201  28.906  28.027  1.00  0.00    -0.207 F 
ENDBRANCH  83  84
ENDBRANCH  82  83
ENDBRANCH  80  82
ENDBRANCH  74  77
ENDBRANCH  72  73
ENDBRANCH   1  72
TORSDOF 16
ENDMDL
MODEL 2
REMARK VINA RESULT:     -11.7      4.984      9.732
REMARK SMILES O=C(NCCCNC(=O)c1cc(OC[C@@H]2Cc3cc(F)ccc3O2)cs1)c1ccc(-c2c3nc(c(-c4cc(S(=O)(=O)[O-])ccc4F)c4ccc([nH]4)c(-c4cc(S(=O)(=O)[O-])ccc4F)c4nc(c(-c5cc(S(=O)(=O)[O-])ccc5F)c5ccc2[nH]5)C=C4)C=C3)cc1
REMARK SMILES IDX 5 1 4 2 3 3 1 4 2 5 27 7 28 8 89 9 29 10 88 11 30 12 31 13
REMARK SMILES IDX 32 14 82 15 33 16 87 17 81 18 83 19 34 20 86 21 80 22 79 23
REMARK SMILES IDX 35 25 67 26 47 27 66 28 48 29 51 30 65 31 84 32 49 33 50 34
REMARK SMILES IDX 64 36 85 37 52 38 36 39 37 40 45 41 38 42 44 43 46 44 43 45
REMARK SMILES IDX 39 46 40 47 41 48 42 49 68 50 69 51 77 52 70 53 76 54 78 55
REMARK SMILES IDX 75 56 71 57 72 58 73 59 74 60 53 61 54 62 62 63 55 64 61 65
REMARK SMILES IDX 63 66 60 67 56 68 57 69 58 70 59 71 6 72 7 73 8 74 9 76
REMARK SMILES IDX 10 77 11 78 26 79 12 80 25 81 13 82 14 83 15 84 16 85 24 86
REMARK SMILES IDX 17 87 23 88 18 89 22 90 19 91 21 92 20 93
REMARK H PARENT 3 6 83 24 51 35 7 75
REMARK Flexibility Score: inf
ROOT
ATOM      1  C   UNL A   1      32.092  28.796  26.639  1.00  0.00     0.042 C 
ENDROOT
BRANCH   1   2
ATOM      2  C   UNL A   1      33.107  29.770  26.054  1.00  0.00     0.118 C 
BRANCH   2   3
ATOM      3  N   UNL A   1      32.926  31.124  26.550  1.00  0.00    -0.352 N 
ATOM      4  O   UNL A   1      33.172  32.896  27.894  1.00  0.00    -0.269 OA
ATOM      5  C   UNL A   1      33.643  31.840  27.476  1.00  0.00     0.251 C 
ATOM      6  H   UNL A   1      32.162  31.606  26.160  1.00  0.00     0.163 HD
BRANCH   5   7
ATOM      7  C   UNL A   1      34.964  31.378  27.965  1.00  0.00     0.039 A 
ATOM      8  C   UNL A   1      35.063  30.094  28.514  1.00  0.00     0.014 A 
ATOM      9  C   UNL A   1      36.076  32.224  27.987  1.00  0.00     0.014 A 
ATOM     10  C   UNL A   1      36.270  29.657  29.070  1.00  0.00     0.010 A 
ATOM     11  C   UNL A   1      37.297  31.763  28.475  1.00  0.00     0.010 A 
ATOM     12  C   UNL A   1      37.398  30.489  29.053  1.00  0.00    -0.014 A 
BRANCH  12  13
ATOM     13  C   UNL A   1      38.670  30.097  29.715  1.00  0.00     0.031 A 
ATOM     14  C   UNL A   1      39.554  29.068  29.062  1.00  0.00     0.074 A 
ATOM     15  C   UNL A   1      39.002  30.609  30.915  1.00  0.00     0.049 A 
ATOM     16  N   UNL A   1      40.623  28.481  29.529  1.00  0.00    -0.248 NA
ATOM     17  C   UNL A   1      39.167  28.619  27.713  1.00  0.00     0.031 C 
ATOM     18  C   UNL A   1      38.221  31.602  31.650  1.00  0.00     0.029 A 
ATOM     19  N   UNL A   1      40.072  30.348  31.738  1.00  0.00    -0.354 N 
ATOM     20  C   UNL A   1      41.021  27.580  28.549  1.00  0.00     0.074 A 
ATOM     21  C   UNL A   1      40.055  27.664  27.478  1.00  0.00     0.031 C 
ATOM     22  C   UNL A   1      38.834  31.865  32.815  1.00  0.00     0.029 A 
ATOM     23  C   UNL A   1      40.025  31.025  32.935  1.00  0.00     0.049 A 
ATOM     24  H   UNL A   1      40.802  29.735  31.494  1.00  0.00     0.167 HD
ATOM     25  C   UNL A   1      42.104  26.771  28.536  1.00  0.00     0.034 A 
ATOM     26  C   UNL A   1      40.833  30.961  34.016  1.00  0.00     0.034 A 
ATOM     27  C   UNL A   1      43.087  26.733  29.587  1.00  0.00     0.049 A 
ATOM     28  C   UNL A   1      42.041  30.058  33.975  1.00  0.00     0.074 A 
ATOM     29  C   UNL A   1      44.254  25.993  29.633  1.00  0.00     0.029 A 
ATOM     30  N   UNL A   1      43.030  27.469  30.760  1.00  0.00    -0.354 N 
ATOM     31  N   UNL A   1      42.440  29.261  33.011  1.00  0.00    -0.248 NA
ATOM     32  C   UNL A   1      42.917  30.044  35.157  1.00  0.00     0.031 C 
ATOM     33  C   UNL A   1      44.876  26.239  30.856  1.00  0.00     0.029 A 
ATOM     34  C   UNL A   1      44.133  27.183  31.546  1.00  0.00     0.049 A 
ATOM     35  H   UNL A   1      42.312  28.100  30.999  1.00  0.00     0.167 HD
ATOM     36  C   UNL A   1      43.622  28.675  33.459  1.00  0.00     0.074 A 
ATOM     37  C   UNL A   1      43.886  29.223  34.772  1.00  0.00     0.031 C 
ATOM     38  C   UNL A   1      44.410  27.762  32.839  1.00  0.00     0.034 A 
BRANCH  25  39
ATOM     39  C   UNL A   1      42.331  25.873  27.348  1.00  0.00     0.023 A 
ATOM     40  C   UNL A   1      41.894  24.535  27.387  1.00  0.00     0.031 A 
ATOM     41  C   UNL A   1      43.107  26.290  26.253  1.00  0.00     0.131 A 
ATOM     42  C   UNL A   1      42.273  23.651  26.370  1.00  0.00     0.055 A 
ATOM     43  C   UNL A   1      43.447  25.415  25.222  1.00  0.00     0.041 A 
ATOM     44  F   UNL A   1      43.546  27.557  26.172  1.00  0.00    -0.206 F 
ATOM     45  C   UNL A   1      43.041  24.085  25.285  1.00  0.00     0.022 A 
BRANCH  42  46
ATOM     46  S   UNL A   1      41.839  21.892  26.449  1.00  0.00     0.124 S 
ATOM     47  O   UNL A   1      42.619  21.340  25.341  1.00  0.00    -0.237 OA
ATOM     48  O   UNL A   1      42.304  21.524  27.782  1.00  0.00    -0.237 OA
ATOM     49  O   UNL A   1      40.394  21.878  26.254  1.00  0.00    -0.744 OA
ENDBRANCH  42  46
ENDBRANCH  25  39
BRANCH  26  50
ATOM     50  C   UNL A   1      40.526  31.812  35.203  1.00  0.00     0.023 A 
ATOM     51  C   UNL A   1      39.509  31.453  36.107  1.00  0.00     0.031 A 
ATOM     52  C   UNL A   1      41.174  33.044  35.397  1.00  0.00     0.131 A 
ATOM     53  C   UNL A   1      39.127  32.342  37.120  1.00  0.00     0.055 A 
ATOM     54  C   UNL A   1      40.838  33.897  36.450  1.00  0.00     0.041 A 
ATOM     55  F   UNL A   1      42.143  33.438  34.555  1.00  0.00    -0.206 F 
ATOM     56  C   UNL A   1      39.797  33.555  37.307  1.00  0.00     0.022 A 
BRANCH  53  57
ATOM     57  S   UNL A   1      37.660  32.017  38.138  1.00  0.00     0.124 S 
ATOM     58  O   UNL A   1      37.344  30.638  37.783  1.00  0.00    -0.237 OA
ATOM     59  O   UNL A   1      38.183  32.216  39.489  1.00  0.00    -0.237 OA
ATOM     60  O   UNL A   1      36.702  33.022  37.693  1.00  0.00    -0.744 OA
ENDBRANCH  53  57
ENDBRANCH  26  50
BRANCH  38  61
ATOM     61  C   UNL A   1      45.660  27.277  33.531  1.00  0.00     0.023 A 
ATOM     62  C   UNL A   1      45.584  26.199  34.436  1.00  0.00     0.031 A 
ATOM     63  C   UNL A   1      46.860  28.002  33.457  1.00  0.00     0.131 A 
ATOM     64  C   UNL A   1      46.669  25.916  35.274  1.00  0.00     0.055 A 
ATOM     65  C   UNL A   1      47.956  27.684  34.260  1.00  0.00     0.041 A 
ATOM     66  F   UNL A   1      46.976  29.045  32.618  1.00  0.00    -0.206 F 
ATOM     67  C   UNL A   1      47.857  26.649  35.187  1.00  0.00     0.022 A 
BRANCH  64  68
ATOM     68  S   UNL A   1      46.543  24.658  36.575  1.00  0.00     0.124 S 
ATOM     69  O   UNL A   1      47.008  25.391  37.750  1.00  0.00    -0.237 OA
ATOM     70  O   UNL A   1      45.117  24.342  36.561  1.00  0.00    -0.237 OA
ATOM     71  O   UNL A   1      47.427  23.590  36.121  1.00  0.00    -0.744 OA
ENDBRANCH  64  68
ENDBRANCH  38  61
ENDBRANCH  12  13
ENDBRANCH   5   7
ENDBRANCH   2   3
ENDBRANCH   1   2
BRANCH   1  72
ATOM     72  C   UNL A   1      31.516  27.797  25.644  1.00  0.00     0.118 C 
BRANCH  72  73
ATOM     73  N   UNL A   1      30.982  28.420  24.443  1.00  0.00    -0.351 N 
ATOM     74  C   UNL A   1      30.997  27.961  23.146  1.00  0.00     0.261 C 
ATOM     75  H   UNL A   1      30.549  29.294  24.577  1.00  0.00     0.163 HD
ATOM     76  O   UNL A   1      30.600  28.724  22.262  1.00  0.00    -0.268 OA
BRANCH  74  77
ATOM     77  C   UNL A   1      31.474  26.618  22.895  1.00  0.00     0.096 A 
ATOM     78  C   UNL A   1      30.908  25.408  23.256  1.00  0.00     0.072 A 
ATOM     79  S   UNL A   1      32.932  26.396  22.027  1.00  0.00    -0.135 S 
ATOM     80  C   UNL A   1      31.780  24.317  22.991  1.00  0.00     0.131 A 
ATOM     81  C   UNL A   1      32.892  24.707  22.282  1.00  0.00     0.112 A 
BRANCH  80  82
ATOM     82  O   UNL A   1      31.648  23.014  23.335  1.00  0.00    -0.489 OA
BRANCH  82  83
ATOM     83  C   UNL A   1      31.428  22.746  24.722  1.00  0.00     0.275 C 
BRANCH  83  84
ATOM     84  C   UNL A   1      32.685  22.416  25.547  1.00  0.00     0.215 C 
ATOM     85  C   UNL A   1      33.415  23.643  26.119  1.00  0.00     0.088 C 
ATOM     86  O   UNL A   1      33.594  21.638  24.717  1.00  0.00    -0.486 OA
ATOM     87  C   UNL A   1      34.801  23.337  25.712  1.00  0.00     0.001 A 
ATOM     88  C   UNL A   1      34.822  22.206  24.913  1.00  0.00     0.123 A 
ATOM     89  C   UNL A   1      35.963  24.035  25.988  1.00  0.00     0.047 A 
ATOM     90  C   UNL A   1      35.992  21.728  24.356  1.00  0.00     0.050 A 
ATOM     91  C   UNL A   1      37.149  23.566  25.429  1.00  0.00     0.123 A 
ATOM     92  C   UNL A   1      37.174  22.424  24.619  1.00  0.00     0.043 A 
ATOM     93  F   UNL A   1      38.289  24.233  25.655  1.00  0.00    -0.207 F 
ENDBRANCH  83  84
ENDBRANCH  82  83
ENDBRANCH  80  82
ENDBRANCH  74  77
ENDBRANCH  72  73
ENDBRANCH   1  72
TORSDOF 16
ENDMDL
MODEL 3
REMARK VINA RESULT:     -11.6      1.719      2.005
REMARK SMILES O=C(NCCCNC(=O)c1cc(OC[C@@H]2Cc3cc(F)ccc3O2)cs1)c1ccc(-c2c3nc(c(-c4cc(S(=O)(=O)[O-])ccc4F)c4ccc([nH]4)c(-c4cc(S(=O)(=O)[O-])ccc4F)c4nc(c(-c5cc(S(=O)(=O)[O-])ccc5F)c5ccc2[nH]5)C=C4)C=C3)cc1
REMARK SMILES IDX 5 1 4 2 3 3 1 4 2 5 27 7 28 8 89 9 29 10 88 11 30 12 31 13
REMARK SMILES IDX 32 14 82 15 33 16 87 17 81 18 83 19 34 20 86 21 80 22 79 23
REMARK SMILES IDX 35 25 67 26 47 27 66 28 48 29 51 30 65 31 84 32 49 33 50 34
REMARK SMILES IDX 64 36 85 37 52 38 36 39 37 40 45 41 38 42 44 43 46 44 43 45
REMARK SMILES IDX 39 46 40 47 41 48 42 49 68 50 69 51 77 52 70 53 76 54 78 55
REMARK SMILES IDX 75 56 71 57 72 58 73 59 74 60 53 61 54 62 62 63 55 64 61 65
REMARK SMILES IDX 63 66 60 67 56 68 57 69 58 70 59 71 6 72 7 73 8 74 9 76
REMARK SMILES IDX 10 77 11 78 26 79 12 80 25 81 13 82 14 83 15 84 16 85 24 86
REMARK SMILES IDX 17 87 23 88 18 89 22 90 19 91 21 92 20 93
REMARK H PARENT 3 6 83 24 51 35 7 75
REMARK Flexibility Score: inf
ROOT
ATOM      1  C   UNL A   1      35.876  22.361  24.228  1.00  0.00     0.042 C 
ENDROOT
BRANCH   1   2
ATOM      2  C   UNL A   1      36.260  21.922  25.635  1.00  0.00     0.118 C 
BRANCH   2   3
ATOM      3  N   UNL A   1      37.289  20.895  25.634  1.00  0.00    -0.352 N 
ATOM      4  O   UNL A   1      39.343  20.010  25.580  1.00  0.00    -0.269 OA
ATOM      5  C   UNL A   1      38.642  20.984  25.845  1.00  0.00     0.251 C 
ATOM      6  H   UNL A   1      36.961  19.985  25.448  1.00  0.00     0.163 HD
BRANCH   5   7
ATOM      7  C   UNL A   1      39.265  22.212  26.393  1.00  0.00     0.039 A 
ATOM      8  C   UNL A   1      38.821  23.455  25.925  1.00  0.00     0.014 A 
ATOM      9  C   UNL A   1      40.346  22.155  27.277  1.00  0.00     0.014 A 
ATOM     10  C   UNL A   1      39.447  24.631  26.350  1.00  0.00     0.010 A 
ATOM     11  C   UNL A   1      40.923  23.331  27.755  1.00  0.00     0.010 A 
ATOM     12  C   UNL A   1      40.503  24.579  27.270  1.00  0.00    -0.014 A 
BRANCH  12  13
ATOM     13  C   UNL A   1      41.252  25.797  27.672  1.00  0.00     0.031 A 
ATOM     14  C   UNL A   1      40.538  26.886  28.429  1.00  0.00     0.074 A 
ATOM     15  C   UNL A   1      42.540  25.958  27.314  1.00  0.00     0.049 A 
ATOM     16  N   UNL A   1      40.956  28.080  28.750  1.00  0.00    -0.248 NA
ATOM     17  C   UNL A   1      39.157  26.600  28.859  1.00  0.00     0.031 C 
ATOM     18  C   UNL A   1      43.332  24.980  26.571  1.00  0.00     0.029 A 
ATOM     19  N   UNL A   1      43.401  27.011  27.506  1.00  0.00    -0.354 N 
ATOM     20  C   UNL A   1      39.889  28.697  29.393  1.00  0.00     0.074 A 
ATOM     21  C   UNL A   1      38.788  27.761  29.380  1.00  0.00     0.031 C 
ATOM     22  C   UNL A   1      44.562  25.479  26.367  1.00  0.00     0.029 A 
ATOM     23  C   UNL A   1      44.633  26.831  26.920  1.00  0.00     0.049 A 
ATOM     24  H   UNL A   1      43.160  27.819  28.015  1.00  0.00     0.167 HD
ATOM     25  C   UNL A   1      39.840  29.924  29.959  1.00  0.00     0.034 A 
ATOM     26  C   UNL A   1      45.691  27.665  26.818  1.00  0.00     0.034 A 
ATOM     27  C   UNL A   1      40.960  30.826  30.010  1.00  0.00     0.049 A 
ATOM     28  C   UNL A   1      45.616  29.026  27.465  1.00  0.00     0.074 A 
ATOM     29  C   UNL A   1      41.025  32.066  30.621  1.00  0.00     0.029 A 
ATOM     30  N   UNL A   1      42.204  30.588  29.449  1.00  0.00    -0.354 N 
ATOM     31  N   UNL A   1      44.621  29.568  28.129  1.00  0.00    -0.248 NA
ATOM     32  C   UNL A   1      46.802  29.890  27.363  1.00  0.00     0.031 C 
ATOM     33  C   UNL A   1      42.289  32.601  30.382  1.00  0.00     0.029 A 
ATOM     34  C   UNL A   1      43.038  31.668  29.681  1.00  0.00     0.049 A 
ATOM     35  H   UNL A   1      42.457  29.773  28.957  1.00  0.00     0.167 HD
ATOM     36  C   UNL A   1      45.070  30.820  28.543  1.00  0.00     0.074 A 
ATOM     37  C   UNL A   1      46.433  30.949  28.075  1.00  0.00     0.031 C 
ATOM     38  C   UNL A   1      44.408  31.775  29.243  1.00  0.00     0.034 A 
BRANCH  25  39
ATOM     39  C   UNL A   1      38.558  30.377  30.607  1.00  0.00     0.023 A 
ATOM     40  C   UNL A   1      37.662  31.195  29.893  1.00  0.00     0.031 A 
ATOM     41  C   UNL A   1      38.300  30.133  31.967  1.00  0.00     0.131 A 
ATOM     42  C   UNL A   1      36.573  31.774  30.554  1.00  0.00     0.055 A 
ATOM     43  C   UNL A   1      37.190  30.680  32.611  1.00  0.00     0.041 A 
ATOM     44  F   UNL A   1      39.126  29.360  32.690  1.00  0.00    -0.206 F 
ATOM     45  C   UNL A   1      36.328  31.516  31.906  1.00  0.00     0.022 A 
BRANCH  42  46
ATOM     46  S   UNL A   1      35.470  32.934  29.701  1.00  0.00     0.124 S 
ATOM     47  O   UNL A   1      36.387  34.017  29.348  1.00  0.00    -0.237 OA
ATOM     48  O   UNL A   1      34.992  32.131  28.581  1.00  0.00    -0.237 OA
ATOM     49  O   UNL A   1      34.472  33.275  30.709  1.00  0.00    -0.744 OA
ENDBRANCH  42  46
ENDBRANCH  25  39
BRANCH  26  50
ATOM     50  C   UNL A   1      46.914  27.202  26.098  1.00  0.00     0.023 A 
ATOM     51  C   UNL A   1      47.961  26.564  26.789  1.00  0.00     0.031 A 
ATOM     52  C   UNL A   1      47.098  27.477  24.733  1.00  0.00     0.131 A 
ATOM     53  C   UNL A   1      49.165  26.283  26.130  1.00  0.00     0.055 A 
ATOM     54  C   UNL A   1      48.273  27.133  24.062  1.00  0.00     0.041 A 
ATOM     55  F   UNL A   1      46.134  28.095  24.032  1.00  0.00    -0.206 F 
ATOM     56  C   UNL A   1      49.321  26.548  24.766  1.00  0.00     0.022 A 
BRANCH  53  57
ATOM     57  S   UNL A   1      50.613  25.693  27.051  1.00  0.00     0.124 S 
ATOM     58  O   UNL A   1      50.845  26.788  27.986  1.00  0.00    -0.237 OA
ATOM     59  O   UNL A   1      50.109  24.454  27.641  1.00  0.00    -0.237 OA
ATOM     60  O   UNL A   1      51.628  25.515  26.019  1.00  0.00    -0.744 OA
ENDBRANCH  53  57
ENDBRANCH  26  50
BRANCH  38  61
ATOM     61  C   UNL A   1      45.118  33.062  29.585  1.00  0.00     0.023 A 
ATOM     62  C   UNL A   1      45.101  34.133  28.669  1.00  0.00     0.031 A 
ATOM     63  C   UNL A   1      45.969  33.151  30.698  1.00  0.00     0.131 A 
ATOM     64  C   UNL A   1      45.965  35.219  28.852  1.00  0.00     0.055 A 
ATOM     65  C   UNL A   1      46.792  34.258  30.902  1.00  0.00     0.041 A 
ATOM     66  F   UNL A   1      46.028  32.149  31.592  1.00  0.00    -0.206 F 
ATOM     67  C   UNL A   1      46.807  35.290  29.967  1.00  0.00     0.022 A 
BRANCH  64  68
ATOM     68  S   UNL A   1      46.104  36.525  27.601  1.00  0.00     0.124 S 
ATOM     69  O   UNL A   1      45.421  35.924  26.458  1.00  0.00    -0.237 OA
ATOM     70  O   UNL A   1      45.397  37.635  28.235  1.00  0.00    -0.237 OA
ATOM     71  O   UNL A   1      47.542  36.708  27.438  1.00  0.00    -0.744 OA
ENDBRANCH  64  68
ENDBRANCH  38  61
ENDBRANCH  12  13
ENDBRANCH   5   7
ENDBRANCH   2   3
ENDBRANCH   1   2
BRANCH   1  72
ATOM     72  C   UNL A   1      34.402  22.697  24.043  1.00  0.00     0.118 C 
BRANCH  72  73
ATOM     73  N   UNL A   1      33.511  21.604  24.399  1.00  0.00    -0.351 N 
ATOM     74  C   UNL A   1      32.231  21.655  24.900  1.00  0.00     0.261 C 
ATOM     75  H   UNL A   1      33.877  20.700  24.263  1.00  0.00     0.163 HD
ATOM     76  O   UNL A   1      31.711  20.594  25.257  1.00  0.00    -0.268 OA
BRANCH  74  77
ATOM     77  C   UNL A   1      31.571  22.940  24.980  1.00  0.00     0.096 A 
ATOM     78  C   UNL A   1      30.982  23.685  23.973  1.00  0.00     0.072 A 
ATOM     79  S   UNL A   1      31.446  23.725  26.496  1.00  0.00    -0.135 S 
ATOM     80  C   UNL A   1      30.612  24.981  24.421  1.00  0.00     0.131 A 
ATOM     81  C   UNL A   1      30.764  25.118  25.781  1.00  0.00     0.112 A 
BRANCH  80  82
ATOM     82  O   UNL A   1      30.152  26.034  23.705  1.00  0.00    -0.489 OA
BRANCH  82  83
ATOM     83  C   UNL A   1      31.037  26.560  22.715  1.00  0.00     0.275 C 
BRANCH  83  84
ATOM     84  C   UNL A   1      31.947  27.714  23.174  1.00  0.00     0.215 C 
ATOM     85  C   UNL A   1      33.277  27.267  23.807  1.00  0.00     0.088 C 
ATOM     86  O   UNL A   1      31.205  28.545  24.111  1.00  0.00    -0.486 OA
ATOM     87  C   UNL A   1      33.272  28.088  25.034  1.00  0.00     0.001 A 
ATOM     88  C   UNL A   1      32.069  28.765  25.147  1.00  0.00     0.123 A 
ATOM     89  C   UNL A   1      34.244  28.195  26.013  1.00  0.00     0.047 A 
ATOM     90  C   UNL A   1      31.785  29.570  26.233  1.00  0.00     0.050 A 
ATOM     91  C   UNL A   1      33.968  29.000  27.115  1.00  0.00     0.123 A 
ATOM     92  C   UNL A   1      32.753  29.685  27.234  1.00  0.00     0.043 A 
ATOM     93  F   UNL A   1      34.877  29.106  28.094  1.00  0.00    -0.207 F 
ENDBRANCH  83  84
ENDBRANCH  82  83
ENDBRANCH  80  82
ENDBRANCH  74  77
ENDBRANCH  72  73
ENDBRANCH   1  72
TORSDOF 16
ENDMDL
