MODEL 1
REMARK VINA RESULT:     -11.8      0.000      0.000
REMARK SMILES O=C(CC[N@@H+]1CCc2ccccc2C1)NCCCNC(=O)c1ccc(-c2c3nc(c(-c4cc(S(=O)(=O)[O-])ccc4F)c4ccc([nH]4)c(-c4cc(S(=O)(=O)[O-])ccc4F)c4nc(c(-c5cc(S(=O)(=O)[O-])ccc5F)c5ccc2[nH]5)C=C4)C=C3)cc1
REMARK SMILES IDX 17 1 16 2 15 3 1 4 2 5 3 7 4 8 5 9 6 10 14 11 7 13 13 14
REMARK SMILES IDX 8 15 12 16 9 17 11 18 10 19 18 20 19 21 20 22 21 24 22 25
REMARK SMILES IDX 23 26 84 27 24 28 83 29 25 30 26 31 27 32 77 33 28 34 82 35
REMARK SMILES IDX 76 36 78 37 29 38 81 39 75 40 74 41 30 43 62 44 42 45 61 46
REMARK SMILES IDX 43 47 46 48 60 49 79 50 44 51 45 52 59 54 80 55 47 56 31 57
REMARK SMILES IDX 32 58 40 59 33 60 39 61 41 62 38 63 34 64 35 65 36 66 37 67
REMARK SMILES IDX 63 68 64 69 72 70 65 71 71 72 73 73 70 74 66 75 67 76 68 77
REMARK SMILES IDX 69 78 48 79 49 80 57 81 50 82 56 83 58 84 55 85 51 86 52 87
REMARK SMILES IDX 53 88 54 89
REMARK H PARENT 15 6 5 12 19 23 78 42 46 53
REMARK Flexibility Score: inf
ROOT
ATOM      1  C   UNL A   1      32.500  29.822  25.351  1.00  0.00     0.042 C 
ENDROOT
BRANCH   1   2
ATOM      2  C   UNL A   1      31.518  29.333  24.294  1.00  0.00     0.117 C 
BRANCH   2   3
ATOM      3  N   UNL A   1      31.949  28.107  23.661  1.00  0.00    -0.356 N 
ATOM      4  O   UNL A   1      30.341  28.012  22.020  1.00  0.00    -0.275 OA
ATOM      5  C   UNL A   1      31.341  27.550  22.563  1.00  0.00     0.225 C 
ATOM      6  H   UNL A   1      32.729  27.641  24.042  1.00  0.00     0.163 HD
BRANCH   5   7
ATOM      7  C   UNL A   1      31.995  26.265  22.087  1.00  0.00     0.161 C 
BRANCH   7   8
ATOM      8  C   UNL A   1      31.383  25.031  22.755  1.00  0.00     0.272 C 
BRANCH   8   9
ATOM      9  N   UNL A   1      32.381  24.222  23.482  1.00  0.00    -0.330 N 
ATOM     10  C   UNL A   1      32.476  24.595  24.909  1.00  0.00     0.267 C 
ATOM     11  C   UNL A   1      33.678  24.171  22.772  1.00  0.00     0.299 C 
ATOM     12  H   UNL A   1      32.047  23.258  23.491  1.00  0.00     0.348 HD
ATOM     13  C   UNL A   1      33.798  25.221  25.369  1.00  0.00     0.097 C 
ATOM     14  C   UNL A   1      34.846  23.778  23.647  1.00  0.00     0.010 A 
ATOM     15  C   UNL A   1      34.932  24.341  24.931  1.00  0.00    -0.034 A 
ATOM     16  C   UNL A   1      35.880  22.956  23.188  1.00  0.00     0.010 A 
ATOM     17  C   UNL A   1      36.036  24.083  25.745  1.00  0.00     0.004 A 
ATOM     18  C   UNL A   1      36.975  22.685  24.011  1.00  0.00     0.001 A 
ATOM     19  C   UNL A   1      37.053  23.248  25.285  1.00  0.00     0.000 A 
ENDBRANCH   8   9
ENDBRANCH   7   8
ENDBRANCH   5   7
ENDBRANCH   2   3
ENDBRANCH   1   2
BRANCH   1  20
ATOM     20  C   UNL A   1      31.857  30.322  26.645  1.00  0.00     0.118 C 
BRANCH  20  21
ATOM     21  N   UNL A   1      31.915  31.768  26.796  1.00  0.00    -0.352 N 
ATOM     22  C   UNL A   1      32.831  32.568  27.433  1.00  0.00     0.251 C 
ATOM     23  H   UNL A   1      31.172  32.255  26.371  1.00  0.00     0.163 HD
ATOM     24  O   UNL A   1      32.584  33.771  27.547  1.00  0.00    -0.269 OA
BRANCH  22  25
ATOM     25  C   UNL A   1      34.083  32.019  28.008  1.00  0.00     0.039 A 
ATOM     26  C   UNL A   1      35.132  32.904  28.282  1.00  0.00     0.014 A 
ATOM     27  C   UNL A   1      34.262  30.654  28.248  1.00  0.00     0.014 A 
ATOM     28  C   UNL A   1      36.319  32.433  28.850  1.00  0.00     0.010 A 
ATOM     29  C   UNL A   1      35.417  30.195  28.886  1.00  0.00     0.010 A 
ATOM     30  C   UNL A   1      36.461  31.079  29.198  1.00  0.00    -0.014 A 
BRANCH  30  31
ATOM     31  C   UNL A   1      37.682  30.603  29.909  1.00  0.00     0.031 A 
ATOM     32  C   UNL A   1      37.983  31.041  31.318  1.00  0.00     0.074 A 
ATOM     33  C   UNL A   1      38.544  29.789  29.264  1.00  0.00     0.049 A 
ATOM     34  N   UNL A   1      38.992  30.718  32.089  1.00  0.00    -0.248 NA
ATOM     35  C   UNL A   1      37.040  31.987  31.932  1.00  0.00     0.031 C 
ATOM     36  C   UNL A   1      38.398  29.335  27.879  1.00  0.00     0.029 A 
ATOM     37  N   UNL A   1      39.708  29.194  29.684  1.00  0.00    -0.354 N 
ATOM     38  C   UNL A   1      38.809  31.422  33.275  1.00  0.00     0.074 A 
ATOM     39  C   UNL A   1      37.626  32.238  33.093  1.00  0.00     0.031 C 
ATOM     40  C   UNL A   1      39.407  28.503  27.579  1.00  0.00     0.029 A 
ATOM     41  C   UNL A   1      40.297  28.396  28.730  1.00  0.00     0.049 A 
ATOM     42  H   UNL A   1      40.086  29.325  30.584  1.00  0.00     0.167 HD
ATOM     43  C   UNL A   1      39.543  31.374  34.417  1.00  0.00     0.034 A 
ATOM     44  C   UNL A   1      41.426  27.660  28.772  1.00  0.00     0.034 A 
ATOM     45  C   UNL A   1      40.722  30.554  34.584  1.00  0.00     0.049 A 
ATOM     46  C   UNL A   1      42.227  27.627  30.048  1.00  0.00     0.074 A 
ATOM     47  C   UNL A   1      41.510  30.395  35.712  1.00  0.00     0.029 A 
ATOM     48  N   UNL A   1      41.290  29.758  33.596  1.00  0.00    -0.354 N 
ATOM     49  N   UNL A   1      42.004  28.252  31.181  1.00  0.00    -0.248 NA
ATOM     50  C   UNL A   1      43.419  26.771  30.055  1.00  0.00     0.031 C 
ATOM     51  C   UNL A   1      42.589  29.566  35.385  1.00  0.00     0.029 A 
ATOM     52  C   UNL A   1      42.432  29.133  34.079  1.00  0.00     0.049 A 
ATOM     53  H   UNL A   1      40.933  29.653  32.684  1.00  0.00     0.167 HD
ATOM     54  C   UNL A   1      43.015  27.837  32.046  1.00  0.00     0.074 A 
ATOM     55  C   UNL A   1      43.826  26.890  31.308  1.00  0.00     0.031 C 
ATOM     56  C   UNL A   1      43.250  28.204  33.333  1.00  0.00     0.034 A 
BRANCH  43  57
ATOM     57  C   UNL A   1      39.104  32.256  35.565  1.00  0.00     0.023 A 
ATOM     58  C   UNL A   1      39.557  33.581  35.696  1.00  0.00     0.031 A 
ATOM     59  C   UNL A   1      38.234  31.761  36.554  1.00  0.00     0.131 A 
ATOM     60  C   UNL A   1      39.203  34.338  36.824  1.00  0.00     0.055 A 
ATOM     61  C   UNL A   1      37.816  32.549  37.630  1.00  0.00     0.041 A 
ATOM     62  F   UNL A   1      37.781  30.499  36.498  1.00  0.00    -0.206 F 
ATOM     63  C   UNL A   1      38.314  33.840  37.778  1.00  0.00     0.022 A 
BRANCH  60  64
ATOM     64  S   UNL A   1      40.039  35.923  37.103  1.00  0.00     0.124 S 
ATOM     65  O   UNL A   1      39.807  36.607  35.833  1.00  0.00    -0.237 OA
ATOM     66  O   UNL A   1      39.325  36.457  38.257  1.00  0.00    -0.237 OA
ATOM     67  O   UNL A   1      41.428  35.540  37.350  1.00  0.00    -0.744 OA
ENDBRANCH  60  64
ENDBRANCH  43  57
BRANCH  44  68
ATOM     68  C   UNL A   1      41.871  26.888  27.575  1.00  0.00     0.023 A 
ATOM     69  C   UNL A   1      41.645  25.505  27.478  1.00  0.00     0.031 A 
ATOM     70  C   UNL A   1      42.571  27.516  26.530  1.00  0.00     0.131 A 
ATOM     71  C   UNL A   1      42.158  24.786  26.387  1.00  0.00     0.055 A 
ATOM     72  C   UNL A   1      43.030  26.806  25.418  1.00  0.00     0.041 A 
ATOM     73  F   UNL A   1      42.810  28.836  26.568  1.00  0.00    -0.206 F 
ATOM     74  C   UNL A   1      42.837  25.430  25.350  1.00  0.00     0.022 A 
BRANCH  71  75
ATOM     75  S   UNL A   1      42.007  22.979  26.389  1.00  0.00     0.124 S 
ATOM     76  O   UNL A   1      42.731  22.620  27.602  1.00  0.00    -0.237 OA
ATOM     77  O   UNL A   1      40.559  22.797  26.427  1.00  0.00    -0.237 OA
ATOM     78  O   UNL A   1      42.649  22.583  25.137  1.00  0.00    -0.744 OA
ENDBRANCH  71  75
ENDBRANCH  44  68
BRANCH  56  79
ATOM     79  C   UNL A   1      44.415  27.537  34.030  1.00  0.00     0.023 A 
ATOM     80  C   UNL A   1      44.257  26.348  34.764  1.00  0.00     0.031 A 
ATOM     81  C   UNL A   1      45.689  28.130  34.005  1.00  0.00     0.131 A 
ATOM     82  C   UNL A   1      45.330  25.839  35.513  1.00  0.00     0.055 A 
ATOM     83  C   UNL A   1      46.773  27.577  34.691  1.00  0.00     0.041 A 
ATOM     84  F   UNL A   1      45.902  29.268  33.324  1.00  0.00    -0.206 F 
ATOM     85  C   UNL A   1      46.592  26.436  35.467  1.00  0.00     0.022 A 
BRANCH  82  86
ATOM     86  S   UNL A   1      45.018  24.468  36.659  1.00  0.00     0.124 S 
ATOM     87  O   UNL A   1      46.141  24.584  37.585  1.00  0.00    -0.237 OA
ATOM     88  O   UNL A   1      43.707  24.810  37.203  1.00  0.00    -0.237 OA
ATOM     89  O   UNL A   1      45.043  23.288  35.798  1.00  0.00    -0.744 OA
ENDBRANCH  82  86
ENDBRANCH  56  79
ENDBRANCH  30  31
ENDBRANCH  22  25
ENDBRANCH  20  21
ENDBRANCH   1  20
TORSDOF 15
ENDMDL
MODEL 2
REMARK VINA RESULT:     -11.7      5.240     11.066
REMARK SMILES O=C(CC[N@@H+]1CCc2ccccc2C1)NCCCNC(=O)c1ccc(-c2c3nc(c(-c4cc(S(=O)(=O)[O-])ccc4F)c4ccc([nH]4)c(-c4cc(S(=O)(=O)[O-])ccc4F)c4nc(c(-c5cc(S(=O)(=O)[O-])ccc5F)c5ccc2[nH]5)C=C4)C=C3)cc1
REMARK SMILES IDX 17 1 16 2 15 3 1 4 2 5 3 7 4 8 5 9 6 10 14 11 7 13 13 14
REMARK SMILES IDX 8 15 12 16 9 17 11 18 10 19 18 20 19 21 20 22 21 24 22 25
REMARK SMILES IDX 23 26 84 27 24 28 83 29 25 30 26 31 27 32 77 33 28 34 82 35
REMARK SMILES IDX 76 36 78 37 29 38 81 39 75 40 74 41 30 43 62 44 42 45 61 46
REMARK SMILES IDX 43 47 46 48 60 49 79 50 44 51 45 52 59 54 80 55 47 56 31 57
REMARK SMILES IDX 32 58 40 59 33 60 39 61 41 62 38 63 34 64 35 65 36 66 37 67
REMARK SMILES IDX 63 68 64 69 72 70 65 71 71 72 73 73 70 74 66 75 67 76 68 77
REMARK SMILES IDX 69 78 48 79 49 80 57 81 50 82 56 83 58 84 55 85 51 86 52 87
REMARK SMILES IDX 53 88 54 89
REMARK H PARENT 15 6 5 12 19 23 78 42 46 53
REMARK Flexibility Score: inf
ROOT
ATOM      1  C   UNL A   1      41.237  20.019  26.482  1.00  0.00     0.042 C 
ENDROOT
BRANCH   1   2
ATOM      2  C   UNL A   1      42.488  19.439  25.836  1.00  0.00     0.117 C 
BRANCH   2   3
ATOM      3  N   UNL A   1      43.666  20.236  26.093  1.00  0.00    -0.356 N 
ATOM      4  O   UNL A   1      44.314  20.561  23.911  1.00  0.00    -0.275 OA
ATOM      5  C   UNL A   1      44.478  20.752  25.114  1.00  0.00     0.225 C 
ATOM      6  H   UNL A   1      43.902  20.421  27.032  1.00  0.00     0.163 HD
BRANCH   5   7
ATOM      7  C   UNL A   1      45.646  21.561  25.648  1.00  0.00     0.161 C 
BRANCH   7   8
ATOM      8  C   UNL A   1      45.587  23.021  25.190  1.00  0.00     0.272 C 
BRANCH   8   9
ATOM      9  N   UNL A   1      45.340  23.958  26.303  1.00  0.00    -0.330 N 
ATOM     10  C   UNL A   1      46.416  24.961  26.446  1.00  0.00     0.267 C 
ATOM     11  C   UNL A   1      44.987  23.253  27.555  1.00  0.00     0.299 C 
ATOM     12  H   UNL A   1      44.511  24.504  26.066  1.00  0.00     0.348 HD
ATOM     13  C   UNL A   1      47.258  24.889  27.725  1.00  0.00     0.097 C 
ATOM     14  C   UNL A   1      45.179  24.081  28.806  1.00  0.00     0.010 A 
ATOM     15  C   UNL A   1      46.340  24.864  28.912  1.00  0.00    -0.034 A 
ATOM     16  C   UNL A   1      44.293  24.018  29.885  1.00  0.00     0.010 A 
ATOM     17  C   UNL A   1      46.609  25.576  30.082  1.00  0.00     0.004 A 
ATOM     18  C   UNL A   1      44.556  24.744  31.049  1.00  0.00     0.001 A 
ATOM     19  C   UNL A   1      45.711  25.520  31.146  1.00  0.00     0.000 A 
ENDBRANCH   8   9
ENDBRANCH   7   8
ENDBRANCH   5   7
ENDBRANCH   2   3
ENDBRANCH   1   2
BRANCH   1  20
ATOM     20  C   UNL A   1      40.952  21.480  26.135  1.00  0.00     0.118 C 
BRANCH  20  21
ATOM     21  N   UNL A   1      39.544  21.750  25.886  1.00  0.00    -0.352 N 
ATOM     22  C   UNL A   1      38.770  22.842  26.195  1.00  0.00     0.251 C 
ATOM     23  H   UNL A   1      39.065  21.029  25.416  1.00  0.00     0.163 HD
ATOM     24  O   UNL A   1      37.554  22.775  26.004  1.00  0.00    -0.269 OA
BRANCH  22  25
ATOM     25  C   UNL A   1      39.355  24.075  26.777  1.00  0.00     0.039 A 
ATOM     26  C   UNL A   1      39.989  24.979  25.918  1.00  0.00     0.014 A 
ATOM     27  C   UNL A   1      39.326  24.342  28.149  1.00  0.00     0.014 A 
ATOM     28  C   UNL A   1      40.529  26.166  26.420  1.00  0.00     0.010 A 
ATOM     29  C   UNL A   1      39.797  25.562  28.639  1.00  0.00     0.010 A 
ATOM     30  C   UNL A   1      40.402  26.493  27.781  1.00  0.00    -0.014 A 
BRANCH  30  31
ATOM     31  C   UNL A   1      40.876  27.811  28.292  1.00  0.00     0.031 A 
ATOM     32  C   UNL A   1      42.345  28.136  28.359  1.00  0.00     0.074 A 
ATOM     33  C   UNL A   1      39.972  28.713  28.727  1.00  0.00     0.049 A 
ATOM     34  N   UNL A   1      42.933  29.234  28.766  1.00  0.00    -0.248 NA
ATOM     35  C   UNL A   1      43.277  27.080  27.939  1.00  0.00     0.031 C 
ATOM     36  C   UNL A   1      38.523  28.501  28.767  1.00  0.00     0.029 A 
ATOM     37  N   UNL A   1      40.132  29.988  29.212  1.00  0.00    -0.354 N 
ATOM     38  C   UNL A   1      44.301  29.001  28.655  1.00  0.00     0.074 A 
ATOM     39  C   UNL A   1      44.451  27.632  28.205  1.00  0.00     0.031 C 
ATOM     40  C   UNL A   1      37.926  29.618  29.210  1.00  0.00     0.029 A 
ATOM     41  C   UNL A   1      38.946  30.611  29.528  1.00  0.00     0.049 A 
ATOM     42  H   UNL A   1      41.011  30.415  29.324  1.00  0.00     0.167 HD
ATOM     43  C   UNL A   1      45.333  29.853  28.884  1.00  0.00     0.034 A 
ATOM     44  C   UNL A   1      38.703  31.843  30.019  1.00  0.00     0.034 A 
ATOM     45  C   UNL A   1      45.167  31.218  29.333  1.00  0.00     0.049 A 
ATOM     46  C   UNL A   1      39.864  32.770  30.270  1.00  0.00     0.074 A 
ATOM     47  C   UNL A   1      46.141  32.179  29.550  1.00  0.00     0.029 A 
ATOM     48  N   UNL A   1      43.952  31.816  29.644  1.00  0.00    -0.354 N 
ATOM     49  N   UNL A   1      41.148  32.552  30.101  1.00  0.00    -0.248 NA
ATOM     50  C   UNL A   1      39.539  34.115  30.758  1.00  0.00     0.031 C 
ATOM     51  C   UNL A   1      45.523  33.328  30.058  1.00  0.00     0.029 A 
ATOM     52  C   UNL A   1      44.154  33.119  30.077  1.00  0.00     0.049 A 
ATOM     53  H   UNL A   1      43.073  31.378  29.567  1.00  0.00     0.167 HD
ATOM     54  C   UNL A   1      41.781  33.749  30.433  1.00  0.00     0.074 A 
ATOM     55  C   UNL A   1      40.733  34.686  30.783  1.00  0.00     0.031 C 
ATOM     56  C   UNL A   1      43.107  34.045  30.445  1.00  0.00     0.034 A 
BRANCH  43  57
ATOM     57  C   UNL A   1      46.734  29.323  28.676  1.00  0.00     0.023 A 
ATOM     58  C   UNL A   1      47.267  29.121  27.390  1.00  0.00     0.031 A 
ATOM     59  C   UNL A   1      47.545  28.996  29.779  1.00  0.00     0.131 A 
ATOM     60  C   UNL A   1      48.535  28.539  27.237  1.00  0.00     0.055 A 
ATOM     61  C   UNL A   1      48.841  28.498  29.620  1.00  0.00     0.041 A 
ATOM     62  F   UNL A   1      47.089  29.146  31.032  1.00  0.00    -0.206 F 
ATOM     63  C   UNL A   1      49.337  28.252  28.344  1.00  0.00     0.022 A 
BRANCH  60  64
ATOM     64  S   UNL A   1      49.059  28.026  25.578  1.00  0.00     0.124 S 
ATOM     65  O   UNL A   1      50.139  28.972  25.303  1.00  0.00    -0.237 OA
ATOM     66  O   UNL A   1      49.462  26.640  25.789  1.00  0.00    -0.237 OA
ATOM     67  O   UNL A   1      47.859  28.211  24.766  1.00  0.00    -0.744 OA
ENDBRANCH  60  64
ENDBRANCH  43  57
BRANCH  44  68
ATOM     68  C   UNL A   1      37.306  32.281  30.304  1.00  0.00     0.023 A 
ATOM     69  C   UNL A   1      36.467  32.747  29.279  1.00  0.00     0.031 A 
ATOM     70  C   UNL A   1      36.803  32.285  31.618  1.00  0.00     0.131 A 
ATOM     71  C   UNL A   1      35.191  33.243  29.588  1.00  0.00     0.055 A 
ATOM     72  C   UNL A   1      35.512  32.726  31.913  1.00  0.00     0.041 A 
ATOM     73  F   UNL A   1      37.560  31.846  32.637  1.00  0.00    -0.206 F 
ATOM     74  C   UNL A   1      34.702  33.223  30.896  1.00  0.00     0.022 A 
BRANCH  71  75
ATOM     75  S   UNL A   1      34.211  34.005  28.265  1.00  0.00     0.124 S 
ATOM     76  O   UNL A   1      33.560  35.103  28.970  1.00  0.00    -0.237 OA
ATOM     77  O   UNL A   1      35.242  34.380  27.303  1.00  0.00    -0.237 OA
ATOM     78  O   UNL A   1      33.325  32.925  27.834  1.00  0.00    -0.744 OA
ENDBRANCH  71  75
ENDBRANCH  44  68
BRANCH  56  79
ATOM     79  C   UNL A   1      43.484  35.463  30.813  1.00  0.00     0.023 A 
ATOM     80  C   UNL A   1      43.696  35.851  32.148  1.00  0.00     0.031 A 
ATOM     81  C   UNL A   1      43.578  36.452  29.818  1.00  0.00     0.131 A 
ATOM     82  C   UNL A   1      43.903  37.204  32.460  1.00  0.00     0.055 A 
ATOM     83  C   UNL A   1      43.861  37.784  30.127  1.00  0.00     0.041 A 
ATOM     84  F   UNL A   1      43.384  36.143  28.525  1.00  0.00    -0.206 F 
ATOM     85  C   UNL A   1      44.004  38.170  31.457  1.00  0.00     0.022 A 
BRANCH  82  86
ATOM     86  S   UNL A   1      43.897  37.705  34.204  1.00  0.00     0.124 S 
ATOM     87  O   UNL A   1      42.630  38.422  34.309  1.00  0.00    -0.237 OA
ATOM     88  O   UNL A   1      43.961  36.422  34.897  1.00  0.00    -0.237 OA
ATOM     89  O   UNL A   1      45.092  38.537  34.326  1.00  0.00    -0.744 OA
ENDBRANCH  82  86
ENDBRANCH  56  79
ENDBRANCH  30  31
ENDBRANCH  22  25
ENDBRANCH  20  21
ENDBRANCH   1  20
TORSDOF 15
ENDMDL
MODEL 3
REMARK VINA RESULT:     -11.6      5.037     10.319
REMARK SMILES O=C(CC[N@@H+]1CCc2ccccc2C1)NCCCNC(=O)c1ccc(-c2c3nc(c(-c4cc(S(=O)(=O)[O-])ccc4F)c4ccc([nH]4)c(-c4cc(S(=O)(=O)[O-])ccc4F)c4nc(c(-c5cc(S(=O)(=O)[O-])ccc5F)c5ccc2[nH]5)C=C4)C=C3)cc1
REMARK SMILES IDX 17 1 16 2 15 3 1 4 2 5 3 7 4 8 5 9 6 10 14 11 7 13 13 14
REMARK SMILES IDX 8 15 12 16 9 17 11 18 10 19 18 20 19 21 20 22 21 24 22 25
REMARK SMILES IDX 23 26 84 27 24 28 83 29 25 30 26 31 27 32 77 33 28 34 82 35
REMARK SMILES IDX 76 36 78 37 29 38 81 39 75 40 74 41 30 43 62 44 42 45 61 46
REMARK SMILES IDX 43 47 46 48 60 49 79 50 44 51 45 52 59 54 80 55 47 56 31 57
REMARK SMILES IDX 32 58 40 59 33 60 39 61 41 62 38 63 34 64 35 65 36 66 37 67
REMARK SMILES IDX 63 68 64 69 72 70 65 71 71 72 73 73 70 74 66 75 67 76 68 77
REMARK SMILES IDX 69 78 48 79 49 80 57 81 50 82 56 83 58 84 55 85 51 86 52 87
REMARK SMILES IDX 53 88 54 89
REMARK H PARENT 15 6 5 12 19 23 78 42 46 53
REMARK Flexibility Score: inf
ROOT
ATOM      1  C   UNL A   1      35.928  21.621  24.308  1.00  0.00     0.042 C 
ENDROOT
BRANCH   1   2
ATOM      2  C   UNL A   1      34.610  21.011  24.767  1.00  0.00     0.117 C 
BRANCH   2   3
ATOM      3  N   UNL A   1      33.521  21.960  24.743  1.00  0.00    -0.356 N 
ATOM      4  O   UNL A   1      31.832  20.523  25.353  1.00  0.00    -0.275 OA
ATOM      5  C   UNL A   1      32.220  21.650  25.055  1.00  0.00     0.225 C 
ATOM      6  H   UNL A   1      33.724  22.889  24.485  1.00  0.00     0.163 HD
BRANCH   5   7
ATOM      7  C   UNL A   1      31.269  22.830  24.960  1.00  0.00     0.161 C 
BRANCH   7   8
ATOM      8  C   UNL A   1      31.575  23.716  23.749  1.00  0.00     0.272 C 
BRANCH   8   9
ATOM      9  N   UNL A   1      31.795  25.128  24.117  1.00  0.00    -0.330 N 
ATOM     10  C   UNL A   1      33.144  25.604  23.746  1.00  0.00     0.267 C 
ATOM     11  C   UNL A   1      31.410  25.403  25.518  1.00  0.00     0.299 C 
ATOM     12  H   UNL A   1      31.160  25.694  23.553  1.00  0.00     0.348 HD
ATOM     13  C   UNL A   1      34.085  25.970  24.899  1.00  0.00     0.097 C 
ATOM     14  C   UNL A   1      32.024  26.659  26.093  1.00  0.00     0.010 A 
ATOM     15  C   UNL A   1      33.378  26.919  25.823  1.00  0.00    -0.034 A 
ATOM     16  C   UNL A   1      31.321  27.509  26.952  1.00  0.00     0.010 A 
ATOM     17  C   UNL A   1      34.018  28.016  26.402  1.00  0.00     0.004 A 
ATOM     18  C   UNL A   1      31.958  28.615  27.517  1.00  0.00     0.001 A 
ATOM     19  C   UNL A   1      33.303  28.867  27.244  1.00  0.00     0.000 A 
ENDBRANCH   8   9
ENDBRANCH   7   8
ENDBRANCH   5   7
ENDBRANCH   2   3
ENDBRANCH   1   2
BRANCH   1  20
ATOM     20  C   UNL A   1      36.861  22.063  25.436  1.00  0.00     0.118 C 
BRANCH  20  21
ATOM     21  N   UNL A   1      37.935  21.118  25.700  1.00  0.00    -0.352 N 
ATOM     22  C   UNL A   1      39.216  21.318  26.152  1.00  0.00     0.251 C 
ATOM     23  H   UNL A   1      37.704  20.176  25.526  1.00  0.00     0.163 HD
ATOM     24  O   UNL A   1      39.994  20.361  26.160  1.00  0.00    -0.269 OA
BRANCH  22  25
ATOM     25  C   UNL A   1      39.690  22.652  26.595  1.00  0.00     0.039 A 
ATOM     26  C   UNL A   1      40.715  22.710  27.545  1.00  0.00     0.014 A 
ATOM     27  C   UNL A   1      39.124  23.841  26.126  1.00  0.00     0.014 A 
ATOM     28  C   UNL A   1      41.211  23.946  27.970  1.00  0.00     0.010 A 
ATOM     29  C   UNL A   1      39.671  25.074  26.493  1.00  0.00     0.010 A 
ATOM     30  C   UNL A   1      40.724  25.143  27.418  1.00  0.00    -0.014 A 
BRANCH  30  31
ATOM     31  C   UNL A   1      41.334  26.452  27.788  1.00  0.00     0.031 A 
ATOM     32  C   UNL A   1      42.745  26.793  27.388  1.00  0.00     0.074 A 
ATOM     33  C   UNL A   1      40.616  27.330  28.518  1.00  0.00     0.049 A 
ATOM     34  N   UNL A   1      43.430  27.886  27.616  1.00  0.00    -0.248 NA
ATOM     35  C   UNL A   1      43.495  25.760  26.658  1.00  0.00     0.031 C 
ATOM     36  C   UNL A   1      39.258  27.099  29.017  1.00  0.00     0.029 A 
ATOM     37  N   UNL A   1      40.921  28.593  28.965  1.00  0.00    -0.354 N 
ATOM     38  C   UNL A   1      44.690  27.673  27.063  1.00  0.00     0.074 A 
ATOM     39  C   UNL A   1      44.690  26.320  26.547  1.00  0.00     0.031 C 
ATOM     40  C   UNL A   1      38.833  28.196  29.662  1.00  0.00     0.029 A 
ATOM     41  C   UNL A   1      39.899  29.193  29.665  1.00  0.00     0.049 A 
ATOM     42  H   UNL A   1      41.788  29.028  28.799  1.00  0.00     0.167 HD
ATOM     43  C   UNL A   1      45.738  28.531  26.973  1.00  0.00     0.034 A 
ATOM     44  C   UNL A   1      39.824  30.407  30.245  1.00  0.00     0.034 A 
ATOM     45  C   UNL A   1      45.723  29.880  27.493  1.00  0.00     0.049 A 
ATOM     46  C   UNL A   1      41.002  31.341  30.136  1.00  0.00     0.074 A 
ATOM     47  C   UNL A   1      46.711  30.847  27.413  1.00  0.00     0.029 A 
ATOM     48  N   UNL A   1      44.671  30.455  28.197  1.00  0.00    -0.354 N 
ATOM     49  N   UNL A   1      42.163  31.144  29.556  1.00  0.00    -0.248 NA
ATOM     50  C   UNL A   1      40.848  32.668  30.743  1.00  0.00     0.031 C 
ATOM     51  C   UNL A   1      46.288  31.974  28.127  1.00  0.00     0.029 A 
ATOM     52  C   UNL A   1      44.999  31.748  28.581  1.00  0.00     0.049 A 
ATOM     53  H   UNL A   1      43.815  30.009  28.394  1.00  0.00     0.167 HD
ATOM     54  C   UNL A   1      42.866  32.338  29.702  1.00  0.00     0.074 A 
ATOM     55  C   UNL A   1      41.985  33.252  30.400  1.00  0.00     0.031 C 
ATOM     56  C   UNL A   1      44.124  32.650  29.295  1.00  0.00     0.034 A 
BRANCH  43  57
ATOM     57  C   UNL A   1      46.999  28.024  26.308  1.00  0.00     0.023 A 
ATOM     58  C   UNL A   1      47.226  28.185  24.929  1.00  0.00     0.031 A 
ATOM     59  C   UNL A   1      47.982  27.353  27.059  1.00  0.00     0.131 A 
ATOM     60  C   UNL A   1      48.362  27.619  24.332  1.00  0.00     0.055 A 
ATOM     61  C   UNL A   1      49.154  26.867  26.473  1.00  0.00     0.041 A 
ATOM     62  F   UNL A   1      47.817  27.149  28.375  1.00  0.00    -0.206 F 
ATOM     63  C   UNL A   1      49.342  26.985  25.100  1.00  0.00     0.022 A 
BRANCH  60  64
ATOM     64  S   UNL A   1      48.469  27.592  22.522  1.00  0.00     0.124 S 
ATOM     65  O   UNL A   1      48.580  26.160  22.254  1.00  0.00    -0.237 OA
ATOM     66  O   UNL A   1      47.217  28.223  22.122  1.00  0.00    -0.237 OA
ATOM     67  O   UNL A   1      49.677  28.365  22.238  1.00  0.00    -0.744 OA
ENDBRANCH  60  64
ENDBRANCH  43  57
BRANCH  44  68
ATOM     68  C   UNL A   1      38.592  30.820  30.979  1.00  0.00     0.023 A 
ATOM     69  C   UNL A   1      37.515  31.422  30.309  1.00  0.00     0.031 A 
ATOM     70  C   UNL A   1      38.494  30.662  32.373  1.00  0.00     0.131 A 
ATOM     71  C   UNL A   1      36.409  31.888  31.036  1.00  0.00     0.055 A 
ATOM     72  C   UNL A   1      37.367  31.075  33.086  1.00  0.00     0.041 A 
ATOM     73  F   UNL A   1      39.493  30.088  33.064  1.00  0.00    -0.206 F 
ATOM     74  C   UNL A   1      36.321  31.706  32.418  1.00  0.00     0.022 A 
BRANCH  71  75
ATOM     75  S   UNL A   1      35.124  32.822  30.161  1.00  0.00     0.124 S 
ATOM     76  O   UNL A   1      35.840  34.037  29.787  1.00  0.00    -0.237 OA
ATOM     77  O   UNL A   1      34.783  31.916  29.069  1.00  0.00    -0.237 OA
ATOM     78  O   UNL A   1      34.082  32.996  31.171  1.00  0.00    -0.744 OA
ENDBRANCH  71  75
ENDBRANCH  44  68
BRANCH  56  79
ATOM     79  C   UNL A   1      44.596  34.062  29.564  1.00  0.00     0.023 A 
ATOM     80  C   UNL A   1      44.350  35.111  28.661  1.00  0.00     0.031 A 
ATOM     81  C   UNL A   1      45.351  34.349  30.715  1.00  0.00     0.131 A 
ATOM     82  C   UNL A   1      44.927  36.373  28.877  1.00  0.00     0.055 A 
ATOM     83  C   UNL A   1      45.859  35.626  30.964  1.00  0.00     0.041 A 
ATOM     84  F   UNL A   1      45.622  33.388  31.614  1.00  0.00    -0.206 F 
ATOM     85  C   UNL A   1      45.665  36.641  30.032  1.00  0.00     0.022 A 
BRANCH  82  86
ATOM     86  S   UNL A   1      44.818  37.616  27.561  1.00  0.00     0.124 S 
ATOM     87  O   UNL A   1      43.581  37.235  26.885  1.00  0.00    -0.237 OA
ATOM     88  O   UNL A   1      44.772  38.865  28.315  1.00  0.00    -0.237 OA
ATOM     89  O   UNL A   1      46.039  37.404  26.787  1.00  0.00    -0.744 OA
ENDBRANCH  82  86
ENDBRANCH  56  79
ENDBRANCH  30  31
ENDBRANCH  22  25
ENDBRANCH  20  21
ENDBRANCH   1  20
TORSDOF 15
ENDMDL
