MODEL 1
REMARK VINA RESULT:     -11.6      0.000      0.000
REMARK SMILES O=C(CSc1nnnn1C1CC1)N[C@H](CO)C(=O)NCCCNC(=O)c1ccc(-c2c3nc(c(-c4cc(S(=O)(=O)[O-])ccc4F)c4ccc([nH]4)c(-c4cc(S(=O)(=O)[O-])ccc4F)c4nc(c(-c5cc(S(=O)(=O)[O-])ccc5F)c5ccc2[nH]5)C=C4)C=C3)cc1
REMARK SMILES IDX 20 1 19 2 17 3 18 4 14 6 13 7 1 8 2 9 3 11 4 12 5 13 6 14
REMARK SMILES IDX 9 15 7 16 8 17 10 18 11 19 12 20 15 21 16 22 21 24 22 25
REMARK SMILES IDX 23 26 24 27 25 29 26 30 27 31 88 32 28 33 87 34 29 35 30 36
REMARK SMILES IDX 31 37 81 38 32 39 86 40 80 41 82 42 33 43 85 44 79 45 78 46
REMARK SMILES IDX 34 48 66 49 46 50 65 51 47 52 50 53 64 54 83 55 48 56 49 57
REMARK SMILES IDX 63 59 84 60 51 61 35 62 36 63 44 64 37 65 43 66 45 67 42 68
REMARK SMILES IDX 38 69 39 70 40 71 41 72 67 73 68 74 76 75 69 76 75 77 77 78
REMARK SMILES IDX 74 79 70 80 71 81 72 82 73 83 52 84 53 85 61 86 54 87 60 88
REMARK SMILES IDX 62 89 59 90 55 91 56 92 57 93 58 94
REMARK H PARENT 19 5 13 10 16 23 23 28 82 47 50 58
REMARK Flexibility Score: inf
ROOT
ATOM      1  C   UNL A   1      33.072  29.783  25.854  1.00  0.00     0.117 C 
ENDROOT
BRANCH   1   2
ATOM      2  N   UNL A   1      33.870  29.318  24.740  1.00  0.00    -0.354 N 
ATOM      3  C   UNL A   1      33.351  28.832  23.567  1.00  0.00     0.244 C 
ATOM      4  O   UNL A   1      33.853  29.202  22.503  1.00  0.00    -0.273 OA
ATOM      5  H   UNL A   1      34.850  29.351  24.830  1.00  0.00     0.163 HD
BRANCH   3   6
ATOM      6  C   UNL A   1      32.108  27.920  23.576  1.00  0.00     0.197 C 
BRANCH   6   7
ATOM      7  N   UNL A   1      32.410  26.475  23.688  1.00  0.00    -0.342 N 
ATOM      8  O   UNL A   1      33.674  26.203  21.802  1.00  0.00    -0.274 OA
ATOM      9  C   UNL A   1      33.060  25.711  22.746  1.00  0.00     0.231 C 
ATOM     10  H   UNL A   1      32.119  26.019  24.510  1.00  0.00     0.164 HD
BRANCH   9  11
ATOM     11  C   UNL A   1      32.895  24.202  22.877  1.00  0.00     0.178 C 
BRANCH  11  12
ATOM     12  S   UNL A   1      31.234  23.662  23.335  1.00  0.00    -0.075 SA
BRANCH  12  13
ATOM     13  C   UNL A   1      31.280  23.719  25.057  1.00  0.00     0.210 A 
ATOM     14  N   UNL A   1      30.772  24.683  25.794  1.00  0.00    -0.102 NA
ATOM     15  N   UNL A   1      31.776  22.744  25.889  1.00  0.00    -0.217 N 
ATOM     16  N   UNL A   1      30.918  24.276  27.098  1.00  0.00    -0.023 NA
ATOM     17  N   UNL A   1      31.482  23.078  27.163  1.00  0.00    -0.044 NA
BRANCH  15  18
ATOM     18  C   UNL A   1      32.325  21.441  25.598  1.00  0.00     0.112 C 
ATOM     19  C   UNL A   1      33.580  21.134  24.800  1.00  0.00     0.029 C 
ATOM     20  C   UNL A   1      33.529  20.823  26.260  1.00  0.00     0.029 C 
ENDBRANCH  15  18
ENDBRANCH  12  13
ENDBRANCH  11  12
ENDBRANCH   9  11
ENDBRANCH   6   7
BRANCH   6  21
ATOM     21  C   UNL A   1      31.076  28.394  22.539  1.00  0.00     0.191 C 
BRANCH  21  22
ATOM     22  O   UNL A   1      30.309  29.487  23.047  1.00  0.00    -0.394 OA
ATOM     23  H   UNL A   1      29.669  29.157  23.697  1.00  0.00     0.210 HD
ENDBRANCH  21  22
ENDBRANCH   6  21
ENDBRANCH   3   6
ENDBRANCH   1   2
BRANCH   1  24
ATOM     24  C   UNL A   1      33.424  29.242  27.237  1.00  0.00     0.042 C 
BRANCH  24  25
ATOM     25  C   UNL A   1      34.930  29.236  27.490  1.00  0.00     0.118 C 
BRANCH  25  26
ATOM     26  N   UNL A   1      35.346  30.084  28.615  1.00  0.00    -0.352 N 
ATOM     27  C   UNL A   1      36.542  30.042  29.325  1.00  0.00     0.251 C 
ATOM     28  H   UNL A   1      34.698  30.768  28.902  1.00  0.00     0.163 HD
ATOM     29  O   UNL A   1      36.683  30.649  30.368  1.00  0.00    -0.269 OA
BRANCH  27  30
ATOM     30  C   UNL A   1      37.614  29.185  28.785  1.00  0.00     0.039 A 
ATOM     31  C   UNL A   1      38.314  29.583  27.646  1.00  0.00     0.014 A 
ATOM     32  C   UNL A   1      38.064  28.141  29.581  1.00  0.00     0.014 A 
ATOM     33  C   UNL A   1      39.572  29.029  27.411  1.00  0.00     0.010 A 
ATOM     34  C   UNL A   1      39.366  27.710  29.423  1.00  0.00     0.010 A 
ATOM     35  C   UNL A   1      40.143  28.148  28.347  1.00  0.00    -0.014 A 
BRANCH  35  36
ATOM     36  C   UNL A   1      41.579  27.822  28.265  1.00  0.00     0.031 A 
ATOM     37  C   UNL A   1      41.949  26.583  27.505  1.00  0.00     0.074 A 
ATOM     38  C   UNL A   1      42.593  28.625  28.660  1.00  0.00     0.049 A 
ATOM     39  N   UNL A   1      42.457  25.494  27.981  1.00  0.00    -0.248 NA
ATOM     40  C   UNL A   1      41.652  26.507  26.067  1.00  0.00     0.031 C 
ATOM     41  C   UNL A   1      42.545  29.988  29.197  1.00  0.00     0.029 A 
ATOM     42  N   UNL A   1      43.935  28.390  28.572  1.00  0.00    -0.354 N 
ATOM     43  C   UNL A   1      42.727  24.661  26.897  1.00  0.00     0.074 A 
ATOM     44  C   UNL A   1      42.090  25.281  25.764  1.00  0.00     0.031 C 
ATOM     45  C   UNL A   1      43.775  30.542  29.155  1.00  0.00     0.029 A 
ATOM     46  C   UNL A   1      44.724  29.507  28.801  1.00  0.00     0.049 A 
ATOM     47  H   UNL A   1      44.310  27.504  28.364  1.00  0.00     0.167 HD
ATOM     48  C   UNL A   1      43.591  23.608  26.998  1.00  0.00     0.034 A 
ATOM     49  C   UNL A   1      46.074  29.596  28.764  1.00  0.00     0.034 A 
ATOM     50  C   UNL A   1      43.854  23.277  28.380  1.00  0.00     0.049 A 
ATOM     51  C   UNL A   1      46.600  28.242  29.041  1.00  0.00     0.074 A 
ATOM     52  C   UNL A   1      43.066  22.905  29.453  1.00  0.00     0.029 A 
ATOM     53  N   UNL A   1      45.048  23.680  28.934  1.00  0.00    -0.354 N 
ATOM     54  N   UNL A   1      46.419  27.626  30.179  1.00  0.00    -0.248 NA
ATOM     55  C   UNL A   1      46.940  27.382  27.921  1.00  0.00     0.031 C 
ATOM     56  C   UNL A   1      43.613  23.614  30.566  1.00  0.00     0.029 A 
ATOM     57  C   UNL A   1      44.739  24.308  30.116  1.00  0.00     0.049 A 
ATOM     58  H   UNL A   1      45.947  23.544  28.557  1.00  0.00     0.167 HD
ATOM     59  C   UNL A   1      46.191  26.303  29.838  1.00  0.00     0.074 A 
ATOM     60  C   UNL A   1      46.639  26.194  28.452  1.00  0.00     0.031 C 
ATOM     61  C   UNL A   1      45.418  25.488  30.617  1.00  0.00     0.034 A 
BRANCH  48  62
ATOM     62  C   UNL A   1      44.433  23.034  25.876  1.00  0.00     0.023 A 
ATOM     63  C   UNL A   1      44.399  21.637  25.665  1.00  0.00     0.031 A 
ATOM     64  C   UNL A   1      45.455  23.730  25.196  1.00  0.00     0.131 A 
ATOM     65  C   UNL A   1      45.380  20.994  24.885  1.00  0.00     0.055 A 
ATOM     66  C   UNL A   1      46.387  23.094  24.367  1.00  0.00     0.041 A 
ATOM     67  F   UNL A   1      45.669  25.039  25.369  1.00  0.00    -0.206 F 
ATOM     68  C   UNL A   1      46.372  21.717  24.229  1.00  0.00     0.022 A 
BRANCH  65  69
ATOM     69  S   UNL A   1      45.450  19.180  24.892  1.00  0.00     0.124 S 
ATOM     70  O   UNL A   1      44.186  18.835  25.534  1.00  0.00    -0.237 OA
ATOM     71  O   UNL A   1      45.553  18.877  23.469  1.00  0.00    -0.237 OA
ATOM     72  O   UNL A   1      46.646  18.891  25.680  1.00  0.00    -0.744 OA
ENDBRANCH  65  69
ENDBRANCH  48  62
BRANCH  49  73
ATOM     73  C   UNL A   1      46.866  30.724  28.222  1.00  0.00     0.023 A 
ATOM     74  C   UNL A   1      46.323  31.679  27.343  1.00  0.00     0.031 A 
ATOM     75  C   UNL A   1      48.142  31.002  28.765  1.00  0.00     0.131 A 
ATOM     76  C   UNL A   1      47.047  32.854  27.043  1.00  0.00     0.055 A 
ATOM     77  C   UNL A   1      48.855  32.163  28.460  1.00  0.00     0.041 A 
ATOM     78  F   UNL A   1      48.702  30.188  29.673  1.00  0.00    -0.206 F 
ATOM     79  C   UNL A   1      48.304  33.101  27.603  1.00  0.00     0.022 A 
BRANCH  76  80
ATOM     80  S   UNL A   1      46.305  34.134  25.983  1.00  0.00     0.124 S 
ATOM     81  O   UNL A   1      45.328  33.371  25.216  1.00  0.00    -0.237 OA
ATOM     82  O   UNL A   1      45.771  35.076  26.959  1.00  0.00    -0.237 OA
ATOM     83  O   UNL A   1      47.442  34.635  25.209  1.00  0.00    -0.744 OA
ENDBRANCH  76  80
ENDBRANCH  49  73
BRANCH  61  84
ATOM     84  C   UNL A   1      45.046  25.951  32.014  1.00  0.00     0.023 A 
ATOM     85  C   UNL A   1      43.909  26.730  32.332  1.00  0.00     0.031 A 
ATOM     86  C   UNL A   1      45.815  25.459  33.084  1.00  0.00     0.131 A 
ATOM     87  C   UNL A   1      43.588  26.995  33.679  1.00  0.00     0.055 A 
ATOM     88  C   UNL A   1      45.484  25.707  34.416  1.00  0.00     0.041 A 
ATOM     89  F   UNL A   1      46.892  24.689  32.852  1.00  0.00    -0.206 F 
ATOM     90  C   UNL A   1      44.370  26.481  34.718  1.00  0.00     0.022 A 
BRANCH  87  91
ATOM     91  S   UNL A   1      42.145  28.024  34.105  1.00  0.00     0.124 S 
ATOM     92  O   UNL A   1      42.500  28.596  35.399  1.00  0.00    -0.237 OA
ATOM     93  O   UNL A   1      42.081  28.963  32.988  1.00  0.00    -0.237 OA
ATOM     94  O   UNL A   1      41.042  27.061  34.151  1.00  0.00    -0.744 OA
ENDBRANCH  87  91
ENDBRANCH  61  84
ENDBRANCH  35  36
ENDBRANCH  27  30
ENDBRANCH  25  26
ENDBRANCH  24  25
ENDBRANCH   1  24
TORSDOF 20
ENDMDL
MODEL 2
REMARK VINA RESULT:     -11.2      1.702      2.076
REMARK SMILES O=C(CSc1nnnn1C1CC1)N[C@H](CO)C(=O)NCCCNC(=O)c1ccc(-c2c3nc(c(-c4cc(S(=O)(=O)[O-])ccc4F)c4ccc([nH]4)c(-c4cc(S(=O)(=O)[O-])ccc4F)c4nc(c(-c5cc(S(=O)(=O)[O-])ccc5F)c5ccc2[nH]5)C=C4)C=C3)cc1
REMARK SMILES IDX 20 1 19 2 17 3 18 4 14 6 13 7 1 8 2 9 3 11 4 12 5 13 6 14
REMARK SMILES IDX 9 15 7 16 8 17 10 18 11 19 12 20 15 21 16 22 21 24 22 25
REMARK SMILES IDX 23 26 24 27 25 29 26 30 27 31 88 32 28 33 87 34 29 35 30 36
REMARK SMILES IDX 31 37 81 38 32 39 86 40 80 41 82 42 33 43 85 44 79 45 78 46
REMARK SMILES IDX 34 48 66 49 46 50 65 51 47 52 50 53 64 54 83 55 48 56 49 57
REMARK SMILES IDX 63 59 84 60 51 61 35 62 36 63 44 64 37 65 43 66 45 67 42 68
REMARK SMILES IDX 38 69 39 70 40 71 41 72 67 73 68 74 76 75 69 76 75 77 77 78
REMARK SMILES IDX 74 79 70 80 71 81 72 82 73 83 52 84 53 85 61 86 54 87 60 88
REMARK SMILES IDX 62 89 59 90 55 91 56 92 57 93 58 94
REMARK H PARENT 19 5 13 10 16 23 23 28 82 47 50 58
REMARK Flexibility Score: inf
ROOT
ATOM      1  C   UNL A   1      32.915  29.709  25.848  1.00  0.00     0.117 C 
ENDROOT
BRANCH   1   2
ATOM      2  N   UNL A   1      33.586  29.257  24.648  1.00  0.00    -0.354 N 
ATOM      3  C   UNL A   1      32.946  28.726  23.557  1.00  0.00     0.244 C 
ATOM      4  O   UNL A   1      33.293  29.097  22.433  1.00  0.00    -0.273 OA
ATOM      5  H   UNL A   1      34.567  29.335  24.613  1.00  0.00     0.163 HD
BRANCH   3   6
ATOM      6  C   UNL A   1      31.757  27.762  23.735  1.00  0.00     0.197 C 
BRANCH   6   7
ATOM      7  N   UNL A   1      32.073  26.342  23.453  1.00  0.00    -0.342 N 
ATOM      8  O   UNL A   1      34.076  26.175  24.543  1.00  0.00    -0.274 OA
ATOM      9  C   UNL A   1      33.246  25.698  23.772  1.00  0.00     0.231 C 
ATOM     10  H   UNL A   1      31.381  25.812  22.997  1.00  0.00     0.164 HD
BRANCH   9  11
ATOM     11  C   UNL A   1      33.514  24.392  23.035  1.00  0.00     0.178 C 
BRANCH  11  12
ATOM     12  S   UNL A   1      32.527  22.990  23.599  1.00  0.00    -0.075 SA
BRANCH  12  13
ATOM     13  C   UNL A   1      33.721  21.913  24.217  1.00  0.00     0.210 A 
ATOM     14  N   UNL A   1      34.881  22.278  24.720  1.00  0.00    -0.102 NA
ATOM     15  N   UNL A   1      33.599  20.549  24.340  1.00  0.00    -0.217 N 
ATOM     16  N   UNL A   1      35.462  21.129  25.200  1.00  0.00    -0.023 NA
ATOM     17  N   UNL A   1      34.669  20.082  25.017  1.00  0.00    -0.044 NA
BRANCH  15  18
ATOM     18  C   UNL A   1      32.490  19.669  24.059  1.00  0.00     0.112 C 
ATOM     19  C   UNL A   1      32.336  18.746  22.861  1.00  0.00     0.029 C 
ATOM     20  C   UNL A   1      32.486  18.172  24.232  1.00  0.00     0.029 C 
ENDBRANCH  15  18
ENDBRANCH  12  13
ENDBRANCH  11  12
ENDBRANCH   9  11
ENDBRANCH   6   7
BRANCH   6  21
ATOM     21  C   UNL A   1      30.468  28.372  23.163  1.00  0.00     0.191 C 
BRANCH  21  22
ATOM     22  O   UNL A   1      30.601  28.620  21.762  1.00  0.00    -0.394 OA
ATOM     23  H   UNL A   1      29.725  28.604  21.346  1.00  0.00     0.210 HD
ENDBRANCH  21  22
ENDBRANCH   6  21
ENDBRANCH   3   6
ENDBRANCH   1   2
BRANCH   1  24
ATOM     24  C   UNL A   1      33.383  29.117  27.173  1.00  0.00     0.042 C 
BRANCH  24  25
ATOM     25  C   UNL A   1      34.894  29.244  27.362  1.00  0.00     0.118 C 
BRANCH  25  26
ATOM     26  N   UNL A   1      35.281  30.090  28.499  1.00  0.00    -0.352 N 
ATOM     27  C   UNL A   1      36.459  30.047  29.238  1.00  0.00     0.251 C 
ATOM     28  H   UNL A   1      34.626  30.773  28.771  1.00  0.00     0.163 HD
ATOM     29  O   UNL A   1      36.573  30.652  30.285  1.00  0.00    -0.269 OA
BRANCH  27  30
ATOM     30  C   UNL A   1      37.544  29.192  28.723  1.00  0.00     0.039 A 
ATOM     31  C   UNL A   1      38.283  29.600  27.613  1.00  0.00     0.014 A 
ATOM     32  C   UNL A   1      37.964  28.136  29.520  1.00  0.00     0.014 A 
ATOM     33  C   UNL A   1      39.546  29.043  27.412  1.00  0.00     0.010 A 
ATOM     34  C   UNL A   1      39.269  27.701  29.400  1.00  0.00     0.010 A 
ATOM     35  C   UNL A   1      40.082  28.149  28.356  1.00  0.00    -0.014 A 
BRANCH  35  36
ATOM     36  C   UNL A   1      41.519  27.817  28.317  1.00  0.00     0.031 A 
ATOM     37  C   UNL A   1      41.910  26.598  27.536  1.00  0.00     0.074 A 
ATOM     38  C   UNL A   1      42.521  28.603  28.772  1.00  0.00     0.049 A 
ATOM     39  N   UNL A   1      42.396  25.493  27.999  1.00  0.00    -0.248 NA
ATOM     40  C   UNL A   1      41.667  26.565  26.086  1.00  0.00     0.031 C 
ATOM     41  C   UNL A   1      42.459  29.950  29.345  1.00  0.00     0.029 A 
ATOM     42  N   UNL A   1      43.865  28.362  28.726  1.00  0.00    -0.354 N 
ATOM     43  C   UNL A   1      42.702  24.689  26.902  1.00  0.00     0.074 A 
ATOM     44  C   UNL A   1      42.110  25.346  25.764  1.00  0.00     0.031 C 
ATOM     45  C   UNL A   1      43.693  30.498  29.364  1.00  0.00     0.029 A 
ATOM     46  C   UNL A   1      44.650  29.468  29.015  1.00  0.00     0.049 A 
ATOM     47  H   UNL A   1      44.243  27.480  28.507  1.00  0.00     0.167 HD
ATOM     48  C   UNL A   1      43.557  23.629  27.004  1.00  0.00     0.034 A 
ATOM     49  C   UNL A   1      46.001  29.550  29.031  1.00  0.00     0.034 A 
ATOM     50  C   UNL A   1      43.767  23.258  28.384  1.00  0.00     0.049 A 
ATOM     51  C   UNL A   1      46.510  28.186  29.287  1.00  0.00     0.074 A 
ATOM     52  C   UNL A   1      42.939  22.860  29.417  1.00  0.00     0.029 A 
ATOM     53  N   UNL A   1      44.942  23.638  28.993  1.00  0.00    -0.354 N 
ATOM     54  N   UNL A   1      46.285  27.539  30.399  1.00  0.00    -0.248 NA
ATOM     55  C   UNL A   1      46.887  27.357  28.156  1.00  0.00     0.031 C 
ATOM     56  C   UNL A   1      43.448  23.533  30.569  1.00  0.00     0.029 A 
ATOM     57  C   UNL A   1      44.593  24.234  30.180  1.00  0.00     0.049 A 
ATOM     58  H   UNL A   1      45.853  23.508  28.645  1.00  0.00     0.167 HD
ATOM     59  C   UNL A   1      46.063  26.228  30.013  1.00  0.00     0.074 A 
ATOM     60  C   UNL A   1      46.562  26.156  28.642  1.00  0.00     0.031 C 
ATOM     61  C   UNL A   1      45.258  25.396  30.739  1.00  0.00     0.034 A 
BRANCH  48  62
ATOM     62  C   UNL A   1      44.436  23.083  25.898  1.00  0.00     0.023 A 
ATOM     63  C   UNL A   1      44.385  21.697  25.628  1.00  0.00     0.031 A 
ATOM     64  C   UNL A   1      45.501  23.783  25.292  1.00  0.00     0.131 A 
ATOM     65  C   UNL A   1      45.386  21.065  24.866  1.00  0.00     0.055 A 
ATOM     66  C   UNL A   1      46.457  23.161  24.480  1.00  0.00     0.041 A 
ATOM     67  F   UNL A   1      45.733  25.079  25.528  1.00  0.00    -0.206 F 
ATOM     68  C   UNL A   1      46.421  21.791  24.284  1.00  0.00     0.022 A 
BRANCH  65  69
ATOM     69  S   UNL A   1      45.420  19.251  24.802  1.00  0.00     0.124 S 
ATOM     70  O   UNL A   1      45.257  18.999  23.373  1.00  0.00    -0.237 OA
ATOM     71  O   UNL A   1      46.733  18.954  25.363  1.00  0.00    -0.237 OA
ATOM     72  O   UNL A   1      44.284  18.862  25.634  1.00  0.00    -0.744 OA
ENDBRANCH  65  69
ENDBRANCH  48  62
BRANCH  49  73
ATOM     73  C   UNL A   1      46.817  30.689  28.550  1.00  0.00     0.023 A 
ATOM     74  C   UNL A   1      47.952  31.154  29.239  1.00  0.00     0.031 A 
ATOM     75  C   UNL A   1      46.603  31.196  27.247  1.00  0.00     0.131 A 
ATOM     76  C   UNL A   1      48.820  32.083  28.622  1.00  0.00     0.055 A 
ATOM     77  C   UNL A   1      47.463  32.117  26.645  1.00  0.00     0.041 A 
ATOM     78  F   UNL A   1      45.593  30.748  26.485  1.00  0.00    -0.206 F 
ATOM     79  C   UNL A   1      48.583  32.558  27.329  1.00  0.00     0.022 A 
BRANCH  76  80
ATOM     80  S   UNL A   1      50.339  32.611  29.474  1.00  0.00     0.124 S 
ATOM     81  O   UNL A   1      49.886  33.783  30.215  1.00  0.00    -0.237 OA
ATOM     82  O   UNL A   1      50.678  31.434  30.266  1.00  0.00    -0.237 OA
ATOM     83  O   UNL A   1      51.264  32.895  28.375  1.00  0.00    -0.744 OA
ENDBRANCH  76  80
ENDBRANCH  49  73
BRANCH  61  84
ATOM     84  C   UNL A   1      44.837  25.820  32.135  1.00  0.00     0.023 A 
ATOM     85  C   UNL A   1      43.759  26.689  32.425  1.00  0.00     0.031 A 
ATOM     86  C   UNL A   1      45.484  25.203  33.221  1.00  0.00     0.131 A 
ATOM     87  C   UNL A   1      43.373  26.914  33.762  1.00  0.00     0.055 A 
ATOM     88  C   UNL A   1      45.088  25.413  34.541  1.00  0.00     0.041 A 
ATOM     89  F   UNL A   1      46.497  24.345  33.013  1.00  0.00    -0.206 F 
ATOM     90  C   UNL A   1      44.032  26.275  34.818  1.00  0.00     0.022 A 
BRANCH  87  91
ATOM     91  S   UNL A   1      42.007  28.055  34.156  1.00  0.00     0.124 S 
ATOM     92  O   UNL A   1      40.841  27.182  34.229  1.00  0.00    -0.237 OA
ATOM     93  O   UNL A   1      42.440  28.648  35.418  1.00  0.00    -0.237 OA
ATOM     94  O   UNL A   1      42.001  28.981  33.021  1.00  0.00    -0.744 OA
ENDBRANCH  87  91
ENDBRANCH  61  84
ENDBRANCH  35  36
ENDBRANCH  27  30
ENDBRANCH  25  26
ENDBRANCH  24  25
ENDBRANCH   1  24
TORSDOF 20
ENDMDL
MODEL 3
REMARK VINA RESULT:     -11.1      4.409     10.433
REMARK SMILES O=C(CSc1nnnn1C1CC1)N[C@H](CO)C(=O)NCCCNC(=O)c1ccc(-c2c3nc(c(-c4cc(S(=O)(=O)[O-])ccc4F)c4ccc([nH]4)c(-c4cc(S(=O)(=O)[O-])ccc4F)c4nc(c(-c5cc(S(=O)(=O)[O-])ccc5F)c5ccc2[nH]5)C=C4)C=C3)cc1
REMARK SMILES IDX 20 1 19 2 17 3 18 4 14 6 13 7 1 8 2 9 3 11 4 12 5 13 6 14
REMARK SMILES IDX 9 15 7 16 8 17 10 18 11 19 12 20 15 21 16 22 21 24 22 25
REMARK SMILES IDX 23 26 24 27 25 29 26 30 27 31 88 32 28 33 87 34 29 35 30 36
REMARK SMILES IDX 31 37 81 38 32 39 86 40 80 41 82 42 33 43 85 44 79 45 78 46
REMARK SMILES IDX 34 48 66 49 46 50 65 51 47 52 50 53 64 54 83 55 48 56 49 57
REMARK SMILES IDX 63 59 84 60 51 61 35 62 36 63 44 64 37 65 43 66 45 67 42 68
REMARK SMILES IDX 38 69 39 70 40 71 41 72 67 73 68 74 76 75 69 76 75 77 77 78
REMARK SMILES IDX 74 79 70 80 71 81 72 82 73 83 52 84 53 85 61 86 54 87 60 88
REMARK SMILES IDX 62 89 59 90 55 91 56 92 57 93 58 94
REMARK H PARENT 19 5 13 10 16 23 23 28 82 47 50 58
REMARK Flexibility Score: inf
ROOT
ATOM      1  C   UNL A   1      37.825  23.005  25.723  1.00  0.00     0.117 C 
ENDROOT
BRANCH   1   2
ATOM      2  N   UNL A   1      37.437  22.483  24.430  1.00  0.00    -0.354 N 
ATOM      3  C   UNL A   1      36.192  22.639  23.875  1.00  0.00     0.244 C 
ATOM      4  O   UNL A   1      36.113  22.943  22.682  1.00  0.00    -0.273 OA
ATOM      5  H   UNL A   1      38.110  21.982  23.915  1.00  0.00     0.163 HD
BRANCH   3   6
ATOM      6  C   UNL A   1      34.924  22.531  24.744  1.00  0.00     0.197 C 
BRANCH   6   7
ATOM      7  N   UNL A   1      34.455  23.819  25.305  1.00  0.00    -0.342 N 
ATOM      8  O   UNL A   1      33.344  24.644  23.485  1.00  0.00    -0.274 OA
ATOM      9  C   UNL A   1      33.812  24.816  24.608  1.00  0.00     0.231 C 
ATOM     10  H   UNL A   1      34.617  23.976  26.263  1.00  0.00     0.164 HD
BRANCH   9  11
ATOM     11  C   UNL A   1      33.796  26.190  25.266  1.00  0.00     0.178 C 
BRANCH  11  12
ATOM     12  S   UNL A   1      32.293  26.566  26.192  1.00  0.00    -0.075 SA
BRANCH  12  13
ATOM     13  C   UNL A   1      31.868  28.128  25.603  1.00  0.00     0.210 A 
ATOM     14  N   UNL A   1      31.032  28.361  24.614  1.00  0.00    -0.102 NA
ATOM     15  N   UNL A   1      32.277  29.332  26.126  1.00  0.00    -0.217 N 
ATOM     16  N   UNL A   1      30.889  29.727  24.556  1.00  0.00    -0.023 NA
ATOM     17  N   UNL A   1      31.603  30.321  25.501  1.00  0.00    -0.044 NA
BRANCH  15  18
ATOM     18  C   UNL A   1      33.087  29.636  27.280  1.00  0.00     0.112 C 
ATOM     19  C   UNL A   1      34.512  29.178  27.544  1.00  0.00     0.029 C 
ATOM     20  C   UNL A   1      34.222  30.626  27.325  1.00  0.00     0.029 C 
ENDBRANCH  15  18
ENDBRANCH  12  13
ENDBRANCH  11  12
ENDBRANCH   9  11
ENDBRANCH   6   7
BRANCH   6  21
ATOM     21  C   UNL A   1      34.991  21.295  25.656  1.00  0.00     0.191 C 
BRANCH  21  22
ATOM     22  O   UNL A   1      35.698  20.230  25.018  1.00  0.00    -0.394 OA
ATOM     23  H   UNL A   1      36.477  19.998  25.546  1.00  0.00     0.210 HD
ENDBRANCH  21  22
ENDBRANCH   6  21
ENDBRANCH   3   6
ENDBRANCH   1   2
BRANCH   1  24
ATOM     24  C   UNL A   1      39.109  22.456  26.338  1.00  0.00     0.042 C 
BRANCH  24  25
ATOM     25  C   UNL A   1      39.940  23.547  27.010  1.00  0.00     0.118 C 
BRANCH  25  26
ATOM     26  N   UNL A   1      41.000  24.097  26.153  1.00  0.00    -0.352 N 
ATOM     27  C   UNL A   1      41.288  25.433  25.894  1.00  0.00     0.251 C 
ATOM     28  H   UNL A   1      41.581  23.437  25.708  1.00  0.00     0.163 HD
ATOM     29  O   UNL A   1      42.048  25.758  25.005  1.00  0.00    -0.269 OA
BRANCH  27  30
ATOM     30  C   UNL A   1      40.585  26.441  26.710  1.00  0.00     0.039 A 
ATOM     31  C   UNL A   1      39.977  26.066  27.907  1.00  0.00     0.014 A 
ATOM     32  C   UNL A   1      40.781  27.778  26.389  1.00  0.00     0.014 A 
ATOM     33  C   UNL A   1      39.721  27.049  28.862  1.00  0.00     0.010 A 
ATOM     34  C   UNL A   1      40.663  28.718  27.393  1.00  0.00     0.010 A 
ATOM     35  C   UNL A   1      40.141  28.373  28.642  1.00  0.00    -0.014 A 
BRANCH  35  36
ATOM     36  C   UNL A   1      40.166  29.330  29.765  1.00  0.00     0.031 A 
ATOM     37  C   UNL A   1      38.892  30.069  30.051  1.00  0.00     0.074 A 
ATOM     38  C   UNL A   1      41.171  29.470  30.658  1.00  0.00     0.049 A 
ATOM     39  N   UNL A   1      38.672  31.335  29.909  1.00  0.00    -0.248 NA
ATOM     40  C   UNL A   1      37.702  29.313  30.468  1.00  0.00     0.031 C 
ATOM     41  C   UNL A   1      42.418  28.711  30.781  1.00  0.00     0.029 A 
ATOM     42  N   UNL A   1      41.228  30.309  31.734  1.00  0.00    -0.354 N 
ATOM     43  C   UNL A   1      37.388  31.583  30.392  1.00  0.00     0.074 A 
ATOM     44  C   UNL A   1      36.795  30.286  30.598  1.00  0.00     0.031 C 
ATOM     45  C   UNL A   1      42.983  28.946  31.985  1.00  0.00     0.029 A 
ATOM     46  C   UNL A   1      42.259  30.029  32.618  1.00  0.00     0.049 A 
ATOM     47  H   UNL A   1      40.593  31.048  31.871  1.00  0.00     0.167 HD
ATOM     48  C   UNL A   1      36.979  32.841  30.733  1.00  0.00     0.034 A 
ATOM     49  C   UNL A   1      42.560  30.663  33.776  1.00  0.00     0.034 A 
ATOM     50  C   UNL A   1      37.867  33.844  30.191  1.00  0.00     0.049 A 
ATOM     51  C   UNL A   1      42.027  32.037  33.662  1.00  0.00     0.074 A 
ATOM     52  C   UNL A   1      38.283  34.181  28.916  1.00  0.00     0.029 A 
ATOM     53  N   UNL A   1      38.777  34.438  31.035  1.00  0.00    -0.354 N 
ATOM     54  N   UNL A   1      42.462  32.900  32.783  1.00  0.00    -0.248 NA
ATOM     55  C   UNL A   1      40.714  32.326  34.212  1.00  0.00     0.031 C 
ATOM     56  C   UNL A   1      39.675  34.468  29.055  1.00  0.00     0.029 A 
ATOM     57  C   UNL A   1      39.998  34.361  30.410  1.00  0.00     0.049 A 
ATOM     58  H   UNL A   1      38.590  34.840  31.913  1.00  0.00     0.167 HD
ATOM     59  C   UNL A   1      41.332  33.573  32.351  1.00  0.00     0.074 A 
ATOM     60  C   UNL A   1      40.310  33.260  33.347  1.00  0.00     0.031 C 
ATOM     61  C   UNL A   1      41.252  34.101  31.093  1.00  0.00     0.034 A 
BRANCH  48  62
ATOM     62  C   UNL A   1      35.946  33.188  31.785  1.00  0.00     0.023 A 
ATOM     63  C   UNL A   1      34.809  33.926  31.384  1.00  0.00     0.031 A 
ATOM     64  C   UNL A   1      36.141  33.078  33.178  1.00  0.00     0.131 A 
ATOM     65  C   UNL A   1      33.985  34.566  32.330  1.00  0.00     0.055 A 
ATOM     66  C   UNL A   1      35.281  33.660  34.116  1.00  0.00     0.041 A 
ATOM     67  F   UNL A   1      37.221  32.489  33.706  1.00  0.00    -0.206 F 
ATOM     68  C   UNL A   1      34.211  34.432  33.697  1.00  0.00     0.022 A 
BRANCH  65  69
ATOM     69  S   UNL A   1      32.721  35.729  31.742  1.00  0.00     0.124 S 
ATOM     70  O   UNL A   1      31.582  35.385  32.586  1.00  0.00    -0.237 OA
ATOM     71  O   UNL A   1      33.352  37.017  32.004  1.00  0.00    -0.237 OA
ATOM     72  O   UNL A   1      32.574  35.383  30.330  1.00  0.00    -0.744 OA
ENDBRANCH  65  69
ENDBRANCH  48  62
BRANCH  49  73
ATOM     73  C   UNL A   1      43.018  30.027  35.033  1.00  0.00     0.023 A 
ATOM     74  C   UNL A   1      42.460  28.834  35.527  1.00  0.00     0.031 A 
ATOM     75  C   UNL A   1      44.201  30.489  35.655  1.00  0.00     0.131 A 
ATOM     76  C   UNL A   1      43.084  28.152  36.594  1.00  0.00     0.055 A 
ATOM     77  C   UNL A   1      44.811  29.813  36.713  1.00  0.00     0.041 A 
ATOM     78  F   UNL A   1      44.848  31.573  35.198  1.00  0.00    -0.206 F 
ATOM     79  C   UNL A   1      44.258  28.633  37.182  1.00  0.00     0.022 A 
BRANCH  76  80
ATOM     80  S   UNL A   1      42.418  26.559  37.170  1.00  0.00     0.124 S 
ATOM     81  O   UNL A   1      40.996  26.851  37.307  1.00  0.00    -0.237 OA
ATOM     82  O   UNL A   1      42.793  25.655  36.089  1.00  0.00    -0.237 OA
ATOM     83  O   UNL A   1      43.125  26.330  38.431  1.00  0.00    -0.744 OA
ENDBRANCH  76  80
ENDBRANCH  49  73
BRANCH  61  84
ATOM     84  C   UNL A   1      42.518  34.207  30.263  1.00  0.00     0.023 A 
ATOM     85  C   UNL A   1      42.890  33.308  29.237  1.00  0.00     0.031 A 
ATOM     86  C   UNL A   1      43.313  35.355  30.440  1.00  0.00     0.131 A 
ATOM     87  C   UNL A   1      44.024  33.573  28.441  1.00  0.00     0.055 A 
ATOM     88  C   UNL A   1      44.422  35.623  29.638  1.00  0.00     0.041 A 
ATOM     89  F   UNL A   1      42.998  36.263  31.378  1.00  0.00    -0.206 F 
ATOM     90  C   UNL A   1      44.785  34.729  28.637  1.00  0.00     0.022 A 
BRANCH  87  91
ATOM     91  S   UNL A   1      44.535  32.408  27.135  1.00  0.00     0.124 S 
ATOM     92  O   UNL A   1      43.957  32.975  25.922  1.00  0.00    -0.237 OA
ATOM     93  O   UNL A   1      45.992  32.446  27.226  1.00  0.00    -0.237 OA
ATOM     94  O   UNL A   1      43.935  31.140  27.557  1.00  0.00    -0.744 OA
ENDBRANCH  87  91
ENDBRANCH  61  84
ENDBRANCH  35  36
ENDBRANCH  27  30
ENDBRANCH  25  26
ENDBRANCH  24  25
ENDBRANCH   1  24
TORSDOF 20
ENDMDL
