MODEL 1
REMARK VINA RESULT:     -14.1      0.000      0.000
REMARK SMILES O=C(CNC(=O)[C@@H](CC1=c2ccccc2=NC1)N1C(=O)N=C2C=CC=C[C@H]2C1=O)NCCCNC(=O)c1ccc(-c2c3nc(c(-c4cc(S(=O)(=O)[O-])ccc4F)c4ccc([nH]4)c(-c4cc(S(=O)(=O)[O-])ccc4F)c4nc(c(-c5cc(S(=O)(=O)[O-])ccc5F)c5ccc2[nH]5)C=C4)C=C3)cc1
REMARK SMILES IDX 31 1 30 2 1 3 2 4 3 6 4 7 5 8 6 10 7 11 8 12 9 13 10 14
REMARK SMILES IDX 17 15 11 16 15 17 16 18 12 19 14 20 13 21 18 22 19 23 28 24
REMARK SMILES IDX 21 25 20 26 27 27 29 28 22 29 26 30 23 31 25 32 24 33 32 34
REMARK SMILES IDX 33 35 34 36 35 37 36 39 37 40 38 41 99 42 39 43 98 44 40 45
REMARK SMILES IDX 41 46 42 47 92 48 43 49 97 50 91 51 93 52 44 53 96 54 90 55
REMARK SMILES IDX 89 56 45 58 77 59 57 60 76 61 58 62 61 63 75 64 94 65 59 66
REMARK SMILES IDX 60 67 74 69 95 70 62 71 46 72 47 73 55 74 48 75 54 76 56 77
REMARK SMILES IDX 53 78 49 79 50 80 51 81 52 82 78 83 79 84 87 85 80 86 86 87
REMARK SMILES IDX 88 88 85 89 81 90 82 91 83 92 84 93 63 94 64 95 72 96 65 97
REMARK SMILES IDX 71 98 73 99 70 100 66 101 67 102 68 103 69 104
REMARK H PARENT 30 5 4 9 34 38 93 57 61 68
REMARK Flexibility Score: inf
ROOT
ATOM      1  C   UNL A   1      37.423  21.580  24.856  1.00  0.00     0.117 C 
ENDROOT
BRANCH   1   2
ATOM      2  N   UNL A   1      36.624  21.793  26.068  1.00  0.00    -0.355 N 
ATOM      3  O   UNL A   1      35.006  20.833  25.096  1.00  0.00    -0.273 OA
ATOM      4  C   UNL A   1      35.177  21.450  26.199  1.00  0.00     0.239 C 
ATOM      5  H   UNL A   1      37.073  22.190  26.849  1.00  0.00     0.163 HD
BRANCH   4   6
ATOM      6  C   UNL A   1      33.700  22.089  27.682  1.00  0.00     0.216 C 
BRANCH   6   7
ATOM      7  N   UNL A   1      32.150  22.549  27.685  1.00  0.00    -0.345 N 
ATOM      8  C   UNL A   1      31.281  23.198  26.888  1.00  0.00     0.244 C 
ATOM      9  H   UNL A   1      31.710  22.270  28.520  1.00  0.00     0.164 HD
ATOM     10  O   UNL A   1      30.119  23.215  27.339  1.00  0.00    -0.273 OA
BRANCH   8  11
ATOM     11  C   UNL A   1      31.537  23.923  25.548  1.00  0.00     0.188 C 
BRANCH  11  12
ATOM     12  C   UNL A   1      30.938  23.703  24.145  1.00  0.00     0.069 C 
BRANCH  12  13
ATOM     13  C   UNL A   1      31.623  24.363  23.018  1.00  0.00    -0.037 C 
ATOM     14  C   UNL A   1      31.369  25.601  22.625  1.00  0.00     0.001 A 
ATOM     15  C   UNL A   1      32.923  23.802  22.425  1.00  0.00     0.174 C 
ATOM     16  C   UNL A   1      30.250  27.074  22.977  1.00  0.00     0.010 A 
ATOM     17  C   UNL A   1      33.180  25.976  22.108  1.00  0.00     0.065 A 
ATOM     18  N   UNL A   1      33.886  24.900  22.023  1.00  0.00    -0.280 NA
ATOM     19  C   UNL A   1      30.789  28.553  22.830  1.00  0.00     0.001 A 
ATOM     20  C   UNL A   1      33.665  27.854  22.173  1.00  0.00     0.028 A 
ATOM     21  C   UNL A   1      32.560  28.960  22.405  1.00  0.00     0.002 A 
ENDBRANCH  12  13
ENDBRANCH  11  12
BRANCH  11  22
ATOM     22  N   UNL A   1      31.835  25.328  25.896  1.00  0.00    -0.249 N 
ATOM     23  C   UNL A   1      30.745  26.085  26.284  1.00  0.00     0.351 C 
ATOM     24  C   UNL A   1      33.137  25.799  25.948  1.00  0.00     0.244 C 
ATOM     25  N   UNL A   1      30.843  27.436  26.325  1.00  0.00    -0.197 NA
ATOM     26  O   UNL A   1      29.715  25.548  26.683  1.00  0.00    -0.246 OA
ATOM     27  C   UNL A   1      33.286  27.326  25.899  1.00  0.00     0.151 C 
ATOM     28  O   UNL A   1      34.113  25.046  25.940  1.00  0.00    -0.273 OA
ATOM     29  C   UNL A   1      31.988  28.019  26.243  1.00  0.00     0.062 C 
ATOM     30  C   UNL A   1      34.410  27.929  26.720  1.00  0.00    -0.007 C 
ATOM     31  C   UNL A   1      31.986  29.447  26.624  1.00  0.00     0.025 C 
ATOM     32  C   UNL A   1      34.292  29.120  27.334  1.00  0.00    -0.003 C 
ATOM     33  C   UNL A   1      33.083  29.903  27.234  1.00  0.00     0.002 C 
ENDBRANCH  11  22
ENDBRANCH   8  11
ENDBRANCH   6   7
ENDBRANCH   4   6
ENDBRANCH   1   2
BRANCH   1  34
ATOM     34  C   UNL A   1      38.322  20.353  24.994  1.00  0.00     0.042 C 
BRANCH  34  35
ATOM     35  C   UNL A   1      39.400  20.472  26.071  1.00  0.00     0.118 C 
BRANCH  35  36
ATOM     36  N   UNL A   1      40.378  19.391  26.047  1.00  0.00    -0.352 N 
ATOM     37  C   UNL A   1      41.751  19.422  26.129  1.00  0.00     0.251 C 
ATOM     38  H   UNL A   1      39.993  18.489  25.960  1.00  0.00     0.163 HD
ATOM     39  O   UNL A   1      42.385  18.382  25.968  1.00  0.00    -0.269 OA
BRANCH  37  40
ATOM     40  C   UNL A   1      42.460  20.700  26.358  1.00  0.00     0.039 A 
ATOM     41  C   UNL A   1      42.647  21.199  27.647  1.00  0.00     0.014 A 
ATOM     42  C   UNL A   1      42.922  21.424  25.256  1.00  0.00     0.014 A 
ATOM     43  C   UNL A   1      43.099  22.504  27.819  1.00  0.00     0.010 A 
ATOM     44  C   UNL A   1      43.470  22.698  25.441  1.00  0.00     0.010 A 
ATOM     45  C   UNL A   1      43.501  23.278  26.718  1.00  0.00    -0.014 A 
BRANCH  45  46
ATOM     46  C   UNL A   1      43.927  24.690  26.924  1.00  0.00     0.031 A 
ATOM     47  C   UNL A   1      42.959  25.721  27.445  1.00  0.00     0.074 A 
ATOM     48  C   UNL A   1      45.209  25.036  26.689  1.00  0.00     0.049 A 
ATOM     49  N   UNL A   1      43.170  26.984  27.719  1.00  0.00    -0.248 NA
ATOM     50  C   UNL A   1      41.573  25.286  27.684  1.00  0.00     0.031 C 
ATOM     51  C   UNL A   1      46.238  24.127  26.184  1.00  0.00     0.029 A 
ATOM     52  N   UNL A   1      45.872  26.227  26.859  1.00  0.00    -0.354 N 
ATOM     53  C   UNL A   1      41.949  27.494  28.148  1.00  0.00     0.074 A 
ATOM     54  C   UNL A   1      40.989  26.417  28.054  1.00  0.00     0.031 C 
ATOM     55  C   UNL A   1      47.409  24.774  26.135  1.00  0.00     0.029 A 
ATOM     56  C   UNL A   1      47.207  26.166  26.531  1.00  0.00     0.049 A 
ATOM     57  H   UNL A   1      45.434  27.045  27.186  1.00  0.00     0.167 HD
ATOM     58  C   UNL A   1      41.661  28.739  28.600  1.00  0.00     0.034 A 
ATOM     59  C   UNL A   1      48.163  27.119  26.532  1.00  0.00     0.034 A 
ATOM     60  C   UNL A   1      42.636  29.795  28.713  1.00  0.00     0.049 A 
ATOM     61  C   UNL A   1      47.809  28.506  27.004  1.00  0.00     0.074 A 
ATOM     62  C   UNL A   1      42.448  31.077  29.202  1.00  0.00     0.029 A 
ATOM     63  N   UNL A   1      43.969  29.704  28.341  1.00  0.00    -0.354 N 
ATOM     64  N   UNL A   1      46.665  28.951  27.470  1.00  0.00    -0.248 NA
ATOM     65  C   UNL A   1      48.871  29.520  26.963  1.00  0.00     0.031 C 
ATOM     66  C   UNL A   1      43.640  31.783  29.048  1.00  0.00     0.029 A 
ATOM     67  C   UNL A   1      44.603  30.919  28.553  1.00  0.00     0.049 A 
ATOM     68  H   UNL A   1      44.401  28.897  27.979  1.00  0.00     0.167 HD
ATOM     69  C   UNL A   1      46.876  30.289  27.794  1.00  0.00     0.074 A 
ATOM     70  C   UNL A   1      48.267  30.570  27.504  1.00  0.00     0.031 C 
ATOM     71  C   UNL A   1      45.994  31.198  28.281  1.00  0.00     0.034 A 
BRANCH  58  72
ATOM     72  C   UNL A   1      40.247  29.054  29.031  1.00  0.00     0.023 A 
ATOM     73  C   UNL A   1      39.897  28.987  30.394  1.00  0.00     0.031 A 
ATOM     74  C   UNL A   1      39.219  29.261  28.092  1.00  0.00     0.131 A 
ATOM     75  C   UNL A   1      38.552  29.076  30.774  1.00  0.00     0.055 A 
ATOM     76  C   UNL A   1      37.886  29.402  28.483  1.00  0.00     0.041 A 
ATOM     77  F   UNL A   1      39.496  29.327  26.780  1.00  0.00    -0.206 F 
ATOM     78  C   UNL A   1      37.545  29.293  29.828  1.00  0.00     0.022 A 
BRANCH  75  79
ATOM     79  S   UNL A   1      38.047  28.825  32.499  1.00  0.00     0.124 S 
ATOM     80  O   UNL A   1      36.679  29.338  32.488  1.00  0.00    -0.237 OA
ATOM     81  O   UNL A   1      38.167  27.377  32.643  1.00  0.00    -0.237 OA
ATOM     82  O   UNL A   1      39.001  29.617  33.264  1.00  0.00    -0.744 OA
ENDBRANCH  75  79
ENDBRANCH  58  72
BRANCH  59  83
ATOM     83  C   UNL A   1      49.546  26.757  26.104  1.00  0.00     0.023 A 
ATOM     84  C   UNL A   1      50.059  27.206  24.871  1.00  0.00     0.031 A 
ATOM     85  C   UNL A   1      50.328  25.867  26.857  1.00  0.00     0.131 A 
ATOM     86  C   UNL A   1      51.273  26.696  24.393  1.00  0.00     0.055 A 
ATOM     87  C   UNL A   1      51.578  25.427  26.415  1.00  0.00     0.041 A 
ATOM     88  F   UNL A   1      49.881  25.401  28.033  1.00  0.00    -0.206 F 
ATOM     89  C   UNL A   1      52.045  25.825  25.166  1.00  0.00     0.022 A 
BRANCH  86  90
ATOM     90  S   UNL A   1      51.809  27.023  22.690  1.00  0.00     0.124 S 
ATOM     91  O   UNL A   1      50.571  26.838  21.939  1.00  0.00    -0.237 OA
ATOM     92  O   UNL A   1      52.286  28.400  22.790  1.00  0.00    -0.237 OA
ATOM     93  O   UNL A   1      52.845  26.023  22.456  1.00  0.00    -0.744 OA
ENDBRANCH  86  90
ENDBRANCH  59  83
BRANCH  71  94
ATOM     94  C   UNL A   1      46.472  32.607  28.550  1.00  0.00     0.023 A 
ATOM     95  C   UNL A   1      46.658  33.503  27.478  1.00  0.00     0.031 A 
ATOM     96  C   UNL A   1      46.903  33.005  29.828  1.00  0.00     0.131 A 
ATOM     97  C   UNL A   1      47.308  34.726  27.693  1.00  0.00     0.055 A 
ATOM     98  C   UNL A   1      47.495  34.250  30.047  1.00  0.00     0.041 A 
ATOM     99  F   UNL A   1      46.762  32.185  30.881  1.00  0.00    -0.206 F 
ATOM    100  C   UNL A   1      47.717  35.109  28.975  1.00  0.00     0.022 A 
BRANCH  97 101
ATOM    101  S   UNL A   1      47.742  35.812  26.307  1.00  0.00     0.124 S 
ATOM    102  O   UNL A   1      47.709  34.887  25.176  1.00  0.00    -0.237 OA
ATOM    103  O   UNL A   1      46.662  36.795  26.338  1.00  0.00    -0.237 OA
ATOM    104  O   UNL A   1      49.064  36.319  26.655  1.00  0.00    -0.744 OA
ENDBRANCH  97 101
ENDBRANCH  71  94
ENDBRANCH  45  46
ENDBRANCH  37  40
ENDBRANCH  35  36
ENDBRANCH  34  35
ENDBRANCH   1  34
TORSDOF 18
ENDMDL
MODEL 2
REMARK VINA RESULT:     -14.0      0.464      7.419
REMARK SMILES O=C(CNC(=O)[C@@H](CC1=c2ccccc2=NC1)N1C(=O)N=C2C=CC=C[C@H]2C1=O)NCCCNC(=O)c1ccc(-c2c3nc(c(-c4cc(S(=O)(=O)[O-])ccc4F)c4ccc([nH]4)c(-c4cc(S(=O)(=O)[O-])ccc4F)c4nc(c(-c5cc(S(=O)(=O)[O-])ccc5F)c5ccc2[nH]5)C=C4)C=C3)cc1
REMARK SMILES IDX 31 1 30 2 1 3 2 4 3 6 4 7 5 8 6 10 7 11 8 12 9 13 10 14
REMARK SMILES IDX 17 15 11 16 15 17 16 18 12 19 14 20 13 21 18 22 19 23 28 24
REMARK SMILES IDX 21 25 20 26 27 27 29 28 22 29 26 30 23 31 25 32 24 33 32 34
REMARK SMILES IDX 33 35 34 36 35 37 36 39 37 40 38 41 99 42 39 43 98 44 40 45
REMARK SMILES IDX 41 46 42 47 92 48 43 49 97 50 91 51 93 52 44 53 96 54 90 55
REMARK SMILES IDX 89 56 45 58 77 59 57 60 76 61 58 62 61 63 75 64 94 65 59 66
REMARK SMILES IDX 60 67 74 69 95 70 62 71 46 72 47 73 55 74 48 75 54 76 56 77
REMARK SMILES IDX 53 78 49 79 50 80 51 81 52 82 78 83 79 84 87 85 80 86 86 87
REMARK SMILES IDX 88 88 85 89 81 90 82 91 83 92 84 93 63 94 64 95 72 96 65 97
REMARK SMILES IDX 71 98 73 99 70 100 66 101 67 102 68 103 69 104
REMARK H PARENT 30 5 4 9 34 38 93 57 61 68
REMARK Flexibility Score: inf
ROOT
ATOM      1  C   UNL A   1      37.251  21.641  24.783  1.00  0.00     0.117 C 
ENDROOT
BRANCH   1   2
ATOM      2  N   UNL A   1      36.473  21.913  25.997  1.00  0.00    -0.355 N 
ATOM      3  O   UNL A   1      34.899  20.761  25.173  1.00  0.00    -0.273 OA
ATOM      4  C   UNL A   1      35.057  21.488  26.209  1.00  0.00     0.239 C 
ATOM      5  H   UNL A   1      36.915  22.410  26.723  1.00  0.00     0.163 HD
BRANCH   4   6
ATOM      6  C   UNL A   1      33.582  22.164  27.677  1.00  0.00     0.216 C 
BRANCH   6   7
ATOM      7  N   UNL A   1      32.055  22.694  27.660  1.00  0.00    -0.345 N 
ATOM      8  C   UNL A   1      31.221  23.367  26.846  1.00  0.00     0.244 C 
ATOM      9  H   UNL A   1      31.597  22.452  28.497  1.00  0.00     0.164 HD
ATOM     10  O   UNL A   1      30.059  23.446  27.288  1.00  0.00    -0.273 OA
BRANCH   8  11
ATOM     11  C   UNL A   1      31.519  24.054  25.494  1.00  0.00     0.188 C 
BRANCH  11  12
ATOM     12  C   UNL A   1      30.799  23.970  24.133  1.00  0.00     0.069 C 
BRANCH  12  13
ATOM     13  C   UNL A   1      31.489  24.572  22.978  1.00  0.00    -0.037 C 
ATOM     14  C   UNL A   1      31.330  25.830  22.599  1.00  0.00     0.001 A 
ATOM     15  C   UNL A   1      32.704  23.900  22.325  1.00  0.00     0.174 C 
ATOM     16  C   UNL A   1      30.365  27.396  23.004  1.00  0.00     0.010 A 
ATOM     17  C   UNL A   1      33.142  26.044  22.000  1.00  0.00     0.065 A 
ATOM     18  N   UNL A   1      33.743  24.908  21.881  1.00  0.00    -0.280 NA
ATOM     19  C   UNL A   1      31.028  28.821  22.835  1.00  0.00     0.001 A 
ATOM     20  C   UNL A   1      33.797  27.870  22.045  1.00  0.00     0.028 A 
ATOM     21  C   UNL A   1      32.808  29.070  22.330  1.00  0.00     0.002 A 
ENDBRANCH  12  13
ENDBRANCH  11  12
BRANCH  11  22
ATOM     22  N   UNL A   1      32.093  25.374  25.826  1.00  0.00    -0.249 N 
ATOM     23  C   UNL A   1      33.467  25.470  25.703  1.00  0.00     0.351 C 
ATOM     24  C   UNL A   1      31.284  26.463  26.113  1.00  0.00     0.244 C 
ATOM     25  N   UNL A   1      34.122  26.513  26.266  1.00  0.00    -0.197 NA
ATOM     26  O   UNL A   1      34.093  24.673  25.010  1.00  0.00    -0.246 OA
ATOM     27  C   UNL A   1      31.977  27.624  26.839  1.00  0.00     0.151 C 
ATOM     28  O   UNL A   1      30.072  26.463  25.887  1.00  0.00    -0.273 OA
ATOM     29  C   UNL A   1      33.481  27.539  26.706  1.00  0.00     0.062 C 
ATOM     30  C   UNL A   1      31.521  29.024  26.478  1.00  0.00    -0.007 C 
ATOM     31  C   UNL A   1      34.320  28.721  26.990  1.00  0.00     0.025 C 
ATOM     32  C   UNL A   1      32.368  30.068  26.439  1.00  0.00    -0.003 C 
ATOM     33  C   UNL A   1      33.769  29.914  26.752  1.00  0.00     0.002 C 
ENDBRANCH  11  22
ENDBRANCH   8  11
ENDBRANCH   6   7
ENDBRANCH   4   6
ENDBRANCH   1   2
BRANCH   1  34
ATOM     34  C   UNL A   1      38.148  20.418  24.963  1.00  0.00     0.042 C 
BRANCH  34  35
ATOM     35  C   UNL A   1      39.305  20.617  25.942  1.00  0.00     0.118 C 
BRANCH  35  36
ATOM     36  N   UNL A   1      40.265  19.519  25.951  1.00  0.00    -0.352 N 
ATOM     37  C   UNL A   1      41.630  19.523  26.117  1.00  0.00     0.251 C 
ATOM     38  H   UNL A   1      39.870  18.627  25.817  1.00  0.00     0.163 HD
ATOM     39  O   UNL A   1      42.255  18.476  25.970  1.00  0.00    -0.269 OA
BRANCH  37  40
ATOM     40  C   UNL A   1      42.345  20.782  26.421  1.00  0.00     0.039 A 
ATOM     41  C   UNL A   1      42.639  21.145  27.736  1.00  0.00     0.014 A 
ATOM     42  C   UNL A   1      42.704  21.628  25.368  1.00  0.00     0.014 A 
ATOM     43  C   UNL A   1      43.092  22.431  28.008  1.00  0.00     0.010 A 
ATOM     44  C   UNL A   1      43.254  22.884  25.641  1.00  0.00     0.010 A 
ATOM     45  C   UNL A   1      43.391  23.325  26.966  1.00  0.00    -0.014 A 
BRANCH  45  46
ATOM     46  C   UNL A   1      43.821  24.715  27.286  1.00  0.00     0.031 A 
ATOM     47  C   UNL A   1      45.243  25.155  27.052  1.00  0.00     0.074 A 
ATOM     48  C   UNL A   1      42.913  25.601  27.742  1.00  0.00     0.049 A 
ATOM     49  N   UNL A   1      45.780  26.336  27.238  1.00  0.00    -0.248 NA
ATOM     50  C   UNL A   1      46.190  24.145  26.553  1.00  0.00     0.031 C 
ATOM     51  C   UNL A   1      41.508  25.292  28.007  1.00  0.00     0.029 A 
ATOM     52  N   UNL A   1      43.023  26.937  28.043  1.00  0.00    -0.354 N 
ATOM     53  C   UNL A   1      47.122  26.207  26.893  1.00  0.00     0.074 A 
ATOM     54  C   UNL A   1      47.330  24.823  26.531  1.00  0.00     0.031 C 
ATOM     55  C   UNL A   1      40.875  26.413  28.379  1.00  0.00     0.029 A 
ATOM     56  C   UNL A   1      41.840  27.507  28.455  1.00  0.00     0.049 A 
ATOM     57  H   UNL A   1      43.866  27.438  27.970  1.00  0.00     0.167 HD
ATOM     58  C   UNL A   1      48.085  27.160  26.859  1.00  0.00     0.034 A 
ATOM     59  C   UNL A   1      41.558  28.763  28.863  1.00  0.00     0.034 A 
ATOM     60  C   UNL A   1      47.855  28.543  27.198  1.00  0.00     0.049 A 
ATOM     61  C   UNL A   1      42.655  29.797  28.851  1.00  0.00     0.074 A 
ATOM     62  C   UNL A   1      48.758  29.591  27.152  1.00  0.00     0.029 A 
ATOM     63  N   UNL A   1      46.652  29.075  27.641  1.00  0.00    -0.354 N 
ATOM     64  N   UNL A   1      43.901  29.672  28.457  1.00  0.00    -0.248 NA
ATOM     65  C   UNL A   1      42.313  31.144  29.328  1.00  0.00     0.031 C 
ATOM     66  C   UNL A   1      48.129  30.733  27.643  1.00  0.00     0.029 A 
ATOM     67  C   UNL A   1      46.804  30.427  27.908  1.00  0.00     0.049 A 
ATOM     68  H   UNL A   1      45.816  28.567  27.750  1.00  0.00     0.167 HD
ATOM     69  C   UNL A   1      44.484  30.926  28.620  1.00  0.00     0.074 A 
ATOM     70  C   UNL A   1      43.444  31.803  29.117  1.00  0.00     0.031 C 
ATOM     71  C   UNL A   1      45.764  31.309  28.386  1.00  0.00     0.034 A 
BRANCH  58  72
ATOM     72  C   UNL A   1      49.482  26.777  26.429  1.00  0.00     0.023 A 
ATOM     73  C   UNL A   1      49.979  27.217  25.186  1.00  0.00     0.031 A 
ATOM     74  C   UNL A   1      50.253  25.856  27.163  1.00  0.00     0.131 A 
ATOM     75  C   UNL A   1      51.184  26.700  24.694  1.00  0.00     0.055 A 
ATOM     76  C   UNL A   1      51.479  25.385  26.690  1.00  0.00     0.041 A 
ATOM     77  F   UNL A   1      49.823  25.399  28.350  1.00  0.00    -0.206 F 
ATOM     78  C   UNL A   1      51.942  25.794  25.443  1.00  0.00     0.022 A 
BRANCH  75  79
ATOM     79  S   UNL A   1      51.770  27.113  23.028  1.00  0.00     0.124 S 
ATOM     80  O   UNL A   1      52.907  26.207  22.877  1.00  0.00    -0.237 OA
ATOM     81  O   UNL A   1      50.606  26.793  22.207  1.00  0.00    -0.237 OA
ATOM     82  O   UNL A   1      52.112  28.528  23.115  1.00  0.00    -0.744 OA
ENDBRANCH  75  79
ENDBRANCH  58  72
BRANCH  59  83
ATOM     83  C   UNL A   1      40.161  29.095  29.272  1.00  0.00     0.023 A 
ATOM     84  C   UNL A   1      39.797  29.119  30.631  1.00  0.00     0.031 A 
ATOM     85  C   UNL A   1      39.149  29.274  28.315  1.00  0.00     0.131 A 
ATOM     86  C   UNL A   1      38.447  29.231  30.990  1.00  0.00     0.055 A 
ATOM     87  C   UNL A   1      37.816  29.471  28.680  1.00  0.00     0.041 A 
ATOM     88  F   UNL A   1      39.443  29.248  27.006  1.00  0.00    -0.206 F 
ATOM     89  C   UNL A   1      37.456  29.427  30.024  1.00  0.00     0.022 A 
BRANCH  86  90
ATOM     90  S   UNL A   1      37.920  28.967  32.707  1.00  0.00     0.124 S 
ATOM     91  O   UNL A   1      37.810  27.514  32.773  1.00  0.00    -0.237 OA
ATOM     92  O   UNL A   1      39.033  29.551  33.451  1.00  0.00    -0.237 OA
ATOM     93  O   UNL A   1      36.661  29.701  32.797  1.00  0.00    -0.744 OA
ENDBRANCH  86  90
ENDBRANCH  59  83
BRANCH  71  94
ATOM     94  C   UNL A   1      46.157  32.745  28.650  1.00  0.00     0.023 A 
ATOM     95  C   UNL A   1      46.355  33.629  27.570  1.00  0.00     0.031 A 
ATOM     96  C   UNL A   1      46.499  33.189  29.940  1.00  0.00     0.131 A 
ATOM     97  C   UNL A   1      46.931  34.887  27.793  1.00  0.00     0.055 A 
ATOM     98  C   UNL A   1      47.016  34.465  30.163  1.00  0.00     0.041 A 
ATOM     99  F   UNL A   1      46.342  32.382  31.001  1.00  0.00    -0.206 F 
ATOM    100  C   UNL A   1      47.252  35.314  29.085  1.00  0.00     0.022 A 
BRANCH  97 101
ATOM    101  S   UNL A   1      47.384  35.968  26.407  1.00  0.00     0.124 S 
ATOM    102  O   UNL A   1      48.657  36.522  26.861  1.00  0.00    -0.237 OA
ATOM    103  O   UNL A   1      47.478  35.021  25.299  1.00  0.00    -0.237 OA
ATOM    104  O   UNL A   1      46.284  36.922  26.329  1.00  0.00    -0.744 OA
ENDBRANCH  97 101
ENDBRANCH  71  94
ENDBRANCH  45  46
ENDBRANCH  37  40
ENDBRANCH  35  36
ENDBRANCH  34  35
ENDBRANCH   1  34
TORSDOF 18
ENDMDL
MODEL 3
REMARK VINA RESULT:     -13.6      2.123      8.373
REMARK SMILES O=C(CNC(=O)[C@@H](CC1=c2ccccc2=NC1)N1C(=O)N=C2C=CC=C[C@H]2C1=O)NCCCNC(=O)c1ccc(-c2c3nc(c(-c4cc(S(=O)(=O)[O-])ccc4F)c4ccc([nH]4)c(-c4cc(S(=O)(=O)[O-])ccc4F)c4nc(c(-c5cc(S(=O)(=O)[O-])ccc5F)c5ccc2[nH]5)C=C4)C=C3)cc1
REMARK SMILES IDX 31 1 30 2 1 3 2 4 3 6 4 7 5 8 6 10 7 11 8 12 9 13 10 14
REMARK SMILES IDX 17 15 11 16 15 17 16 18 12 19 14 20 13 21 18 22 19 23 28 24
REMARK SMILES IDX 21 25 20 26 27 27 29 28 22 29 26 30 23 31 25 32 24 33 32 34
REMARK SMILES IDX 33 35 34 36 35 37 36 39 37 40 38 41 99 42 39 43 98 44 40 45
REMARK SMILES IDX 41 46 42 47 92 48 43 49 97 50 91 51 93 52 44 53 96 54 90 55
REMARK SMILES IDX 89 56 45 58 77 59 57 60 76 61 58 62 61 63 75 64 94 65 59 66
REMARK SMILES IDX 60 67 74 69 95 70 62 71 46 72 47 73 55 74 48 75 54 76 56 77
REMARK SMILES IDX 53 78 49 79 50 80 51 81 52 82 78 83 79 84 87 85 80 86 86 87
REMARK SMILES IDX 88 88 85 89 81 90 82 91 83 92 84 93 63 94 64 95 72 96 65 97
REMARK SMILES IDX 71 98 73 99 70 100 66 101 67 102 68 103 69 104
REMARK H PARENT 30 5 4 9 34 38 93 57 61 68
REMARK Flexibility Score: inf
ROOT
ATOM      1  C   UNL A   1      41.469  21.777  26.227  1.00  0.00     0.117 C 
ENDROOT
BRANCH   1   2
ATOM      2  N   UNL A   1      40.201  22.337  25.749  1.00  0.00    -0.355 N 
ATOM      3  O   UNL A   1      40.013  23.338  27.607  1.00  0.00    -0.273 OA
ATOM      4  C   UNL A   1      39.282  23.178  26.574  1.00  0.00     0.239 C 
ATOM      5  H   UNL A   1      39.935  22.145  24.821  1.00  0.00     0.163 HD
BRANCH   4   6
ATOM      6  C   UNL A   1      37.184  23.709  26.256  1.00  0.00     0.216 C 
BRANCH   6   7
ATOM      7  N   UNL A   1      35.742  23.200  26.782  1.00  0.00    -0.345 N 
ATOM      8  C   UNL A   1      34.650  22.573  26.307  1.00  0.00     0.244 C 
ATOM      9  H   UNL A   1      35.630  23.412  27.737  1.00  0.00     0.164 HD
ATOM     10  O   UNL A   1      33.803  22.326  27.187  1.00  0.00    -0.273 OA
BRANCH   8  11
ATOM     11  C   UNL A   1      34.312  22.163  24.856  1.00  0.00     0.188 C 
BRANCH  11  12
ATOM     12  C   UNL A   1      34.666  22.821  23.507  1.00  0.00     0.069 C 
BRANCH  12  13
ATOM     13  C   UNL A   1      33.738  23.850  23.006  1.00  0.00    -0.037 C 
ATOM     14  C   UNL A   1      33.447  24.962  23.662  1.00  0.00     0.001 A 
ATOM     15  C   UNL A   1      33.296  23.890  21.536  1.00  0.00     0.174 C 
ATOM     16  C   UNL A   1      33.779  25.866  25.281  1.00  0.00     0.010 A 
ATOM     17  C   UNL A   1      33.261  26.034  22.079  1.00  0.00     0.065 A 
ATOM     18  N   UNL A   1      33.170  25.307  21.018  1.00  0.00    -0.280 NA
ATOM     19  C   UNL A   1      33.879  27.442  25.322  1.00  0.00     0.001 A 
ATOM     20  C   UNL A   1      33.603  27.926  22.341  1.00  0.00     0.028 A 
ATOM     21  C   UNL A   1      33.781  28.515  23.797  1.00  0.00     0.002 A 
ENDBRANCH  12  13
ENDBRANCH  11  12
BRANCH  11  22
ATOM     22  N   UNL A   1      34.273  20.686  24.849  1.00  0.00    -0.249 N 
ATOM     23  C   UNL A   1      35.505  20.061  24.923  1.00  0.00     0.351 C 
ATOM     24  C   UNL A   1      33.073  19.994  24.895  1.00  0.00     0.244 C 
ATOM     25  N   UNL A   1      35.612  18.746  24.617  1.00  0.00    -0.197 NA
ATOM     26  O   UNL A   1      36.488  20.658  25.352  1.00  0.00    -0.246 OA
ATOM     27  C   UNL A   1      33.145  18.524  24.461  1.00  0.00     0.151 C 
ATOM     28  O   UNL A   1      32.005  20.543  25.175  1.00  0.00    -0.273 OA
ATOM     29  C   UNL A   1      34.565  18.008  24.491  1.00  0.00     0.062 C 
ATOM     30  C   UNL A   1      32.242  17.551  25.195  1.00  0.00    -0.007 C 
ATOM     31  C   UNL A   1      34.828  16.554  24.481  1.00  0.00     0.025 C 
ATOM     32  C   UNL A   1      32.615  16.286  25.461  1.00  0.00    -0.003 C 
ATOM     33  C   UNL A   1      33.901  15.777  25.048  1.00  0.00     0.002 C 
ENDBRANCH  11  22
ENDBRANCH   8  11
ENDBRANCH   6   7
ENDBRANCH   4   6
ENDBRANCH   1   2
BRANCH   1  34
ATOM     34  C   UNL A   1      41.437  20.250  26.226  1.00  0.00     0.042 C 
BRANCH  34  35
ATOM     35  C   UNL A   1      42.803  19.585  26.388  1.00  0.00     0.118 C 
BRANCH  35  36
ATOM     36  N   UNL A   1      43.426  19.204  25.125  1.00  0.00    -0.352 N 
ATOM     37  C   UNL A   1      44.288  19.896  24.306  1.00  0.00     0.251 C 
ATOM     38  H   UNL A   1      43.192  18.303  24.807  1.00  0.00     0.163 HD
ATOM     39  O   UNL A   1      44.596  19.416  23.219  1.00  0.00    -0.269 OA
BRANCH  37  40
ATOM     40  C   UNL A   1      44.798  21.226  24.707  1.00  0.00     0.039 A 
ATOM     41  C   UNL A   1      45.425  21.416  25.938  1.00  0.00     0.014 A 
ATOM     42  C   UNL A   1      44.620  22.308  23.841  1.00  0.00     0.014 A 
ATOM     43  C   UNL A   1      45.679  22.708  26.387  1.00  0.00     0.010 A 
ATOM     44  C   UNL A   1      44.969  23.596  24.256  1.00  0.00     0.010 A 
ATOM     45  C   UNL A   1      45.439  23.818  25.560  1.00  0.00    -0.014 A 
BRANCH  45  46
ATOM     46  C   UNL A   1      45.665  25.193  26.085  1.00  0.00     0.031 A 
ATOM     47  C   UNL A   1      47.041  25.809  26.068  1.00  0.00     0.074 A 
ATOM     48  C   UNL A   1      44.617  25.912  26.534  1.00  0.00     0.049 A 
ATOM     49  N   UNL A   1      47.411  27.006  26.448  1.00  0.00    -0.248 NA
ATOM     50  C   UNL A   1      48.147  24.978  25.566  1.00  0.00     0.031 C 
ATOM     51  C   UNL A   1      43.239  25.424  26.599  1.00  0.00     0.029 A 
ATOM     52  N   UNL A   1      44.535  27.202  26.998  1.00  0.00    -0.354 N 
ATOM     53  C   UNL A   1      48.786  27.066  26.246  1.00  0.00     0.074 A 
ATOM     54  C   UNL A   1      49.194  25.770  25.752  1.00  0.00     0.031 C 
ATOM     55  C   UNL A   1      42.443  26.414  27.024  1.00  0.00     0.029 A 
ATOM     56  C   UNL A   1      43.257  27.586  27.336  1.00  0.00     0.049 A 
ATOM     57  H   UNL A   1      45.315  27.795  27.080  1.00  0.00     0.167 HD
ATOM     58  C   UNL A   1      49.626  28.113  26.433  1.00  0.00     0.034 A 
ATOM     59  C   UNL A   1      42.788  28.742  27.851  1.00  0.00     0.034 A 
ATOM     60  C   UNL A   1      49.200  29.409  26.901  1.00  0.00     0.049 A 
ATOM     61  C   UNL A   1      43.748  29.880  28.084  1.00  0.00     0.074 A 
ATOM     62  C   UNL A   1      49.971  30.545  27.079  1.00  0.00     0.029 A 
ATOM     63  N   UNL A   1      47.904  29.749  27.262  1.00  0.00    -0.354 N 
ATOM     64  N   UNL A   1      45.033  29.940  27.823  1.00  0.00    -0.248 NA
ATOM     65  C   UNL A   1      43.201  31.110  28.672  1.00  0.00     0.031 C 
ATOM     66  C   UNL A   1      49.164  31.541  27.625  1.00  0.00     0.029 A 
ATOM     67  C   UNL A   1      47.865  31.064  27.699  1.00  0.00     0.049 A 
ATOM     68  H   UNL A   1      47.128  29.145  27.216  1.00  0.00     0.167 HD
ATOM     69  C   UNL A   1      45.443  31.218  28.195  1.00  0.00     0.074 A 
ATOM     70  C   UNL A   1      44.261  31.908  28.668  1.00  0.00     0.031 C 
ATOM     71  C   UNL A   1      46.685  31.761  28.155  1.00  0.00     0.034 A 
BRANCH  58  72
ATOM     72  C   UNL A   1      51.096  27.939  26.123  1.00  0.00     0.023 A 
ATOM     73  C   UNL A   1      51.539  27.962  24.786  1.00  0.00     0.031 A 
ATOM     74  C   UNL A   1      52.024  27.594  27.123  1.00  0.00     0.131 A 
ATOM     75  C   UNL A   1      52.856  27.599  24.481  1.00  0.00     0.055 A 
ATOM     76  C   UNL A   1      53.350  27.285  26.817  1.00  0.00     0.041 A 
ATOM     77  F   UNL A   1      51.653  27.551  28.413  1.00  0.00    -0.206 F 
ATOM     78  C   UNL A   1      53.768  27.270  25.490  1.00  0.00     0.022 A 
BRANCH  75  79
ATOM     79  S   UNL A   1      53.415  27.453  22.761  1.00  0.00     0.124 S 
ATOM     80  O   UNL A   1      53.621  28.852  22.393  1.00  0.00    -0.237 OA
ATOM     81  O   UNL A   1      54.633  26.661  22.903  1.00  0.00    -0.237 OA
ATOM     82  O   UNL A   1      52.306  26.791  22.085  1.00  0.00    -0.744 OA
ENDBRANCH  75  79
ENDBRANCH  58  72
BRANCH  59  83
ATOM     83  C   UNL A   1      41.327  28.868  28.134  1.00  0.00     0.023 A 
ATOM     84  C   UNL A   1      40.825  28.655  29.432  1.00  0.00     0.031 A 
ATOM     85  C   UNL A   1      40.404  29.083  27.098  1.00  0.00     0.131 A 
ATOM     86  C   UNL A   1      39.442  28.576  29.641  1.00  0.00     0.055 A 
ATOM     87  C   UNL A   1      39.027  29.089  27.327  1.00  0.00     0.041 A 
ATOM     88  F   UNL A   1      40.831  29.279  25.841  1.00  0.00    -0.206 F 
ATOM     89  C   UNL A   1      38.539  28.812  28.601  1.00  0.00     0.022 A 
BRANCH  86  90
ATOM     90  S   UNL A   1      38.776  28.011  31.232  1.00  0.00     0.124 S 
ATOM     91  O   UNL A   1      37.577  28.833  31.370  1.00  0.00    -0.237 OA
ATOM     92  O   UNL A   1      38.543  26.593  30.969  1.00  0.00    -0.237 OA
ATOM     93  O   UNL A   1      39.850  28.299  32.177  1.00  0.00    -0.744 OA
ENDBRANCH  86  90
ENDBRANCH  59  83
BRANCH  71  94
ATOM     94  C   UNL A   1      46.874  33.186  28.626  1.00  0.00     0.023 A 
ATOM     95  C   UNL A   1      46.761  34.250  27.709  1.00  0.00     0.031 A 
ATOM     96  C   UNL A   1      47.330  33.476  29.924  1.00  0.00     0.131 A 
ATOM     97  C   UNL A   1      47.152  35.542  28.085  1.00  0.00     0.055 A 
ATOM     98  C   UNL A   1      47.661  34.775  30.311  1.00  0.00     0.041 A 
ATOM     99  F   UNL A   1      47.469  32.497  30.832  1.00  0.00    -0.206 F 
ATOM    100  C   UNL A   1      47.591  35.812  29.386  1.00  0.00     0.022 A 
BRANCH  97 101
ATOM    101  S   UNL A   1      47.208  36.893  26.875  1.00  0.00     0.124 S 
ATOM    102  O   UNL A   1      47.934  37.926  27.610  1.00  0.00    -0.237 OA
ATOM    103  O   UNL A   1      47.943  36.283  25.770  1.00  0.00    -0.237 OA
ATOM    104  O   UNL A   1      45.806  37.189  26.611  1.00  0.00    -0.744 OA
ENDBRANCH  97 101
ENDBRANCH  71  94
ENDBRANCH  45  46
ENDBRANCH  37  40
ENDBRANCH  35  36
ENDBRANCH  34  35
ENDBRANCH   1  34
TORSDOF 18
ENDMDL
