MODEL 1
REMARK VINA RESULT:     -11.0      0.000      0.000
REMARK SMILES O=C(CS(=O)(=O)N1CCC1)NCCCNC(=O)c1ccc(-c2c3nc(c(-c4cc(S(=O)(=O)[O-])ccc4F)c4ccc([nH]4)c(-c4cc(S(=O)(=O)[O-])ccc4F)c4nc(c(-c5cc(S(=O)(=O)[O-])ccc5F)c5ccc2[nH]5)C=C4)C=C3)cc1
REMARK SMILES IDX 13 1 12 2 11 3 1 4 2 5 3 7 4 8 5 9 6 10 7 11 8 12 10 13 9 14
REMARK SMILES IDX 14 15 15 16 16 17 17 19 18 20 19 21 80 22 20 23 79 24 21 25
REMARK SMILES IDX 22 26 23 27 73 28 24 29 78 30 72 31 74 32 25 33 77 34 71 35
REMARK SMILES IDX 70 36 26 38 58 39 38 40 57 41 39 42 42 43 56 44 75 45 40 46
REMARK SMILES IDX 41 47 55 49 76 50 43 51 27 52 28 53 36 54 29 55 35 56 37 57
REMARK SMILES IDX 34 58 30 59 31 60 32 61 33 62 59 63 60 64 68 65 61 66 67 67
REMARK SMILES IDX 69 68 66 69 62 70 63 71 64 72 65 73 44 74 45 75 53 76 46 77
REMARK SMILES IDX 52 78 54 79 51 80 47 81 48 82 49 83 50 84
REMARK H PARENT 11 6 15 18 74 37 42 48
REMARK Flexibility Score: inf
ROOT
ATOM      1  C   UNL A   1      32.447  29.692  25.215  1.00  0.00     0.042 C 
ENDROOT
BRANCH   1   2
ATOM      2  C   UNL A   1      31.277  29.135  24.414  1.00  0.00     0.117 C 
BRANCH   2   3
ATOM      3  N   UNL A   1      31.577  27.845  23.817  1.00  0.00    -0.355 N 
ATOM      4  O   UNL A   1      30.206  28.085  21.996  1.00  0.00    -0.274 OA
ATOM      5  C   UNL A   1      31.026  27.422  22.628  1.00  0.00     0.236 C 
ATOM      6  H   UNL A   1      32.202  27.246  24.285  1.00  0.00     0.163 HD
BRANCH   5   7
ATOM      7  C   UNL A   1      31.394  26.035  22.195  1.00  0.00     0.253 C 
BRANCH   7   8
ATOM      8  S   UNL A   1      33.019  25.980  21.504  1.00  0.00     0.223 S 
ATOM      9  O   UNL A   1      32.905  25.581  20.113  1.00  0.00    -0.212 OA
ATOM     10  O   UNL A   1      33.699  27.209  21.863  1.00  0.00    -0.212 OA
BRANCH   8  11
ATOM     11  N   UNL A   1      33.746  24.725  22.358  1.00  0.00    -0.201 NA
ATOM     12  C   UNL A   1      33.804  24.626  23.851  1.00  0.00     0.103 C 
ATOM     13  C   UNL A   1      33.308  23.297  22.315  1.00  0.00     0.103 C 
ATOM     14  C   UNL A   1      33.871  23.095  23.731  1.00  0.00     0.033 C 
ENDBRANCH   8  11
ENDBRANCH   7   8
ENDBRANCH   5   7
ENDBRANCH   2   3
ENDBRANCH   1   2
BRANCH   1  15
ATOM     15  C   UNL A   1      32.096  30.169  26.623  1.00  0.00     0.118 C 
BRANCH  15  16
ATOM     16  N   UNL A   1      32.202  31.612  26.784  1.00  0.00    -0.352 N 
ATOM     17  C   UNL A   1      33.154  32.371  27.422  1.00  0.00     0.251 C 
ATOM     18  H   UNL A   1      31.473  32.128  26.368  1.00  0.00     0.163 HD
ATOM     19  O   UNL A   1      32.960  33.575  27.564  1.00  0.00    -0.269 OA
BRANCH  17  20
ATOM     20  C   UNL A   1      34.384  31.750  27.967  1.00  0.00     0.039 A 
ATOM     21  C   UNL A   1      35.485  32.567  28.237  1.00  0.00     0.014 A 
ATOM     22  C   UNL A   1      34.469  30.373  28.197  1.00  0.00     0.014 A 
ATOM     23  C   UNL A   1      36.634  32.022  28.820  1.00  0.00     0.010 A 
ATOM     24  C   UNL A   1      35.589  29.842  28.837  1.00  0.00     0.010 A 
ATOM     25  C   UNL A   1      36.677  30.664  29.170  1.00  0.00    -0.014 A 
BRANCH  25  26
ATOM     26  C   UNL A   1      37.829  30.093  29.921  1.00  0.00     0.031 A 
ATOM     27  C   UNL A   1      38.114  30.531  31.331  1.00  0.00     0.074 A 
ATOM     28  C   UNL A   1      38.666  29.239  29.299  1.00  0.00     0.049 A 
ATOM     29  N   UNL A   1      39.130  30.233  32.101  1.00  0.00    -0.248 NA
ATOM     30  C   UNL A   1      37.141  31.444  31.946  1.00  0.00     0.031 C 
ATOM     31  C   UNL A   1      38.516  28.761  27.923  1.00  0.00     0.029 A 
ATOM     32  N   UNL A   1      39.818  28.632  29.734  1.00  0.00    -0.354 N 
ATOM     33  C   UNL A   1      38.927  30.929  33.287  1.00  0.00     0.074 A 
ATOM     34  C   UNL A   1      37.715  31.703  33.111  1.00  0.00     0.031 C 
ATOM     35  C   UNL A   1      39.529  27.930  27.631  1.00  0.00     0.029 A 
ATOM     36  C   UNL A   1      40.428  27.852  28.779  1.00  0.00     0.049 A 
ATOM     37  H   UNL A   1      40.175  28.745  30.644  1.00  0.00     0.167 HD
ATOM     38  C   UNL A   1      39.672  30.912  34.421  1.00  0.00     0.034 A 
ATOM     39  C   UNL A   1      41.591  27.172  28.809  1.00  0.00     0.034 A 
ATOM     40  C   UNL A   1      40.875  30.131  34.584  1.00  0.00     0.049 A 
ATOM     41  C   UNL A   1      42.423  27.201  30.064  1.00  0.00     0.074 A 
ATOM     42  C   UNL A   1      41.670  29.995  35.711  1.00  0.00     0.029 A 
ATOM     43  N   UNL A   1      41.468  29.362  33.590  1.00  0.00    -0.354 N 
ATOM     44  N   UNL A   1      42.194  27.832  31.193  1.00  0.00    -0.248 NA
ATOM     45  C   UNL A   1      43.669  26.424  30.050  1.00  0.00     0.031 C 
ATOM     46  C   UNL A   1      42.774  29.201  35.378  1.00  0.00     0.029 A 
ATOM     47  C   UNL A   1      42.634  28.780  34.066  1.00  0.00     0.049 A 
ATOM     48  H   UNL A   1      41.112  29.246  32.680  1.00  0.00     0.167 HD
ATOM     49  C   UNL A   1      43.257  27.508  32.030  1.00  0.00     0.074 A 
ATOM     50  C   UNL A   1      44.118  26.614  31.282  1.00  0.00     0.031 C 
ATOM     51  C   UNL A   1      43.498  27.908  33.304  1.00  0.00     0.034 A 
BRANCH  38  52
ATOM     52  C   UNL A   1      39.219  31.792  35.561  1.00  0.00     0.023 A 
ATOM     53  C   UNL A   1      38.556  31.264  36.682  1.00  0.00     0.031 A 
ATOM     54  C   UNL A   1      39.436  33.181  35.519  1.00  0.00     0.131 A 
ATOM     55  C   UNL A   1      38.065  32.125  37.677  1.00  0.00     0.055 A 
ATOM     56  C   UNL A   1      39.015  34.023  36.550  1.00  0.00     0.041 A 
ATOM     57  F   UNL A   1      40.049  33.745  34.467  1.00  0.00    -0.206 F 
ATOM     58  C   UNL A   1      38.312  33.499  37.630  1.00  0.00     0.022 A 
BRANCH  55  59
ATOM     59  S   UNL A   1      36.981  31.438  38.959  1.00  0.00     0.124 S 
ATOM     60  O   UNL A   1      35.826  32.329  38.877  1.00  0.00    -0.237 OA
ATOM     61  O   UNL A   1      36.768  30.072  38.492  1.00  0.00    -0.237 OA
ATOM     62  O   UNL A   1      37.772  31.565  40.181  1.00  0.00    -0.744 OA
ENDBRANCH  55  59
ENDBRANCH  38  52
BRANCH  39  63
ATOM     63  C   UNL A   1      42.059  26.426  27.607  1.00  0.00     0.023 A 
ATOM     64  C   UNL A   1      41.787  25.057  27.455  1.00  0.00     0.031 A 
ATOM     65  C   UNL A   1      42.821  27.063  26.612  1.00  0.00     0.131 A 
ATOM     66  C   UNL A   1      42.311  24.358  26.356  1.00  0.00     0.055 A 
ATOM     67  C   UNL A   1      43.297  26.374  25.495  1.00  0.00     0.041 A 
ATOM     68  F   UNL A   1      43.105  28.371  26.707  1.00  0.00    -0.206 F 
ATOM     69  C   UNL A   1      43.053  25.010  25.369  1.00  0.00     0.022 A 
BRANCH  66  70
ATOM     70  S   UNL A   1      42.070  22.563  26.275  1.00  0.00     0.124 S 
ATOM     71  O   UNL A   1      42.714  22.234  25.008  1.00  0.00    -0.237 OA
ATOM     72  O   UNL A   1      42.758  22.110  27.481  1.00  0.00    -0.237 OA
ATOM     73  O   UNL A   1      40.617  22.413  26.296  1.00  0.00    -0.744 OA
ENDBRANCH  66  70
ENDBRANCH  39  63
BRANCH  51  74
ATOM     74  C   UNL A   1      44.731  27.351  33.973  1.00  0.00     0.023 A 
ATOM     75  C   UNL A   1      44.695  26.152  34.705  1.00  0.00     0.031 A 
ATOM     76  C   UNL A   1      45.952  28.043  33.893  1.00  0.00     0.131 A 
ATOM     77  C   UNL A   1      45.847  25.706  35.372  1.00  0.00     0.055 A 
ATOM     78  C   UNL A   1      47.108  27.565  34.512  1.00  0.00     0.041 A 
ATOM     79  F   UNL A   1      46.042  29.195  33.209  1.00  0.00    -0.206 F 
ATOM     80  C   UNL A   1      47.056  26.396  35.266  1.00  0.00     0.022 A 
BRANCH  77  81
ATOM     81  S   UNL A   1      45.723  24.252  36.449  1.00  0.00     0.124 S 
ATOM     82  O   UNL A   1      47.126  23.908  36.656  1.00  0.00    -0.237 OA
ATOM     83  O   UNL A   1      45.018  24.782  37.612  1.00  0.00    -0.237 OA
ATOM     84  O   UNL A   1      44.961  23.294  35.648  1.00  0.00    -0.744 OA
ENDBRANCH  77  81
ENDBRANCH  51  74
ENDBRANCH  25  26
ENDBRANCH  17  20
ENDBRANCH  15  16
ENDBRANCH   1  15
TORSDOF 15
ENDMDL
MODEL 2
REMARK VINA RESULT:     -10.9      4.039      6.479
REMARK SMILES O=C(CS(=O)(=O)N1CCC1)NCCCNC(=O)c1ccc(-c2c3nc(c(-c4cc(S(=O)(=O)[O-])ccc4F)c4ccc([nH]4)c(-c4cc(S(=O)(=O)[O-])ccc4F)c4nc(c(-c5cc(S(=O)(=O)[O-])ccc5F)c5ccc2[nH]5)C=C4)C=C3)cc1
REMARK SMILES IDX 13 1 12 2 11 3 1 4 2 5 3 7 4 8 5 9 6 10 7 11 8 12 10 13 9 14
REMARK SMILES IDX 14 15 15 16 16 17 17 19 18 20 19 21 80 22 20 23 79 24 21 25
REMARK SMILES IDX 22 26 23 27 73 28 24 29 78 30 72 31 74 32 25 33 77 34 71 35
REMARK SMILES IDX 70 36 26 38 58 39 38 40 57 41 39 42 42 43 56 44 75 45 40 46
REMARK SMILES IDX 41 47 55 49 76 50 43 51 27 52 28 53 36 54 29 55 35 56 37 57
REMARK SMILES IDX 34 58 30 59 31 60 32 61 33 62 59 63 60 64 68 65 61 66 67 67
REMARK SMILES IDX 69 68 66 69 62 70 63 71 64 72 65 73 44 74 45 75 53 76 46 77
REMARK SMILES IDX 52 78 54 79 51 80 47 81 48 82 49 83 50 84
REMARK H PARENT 11 6 15 18 74 37 42 48
REMARK Flexibility Score: inf
ROOT
ATOM      1  C   UNL A   1      35.464  32.883  30.460  1.00  0.00     0.042 C 
ENDROOT
BRANCH   1   2
ATOM      2  C   UNL A   1      36.055  33.907  31.422  1.00  0.00     0.117 C 
BRANCH   2   3
ATOM      3  N   UNL A   1      35.155  35.018  31.670  1.00  0.00    -0.355 N 
ATOM      4  O   UNL A   1      35.734  35.325  33.867  1.00  0.00    -0.274 OA
ATOM      5  C   UNL A   1      35.076  35.664  32.884  1.00  0.00     0.236 C 
ATOM      6  H   UNL A   1      34.573  35.324  30.937  1.00  0.00     0.163 HD
BRANCH   5   7
ATOM      7  C   UNL A   1      34.043  36.745  32.984  1.00  0.00     0.253 C 
BRANCH   7   8
ATOM      8  S   UNL A   1      32.463  36.186  32.421  1.00  0.00     0.223 S 
ATOM      9  O   UNL A   1      32.439  34.738  32.512  1.00  0.00    -0.212 OA
ATOM     10  O   UNL A   1      31.446  36.981  33.081  1.00  0.00    -0.212 OA
BRANCH   8  11
ATOM     11  N   UNL A   1      32.473  36.616  30.794  1.00  0.00    -0.201 NA
ATOM     12  C   UNL A   1      33.399  37.618  30.178  1.00  0.00     0.103 C 
ATOM     13  C   UNL A   1      32.786  35.686  29.667  1.00  0.00     0.103 C 
ATOM     14  C   UNL A   1      33.280  36.880  28.835  1.00  0.00     0.033 C 
ENDBRANCH   8  11
ENDBRANCH   7   8
ENDBRANCH   5   7
ENDBRANCH   2   3
ENDBRANCH   1   2
BRANCH   1  15
ATOM     15  C   UNL A   1      35.336  33.357  29.013  1.00  0.00     0.118 C 
BRANCH  15  16
ATOM     16  N   UNL A   1      34.510  32.484  28.193  1.00  0.00    -0.352 N 
ATOM     17  C   UNL A   1      34.735  31.203  27.746  1.00  0.00     0.251 C 
ATOM     18  H   UNL A   1      33.651  32.874  27.912  1.00  0.00     0.163 HD
ATOM     19  O   UNL A   1      33.959  30.710  26.932  1.00  0.00    -0.269 OA
BRANCH  17  20
ATOM     20  C   UNL A   1      35.914  30.432  28.207  1.00  0.00     0.039 A 
ATOM     21  C   UNL A   1      37.097  30.511  27.467  1.00  0.00     0.014 A 
ATOM     22  C   UNL A   1      35.859  29.622  29.345  1.00  0.00     0.014 A 
ATOM     23  C   UNL A   1      38.247  29.853  27.916  1.00  0.00     0.010 A 
ATOM     24  C   UNL A   1      37.022  29.020  29.827  1.00  0.00     0.010 A 
ATOM     25  C   UNL A   1      38.232  29.142  29.126  1.00  0.00    -0.014 A 
BRANCH  25  26
ATOM     26  C   UNL A   1      39.476  28.558  29.697  1.00  0.00     0.031 A 
ATOM     27  C   UNL A   1      40.119  29.165  30.913  1.00  0.00     0.074 A 
ATOM     28  C   UNL A   1      40.072  27.525  29.066  1.00  0.00     0.049 A 
ATOM     29  N   UNL A   1      41.258  28.866  31.484  1.00  0.00    -0.248 NA
ATOM     30  C   UNL A   1      39.395  30.269  31.557  1.00  0.00     0.031 C 
ATOM     31  C   UNL A   1      39.565  26.867  27.859  1.00  0.00     0.029 A 
ATOM     32  N   UNL A   1      41.240  26.857  29.339  1.00  0.00    -0.354 N 
ATOM     33  C   UNL A   1      41.396  29.752  32.547  1.00  0.00     0.074 A 
ATOM     34  C   UNL A   1      40.244  30.630  32.507  1.00  0.00     0.031 C 
ATOM     35  C   UNL A   1      40.410  25.887  27.504  1.00  0.00     0.029 A 
ATOM     36  C   UNL A   1      41.543  25.875  28.424  1.00  0.00     0.049 A 
ATOM     37  H   UNL A   1      41.808  27.062  30.117  1.00  0.00     0.167 HD
ATOM     38  C   UNL A   1      42.382  29.816  33.477  1.00  0.00     0.034 A 
ATOM     39  C   UNL A   1      42.621  25.073  28.319  1.00  0.00     0.034 A 
ATOM     40  C   UNL A   1      43.521  28.931  33.508  1.00  0.00     0.049 A 
ATOM     41  C   UNL A   1      43.723  25.191  29.339  1.00  0.00     0.074 A 
ATOM     42  C   UNL A   1      44.543  28.871  34.442  1.00  0.00     0.029 A 
ATOM     43  N   UNL A   1      43.799  27.956  32.559  1.00  0.00    -0.354 N 
ATOM     44  N   UNL A   1      43.817  26.007  30.364  1.00  0.00    -0.248 NA
ATOM     45  C   UNL A   1      44.863  24.278  29.190  1.00  0.00     0.031 C 
ATOM     46  C   UNL A   1      45.470  27.910  34.021  1.00  0.00     0.029 A 
ATOM     47  C   UNL A   1      44.993  27.317  32.864  1.00  0.00     0.049 A 
ATOM     48  H   UNL A   1      43.232  27.747  31.782  1.00  0.00     0.167 HD
ATOM     49  C   UNL A   1      45.016  25.687  30.994  1.00  0.00     0.074 A 
ATOM     50  C   UNL A   1      45.601  24.595  30.244  1.00  0.00     0.031 C 
ATOM     51  C   UNL A   1      45.580  26.243  32.096  1.00  0.00     0.034 A 
BRANCH  38  52
ATOM     52  C   UNL A   1      42.282  30.905  34.518  1.00  0.00     0.023 A 
ATOM     53  C   UNL A   1      42.826  32.184  34.304  1.00  0.00     0.031 A 
ATOM     54  C   UNL A   1      41.651  30.658  35.751  1.00  0.00     0.131 A 
ATOM     55  C   UNL A   1      42.798  33.139  35.332  1.00  0.00     0.055 A 
ATOM     56  C   UNL A   1      41.556  31.639  36.740  1.00  0.00     0.041 A 
ATOM     57  F   UNL A   1      41.128  29.452  36.020  1.00  0.00    -0.206 F 
ATOM     58  C   UNL A   1      42.145  32.884  36.540  1.00  0.00     0.022 A 
BRANCH  55  59
ATOM     59  S   UNL A   1      43.747  34.670  35.118  1.00  0.00     0.124 S 
ATOM     60  O   UNL A   1      44.840  34.222  34.259  1.00  0.00    -0.237 OA
ATOM     61  O   UNL A   1      42.772  35.561  34.499  1.00  0.00    -0.237 OA
ATOM     62  O   UNL A   1      44.140  35.023  36.481  1.00  0.00    -0.744 OA
ENDBRANCH  55  59
ENDBRANCH  38  52
BRANCH  39  63
ATOM     63  C   UNL A   1      42.732  24.104  27.193  1.00  0.00     0.023 A 
ATOM     64  C   UNL A   1      42.106  22.850  27.254  1.00  0.00     0.031 A 
ATOM     65  C   UNL A   1      43.502  24.404  26.054  1.00  0.00     0.131 A 
ATOM     66  C   UNL A   1      42.295  21.922  26.218  1.00  0.00     0.055 A 
ATOM     67  C   UNL A   1      43.646  23.498  25.003  1.00  0.00     0.041 A 
ATOM     68  F   UNL A   1      44.117  25.592  25.944  1.00  0.00    -0.206 F 
ATOM     69  C   UNL A   1      43.050  22.242  25.087  1.00  0.00     0.022 A 
BRANCH  66  70
ATOM     70  S   UNL A   1      41.600  20.258  26.404  1.00  0.00     0.124 S 
ATOM     71  O   UNL A   1      42.257  19.538  25.319  1.00  0.00    -0.237 OA
ATOM     72  O   UNL A   1      42.021  19.903  27.757  1.00  0.00    -0.237 OA
ATOM     73  O   UNL A   1      40.164  20.469  26.237  1.00  0.00    -0.744 OA
ENDBRANCH  66  70
ENDBRANCH  39  63
BRANCH  51  74
ATOM     74  C   UNL A   1      46.885  25.650  32.567  1.00  0.00     0.023 A 
ATOM     75  C   UNL A   1      46.931  24.689  33.593  1.00  0.00     0.031 A 
ATOM     76  C   UNL A   1      48.099  26.068  31.996  1.00  0.00     0.131 A 
ATOM     77  C   UNL A   1      48.170  24.216  34.052  1.00  0.00     0.055 A 
ATOM     78  C   UNL A   1      49.326  25.552  32.418  1.00  0.00     0.041 A 
ATOM     79  F   UNL A   1      48.113  26.984  31.015  1.00  0.00    -0.206 F 
ATOM     80  C   UNL A   1      49.366  24.629  33.459  1.00  0.00     0.022 A 
BRANCH  77  81
ATOM     81  S   UNL A   1      48.203  23.112  35.491  1.00  0.00     0.124 S 
ATOM     82  O   UNL A   1      47.881  21.822  34.890  1.00  0.00    -0.237 OA
ATOM     83  O   UNL A   1      49.572  23.268  35.974  1.00  0.00    -0.237 OA
ATOM     84  O   UNL A   1      47.171  23.661  36.369  1.00  0.00    -0.744 OA
ENDBRANCH  77  81
ENDBRANCH  51  74
ENDBRANCH  25  26
ENDBRANCH  17  20
ENDBRANCH  15  16
ENDBRANCH   1  15
TORSDOF 15
ENDMDL
MODEL 3
REMARK VINA RESULT:     -10.7      2.088      8.221
REMARK SMILES O=C(CS(=O)(=O)N1CCC1)NCCCNC(=O)c1ccc(-c2c3nc(c(-c4cc(S(=O)(=O)[O-])ccc4F)c4ccc([nH]4)c(-c4cc(S(=O)(=O)[O-])ccc4F)c4nc(c(-c5cc(S(=O)(=O)[O-])ccc5F)c5ccc2[nH]5)C=C4)C=C3)cc1
REMARK SMILES IDX 13 1 12 2 11 3 1 4 2 5 3 7 4 8 5 9 6 10 7 11 8 12 10 13 9 14
REMARK SMILES IDX 14 15 15 16 16 17 17 19 18 20 19 21 80 22 20 23 79 24 21 25
REMARK SMILES IDX 22 26 23 27 73 28 24 29 78 30 72 31 74 32 25 33 77 34 71 35
REMARK SMILES IDX 70 36 26 38 58 39 38 40 57 41 39 42 42 43 56 44 75 45 40 46
REMARK SMILES IDX 41 47 55 49 76 50 43 51 27 52 28 53 36 54 29 55 35 56 37 57
REMARK SMILES IDX 34 58 30 59 31 60 32 61 33 62 59 63 60 64 68 65 61 66 67 67
REMARK SMILES IDX 69 68 66 69 62 70 63 71 64 72 65 73 44 74 45 75 53 76 46 77
REMARK SMILES IDX 52 78 54 79 51 80 47 81 48 82 49 83 50 84
REMARK H PARENT 11 6 15 18 74 37 42 48
REMARK Flexibility Score: inf
ROOT
ATOM      1  C   UNL A   1      31.184  30.277  25.498  1.00  0.00     0.042 C 
ENDROOT
BRANCH   1   2
ATOM      2  C   UNL A   1      31.661  29.084  24.677  1.00  0.00     0.117 C 
BRANCH   2   3
ATOM      3  N   UNL A   1      31.822  27.887  25.482  1.00  0.00    -0.355 N 
ATOM      4  O   UNL A   1      33.003  26.693  23.921  1.00  0.00    -0.274 OA
ATOM      5  C   UNL A   1      32.507  26.775  25.044  1.00  0.00     0.236 C 
ATOM      6  H   UNL A   1      31.423  27.868  26.381  1.00  0.00     0.163 HD
BRANCH   5   7
ATOM      7  C   UNL A   1      32.516  25.603  25.978  1.00  0.00     0.253 C 
BRANCH   7   8
ATOM      8  S   UNL A   1      30.959  24.767  25.985  1.00  0.00     0.223 S 
ATOM      9  O   UNL A   1      30.808  24.105  27.267  1.00  0.00    -0.212 OA
ATOM     10  O   UNL A   1      29.951  25.696  25.514  1.00  0.00    -0.212 OA
BRANCH   8  11
ATOM     11  N   UNL A   1      31.163  23.589  24.800  1.00  0.00    -0.201 NA
ATOM     12  C   UNL A   1      30.851  23.772  23.347  1.00  0.00     0.103 C 
ATOM     13  C   UNL A   1      32.475  22.992  24.407  1.00  0.00     0.103 C 
ATOM     14  C   UNL A   1      31.916  22.719  23.001  1.00  0.00     0.033 C 
ENDBRANCH   8  11
ENDBRANCH   7   8
ENDBRANCH   5   7
ENDBRANCH   2   3
ENDBRANCH   1   2
BRANCH   1  15
ATOM     15  C   UNL A   1      32.135  30.714  26.610  1.00  0.00     0.118 C 
BRANCH  15  16
ATOM     16  N   UNL A   1      32.126  32.151  26.842  1.00  0.00    -0.352 N 
ATOM     17  C   UNL A   1      33.011  32.951  27.525  1.00  0.00     0.251 C 
ATOM     18  H   UNL A   1      31.360  32.628  26.446  1.00  0.00     0.163 HD
ATOM     19  O   UNL A   1      32.721  34.128  27.724  1.00  0.00    -0.269 OA
BRANCH  17  20
ATOM     20  C   UNL A   1      34.284  32.403  28.049  1.00  0.00     0.039 A 
ATOM     21  C   UNL A   1      35.420  33.217  28.038  1.00  0.00     0.014 A 
ATOM     22  C   UNL A   1      34.374  31.095  28.534  1.00  0.00     0.014 A 
ATOM     23  C   UNL A   1      36.618  32.754  28.592  1.00  0.00     0.010 A 
ATOM     24  C   UNL A   1      35.549  30.657  29.145  1.00  0.00     0.010 A 
ATOM     25  C   UNL A   1      36.679  31.489  29.195  1.00  0.00    -0.014 A 
BRANCH  25  26
ATOM     26  C   UNL A   1      37.898  31.033  29.919  1.00  0.00     0.031 A 
ATOM     27  C   UNL A   1      38.814  30.011  29.306  1.00  0.00     0.074 A 
ATOM     28  C   UNL A   1      38.132  31.484  31.168  1.00  0.00     0.049 A 
ATOM     29  N   UNL A   1      39.854  29.413  29.828  1.00  0.00    -0.248 NA
ATOM     30  C   UNL A   1      38.504  29.591  27.933  1.00  0.00     0.031 C 
ATOM     31  C   UNL A   1      37.301  32.453  31.886  1.00  0.00     0.029 A 
ATOM     32  N   UNL A   1      39.127  31.177  32.063  1.00  0.00    -0.354 N 
ATOM     33  C   UNL A   1      40.317  28.535  28.854  1.00  0.00     0.074 A 
ATOM     34  C   UNL A   1      39.412  28.647  27.729  1.00  0.00     0.031 C 
ATOM     35  C   UNL A   1      37.825  32.667  33.104  1.00  0.00     0.029 A 
ATOM     36  C   UNL A   1      38.999  31.817  33.274  1.00  0.00     0.049 A 
ATOM     37  H   UNL A   1      39.863  30.556  31.858  1.00  0.00     0.167 HD
ATOM     38  C   UNL A   1      41.406  27.724  28.889  1.00  0.00     0.034 A 
ATOM     39  C   UNL A   1      39.726  31.714  34.404  1.00  0.00     0.034 A 
ATOM     40  C   UNL A   1      42.304  27.627  30.015  1.00  0.00     0.049 A 
ATOM     41  C   UNL A   1      40.905  30.777  34.434  1.00  0.00     0.074 A 
ATOM     42  C   UNL A   1      43.467  26.883  30.129  1.00  0.00     0.029 A 
ATOM     43  N   UNL A   1      42.135  28.283  31.228  1.00  0.00    -0.354 N 
ATOM     44  N   UNL A   1      41.355  29.984  33.488  1.00  0.00    -0.248 NA
ATOM     45  C   UNL A   1      41.675  30.721  35.683  1.00  0.00     0.031 C 
ATOM     46  C   UNL A   1      43.963  27.038  31.429  1.00  0.00     0.029 A 
ATOM     47  C   UNL A   1      43.152  27.933  32.106  1.00  0.00     0.049 A 
ATOM     48  H   UNL A   1      41.402  28.905  31.435  1.00  0.00     0.167 HD
ATOM     49  C   UNL A   1      42.474  29.355  34.022  1.00  0.00     0.074 A 
ATOM     50  C   UNL A   1      42.640  29.871  35.366  1.00  0.00     0.031 C 
ATOM     51  C   UNL A   1      43.295  28.436  33.452  1.00  0.00     0.034 A 
BRANCH  38  52
ATOM     52  C   UNL A   1      41.661  26.855  27.681  1.00  0.00     0.023 A 
ATOM     53  C   UNL A   1      41.238  25.516  27.632  1.00  0.00     0.031 A 
ATOM     54  C   UNL A   1      42.355  27.366  26.569  1.00  0.00     0.131 A 
ATOM     55  C   UNL A   1      41.577  24.712  26.532  1.00  0.00     0.055 A 
ATOM     56  C   UNL A   1      42.620  26.583  25.444  1.00  0.00     0.041 A 
ATOM     57  F   UNL A   1      42.800  28.632  26.564  1.00  0.00    -0.206 F 
ATOM     58  C   UNL A   1      42.244  25.244  25.427  1.00  0.00     0.022 A 
BRANCH  55  59
ATOM     59  S   UNL A   1      41.255  22.930  26.630  1.00  0.00     0.124 S 
ATOM     60  O   UNL A   1      41.979  22.434  25.462  1.00  0.00    -0.237 OA
ATOM     61  O   UNL A   1      41.820  22.579  27.928  1.00  0.00    -0.237 OA
ATOM     62  O   UNL A   1      39.799  22.839  26.537  1.00  0.00    -0.744 OA
ENDBRANCH  55  59
ENDBRANCH  38  52
BRANCH  39  63
ATOM     63  C   UNL A   1      39.351  32.497  35.615  1.00  0.00     0.023 A 
ATOM     64  C   UNL A   1      39.752  33.834  35.764  1.00  0.00     0.031 A 
ATOM     65  C   UNL A   1      38.619  31.906  36.661  1.00  0.00     0.131 A 
ATOM     66  C   UNL A   1      39.458  34.524  36.951  1.00  0.00     0.055 A 
ATOM     67  C   UNL A   1      38.286  32.612  37.818  1.00  0.00     0.041 A 
ATOM     68  F   UNL A   1      38.208  30.632  36.565  1.00  0.00    -0.206 F 
ATOM     69  C   UNL A   1      38.717  33.926  37.973  1.00  0.00     0.022 A 
BRANCH  66  70
ATOM     70  S   UNL A   1      40.126  36.195  37.172  1.00  0.00     0.124 S 
ATOM     71  O   UNL A   1      39.908  36.779  35.853  1.00  0.00    -0.237 OA
ATOM     72  O   UNL A   1      39.290  36.715  38.250  1.00  0.00    -0.237 OA
ATOM     73  O   UNL A   1      41.523  35.959  37.529  1.00  0.00    -0.744 OA
ENDBRANCH  66  70
ENDBRANCH  39  63
BRANCH  51  74
ATOM     74  C   UNL A   1      44.464  27.960  34.279  1.00  0.00     0.023 A 
ATOM     75  C   UNL A   1      44.378  26.811  35.084  1.00  0.00     0.031 A 
ATOM     76  C   UNL A   1      45.672  28.678  34.276  1.00  0.00     0.131 A 
ATOM     77  C   UNL A   1      45.464  26.442  35.894  1.00  0.00     0.055 A 
ATOM     78  C   UNL A   1      46.768  28.275  35.040  1.00  0.00     0.041 A 
ATOM     79  F   UNL A   1      45.808  29.785  33.527  1.00  0.00    -0.206 F 
ATOM     80  C   UNL A   1      46.664  27.158  35.864  1.00  0.00     0.022 A 
BRANCH  77  81
ATOM     81  S   UNL A   1      45.261  25.059  37.050  1.00  0.00     0.124 S 
ATOM     82  O   UNL A   1      43.822  25.079  37.295  1.00  0.00    -0.237 OA
ATOM     83  O   UNL A   1      45.761  23.927  36.276  1.00  0.00    -0.237 OA
ATOM     84  O   UNL A   1      46.089  25.442  38.193  1.00  0.00    -0.744 OA
ENDBRANCH  77  81
ENDBRANCH  51  74
ENDBRANCH  25  26
ENDBRANCH  17  20
ENDBRANCH  15  16
ENDBRANCH   1  15
TORSDOF 15
ENDMDL
