MODEL 1
REMARK VINA RESULT:     -12.3      0.000      0.000
REMARK SMILES O=C(Cc1ccc(F)cc1F)Nc1sccc1C(=O)NCCCNC(=O)c1ccc(-c2c3nc(c(-c4cc(S(=O)(=O)[O-])ccc4F)c4ccc([nH]4)c(-c4cc(S(=O)(=O)[O-])ccc4F)c4nc(c(-c5cc(S(=O)(=O)[O-])ccc5F)c5ccc2[nH]5)C=C4)C=C3)cc1
REMARK SMILES IDX 22 1 21 2 20 3 18 4 19 5 17 7 13 8 14 9 15 10 16 11 12 12
REMARK SMILES IDX 1 13 2 14 3 16 4 17 5 18 10 19 6 20 9 21 11 22 7 23 8 24
REMARK SMILES IDX 23 25 24 26 25 27 26 29 27 30 28 31 89 32 29 33 88 34 30 35
REMARK SMILES IDX 31 36 32 37 82 38 33 39 87 40 81 41 83 42 34 43 86 44 80 45
REMARK SMILES IDX 79 46 35 48 67 49 47 50 66 51 48 52 51 53 65 54 84 55 49 56
REMARK SMILES IDX 50 57 64 59 85 60 52 61 36 62 37 63 45 64 38 65 44 66 46 67
REMARK SMILES IDX 43 68 39 69 40 70 41 71 42 72 68 73 69 74 77 75 70 76 76 77
REMARK SMILES IDX 78 78 75 79 71 80 72 81 73 82 74 83 53 84 54 85 62 86 55 87
REMARK SMILES IDX 61 88 63 89 60 90 56 91 57 92 58 93 59 94
REMARK H PARENT 20 6 12 15 24 28 83 47 51 58
REMARK Flexibility Score: inf
ROOT
ATOM      1  C   UNL A   1      31.581  27.840  26.299  1.00  0.00     0.042 C 
ENDROOT
BRANCH   1   2
ATOM      2  C   UNL A   1      32.180  26.461  26.483  1.00  0.00     0.118 C 
BRANCH   2   3
ATOM      3  N   UNL A   1      31.265  25.401  26.839  1.00  0.00    -0.352 N 
ATOM      4  C   UNL A   1      31.494  24.043  26.882  1.00  0.00     0.254 C 
ATOM      5  O   UNL A   1      30.568  23.328  27.276  1.00  0.00    -0.269 OA
ATOM      6  H   UNL A   1      30.356  25.688  27.084  1.00  0.00     0.163 HD
BRANCH   4   7
ATOM      7  C   UNL A   1      32.704  23.457  26.296  1.00  0.00     0.074 A 
ATOM      8  C   UNL A   1      33.129  23.391  24.978  1.00  0.00     0.108 A 
ATOM      9  S   UNL A   1      34.442  22.324  24.755  1.00  0.00    -0.126 S 
ATOM     10  C   UNL A   1      34.657  22.138  26.436  1.00  0.00     0.068 A 
ATOM     11  C   UNL A   1      33.669  22.783  27.141  1.00  0.00     0.028 A 
BRANCH   8  12
ATOM     12  N   UNL A   1      32.716  23.950  23.783  1.00  0.00    -0.317 N 
ATOM     13  O   UNL A   1      34.078  25.802  23.884  1.00  0.00    -0.274 OA
ATOM     14  C   UNL A   1      33.155  25.185  23.352  1.00  0.00     0.229 C 
ATOM     15  H   UNL A   1      32.087  23.447  23.218  1.00  0.00     0.170 HD
BRANCH  14  16
ATOM     16  C   UNL A   1      32.317  25.845  22.268  1.00  0.00     0.139 C 
BRANCH  16  17
ATOM     17  C   UNL A   1      31.368  26.979  22.566  1.00  0.00    -0.003 A 
ATOM     18  C   UNL A   1      31.591  28.334  22.304  1.00  0.00     0.010 A 
ATOM     19  C   UNL A   1      30.153  26.614  23.181  1.00  0.00     0.129 A 
ATOM     20  C   UNL A   1      30.596  29.273  22.601  1.00  0.00     0.040 A 
ATOM     21  C   UNL A   1      29.173  27.541  23.501  1.00  0.00     0.078 A 
ATOM     22  F   UNL A   1      29.926  25.325  23.473  1.00  0.00    -0.207 F 
ATOM     23  C   UNL A   1      29.402  28.869  23.196  1.00  0.00     0.126 A 
ATOM     24  F   UNL A   1      28.467  29.785  23.484  1.00  0.00    -0.207 F 
ENDBRANCH  16  17
ENDBRANCH  14  16
ENDBRANCH   8  12
ENDBRANCH   4   7
ENDBRANCH   2   3
ENDBRANCH   1   2
BRANCH   1  25
ATOM     25  C   UNL A   1      32.566  28.901  25.823  1.00  0.00     0.118 C 
BRANCH  25  26
ATOM     26  N   UNL A   1      32.239  30.264  26.233  1.00  0.00    -0.352 N 
ATOM     27  C   UNL A   1      32.909  31.199  26.993  1.00  0.00     0.251 C 
ATOM     28  H   UNL A   1      31.367  30.578  25.900  1.00  0.00     0.163 HD
ATOM     29  O   UNL A   1      32.343  32.260  27.253  1.00  0.00    -0.269 OA
BRANCH  27  30
ATOM     30  C   UNL A   1      34.261  30.936  27.541  1.00  0.00     0.039 A 
ATOM     31  C   UNL A   1      35.143  32.006  27.736  1.00  0.00     0.014 A 
ATOM     32  C   UNL A   1      34.681  29.647  27.855  1.00  0.00     0.014 A 
ATOM     33  C   UNL A   1      36.383  31.790  28.354  1.00  0.00     0.010 A 
ATOM     34  C   UNL A   1      35.848  29.453  28.584  1.00  0.00     0.010 A 
ATOM     35  C   UNL A   1      36.717  30.522  28.849  1.00  0.00    -0.014 A 
BRANCH  35  36
ATOM     36  C   UNL A   1      37.960  30.256  29.629  1.00  0.00     0.031 A 
ATOM     37  C   UNL A   1      39.001  29.312  29.076  1.00  0.00     0.074 A 
ATOM     38  C   UNL A   1      38.103  30.755  30.874  1.00  0.00     0.049 A 
ATOM     39  N   UNL A   1      40.018  28.750  29.675  1.00  0.00    -0.248 NA
ATOM     40  C   UNL A   1      38.833  28.907  27.672  1.00  0.00     0.031 C 
ATOM     41  C   UNL A   1      37.160  31.652  31.546  1.00  0.00     0.029 A 
ATOM     42  N   UNL A   1      39.092  30.564  31.808  1.00  0.00    -0.354 N 
ATOM     43  C   UNL A   1      40.584  27.892  28.735  1.00  0.00     0.074 A 
ATOM     44  C   UNL A   1      39.751  27.962  27.553  1.00  0.00     0.031 C 
ATOM     45  C   UNL A   1      37.629  31.954  32.767  1.00  0.00     0.029 A 
ATOM     46  C   UNL A   1      38.873  31.227  32.994  1.00  0.00     0.049 A 
ATOM     47  H   UNL A   1      39.886  30.003  31.643  1.00  0.00     0.167 HD
ATOM     48  C   UNL A   1      41.708  27.139  28.837  1.00  0.00     0.034 A 
ATOM     49  C   UNL A   1      39.581  31.231  34.141  1.00  0.00     0.034 A 
ATOM     50  C   UNL A   1      42.556  27.120  30.002  1.00  0.00     0.049 A 
ATOM     51  C   UNL A   1      40.830  30.391  34.229  1.00  0.00     0.074 A 
ATOM     52  C   UNL A   1      43.739  26.429  30.201  1.00  0.00     0.029 A 
ATOM     53  N   UNL A   1      42.319  27.840  31.166  1.00  0.00    -0.354 N 
ATOM     54  N   UNL A   1      41.352  29.589  33.330  1.00  0.00    -0.248 NA
ATOM     55  C   UNL A   1      41.588  30.460  35.486  1.00  0.00     0.031 C 
ATOM     56  C   UNL A   1      44.195  26.699  31.496  1.00  0.00     0.029 A 
ATOM     57  C   UNL A   1      43.329  27.605  32.085  1.00  0.00     0.049 A 
ATOM     58  H   UNL A   1      41.546  28.432  31.316  1.00  0.00     0.167 HD
ATOM     59  C   UNL A   1      42.520  29.091  33.901  1.00  0.00     0.074 A 
ATOM     60  C   UNL A   1      42.630  29.690  35.215  1.00  0.00     0.031 C 
ATOM     61  C   UNL A   1      43.424  28.220  33.387  1.00  0.00     0.034 A 
BRANCH  48  62
ATOM     62  C   UNL A   1      42.072  26.276  27.651  1.00  0.00     0.023 A 
ATOM     63  C   UNL A   1      41.631  24.945  27.550  1.00  0.00     0.031 A 
ATOM     64  C   UNL A   1      42.905  26.771  26.632  1.00  0.00     0.131 A 
ATOM     65  C   UNL A   1      42.096  24.129  26.509  1.00  0.00     0.055 A 
ATOM     66  C   UNL A   1      43.290  25.979  25.548  1.00  0.00     0.041 A 
ATOM     67  F   UNL A   1      43.373  28.028  26.681  1.00  0.00    -0.206 F 
ATOM     68  C   UNL A   1      42.901  24.644  25.491  1.00  0.00     0.022 A 
BRANCH  65  69
ATOM     69  S   UNL A   1      41.758  22.349  26.593  1.00  0.00     0.124 S 
ATOM     70  O   UNL A   1      42.414  21.870  25.380  1.00  0.00    -0.237 OA
ATOM     71  O   UNL A   1      42.385  21.967  27.853  1.00  0.00    -0.237 OA
ATOM     72  O   UNL A   1      40.298  22.278  26.575  1.00  0.00    -0.744 OA
ENDBRANCH  65  69
ENDBRANCH  48  62
BRANCH  49  73
ATOM     73  C   UNL A   1      39.139  32.049  35.308  1.00  0.00     0.023 A 
ATOM     74  C   UNL A   1      38.557  31.435  36.429  1.00  0.00     0.031 A 
ATOM     75  C   UNL A   1      39.232  33.451  35.300  1.00  0.00     0.131 A 
ATOM     76  C   UNL A   1      38.037  32.222  37.468  1.00  0.00     0.055 A 
ATOM     77  C   UNL A   1      38.763  34.228  36.362  1.00  0.00     0.041 A 
ATOM     78  F   UNL A   1      39.787  34.089  34.256  1.00  0.00    -0.206 F 
ATOM     79  C   UNL A   1      38.146  33.614  37.447  1.00  0.00     0.022 A 
BRANCH  76  80
ATOM     80  S   UNL A   1      37.121  31.400  38.801  1.00  0.00     0.124 S 
ATOM     81  O   UNL A   1      37.022  30.035  38.295  1.00  0.00    -0.237 OA
ATOM     82  O   UNL A   1      38.008  31.599  39.943  1.00  0.00    -0.237 OA
ATOM     83  O   UNL A   1      35.862  32.140  38.854  1.00  0.00    -0.744 OA
ENDBRANCH  76  80
ENDBRANCH  49  73
BRANCH  61  84
ATOM     84  C   UNL A   1      44.640  27.922  34.226  1.00  0.00     0.023 A 
ATOM     85  C   UNL A   1      44.677  26.835  35.115  1.00  0.00     0.031 A 
ATOM     86  C   UNL A   1      45.772  28.750  34.139  1.00  0.00     0.131 A 
ATOM     87  C   UNL A   1      45.806  26.634  35.922  1.00  0.00     0.055 A 
ATOM     88  C   UNL A   1      46.913  28.514  34.907  1.00  0.00     0.041 A 
ATOM     89  F   UNL A   1      45.787  29.802  33.304  1.00  0.00    -0.206 F 
ATOM     90  C   UNL A   1      46.930  27.458  35.813  1.00  0.00     0.022 A 
BRANCH  87  91
ATOM     91  S   UNL A   1      45.760  25.323  37.176  1.00  0.00     0.124 S 
ATOM     92  O   UNL A   1      46.113  24.142  36.394  1.00  0.00    -0.237 OA
ATOM     93  O   UNL A   1      46.761  25.774  38.136  1.00  0.00    -0.237 OA
ATOM     94  O   UNL A   1      44.380  25.358  37.657  1.00  0.00    -0.744 OA
ENDBRANCH  87  91
ENDBRANCH  61  84
ENDBRANCH  35  36
ENDBRANCH  27  30
ENDBRANCH  25  26
ENDBRANCH   1  25
TORSDOF 16
ENDMDL
MODEL 2
REMARK VINA RESULT:     -12.2      1.358      1.673
REMARK SMILES O=C(Cc1ccc(F)cc1F)Nc1sccc1C(=O)NCCCNC(=O)c1ccc(-c2c3nc(c(-c4cc(S(=O)(=O)[O-])ccc4F)c4ccc([nH]4)c(-c4cc(S(=O)(=O)[O-])ccc4F)c4nc(c(-c5cc(S(=O)(=O)[O-])ccc5F)c5ccc2[nH]5)C=C4)C=C3)cc1
REMARK SMILES IDX 22 1 21 2 20 3 18 4 19 5 17 7 13 8 14 9 15 10 16 11 12 12
REMARK SMILES IDX 1 13 2 14 3 16 4 17 5 18 10 19 6 20 9 21 11 22 7 23 8 24
REMARK SMILES IDX 23 25 24 26 25 27 26 29 27 30 28 31 89 32 29 33 88 34 30 35
REMARK SMILES IDX 31 36 32 37 82 38 33 39 87 40 81 41 83 42 34 43 86 44 80 45
REMARK SMILES IDX 79 46 35 48 67 49 47 50 66 51 48 52 51 53 65 54 84 55 49 56
REMARK SMILES IDX 50 57 64 59 85 60 52 61 36 62 37 63 45 64 38 65 44 66 46 67
REMARK SMILES IDX 43 68 39 69 40 70 41 71 42 72 68 73 69 74 77 75 70 76 76 77
REMARK SMILES IDX 78 78 75 79 71 80 72 81 73 82 74 83 53 84 54 85 62 86 55 87
REMARK SMILES IDX 61 88 63 89 60 90 56 91 57 92 58 93 59 94
REMARK H PARENT 20 6 12 15 24 28 83 47 51 58
REMARK Flexibility Score: inf
ROOT
ATOM      1  C   UNL A   1      31.734  27.631  26.469  1.00  0.00     0.042 C 
ENDROOT
BRANCH   1   2
ATOM      2  C   UNL A   1      32.233  26.211  26.306  1.00  0.00     0.118 C 
BRANCH   2   3
ATOM      3  N   UNL A   1      31.399  25.165  26.850  1.00  0.00    -0.352 N 
ATOM      4  C   UNL A   1      31.681  23.823  26.992  1.00  0.00     0.254 C 
ATOM      5  O   UNL A   1      30.826  23.123  27.544  1.00  0.00    -0.269 OA
ATOM      6  H   UNL A   1      30.510  25.448  27.161  1.00  0.00     0.163 HD
BRANCH   4   7
ATOM      7  C   UNL A   1      32.846  23.218  26.340  1.00  0.00     0.074 A 
ATOM      8  C   UNL A   1      33.173  23.104  24.997  1.00  0.00     0.108 A 
ATOM      9  S   UNL A   1      34.470  22.031  24.716  1.00  0.00    -0.126 S 
ATOM     10  C   UNL A   1      34.810  21.907  26.382  1.00  0.00     0.068 A 
ATOM     11  C   UNL A   1      33.874  22.577  27.135  1.00  0.00     0.028 A 
BRANCH   8  12
ATOM     12  N   UNL A   1      32.670  23.618  23.816  1.00  0.00    -0.317 N 
ATOM     13  O   UNL A   1      34.150  25.372  23.651  1.00  0.00    -0.274 OA
ATOM     14  C   UNL A   1      33.138  24.791  23.260  1.00  0.00     0.229 C 
ATOM     15  H   UNL A   1      31.952  23.128  23.354  1.00  0.00     0.170 HD
BRANCH  14  16
ATOM     16  C   UNL A   1      32.232  25.443  22.228  1.00  0.00     0.139 C 
BRANCH  16  17
ATOM     17  C   UNL A   1      31.406  26.665  22.542  1.00  0.00    -0.003 A 
ATOM     18  C   UNL A   1      31.763  27.992  22.287  1.00  0.00     0.010 A 
ATOM     19  C   UNL A   1      30.165  26.421  23.165  1.00  0.00     0.129 A 
ATOM     20  C   UNL A   1      30.870  29.025  22.599  1.00  0.00     0.040 A 
ATOM     21  C   UNL A   1      29.287  27.440  23.500  1.00  0.00     0.078 A 
ATOM     22  F   UNL A   1      29.811  25.160  23.450  1.00  0.00    -0.207 F 
ATOM     23  C   UNL A   1      29.647  28.740  23.201  1.00  0.00     0.126 A 
ATOM     24  F   UNL A   1      28.813  29.744  23.504  1.00  0.00    -0.207 F 
ENDBRANCH  16  17
ENDBRANCH  14  16
ENDBRANCH   8  12
ENDBRANCH   4   7
ENDBRANCH   2   3
ENDBRANCH   1   2
BRANCH   1  25
ATOM     25  C   UNL A   1      32.644  28.697  25.871  1.00  0.00     0.118 C 
BRANCH  25  26
ATOM     26  N   UNL A   1      32.304  30.068  26.245  1.00  0.00    -0.352 N 
ATOM     27  C   UNL A   1      32.961  31.026  26.986  1.00  0.00     0.251 C 
ATOM     28  H   UNL A   1      31.433  30.367  25.897  1.00  0.00     0.163 HD
ATOM     29  O   UNL A   1      32.386  32.089  27.214  1.00  0.00    -0.269 OA
BRANCH  27  30
ATOM     30  C   UNL A   1      34.310  30.786  27.551  1.00  0.00     0.039 A 
ATOM     31  C   UNL A   1      35.182  31.868  27.731  1.00  0.00     0.014 A 
ATOM     32  C   UNL A   1      34.738  29.509  27.896  1.00  0.00     0.014 A 
ATOM     33  C   UNL A   1      36.418  31.676  28.365  1.00  0.00     0.010 A 
ATOM     34  C   UNL A   1      35.900  29.340  28.640  1.00  0.00     0.010 A 
ATOM     35  C   UNL A   1      36.758  30.421  28.890  1.00  0.00    -0.014 A 
BRANCH  35  36
ATOM     36  C   UNL A   1      37.996  30.183  29.686  1.00  0.00     0.031 A 
ATOM     37  C   UNL A   1      39.051  29.239  29.161  1.00  0.00     0.074 A 
ATOM     38  C   UNL A   1      38.122  30.708  30.922  1.00  0.00     0.049 A 
ATOM     39  N   UNL A   1      40.067  28.698  29.781  1.00  0.00    -0.248 NA
ATOM     40  C   UNL A   1      38.900  28.805  27.764  1.00  0.00     0.031 C 
ATOM     41  C   UNL A   1      37.164  31.608  31.568  1.00  0.00     0.029 A 
ATOM     42  N   UNL A   1      39.104  30.545  31.869  1.00  0.00    -0.354 N 
ATOM     43  C   UNL A   1      40.651  27.828  28.863  1.00  0.00     0.074 A 
ATOM     44  C   UNL A   1      39.829  27.867  27.673  1.00  0.00     0.031 C 
ATOM     45  C   UNL A   1      37.619  31.939  32.787  1.00  0.00     0.029 A 
ATOM     46  C   UNL A   1      38.867  31.228  33.040  1.00  0.00     0.049 A 
ATOM     47  H   UNL A   1      39.905  29.989  31.723  1.00  0.00     0.167 HD
ATOM     48  C   UNL A   1      41.781  27.088  28.990  1.00  0.00     0.034 A 
ATOM     49  C   UNL A   1      39.564  31.262  34.194  1.00  0.00     0.034 A 
ATOM     50  C   UNL A   1      42.618  27.101  30.164  1.00  0.00     0.049 A 
ATOM     51  C   UNL A   1      40.821  30.436  34.309  1.00  0.00     0.074 A 
ATOM     52  C   UNL A   1      43.805  26.425  30.386  1.00  0.00     0.029 A 
ATOM     53  N   UNL A   1      42.363  27.841  31.311  1.00  0.00    -0.354 N 
ATOM     54  N   UNL A   1      41.359  29.622  33.431  1.00  0.00    -0.248 NA
ATOM     55  C   UNL A   1      41.566  30.537  35.571  1.00  0.00     0.031 C 
ATOM     56  C   UNL A   1      44.247  26.724  31.680  1.00  0.00     0.029 A 
ATOM     57  C   UNL A   1      43.367  27.633  32.244  1.00  0.00     0.049 A 
ATOM     58  H   UNL A   1      41.583  28.427  31.442  1.00  0.00     0.167 HD
ATOM     59  C   UNL A   1      42.526  29.147  34.022  1.00  0.00     0.074 A 
ATOM     60  C   UNL A   1      42.618  29.772  35.325  1.00  0.00     0.031 C 
ATOM     61  C   UNL A   1      43.444  28.275  33.534  1.00  0.00     0.034 A 
BRANCH  48  62
ATOM     62  C   UNL A   1      42.165  26.206  27.825  1.00  0.00     0.023 A 
ATOM     63  C   UNL A   1      41.671  24.895  27.705  1.00  0.00     0.031 A 
ATOM     64  C   UNL A   1      43.066  26.660  26.846  1.00  0.00     0.131 A 
ATOM     65  C   UNL A   1      42.151  24.056  26.689  1.00  0.00     0.055 A 
ATOM     66  C   UNL A   1      43.470  25.849  25.784  1.00  0.00     0.041 A 
ATOM     67  F   UNL A   1      43.586  27.896  26.917  1.00  0.00    -0.206 F 
ATOM     68  C   UNL A   1      43.026  24.531  25.710  1.00  0.00     0.022 A 
BRANCH  65  69
ATOM     69  S   UNL A   1      41.732  22.293  26.759  1.00  0.00     0.124 S 
ATOM     70  O   UNL A   1      40.331  22.342  27.168  1.00  0.00    -0.237 OA
ATOM     71  O   UNL A   1      41.983  21.853  25.391  1.00  0.00    -0.237 OA
ATOM     72  O   UNL A   1      42.650  21.763  27.765  1.00  0.00    -0.744 OA
ENDBRANCH  65  69
ENDBRANCH  48  62
BRANCH  49  73
ATOM     73  C   UNL A   1      39.103  32.098  35.340  1.00  0.00     0.023 A 
ATOM     74  C   UNL A   1      39.557  33.418  35.488  1.00  0.00     0.031 A 
ATOM     75  C   UNL A   1      38.257  31.578  36.334  1.00  0.00     0.131 A 
ATOM     76  C   UNL A   1      39.212  34.154  36.631  1.00  0.00     0.055 A 
ATOM     77  C   UNL A   1      37.871  32.333  37.443  1.00  0.00     0.041 A 
ATOM     78  F   UNL A   1      37.787  30.323  36.238  1.00  0.00    -0.206 F 
ATOM     79  C   UNL A   1      38.363  33.625  37.605  1.00  0.00     0.022 A 
BRANCH  76  80
ATOM     80  S   UNL A   1      39.977  35.781  36.877  1.00  0.00     0.124 S 
ATOM     81  O   UNL A   1      39.652  36.454  35.624  1.00  0.00    -0.237 OA
ATOM     82  O   UNL A   1      39.281  36.264  38.065  1.00  0.00    -0.237 OA
ATOM     83  O   UNL A   1      41.391  35.466  37.069  1.00  0.00    -0.744 OA
ENDBRANCH  76  80
ENDBRANCH  49  73
BRANCH  61  84
ATOM     84  C   UNL A   1      44.654  28.005  34.390  1.00  0.00     0.023 A 
ATOM     85  C   UNL A   1      44.686  26.948  35.314  1.00  0.00     0.031 A 
ATOM     86  C   UNL A   1      45.786  28.831  34.283  1.00  0.00     0.131 A 
ATOM     87  C   UNL A   1      45.811  26.774  36.134  1.00  0.00     0.055 A 
ATOM     88  C   UNL A   1      46.923  28.621  35.066  1.00  0.00     0.041 A 
ATOM     89  F   UNL A   1      45.806  29.855  33.415  1.00  0.00    -0.206 F 
ATOM     90  C   UNL A   1      46.934  27.595  36.006  1.00  0.00     0.022 A 
BRANCH  87  91
ATOM     91  S   UNL A   1      45.757  25.504  37.429  1.00  0.00     0.124 S 
ATOM     92  O   UNL A   1      44.513  25.828  38.121  1.00  0.00    -0.237 OA
ATOM     93  O   UNL A   1      45.751  24.268  36.653  1.00  0.00    -0.237 OA
ATOM     94  O   UNL A   1      46.976  25.746  38.198  1.00  0.00    -0.744 OA
ENDBRANCH  87  91
ENDBRANCH  61  84
ENDBRANCH  35  36
ENDBRANCH  27  30
ENDBRANCH  25  26
ENDBRANCH   1  25
TORSDOF 16
ENDMDL
MODEL 3
REMARK VINA RESULT:     -12.1      1.576      2.995
REMARK SMILES O=C(Cc1ccc(F)cc1F)Nc1sccc1C(=O)NCCCNC(=O)c1ccc(-c2c3nc(c(-c4cc(S(=O)(=O)[O-])ccc4F)c4ccc([nH]4)c(-c4cc(S(=O)(=O)[O-])ccc4F)c4nc(c(-c5cc(S(=O)(=O)[O-])ccc5F)c5ccc2[nH]5)C=C4)C=C3)cc1
REMARK SMILES IDX 22 1 21 2 20 3 18 4 19 5 17 7 13 8 14 9 15 10 16 11 12 12
REMARK SMILES IDX 1 13 2 14 3 16 4 17 5 18 10 19 6 20 9 21 11 22 7 23 8 24
REMARK SMILES IDX 23 25 24 26 25 27 26 29 27 30 28 31 89 32 29 33 88 34 30 35
REMARK SMILES IDX 31 36 32 37 82 38 33 39 87 40 81 41 83 42 34 43 86 44 80 45
REMARK SMILES IDX 79 46 35 48 67 49 47 50 66 51 48 52 51 53 65 54 84 55 49 56
REMARK SMILES IDX 50 57 64 59 85 60 52 61 36 62 37 63 45 64 38 65 44 66 46 67
REMARK SMILES IDX 43 68 39 69 40 70 41 71 42 72 68 73 69 74 77 75 70 76 76 77
REMARK SMILES IDX 78 78 75 79 71 80 72 81 73 82 74 83 53 84 54 85 62 86 55 87
REMARK SMILES IDX 61 88 63 89 60 90 56 91 57 92 58 93 59 94
REMARK H PARENT 20 6 12 15 24 28 83 47 51 58
REMARK Flexibility Score: inf
ROOT
ATOM      1  C   UNL A   1      31.798  28.950  26.898  1.00  0.00     0.042 C 
ENDROOT
BRANCH   1   2
ATOM      2  C   UNL A   1      32.340  27.540  26.777  1.00  0.00     0.118 C 
BRANCH   2   3
ATOM      3  N   UNL A   1      31.387  26.466  26.925  1.00  0.00    -0.352 N 
ATOM      4  C   UNL A   1      30.748  25.739  25.944  1.00  0.00     0.254 C 
ATOM      5  O   UNL A   1      30.012  24.819  26.313  1.00  0.00    -0.269 OA
ATOM      6  H   UNL A   1      31.164  26.220  27.851  1.00  0.00     0.163 HD
BRANCH   4   7
ATOM      7  C   UNL A   1      30.779  26.163  24.541  1.00  0.00     0.074 A 
ATOM      8  C   UNL A   1      31.580  25.745  23.489  1.00  0.00     0.108 A 
ATOM      9  S   UNL A   1      31.468  26.761  22.122  1.00  0.00    -0.126 S 
ATOM     10  C   UNL A   1      30.150  27.615  22.788  1.00  0.00     0.068 A 
ATOM     11  C   UNL A   1      29.889  27.206  24.074  1.00  0.00     0.028 A 
BRANCH   8  12
ATOM     12  N   UNL A   1      32.490  24.723  23.291  1.00  0.00    -0.317 N 
ATOM     13  O   UNL A   1      30.945  23.021  23.193  1.00  0.00    -0.274 OA
ATOM     14  C   UNL A   1      32.116  23.395  23.250  1.00  0.00     0.229 C 
ATOM     15  H   UNL A   1      33.441  24.951  23.175  1.00  0.00     0.170 HD
BRANCH  14  16
ATOM     16  C   UNL A   1      33.234  22.384  23.452  1.00  0.00     0.139 C 
BRANCH  16  17
ATOM     17  C   UNL A   1      34.570  22.771  24.034  1.00  0.00    -0.003 A 
ATOM     18  C   UNL A   1      35.777  22.871  23.336  1.00  0.00     0.010 A 
ATOM     19  C   UNL A   1      34.581  23.040  25.418  1.00  0.00     0.129 A 
ATOM     20  C   UNL A   1      36.936  23.283  24.006  1.00  0.00     0.040 A 
ATOM     21  C   UNL A   1      35.729  23.425  26.093  1.00  0.00     0.078 A 
ATOM     22  F   UNL A   1      33.443  22.922  26.118  1.00  0.00    -0.207 F 
ATOM     23  C   UNL A   1      36.901  23.554  25.372  1.00  0.00     0.126 A 
ATOM     24  F   UNL A   1      38.023  23.934  25.997  1.00  0.00    -0.207 F 
ENDBRANCH  16  17
ENDBRANCH  14  16
ENDBRANCH   8  12
ENDBRANCH   4   7
ENDBRANCH   2   3
ENDBRANCH   1   2
BRANCH   1  25
ATOM     25  C   UNL A   1      32.567  29.996  26.100  1.00  0.00     0.118 C 
BRANCH  25  26
ATOM     26  N   UNL A   1      32.378  31.371  26.558  1.00  0.00    -0.352 N 
ATOM     27  C   UNL A   1      33.148  32.214  27.328  1.00  0.00     0.251 C 
ATOM     28  H   UNL A   1      31.533  31.775  26.254  1.00  0.00     0.163 HD
ATOM     29  O   UNL A   1      32.691  33.315  27.631  1.00  0.00    -0.269 OA
BRANCH  27  30
ATOM     30  C   UNL A   1      34.481  31.809  27.836  1.00  0.00     0.039 A 
ATOM     31  C   UNL A   1      35.513  32.755  27.890  1.00  0.00     0.014 A 
ATOM     32  C   UNL A   1      34.736  30.506  28.250  1.00  0.00     0.014 A 
ATOM     33  C   UNL A   1      36.744  32.419  28.468  1.00  0.00     0.010 A 
ATOM     34  C   UNL A   1      35.905  30.211  28.941  1.00  0.00     0.010 A 
ATOM     35  C   UNL A   1      36.928  31.163  29.064  1.00  0.00    -0.014 A 
BRANCH  35  36
ATOM     36  C   UNL A   1      38.166  30.791  29.808  1.00  0.00     0.031 A 
ATOM     37  C   UNL A   1      39.137  29.810  29.198  1.00  0.00     0.074 A 
ATOM     38  C   UNL A   1      38.360  31.229  31.069  1.00  0.00     0.049 A 
ATOM     39  N   UNL A   1      40.128  29.162  29.754  1.00  0.00    -0.248 NA
ATOM     40  C   UNL A   1      38.920  29.473  27.782  1.00  0.00     0.031 C 
ATOM     41  C   UNL A   1      37.485  32.153  31.795  1.00  0.00     0.029 A 
ATOM     42  N   UNL A   1      39.352  30.940  31.975  1.00  0.00    -0.354 N 
ATOM     43  C   UNL A   1      40.624  28.311  28.770  1.00  0.00     0.074 A 
ATOM     44  C   UNL A   1      39.777  28.480  27.608  1.00  0.00     0.031 C 
ATOM     45  C   UNL A   1      37.994  32.376  33.017  1.00  0.00     0.029 A 
ATOM     46  C   UNL A   1      39.194  31.566  33.191  1.00  0.00     0.049 A 
ATOM     47  H   UNL A   1      40.107  30.340  31.773  1.00  0.00     0.167 HD
ATOM     48  C   UNL A   1      41.701  27.488  28.819  1.00  0.00     0.034 A 
ATOM     49  C   UNL A   1      39.921  31.481  34.323  1.00  0.00     0.034 A 
ATOM     50  C   UNL A   1      42.567  27.370  29.966  1.00  0.00     0.049 A 
ATOM     51  C   UNL A   1      41.118  30.563  34.353  1.00  0.00     0.074 A 
ATOM     52  C   UNL A   1      43.708  26.601  30.113  1.00  0.00     0.029 A 
ATOM     53  N   UNL A   1      42.394  28.055  31.162  1.00  0.00    -0.354 N 
ATOM     54  N   UNL A   1      41.574  29.769  33.412  1.00  0.00    -0.248 NA
ATOM     55  C   UNL A   1      41.900  30.536  35.596  1.00  0.00     0.031 C 
ATOM     56  C   UNL A   1      44.202  26.790  31.409  1.00  0.00     0.029 A 
ATOM     57  C   UNL A   1      43.404  27.722  32.051  1.00  0.00     0.049 A 
ATOM     58  H   UNL A   1      41.662  28.686  31.350  1.00  0.00     0.167 HD
ATOM     59  C   UNL A   1      42.719  29.179  33.940  1.00  0.00     0.074 A 
ATOM     60  C   UNL A   1      42.888  29.715  35.274  1.00  0.00     0.031 C 
ATOM     61  C   UNL A   1      43.559  28.276  33.374  1.00  0.00     0.034 A 
BRANCH  48  62
ATOM     62  C   UNL A   1      41.992  26.654  27.593  1.00  0.00     0.023 A 
ATOM     63  C   UNL A   1      41.690  25.281  27.552  1.00  0.00     0.031 A 
ATOM     64  C   UNL A   1      42.616  27.223  26.469  1.00  0.00     0.131 A 
ATOM     65  C   UNL A   1      42.095  24.507  26.455  1.00  0.00     0.055 A 
ATOM     66  C   UNL A   1      42.933  26.463  25.341  1.00  0.00     0.041 A 
ATOM     67  F   UNL A   1      42.945  28.524  26.455  1.00  0.00    -0.206 F 
ATOM     68  C   UNL A   1      42.690  25.092  25.336  1.00  0.00     0.022 A 
BRANCH  65  69
ATOM     69  S   UNL A   1      41.970  22.702  26.583  1.00  0.00     0.124 S 
ATOM     70  O   UNL A   1      40.610  22.539  27.091  1.00  0.00    -0.237 OA
ATOM     71  O   UNL A   1      42.194  22.271  25.208  1.00  0.00    -0.237 OA
ATOM     72  O   UNL A   1      43.028  22.352  27.529  1.00  0.00    -0.744 OA
ENDBRANCH  65  69
ENDBRANCH  48  62
BRANCH  49  73
ATOM     73  C   UNL A   1      39.550  32.275  35.530  1.00  0.00     0.023 A 
ATOM     74  C   UNL A   1      38.775  31.702  36.551  1.00  0.00     0.031 A 
ATOM     75  C   UNL A   1      39.907  33.629  35.657  1.00  0.00     0.131 A 
ATOM     76  C   UNL A   1      38.332  32.491  37.623  1.00  0.00     0.055 A 
ATOM     77  C   UNL A   1      39.511  34.396  36.754  1.00  0.00     0.041 A 
ATOM     78  F   UNL A   1      40.654  34.225  34.713  1.00  0.00    -0.206 F 
ATOM     79  C   UNL A   1      38.704  33.832  37.737  1.00  0.00     0.022 A 
BRANCH  76  80
ATOM     80  S   UNL A   1      37.174  31.762  38.814  1.00  0.00     0.124 S 
ATOM     81  O   UNL A   1      37.934  31.846  40.056  1.00  0.00    -0.237 OA
ATOM     82  O   UNL A   1      36.025  32.655  38.702  1.00  0.00    -0.237 OA
ATOM     83  O   UNL A   1      36.964  30.410  38.300  1.00  0.00    -0.744 OA
ENDBRANCH  76  80
ENDBRANCH  49  73
BRANCH  61  84
ATOM     84  C   UNL A   1      44.768  27.871  34.177  1.00  0.00     0.023 A 
ATOM     85  C   UNL A   1      44.747  26.763  35.039  1.00  0.00     0.031 A 
ATOM     86  C   UNL A   1      45.955  28.618  34.081  1.00  0.00     0.131 A 
ATOM     87  C   UNL A   1      45.876  26.461  35.813  1.00  0.00     0.055 A 
ATOM     88  C   UNL A   1      47.093  28.281  34.815  1.00  0.00     0.041 A 
ATOM     89  F   UNL A   1      46.028  29.686  33.271  1.00  0.00    -0.206 F 
ATOM     90  C   UNL A   1      47.054  27.205  35.697  1.00  0.00     0.022 A 
BRANCH  87  91
ATOM     91  S   UNL A   1      45.763  25.126  37.037  1.00  0.00     0.124 S 
ATOM     92  O   UNL A   1      44.320  24.982  37.197  1.00  0.00    -0.237 OA
ATOM     93  O   UNL A   1      46.442  24.025  36.362  1.00  0.00    -0.237 OA
ATOM     94  O   UNL A   1      46.465  25.666  38.200  1.00  0.00    -0.744 OA
ENDBRANCH  87  91
ENDBRANCH  61  84
ENDBRANCH  35  36
ENDBRANCH  27  30
ENDBRANCH  25  26
ENDBRANCH   1  25
TORSDOF 16
ENDMDL
