MODEL 1
REMARK VINA RESULT:     -12.6      0.000      0.000
REMARK SMILES O=C(NCCCNC(=O)c1cccc(Nc2ccnc3ccc(Cl)cc23)c1)c1ccc(-c2c3nc(c(-c4cc(S(=O)(=O)[O-])ccc4F)c4ccc([nH]4)c(-c4cc(S(=O)(=O)[O-])ccc4F)c4nc(c(-c5cc(S(=O)(=O)[O-])ccc5F)c5ccc2[nH]5)C=C4)C=C3)cc1
REMARK SMILES IDX 4 1 3 2 1 3 2 4 28 6 29 7 90 8 30 9 89 10 31 11 32 12 33 13
REMARK SMILES IDX 83 14 34 15 88 16 82 17 84 18 35 19 87 20 81 21 80 22 36 24
REMARK SMILES IDX 68 25 48 26 67 27 49 28 52 29 66 30 85 31 50 32 51 33 65 35
REMARK SMILES IDX 86 36 53 37 37 38 38 39 46 40 39 41 45 42 47 43 44 44 40 45
REMARK SMILES IDX 41 46 42 47 43 48 69 49 70 50 78 51 71 52 77 53 79 54 76 55
REMARK SMILES IDX 72 56 73 57 74 58 75 59 54 60 55 61 63 62 56 63 62 64 64 65
REMARK SMILES IDX 61 66 57 67 58 68 59 69 60 70 5 71 6 72 7 73 8 74 9 76 10 77
REMARK SMILES IDX 11 78 27 79 12 80 14 81 13 82 15 83 16 85 17 86 26 87 18 88
REMARK SMILES IDX 20 89 25 90 19 91 21 92 23 93 22 94 24 95
REMARK H PARENT 3 5 84 23 52 34 7 75 15 84
REMARK Flexibility Score: inf
ROOT
ATOM      1  C   UNL A   1      32.995  29.052  25.237  1.00  0.00     0.118 C 
ENDROOT
BRANCH   1   2
ATOM      2  N   UNL A   1      32.488  30.326  25.720  1.00  0.00    -0.352 N 
ATOM      3  O   UNL A   1      32.249  32.151  26.995  1.00  0.00    -0.269 OA
ATOM      4  C   UNL A   1      32.927  31.163  26.719  1.00  0.00     0.251 C 
ATOM      5  H   UNL A   1      31.685  30.647  25.248  1.00  0.00     0.163 HD
BRANCH   4   6
ATOM      6  C   UNL A   1      34.175  30.901  27.479  1.00  0.00     0.039 A 
ATOM      7  C   UNL A   1      35.112  31.900  27.747  1.00  0.00     0.014 A 
ATOM      8  C   UNL A   1      34.372  29.618  28.010  1.00  0.00     0.014 A 
ATOM      9  C   UNL A   1      36.292  31.594  28.432  1.00  0.00     0.010 A 
ATOM     10  C   UNL A   1      35.522  29.328  28.753  1.00  0.00     0.010 A 
ATOM     11  C   UNL A   1      36.509  30.306  28.947  1.00  0.00    -0.014 A 
BRANCH  11  12
ATOM     12  C   UNL A   1      37.747  30.000  29.719  1.00  0.00     0.031 A 
ATOM     13  C   UNL A   1      38.766  29.029  29.187  1.00  0.00     0.074 A 
ATOM     14  C   UNL A   1      37.942  30.582  30.919  1.00  0.00     0.049 A 
ATOM     15  N   UNL A   1      39.874  28.603  29.741  1.00  0.00    -0.248 NA
ATOM     16  C   UNL A   1      38.495  28.450  27.865  1.00  0.00     0.031 C 
ATOM     17  C   UNL A   1      37.022  31.527  31.552  1.00  0.00     0.029 A 
ATOM     18  N   UNL A   1      38.968  30.458  31.824  1.00  0.00    -0.354 N 
ATOM     19  C   UNL A   1      40.428  27.696  28.842  1.00  0.00     0.074 A 
ATOM     20  C   UNL A   1      39.506  27.606  27.728  1.00  0.00     0.031 C 
ATOM     21  C   UNL A   1      37.524  31.902  32.738  1.00  0.00     0.029 A 
ATOM     22  C   UNL A   1      38.771  31.181  32.978  1.00  0.00     0.049 A 
ATOM     23  H   UNL A   1      39.766  29.906  31.662  1.00  0.00     0.167 HD
ATOM     24  C   UNL A   1      41.598  27.013  28.934  1.00  0.00     0.034 A 
ATOM     25  C   UNL A   1      39.487  31.232  34.119  1.00  0.00     0.034 A 
ATOM     26  C   UNL A   1      42.500  27.108  30.059  1.00  0.00     0.049 A 
ATOM     27  C   UNL A   1      40.753  30.427  34.228  1.00  0.00     0.074 A 
ATOM     28  C   UNL A   1      43.735  26.504  30.230  1.00  0.00     0.029 A 
ATOM     29  N   UNL A   1      42.256  27.836  31.219  1.00  0.00    -0.354 N 
ATOM     30  N   UNL A   1      41.288  29.610  33.350  1.00  0.00    -0.248 NA
ATOM     31  C   UNL A   1      41.517  30.552  35.476  1.00  0.00     0.031 C 
ATOM     32  C   UNL A   1      44.196  26.800  31.518  1.00  0.00     0.029 A 
ATOM     33  C   UNL A   1      43.295  27.660  32.123  1.00  0.00     0.049 A 
ATOM     34  H   UNL A   1      41.462  28.395  31.376  1.00  0.00     0.167 HD
ATOM     35  C   UNL A   1      42.462  29.142  33.932  1.00  0.00     0.074 A 
ATOM     36  C   UNL A   1      42.561  29.772  35.232  1.00  0.00     0.031 C 
ATOM     37  C   UNL A   1      43.378  28.276  33.428  1.00  0.00     0.034 A 
BRANCH  24  38
ATOM     38  C   UNL A   1      41.937  26.063  27.806  1.00  0.00     0.023 A 
ATOM     39  C   UNL A   1      41.577  24.704  27.846  1.00  0.00     0.031 A 
ATOM     40  C   UNL A   1      42.669  26.512  26.691  1.00  0.00     0.131 A 
ATOM     41  C   UNL A   1      42.029  23.827  26.847  1.00  0.00     0.055 A 
ATOM     42  C   UNL A   1      43.038  25.653  25.654  1.00  0.00     0.041 A 
ATOM     43  F   UNL A   1      43.057  27.794  26.600  1.00  0.00    -0.206 F 
ATOM     44  C   UNL A   1      42.736  24.296  25.738  1.00  0.00     0.022 A 
BRANCH  41  45
ATOM     45  S   UNL A   1      41.836  22.042  27.112  1.00  0.00     0.124 S 
ATOM     46  O   UNL A   1      42.884  21.772  28.095  1.00  0.00    -0.237 OA
ATOM     47  O   UNL A   1      40.465  21.942  27.598  1.00  0.00    -0.237 OA
ATOM     48  O   UNL A   1      42.074  21.471  25.789  1.00  0.00    -0.744 OA
ENDBRANCH  41  45
ENDBRANCH  24  38
BRANCH  25  49
ATOM     49  C   UNL A   1      38.983  32.039  35.266  1.00  0.00     0.023 A 
ATOM     50  C   UNL A   1      38.375  31.437  36.377  1.00  0.00     0.031 A 
ATOM     51  C   UNL A   1      39.122  33.440  35.265  1.00  0.00     0.131 A 
ATOM     52  C   UNL A   1      37.909  32.236  37.434  1.00  0.00     0.055 A 
ATOM     53  C   UNL A   1      38.700  34.224  36.339  1.00  0.00     0.041 A 
ATOM     54  F   UNL A   1      39.702  34.063  34.228  1.00  0.00    -0.206 F 
ATOM     55  C   UNL A   1      38.083  33.622  37.430  1.00  0.00     0.022 A 
BRANCH  52  56
ATOM     56  S   UNL A   1      37.028  31.439  38.804  1.00  0.00     0.124 S 
ATOM     57  O   UNL A   1      37.969  31.616  39.905  1.00  0.00    -0.237 OA
ATOM     58  O   UNL A   1      35.802  32.226  38.876  1.00  0.00    -0.237 OA
ATOM     59  O   UNL A   1      36.856  30.063  38.345  1.00  0.00    -0.744 OA
ENDBRANCH  52  56
ENDBRANCH  25  49
BRANCH  37  60
ATOM     60  C   UNL A   1      44.597  27.991  34.272  1.00  0.00     0.023 A 
ATOM     61  C   UNL A   1      44.637  26.923  35.186  1.00  0.00     0.031 A 
ATOM     62  C   UNL A   1      45.743  28.798  34.146  1.00  0.00     0.131 A 
ATOM     63  C   UNL A   1      45.786  26.713  35.964  1.00  0.00     0.055 A 
ATOM     64  C   UNL A   1      46.901  28.551  34.883  1.00  0.00     0.041 A 
ATOM     65  F   UNL A   1      45.757  29.834  33.292  1.00  0.00    -0.206 F 
ATOM     66  C   UNL A   1      46.925  27.509  35.806  1.00  0.00     0.022 A 
BRANCH  63  67
ATOM     67  S   UNL A   1      45.759  25.421  37.238  1.00  0.00     0.124 S 
ATOM     68  O   UNL A   1      46.707  24.449  36.703  1.00  0.00    -0.237 OA
ATOM     69  O   UNL A   1      46.188  26.145  38.429  1.00  0.00    -0.237 OA
ATOM     70  O   UNL A   1      44.364  24.982  37.251  1.00  0.00    -0.744 OA
ENDBRANCH  63  67
ENDBRANCH  37  60
ENDBRANCH  11  12
ENDBRANCH   4   6
ENDBRANCH   1   2
BRANCH   1  71
ATOM     71  C   UNL A   1      33.636  29.122  23.850  1.00  0.00     0.042 C 
BRANCH  71  72
ATOM     72  C   UNL A   1      32.765  28.698  22.671  1.00  0.00     0.118 C 
BRANCH  72  73
ATOM     73  N   UNL A   1      33.325  27.646  21.838  1.00  0.00    -0.352 N 
ATOM     74  C   UNL A   1      32.975  26.316  21.798  1.00  0.00     0.251 C 
ATOM     75  H   UNL A   1      34.045  27.920  21.226  1.00  0.00     0.163 HD
ATOM     76  O   UNL A   1      33.278  25.612  20.842  1.00  0.00    -0.269 OA
BRANCH  74  77
ATOM     77  C   UNL A   1      32.305  25.704  22.961  1.00  0.00     0.041 A 
ATOM     78  C   UNL A   1      30.942  25.976  23.117  1.00  0.00     0.014 A 
ATOM     79  C   UNL A   1      33.011  24.931  23.900  1.00  0.00     0.039 A 
ATOM     80  C   UNL A   1      30.264  25.463  24.213  1.00  0.00     0.003 A 
ATOM     81  C   UNL A   1      32.320  24.380  24.988  1.00  0.00     0.039 A 
ATOM     82  C   UNL A   1      30.949  24.672  25.132  1.00  0.00     0.026 A 
BRANCH  81  83
ATOM     83  N   UNL A   1      32.900  23.410  25.838  1.00  0.00    -0.355 N 
ATOM     84  H   UNL A   1      32.836  23.552  26.810  1.00  0.00     0.167 HD
BRANCH  83  85
ATOM     85  C   UNL A   1      33.572  22.243  25.380  1.00  0.00     0.050 A 
ATOM     86  C   UNL A   1      32.790  21.136  25.022  1.00  0.00     0.047 A 
ATOM     87  C   UNL A   1      34.986  22.106  25.373  1.00  0.00     0.025 A 
ATOM     88  C   UNL A   1      33.403  19.948  24.699  1.00  0.00     0.114 A 
ATOM     89  C   UNL A   1      35.501  20.835  25.008  1.00  0.00     0.072 A 
ATOM     90  C   UNL A   1      35.907  23.119  25.743  1.00  0.00     0.033 A 
ATOM     91  N   UNL A   1      34.736  19.787  24.682  1.00  0.00    -0.256 NA
ATOM     92  C   UNL A   1      36.870  20.623  25.000  1.00  0.00     0.030 A 
ATOM     93  C   UNL A   1      37.283  22.871  25.728  1.00  0.00     0.041 A 
ATOM     94  C   UNL A   1      37.770  21.626  25.352  1.00  0.00     0.023 A 
ATOM     95  Cl  UNL A   1      38.391  24.104  26.187  1.00  0.00    -0.084 Cl
ENDBRANCH  83  85
ENDBRANCH  81  83
ENDBRANCH  74  77
ENDBRANCH  72  73
ENDBRANCH  71  72
ENDBRANCH   1  71
TORSDOF 15
ENDMDL
MODEL 2
REMARK VINA RESULT:     -12.4      2.342      3.144
REMARK SMILES O=C(NCCCNC(=O)c1cccc(Nc2ccnc3ccc(Cl)cc23)c1)c1ccc(-c2c3nc(c(-c4cc(S(=O)(=O)[O-])ccc4F)c4ccc([nH]4)c(-c4cc(S(=O)(=O)[O-])ccc4F)c4nc(c(-c5cc(S(=O)(=O)[O-])ccc5F)c5ccc2[nH]5)C=C4)C=C3)cc1
REMARK SMILES IDX 4 1 3 2 1 3 2 4 28 6 29 7 90 8 30 9 89 10 31 11 32 12 33 13
REMARK SMILES IDX 83 14 34 15 88 16 82 17 84 18 35 19 87 20 81 21 80 22 36 24
REMARK SMILES IDX 68 25 48 26 67 27 49 28 52 29 66 30 85 31 50 32 51 33 65 35
REMARK SMILES IDX 86 36 53 37 37 38 38 39 46 40 39 41 45 42 47 43 44 44 40 45
REMARK SMILES IDX 41 46 42 47 43 48 69 49 70 50 78 51 71 52 77 53 79 54 76 55
REMARK SMILES IDX 72 56 73 57 74 58 75 59 54 60 55 61 63 62 56 63 62 64 64 65
REMARK SMILES IDX 61 66 57 67 58 68 59 69 60 70 5 71 6 72 7 73 8 74 9 76 10 77
REMARK SMILES IDX 11 78 27 79 12 80 14 81 13 82 15 83 16 85 17 86 26 87 18 88
REMARK SMILES IDX 20 89 25 90 19 91 21 92 23 93 22 94 24 95
REMARK H PARENT 3 5 84 23 52 34 7 75 15 84
REMARK Flexibility Score: inf
ROOT
ATOM      1  C   UNL A   1      32.575  32.680  27.199  1.00  0.00     0.118 C 
ENDROOT
BRANCH   1   2
ATOM      2  N   UNL A   1      32.471  34.043  27.697  1.00  0.00    -0.352 N 
ATOM      3  O   UNL A   1      32.809  35.848  28.978  1.00  0.00    -0.269 OA
ATOM      4  C   UNL A   1      33.165  34.710  28.680  1.00  0.00     0.251 C 
ATOM      5  H   UNL A   1      31.780  34.585  27.252  1.00  0.00     0.163 HD
BRANCH   4   6
ATOM      6  C   UNL A   1      34.308  34.093  29.398  1.00  0.00     0.039 A 
ATOM      7  C   UNL A   1      34.133  33.140  30.404  1.00  0.00     0.014 A 
ATOM      8  C   UNL A   1      35.608  34.427  28.992  1.00  0.00     0.014 A 
ATOM      9  C   UNL A   1      35.240  32.618  31.080  1.00  0.00     0.010 A 
ATOM     10  C   UNL A   1      36.717  33.855  29.624  1.00  0.00     0.010 A 
ATOM     11  C   UNL A   1      36.545  32.965  30.695  1.00  0.00    -0.014 A 
BRANCH  11  12
ATOM     12  C   UNL A   1      37.721  32.366  31.387  1.00  0.00     0.031 A 
ATOM     13  C   UNL A   1      38.485  31.228  30.765  1.00  0.00     0.074 A 
ATOM     14  C   UNL A   1      38.089  32.834  32.596  1.00  0.00     0.049 A 
ATOM     15  N   UNL A   1      39.499  30.550  31.243  1.00  0.00    -0.248 NA
ATOM     16  C   UNL A   1      38.038  30.785  29.438  1.00  0.00     0.031 C 
ATOM     17  C   UNL A   1      37.421  33.921  33.314  1.00  0.00     0.029 A 
ATOM     18  N   UNL A   1      39.103  32.452  33.440  1.00  0.00    -0.354 N 
ATOM     19  C   UNL A   1      39.806  29.592  30.282  1.00  0.00     0.074 A 
ATOM     20  C   UNL A   1      38.838  29.753  29.215  1.00  0.00     0.031 C 
ATOM     21  C   UNL A   1      38.044  34.122  34.484  1.00  0.00     0.029 A 
ATOM     22  C   UNL A   1      39.117  33.143  34.630  1.00  0.00     0.049 A 
ATOM     23  H   UNL A   1      39.757  31.752  33.215  1.00  0.00     0.167 HD
ATOM     24  C   UNL A   1      40.806  28.672  30.286  1.00  0.00     0.034 A 
ATOM     25  C   UNL A   1      39.876  32.985  35.733  1.00  0.00     0.034 A 
ATOM     26  C   UNL A   1      41.755  28.519  31.363  1.00  0.00     0.049 A 
ATOM     27  C   UNL A   1      40.943  31.925  35.743  1.00  0.00     0.074 A 
ATOM     28  C   UNL A   1      42.838  27.659  31.445  1.00  0.00     0.029 A 
ATOM     29  N   UNL A   1      41.724  29.225  32.561  1.00  0.00    -0.354 N 
ATOM     30  N   UNL A   1      41.252  31.058  34.808  1.00  0.00    -0.248 NA
ATOM     31  C   UNL A   1      41.770  31.825  36.953  1.00  0.00     0.031 C 
ATOM     32  C   UNL A   1      43.408  27.787  32.717  1.00  0.00     0.029 A 
ATOM     33  C   UNL A   1      42.739  28.788  33.402  1.00  0.00     0.049 A 
ATOM     34  H   UNL A   1      41.075  29.931  32.782  1.00  0.00     0.167 HD
ATOM     35  C   UNL A   1      42.323  30.323  35.308  1.00  0.00     0.074 A 
ATOM     36  C   UNL A   1      42.612  30.854  36.624  1.00  0.00     0.031 C 
ATOM     37  C   UNL A   1      43.010  29.308  34.723  1.00  0.00     0.034 A 
BRANCH  24  38
ATOM     38  C   UNL A   1      40.884  27.728  29.105  1.00  0.00     0.023 A 
ATOM     39  C   UNL A   1      41.826  27.902  28.076  1.00  0.00     0.031 A 
ATOM     40  C   UNL A   1      39.975  26.661  28.984  1.00  0.00     0.131 A 
ATOM     41  C   UNL A   1      41.777  27.090  26.932  1.00  0.00     0.055 A 
ATOM     42  C   UNL A   1      39.989  25.798  27.885  1.00  0.00     0.041 A 
ATOM     43  F   UNL A   1      39.040  26.449  29.924  1.00  0.00    -0.206 F 
ATOM     44  C   UNL A   1      40.881  26.023  26.841  1.00  0.00     0.022 A 
BRANCH  41  45
ATOM     45  S   UNL A   1      42.777  27.562  25.493  1.00  0.00     0.124 S 
ATOM     46  O   UNL A   1      42.712  26.352  24.675  1.00  0.00    -0.237 OA
ATOM     47  O   UNL A   1      42.059  28.721  24.977  1.00  0.00    -0.237 OA
ATOM     48  O   UNL A   1      44.091  27.844  26.066  1.00  0.00    -0.744 OA
ENDBRANCH  41  45
ENDBRANCH  24  38
BRANCH  25  49
ATOM     49  C   UNL A   1      39.607  33.824  36.934  1.00  0.00     0.023 A 
ATOM     50  C   UNL A   1      38.953  33.305  38.061  1.00  0.00     0.031 A 
ATOM     51  C   UNL A   1      40.022  35.169  36.970  1.00  0.00     0.131 A 
ATOM     52  C   UNL A   1      38.716  34.132  39.171  1.00  0.00     0.055 A 
ATOM     53  C   UNL A   1      39.826  35.972  38.094  1.00  0.00     0.041 A 
ATOM     54  F   UNL A   1      40.657  35.711  35.919  1.00  0.00    -0.206 F 
ATOM     55  C   UNL A   1      39.162  35.456  39.201  1.00  0.00     0.022 A 
BRANCH  52  56
ATOM     56  S   UNL A   1      37.771  33.465  40.568  1.00  0.00     0.124 S 
ATOM     57  O   UNL A   1      38.682  32.450  41.085  1.00  0.00    -0.237 OA
ATOM     58  O   UNL A   1      37.586  34.647  41.403  1.00  0.00    -0.237 OA
ATOM     59  O   UNL A   1      36.555  32.951  39.942  1.00  0.00    -0.744 OA
ENDBRANCH  52  56
ENDBRANCH  25  49
BRANCH  37  60
ATOM     60  C   UNL A   1      44.175  28.731  35.490  1.00  0.00     0.023 A 
ATOM     61  C   UNL A   1      44.010  27.698  36.430  1.00  0.00     0.031 A 
ATOM     62  C   UNL A   1      45.475  29.217  35.262  1.00  0.00     0.131 A 
ATOM     63  C   UNL A   1      45.122  27.209  37.133  1.00  0.00     0.055 A 
ATOM     64  C   UNL A   1      46.584  28.690  35.925  1.00  0.00     0.041 A 
ATOM     65  F   UNL A   1      45.689  30.205  34.380  1.00  0.00    -0.206 F 
ATOM     66  C   UNL A   1      46.410  27.686  36.874  1.00  0.00     0.022 A 
BRANCH  63  67
ATOM     67  S   UNL A   1      44.860  25.981  38.442  1.00  0.00     0.124 S 
ATOM     68  O   UNL A   1      46.179  25.915  39.062  1.00  0.00    -0.237 OA
ATOM     69  O   UNL A   1      43.808  26.595  39.244  1.00  0.00    -0.237 OA
ATOM     70  O   UNL A   1      44.459  24.780  37.711  1.00  0.00    -0.744 OA
ENDBRANCH  63  67
ENDBRANCH  37  60
ENDBRANCH  11  12
ENDBRANCH   4   6
ENDBRANCH   1   2
BRANCH   1  71
ATOM     71  C   UNL A   1      31.324  32.186  26.471  1.00  0.00     0.042 C 
BRANCH  71  72
ATOM     72  C   UNL A   1      31.393  30.788  25.864  1.00  0.00     0.118 C 
BRANCH  72  73
ATOM     73  N   UNL A   1      30.622  30.606  24.644  1.00  0.00    -0.352 N 
ATOM     74  C   UNL A   1      30.519  29.478  23.863  1.00  0.00     0.251 C 
ATOM     75  H   UNL A   1      30.111  31.390  24.339  1.00  0.00     0.163 HD
ATOM     76  O   UNL A   1      29.600  29.346  23.064  1.00  0.00    -0.269 OA
BRANCH  74  77
ATOM     77  C   UNL A   1      31.580  28.455  23.920  1.00  0.00     0.041 A 
ATOM     78  C   UNL A   1      32.611  28.564  22.982  1.00  0.00     0.014 A 
ATOM     79  C   UNL A   1      31.530  27.387  24.834  1.00  0.00     0.039 A 
ATOM     80  C   UNL A   1      33.617  27.609  22.957  1.00  0.00     0.003 A 
ATOM     81  C   UNL A   1      32.565  26.442  24.836  1.00  0.00     0.039 A 
ATOM     82  C   UNL A   1      33.592  26.566  23.879  1.00  0.00     0.026 A 
BRANCH  81  83
ATOM     83  N   UNL A   1      32.709  25.483  25.865  1.00  0.00    -0.355 N 
ATOM     84  H   UNL A   1      32.801  25.809  26.789  1.00  0.00     0.167 HD
BRANCH  83  85
ATOM     85  C   UNL A   1      32.730  24.077  25.652  1.00  0.00     0.050 A 
ATOM     86  C   UNL A   1      31.500  23.411  25.555  1.00  0.00     0.047 A 
ATOM     87  C   UNL A   1      33.922  23.304  25.645  1.00  0.00     0.025 A 
ATOM     88  C   UNL A   1      31.475  22.038  25.479  1.00  0.00     0.114 A 
ATOM     89  C   UNL A   1      33.768  21.896  25.548  1.00  0.00     0.072 A 
ATOM     90  C   UNL A   1      35.235  23.825  25.771  1.00  0.00     0.033 A 
ATOM     91  N   UNL A   1      32.584  21.280  25.469  1.00  0.00    -0.256 NA
ATOM     92  C   UNL A   1      34.887  21.080  25.557  1.00  0.00     0.030 A 
ATOM     93  C   UNL A   1      36.342  22.973  25.781  1.00  0.00     0.041 A 
ATOM     94  C   UNL A   1      36.175  21.599  25.668  1.00  0.00     0.023 A 
ATOM     95  Cl  UNL A   1      37.930  23.616  25.943  1.00  0.00    -0.084 Cl
ENDBRANCH  83  85
ENDBRANCH  81  83
ENDBRANCH  74  77
ENDBRANCH  72  73
ENDBRANCH  71  72
ENDBRANCH   1  71
TORSDOF 15
ENDMDL
MODEL 3
REMARK VINA RESULT:     -12.4      5.130     10.173
REMARK SMILES O=C(NCCCNC(=O)c1cccc(Nc2ccnc3ccc(Cl)cc23)c1)c1ccc(-c2c3nc(c(-c4cc(S(=O)(=O)[O-])ccc4F)c4ccc([nH]4)c(-c4cc(S(=O)(=O)[O-])ccc4F)c4nc(c(-c5cc(S(=O)(=O)[O-])ccc5F)c5ccc2[nH]5)C=C4)C=C3)cc1
REMARK SMILES IDX 4 1 3 2 1 3 2 4 28 6 29 7 90 8 30 9 89 10 31 11 32 12 33 13
REMARK SMILES IDX 83 14 34 15 88 16 82 17 84 18 35 19 87 20 81 21 80 22 36 24
REMARK SMILES IDX 68 25 48 26 67 27 49 28 52 29 66 30 85 31 50 32 51 33 65 35
REMARK SMILES IDX 86 36 53 37 37 38 38 39 46 40 39 41 45 42 47 43 44 44 40 45
REMARK SMILES IDX 41 46 42 47 43 48 69 49 70 50 78 51 71 52 77 53 79 54 76 55
REMARK SMILES IDX 72 56 73 57 74 58 75 59 54 60 55 61 63 62 56 63 62 64 64 65
REMARK SMILES IDX 61 66 57 67 58 68 59 69 60 70 5 71 6 72 7 73 8 74 9 76 10 77
REMARK SMILES IDX 11 78 27 79 12 80 14 81 13 82 15 83 16 85 17 86 26 87 18 88
REMARK SMILES IDX 20 89 25 90 19 91 21 92 23 93 22 94 24 95
REMARK H PARENT 3 5 84 23 52 34 7 75 15 84
REMARK Flexibility Score: inf
ROOT
ATOM      1  C   UNL A   1      35.867  22.099  25.534  1.00  0.00     0.118 C 
ENDROOT
BRANCH   1   2
ATOM      2  N   UNL A   1      36.872  21.047  25.532  1.00  0.00    -0.352 N 
ATOM      3  O   UNL A   1      38.876  20.049  25.583  1.00  0.00    -0.269 OA
ATOM      4  C   UNL A   1      38.231  21.085  25.739  1.00  0.00     0.251 C 
ATOM      5  H   UNL A   1      36.516  20.147  25.348  1.00  0.00     0.163 HD
BRANCH   4   6
ATOM      6  C   UNL A   1      38.939  22.332  26.123  1.00  0.00     0.039 A 
ATOM      7  C   UNL A   1      38.473  23.598  25.761  1.00  0.00     0.014 A 
ATOM      8  C   UNL A   1      40.070  22.229  26.945  1.00  0.00     0.014 A 
ATOM      9  C   UNL A   1      39.197  24.741  26.112  1.00  0.00     0.010 A 
ATOM     10  C   UNL A   1      40.757  23.378  27.351  1.00  0.00     0.010 A 
ATOM     11  C   UNL A   1      40.345  24.646  26.916  1.00  0.00    -0.014 A 
BRANCH  11  12
ATOM     12  C   UNL A   1      41.083  25.873  27.327  1.00  0.00     0.031 A 
ATOM     13  C   UNL A   1      40.398  26.956  28.117  1.00  0.00     0.074 A 
ATOM     14  C   UNL A   1      42.371  26.026  26.964  1.00  0.00     0.049 A 
ATOM     15  N   UNL A   1      40.865  28.112  28.518  1.00  0.00    -0.248 NA
ATOM     16  C   UNL A   1      38.999  26.710  28.493  1.00  0.00     0.031 C 
ATOM     17  C   UNL A   1      43.143  25.058  26.183  1.00  0.00     0.029 A 
ATOM     18  N   UNL A   1      43.256  27.052  27.192  1.00  0.00    -0.354 N 
ATOM     19  C   UNL A   1      39.815  28.740  29.182  1.00  0.00     0.074 A 
ATOM     20  C   UNL A   1      38.677  27.848  29.089  1.00  0.00     0.031 C 
ATOM     21  C   UNL A   1      44.385  25.531  26.001  1.00  0.00     0.029 A 
ATOM     22  C   UNL A   1      44.483  26.860  26.599  1.00  0.00     0.049 A 
ATOM     23  H   UNL A   1      43.034  27.847  27.728  1.00  0.00     0.167 HD
ATOM     24  C   UNL A   1      39.806  29.941  29.817  1.00  0.00     0.034 A 
ATOM     25  C   UNL A   1      45.555  27.673  26.508  1.00  0.00     0.034 A 
ATOM     26  C   UNL A   1      40.949  30.821  29.890  1.00  0.00     0.049 A 
ATOM     27  C   UNL A   1      45.510  29.023  27.169  1.00  0.00     0.074 A 
ATOM     28  C   UNL A   1      41.065  32.032  30.554  1.00  0.00     0.029 A 
ATOM     29  N   UNL A   1      42.169  30.601  29.260  1.00  0.00    -0.354 N 
ATOM     30  N   UNL A   1      44.527  29.583  27.834  1.00  0.00    -0.248 NA
ATOM     31  C   UNL A   1      46.720  29.850  27.076  1.00  0.00     0.031 C 
ATOM     32  C   UNL A   1      42.320  32.578  30.258  1.00  0.00     0.029 A 
ATOM     33  C   UNL A   1      43.024  31.672  29.482  1.00  0.00     0.049 A 
ATOM     34  H   UNL A   1      42.393  29.802  28.732  1.00  0.00     0.167 HD
ATOM     35  C   UNL A   1      45.007  30.818  28.257  1.00  0.00     0.074 A 
ATOM     36  C   UNL A   1      46.371  30.919  27.778  1.00  0.00     0.031 C 
ATOM     37  C   UNL A   1      44.378  31.776  28.984  1.00  0.00     0.034 A 
BRANCH  24  38
ATOM     38  C   UNL A   1      38.500  30.388  30.436  1.00  0.00     0.023 A 
ATOM     39  C   UNL A   1      37.570  31.169  29.725  1.00  0.00     0.031 A 
ATOM     40  C   UNL A   1      38.195  30.066  31.771  1.00  0.00     0.131 A 
ATOM     41  C   UNL A   1      36.436  31.679  30.376  1.00  0.00     0.055 A 
ATOM     42  C   UNL A   1      37.020  30.501  32.388  1.00  0.00     0.041 A 
ATOM     43  F   UNL A   1      39.048  29.338  32.510  1.00  0.00    -0.206 F 
ATOM     44  C   UNL A   1      36.142  31.330  31.696  1.00  0.00     0.022 A 
BRANCH  41  45
ATOM     45  S   UNL A   1      35.452  32.948  29.531  1.00  0.00     0.124 S 
ATOM     46  O   UNL A   1      35.796  32.707  28.131  1.00  0.00    -0.237 OA
ATOM     47  O   UNL A   1      34.091  32.604  29.922  1.00  0.00    -0.237 OA
ATOM     48  O   UNL A   1      35.964  34.201  30.080  1.00  0.00    -0.744 OA
ENDBRANCH  41  45
ENDBRANCH  24  38
BRANCH  25  49
ATOM     49  C   UNL A   1      46.736  27.241  25.709  1.00  0.00     0.023 A 
ATOM     50  C   UNL A   1      46.958  27.717  24.409  1.00  0.00     0.031 A 
ATOM     51  C   UNL A   1      47.675  26.345  26.256  1.00  0.00     0.131 A 
ATOM     52  C   UNL A   1      48.083  27.281  23.690  1.00  0.00     0.055 A 
ATOM     53  C   UNL A   1      48.815  25.952  25.555  1.00  0.00     0.041 A 
ATOM     54  F   UNL A   1      47.510  25.865  27.498  1.00  0.00    -0.206 F 
ATOM     55  C   UNL A   1      49.020  26.415  24.260  1.00  0.00     0.022 A 
BRANCH  52  56
ATOM     56  S   UNL A   1      48.284  27.827  21.973  1.00  0.00     0.124 S 
ATOM     57  O   UNL A   1      49.560  28.532  22.033  1.00  0.00    -0.237 OA
ATOM     58  O   UNL A   1      48.285  26.560  21.249  1.00  0.00    -0.237 OA
ATOM     59  O   UNL A   1      47.114  28.672  21.744  1.00  0.00    -0.744 OA
ENDBRANCH  52  56
ENDBRANCH  25  49
BRANCH  37  60
ATOM     60  C   UNL A   1      45.176  33.005  29.345  1.00  0.00     0.023 A 
ATOM     61  C   UNL A   1      45.162  34.163  28.548  1.00  0.00     0.031 A 
ATOM     62  C   UNL A   1      45.951  33.019  30.519  1.00  0.00     0.131 A 
ATOM     63  C   UNL A   1      45.939  35.273  28.915  1.00  0.00     0.055 A 
ATOM     64  C   UNL A   1      46.678  34.145  30.907  1.00  0.00     0.041 A 
ATOM     65  F   UNL A   1      46.004  31.939  31.315  1.00  0.00    -0.206 F 
ATOM     66  C   UNL A   1      46.682  35.278  30.099  1.00  0.00     0.022 A 
BRANCH  63  67
ATOM     67  S   UNL A   1      46.018  36.698  27.794  1.00  0.00     0.124 S 
ATOM     68  O   UNL A   1      44.728  37.338  28.027  1.00  0.00    -0.237 OA
ATOM     69  O   UNL A   1      47.187  37.419  28.285  1.00  0.00    -0.237 OA
ATOM     70  O   UNL A   1      46.177  36.087  26.475  1.00  0.00    -0.744 OA
ENDBRANCH  63  67
ENDBRANCH  37  60
ENDBRANCH  11  12
ENDBRANCH   4   6
ENDBRANCH   1   2
BRANCH   1  71
ATOM     71  C   UNL A   1      35.150  22.272  26.874  1.00  0.00     0.042 C 
BRANCH  71  72
ATOM     72  C   UNL A   1      33.868  21.469  27.073  1.00  0.00     0.118 C 
BRANCH  72  73
ATOM     73  N   UNL A   1      32.728  22.234  27.553  1.00  0.00    -0.352 N 
ATOM     74  C   UNL A   1      31.815  22.952  26.815  1.00  0.00     0.251 C 
ATOM     75  H   UNL A   1      32.595  22.240  28.528  1.00  0.00     0.163 HD
ATOM     76  O   UNL A   1      30.732  23.272  27.291  1.00  0.00    -0.269 OA
BRANCH  74  77
ATOM     77  C   UNL A   1      32.178  23.423  25.466  1.00  0.00     0.041 A 
ATOM     78  C   UNL A   1      32.114  22.483  24.433  1.00  0.00     0.014 A 
ATOM     79  C   UNL A   1      32.622  24.738  25.234  1.00  0.00     0.039 A 
ATOM     80  C   UNL A   1      32.482  22.853  23.147  1.00  0.00     0.003 A 
ATOM     81  C   UNL A   1      32.958  25.125  23.930  1.00  0.00     0.039 A 
ATOM     82  C   UNL A   1      32.894  24.161  22.904  1.00  0.00     0.026 A 
BRANCH  81  83
ATOM     83  N   UNL A   1      33.185  26.476  23.579  1.00  0.00    -0.355 N 
ATOM     84  H   UNL A   1      34.003  26.689  23.074  1.00  0.00     0.167 HD
BRANCH  83  85
ATOM     85  C   UNL A   1      32.310  27.547  23.908  1.00  0.00     0.050 A 
ATOM     86  C   UNL A   1      31.193  27.756  23.085  1.00  0.00     0.047 A 
ATOM     87  C   UNL A   1      32.567  28.476  24.951  1.00  0.00     0.025 A 
ATOM     88  C   UNL A   1      30.395  28.857  23.292  1.00  0.00     0.114 A 
ATOM     89  C   UNL A   1      31.664  29.564  25.073  1.00  0.00     0.072 A 
ATOM     90  C   UNL A   1      33.671  28.421  25.840  1.00  0.00     0.033 A 
ATOM     91  N   UNL A   1      30.611  29.752  24.269  1.00  0.00    -0.256 NA
ATOM     92  C   UNL A   1      31.866  30.519  26.055  1.00  0.00     0.030 A 
ATOM     93  C   UNL A   1      33.848  29.404  26.817  1.00  0.00     0.041 A 
ATOM     94  C   UNL A   1      32.945  30.453  26.933  1.00  0.00     0.023 A 
ATOM     95  Cl  UNL A   1      35.196  29.333  27.885  1.00  0.00    -0.084 Cl
ENDBRANCH  83  85
ENDBRANCH  81  83
ENDBRANCH  74  77
ENDBRANCH  72  73
ENDBRANCH  71  72
ENDBRANCH   1  71
TORSDOF 15
ENDMDL
