MODEL 1
REMARK VINA RESULT:     -13.9      0.000      0.000
REMARK SMILES Cc1c(NCc2ccccn2)cccc1C(=O)N1CCOC[C@@H]1CC(=O)NCCCNC(=O)c1ccc(-c2c3nc(c(-c4cc(S(=O)(=O)[O-])ccc4F)c4ccc([nH]4)c(-c4cc(S(=O)(=O)[O-])ccc4F)c4nc(c(-c5cc(S(=O)(=O)[O-])ccc5F)c5ccc2[nH]5)C=C4)C=C3)cc1
REMARK SMILES IDX 25 1 26 2 27 3 24 5 23 6 18 7 19 8 20 9 22 10 21 11 16 12
REMARK SMILES IDX 17 13 15 14 1 15 2 16 3 17 12 18 14 19 13 20 4 21 5 23 6 24
REMARK SMILES IDX 7 25 11 26 8 27 10 28 9 29 28 30 29 31 30 32 31 33 32 34
REMARK SMILES IDX 33 36 34 37 35 38 96 39 36 40 95 41 37 42 38 43 39 44 89 45
REMARK SMILES IDX 40 46 94 47 88 48 90 49 41 50 93 51 87 52 86 53 42 55 74 56
REMARK SMILES IDX 54 57 73 58 55 59 58 60 72 61 91 62 56 63 57 64 71 66 92 67
REMARK SMILES IDX 59 68 43 69 44 70 52 71 45 72 51 73 53 74 50 75 46 76 47 77
REMARK SMILES IDX 48 78 49 79 75 80 76 81 84 82 77 83 83 84 85 85 82 86 78 87
REMARK SMILES IDX 79 88 80 89 81 90 60 91 61 92 69 93 62 94 68 95 70 96 67 97
REMARK SMILES IDX 63 98 64 99 65 100 66 101
REMARK H PARENT 27 4 4 22 31 35 90 54 58 65
REMARK Flexibility Score: inf
ROOT
ATOM      1  C   UNL A   1      33.548  26.547  25.679  1.00  0.00     0.222 C 
ATOM      2  O   UNL A   1      32.789  27.017  26.531  1.00  0.00    -0.275 OA
ATOM      3  N   UNL A   1      34.513  25.595  26.017  1.00  0.00    -0.356 N 
ATOM      4  H   UNL A   1      35.057  25.656  26.835  1.00  0.00     0.163 HD
ENDROOT
BRANCH   1   5
ATOM      5  C   UNL A   1      33.489  26.969  24.209  1.00  0.00     0.127 C 
BRANCH   5   6
ATOM      6  C   UNL A   1      32.236  27.796  23.902  1.00  0.00     0.120 C 
ATOM      7  N   UNL A   1      30.860  27.108  23.665  1.00  0.00    -0.331 N 
ATOM      8  C   UNL A   1      29.869  28.186  23.339  1.00  0.00     0.148 C 
ATOM      9  C   UNL A   1      30.357  29.066  22.144  1.00  0.00     0.181 C 
ATOM     10  C   UNL A   1      32.584  28.842  22.752  1.00  0.00     0.185 C 
ATOM     11  O   UNL A   1      31.534  29.786  22.527  1.00  0.00    -0.377 OA
BRANCH   7  12
ATOM     12  C   UNL A   1      30.280  25.713  23.991  1.00  0.00     0.254 C 
ATOM     13  O   UNL A   1      29.054  25.651  23.790  1.00  0.00    -0.269 OA
BRANCH  12  14
ATOM     14  C   UNL A   1      31.073  24.120  24.352  1.00  0.00     0.045 A 
ATOM     15  C   UNL A   1      32.816  22.859  22.245  1.00  0.00     0.047 C 
ATOM     16  C   UNL A   1      31.925  22.943  23.570  1.00  0.00    -0.015 A 
ATOM     17  C   UNL A   1      32.149  21.668  24.093  1.00  0.00     0.038 A 
ATOM     18  C   UNL A   1      31.798  21.604  25.433  1.00  0.00     0.026 A 
ATOM     19  C   UNL A   1      30.659  23.783  25.632  1.00  0.00     0.014 A 
ATOM     20  C   UNL A   1      31.072  22.573  26.174  1.00  0.00     0.003 A 
BRANCH  17  21
ATOM     21  N   UNL A   1      32.639  20.545  23.400  1.00  0.00    -0.379 N 
ATOM     22  H   UNL A   1      33.482  20.775  22.945  1.00  0.00     0.160 HD
BRANCH  21  23
ATOM     23  C   UNL A   1      32.278  19.063  23.118  1.00  0.00     0.169 C 
BRANCH  23  24
ATOM     24  C   UNL A   1      32.851  17.843  23.934  1.00  0.00     0.059 A 
ATOM     25  C   UNL A   1      34.021  17.136  23.627  1.00  0.00     0.026 A 
ATOM     26  N   UNL A   1      32.162  17.469  25.047  1.00  0.00    -0.259 NA
ATOM     27  C   UNL A   1      34.357  15.951  24.307  1.00  0.00     0.004 A 
ATOM     28  C   UNL A   1      32.544  16.362  25.742  1.00  0.00     0.111 A 
ATOM     29  C   UNL A   1      33.601  15.550  25.390  1.00  0.00     0.020 A 
ENDBRANCH  23  24
ENDBRANCH  21  23
ENDBRANCH  17  21
ENDBRANCH  12  14
ENDBRANCH   7  12
ENDBRANCH   5   6
ENDBRANCH   1   5
BRANCH   3  30
ATOM     30  C   UNL A   1      34.645  24.523  25.077  1.00  0.00     0.117 C 
BRANCH  30  31
ATOM     31  C   UNL A   1      35.778  23.065  25.061  1.00  0.00     0.042 C 
BRANCH  31  32
ATOM     32  C   UNL A   1      37.532  22.855  25.468  1.00  0.00     0.118 C 
BRANCH  32  33
ATOM     33  N   UNL A   1      38.346  21.635  25.923  1.00  0.00    -0.352 N 
ATOM     34  C   UNL A   1      39.708  21.291  26.246  1.00  0.00     0.251 C 
ATOM     35  H   UNL A   1      37.761  20.851  26.024  1.00  0.00     0.163 HD
ATOM     36  O   UNL A   1      40.040  20.116  26.043  1.00  0.00    -0.269 OA
BRANCH  34  37
ATOM     37  C   UNL A   1      40.801  22.166  26.852  1.00  0.00     0.039 A 
ATOM     38  C   UNL A   1      41.319  22.075  28.173  1.00  0.00     0.014 A 
ATOM     39  C   UNL A   1      41.360  23.159  26.116  1.00  0.00     0.014 A 
ATOM     40  C   UNL A   1      42.109  23.136  28.770  1.00  0.00     0.010 A 
ATOM     41  C   UNL A   1      42.159  24.157  26.693  1.00  0.00     0.010 A 
ATOM     42  C   UNL A   1      42.419  24.284  28.043  1.00  0.00    -0.014 A 
BRANCH  42  43
ATOM     43  C   UNL A   1      42.627  25.725  28.466  1.00  0.00     0.031 A 
ATOM     44  C   UNL A   1      41.525  26.773  28.553  1.00  0.00     0.074 A 
ATOM     45  C   UNL A   1      43.644  25.957  29.338  1.00  0.00     0.049 A 
ATOM     46  N   UNL A   1      41.636  27.916  29.160  1.00  0.00    -0.248 NA
ATOM     47  C   UNL A   1      40.192  26.626  27.981  1.00  0.00     0.031 C 
ATOM     48  C   UNL A   1      43.635  26.839  30.529  1.00  0.00     0.029 A 
ATOM     49  N   UNL A   1      44.885  25.374  29.439  1.00  0.00    -0.354 N 
ATOM     50  C   UNL A   1      40.380  28.439  29.392  1.00  0.00     0.074 A 
ATOM     51  C   UNL A   1      39.527  27.653  28.535  1.00  0.00     0.031 C 
ATOM     52  C   UNL A   1      44.851  26.867  31.091  1.00  0.00     0.029 A 
ATOM     53  C   UNL A   1      45.746  26.186  30.189  1.00  0.00     0.049 A 
ATOM     54  H   UNL A   1      45.135  24.509  29.039  1.00  0.00     0.167 HD
ATOM     55  C   UNL A   1      40.204  29.406  30.350  1.00  0.00     0.034 A 
ATOM     56  C   UNL A   1      46.818  26.772  29.575  1.00  0.00     0.034 A 
ATOM     57  C   UNL A   1      41.481  29.907  30.872  1.00  0.00     0.049 A 
ATOM     58  C   UNL A   1      46.638  28.276  29.386  1.00  0.00     0.074 A 
ATOM     59  C   UNL A   1      42.119  29.953  32.101  1.00  0.00     0.029 A 
ATOM     60  N   UNL A   1      42.392  30.413  29.963  1.00  0.00    -0.354 N 
ATOM     61  N   UNL A   1      45.753  29.012  30.007  1.00  0.00    -0.248 NA
ATOM     62  C   UNL A   1      47.395  29.049  28.404  1.00  0.00     0.031 C 
ATOM     63  C   UNL A   1      43.456  30.421  31.885  1.00  0.00     0.029 A 
ATOM     64  C   UNL A   1      43.608  30.704  30.539  1.00  0.00     0.049 A 
ATOM     65  H   UNL A   1      42.192  30.549  29.009  1.00  0.00     0.167 HD
ATOM     66  C   UNL A   1      45.677  30.242  29.404  1.00  0.00     0.074 A 
ATOM     67  C   UNL A   1      46.766  30.236  28.442  1.00  0.00     0.031 C 
ATOM     68  C   UNL A   1      44.682  31.148  29.662  1.00  0.00     0.034 A 
BRANCH  55  69
ATOM     69  C   UNL A   1      38.886  29.943  30.907  1.00  0.00     0.023 A 
ATOM     70  C   UNL A   1      38.572  31.318  30.743  1.00  0.00     0.031 A 
ATOM     71  C   UNL A   1      37.949  29.212  31.665  1.00  0.00     0.131 A 
ATOM     72  C   UNL A   1      37.404  31.890  31.294  1.00  0.00     0.055 A 
ATOM     73  C   UNL A   1      36.758  29.768  32.161  1.00  0.00     0.041 A 
ATOM     74  F   UNL A   1      38.160  27.940  32.022  1.00  0.00    -0.206 F 
ATOM     75  C   UNL A   1      36.481  31.113  31.983  1.00  0.00     0.022 A 
BRANCH  72  76
ATOM     76  S   UNL A   1      37.133  33.685  31.165  1.00  0.00     0.124 S 
ATOM     77  O   UNL A   1      37.223  33.906  29.725  1.00  0.00    -0.237 OA
ATOM     78  O   UNL A   1      35.815  33.844  31.768  1.00  0.00    -0.237 OA
ATOM     79  O   UNL A   1      38.237  34.251  31.941  1.00  0.00    -0.744 OA
ENDBRANCH  72  76
ENDBRANCH  55  69
BRANCH  56  80
ATOM     80  C   UNL A   1      47.431  25.794  28.618  1.00  0.00     0.023 A 
ATOM     81  C   UNL A   1      47.000  25.925  27.276  1.00  0.00     0.031 A 
ATOM     82  C   UNL A   1      48.722  25.292  28.854  1.00  0.00     0.131 A 
ATOM     83  C   UNL A   1      47.921  25.775  26.230  1.00  0.00     0.055 A 
ATOM     84  C   UNL A   1      49.620  25.093  27.799  1.00  0.00     0.041 A 
ATOM     85  F   UNL A   1      49.200  25.196  30.104  1.00  0.00    -0.206 F 
ATOM     86  C   UNL A   1      49.240  25.390  26.489  1.00  0.00     0.022 A 
BRANCH  83  87
ATOM     87  S   UNL A   1      47.487  26.388  24.570  1.00  0.00     0.124 S 
ATOM     88  O   UNL A   1      48.328  27.574  24.461  1.00  0.00    -0.237 OA
ATOM     89  O   UNL A   1      47.843  25.271  23.701  1.00  0.00    -0.237 OA
ATOM     90  O   UNL A   1      46.053  26.634  24.686  1.00  0.00    -0.744 OA
ENDBRANCH  83  87
ENDBRANCH  56  80
BRANCH  68  91
ATOM     91  C   UNL A   1      44.627  32.512  29.009  1.00  0.00     0.023 A 
ATOM     92  C   UNL A   1      44.548  32.641  27.615  1.00  0.00     0.031 A 
ATOM     93  C   UNL A   1      44.718  33.723  29.736  1.00  0.00     0.131 A 
ATOM     94  C   UNL A   1      44.461  33.905  27.007  1.00  0.00     0.055 A 
ATOM     95  C   UNL A   1      44.733  34.981  29.120  1.00  0.00     0.041 A 
ATOM     96  F   UNL A   1      44.748  33.749  31.075  1.00  0.00    -0.206 F 
ATOM     97  C   UNL A   1      44.584  35.078  27.747  1.00  0.00     0.022 A 
BRANCH  94  98
ATOM     98  S   UNL A   1      44.076  33.979  25.240  1.00  0.00     0.124 S 
ATOM     99  O   UNL A   1      42.925  34.874  25.200  1.00  0.00    -0.237 OA
ATOM    100  O   UNL A   1      45.319  34.520  24.693  1.00  0.00    -0.237 OA
ATOM    101  O   UNL A   1      43.799  32.588  24.887  1.00  0.00    -0.744 OA
ENDBRANCH  94  98
ENDBRANCH  68  91
ENDBRANCH  42  43
ENDBRANCH  34  37
ENDBRANCH  32  33
ENDBRANCH  31  32
ENDBRANCH  30  31
ENDBRANCH   3  30
TORSDOF 19
ENDMDL
MODEL 2
REMARK VINA RESULT:     -13.8      2.582      5.998
REMARK SMILES Cc1c(NCc2ccccn2)cccc1C(=O)N1CCOC[C@@H]1CC(=O)NCCCNC(=O)c1ccc(-c2c3nc(c(-c4cc(S(=O)(=O)[O-])ccc4F)c4ccc([nH]4)c(-c4cc(S(=O)(=O)[O-])ccc4F)c4nc(c(-c5cc(S(=O)(=O)[O-])ccc5F)c5ccc2[nH]5)C=C4)C=C3)cc1
REMARK SMILES IDX 25 1 26 2 27 3 24 5 23 6 18 7 19 8 20 9 22 10 21 11 16 12
REMARK SMILES IDX 17 13 15 14 1 15 2 16 3 17 12 18 14 19 13 20 4 21 5 23 6 24
REMARK SMILES IDX 7 25 11 26 8 27 10 28 9 29 28 30 29 31 30 32 31 33 32 34
REMARK SMILES IDX 33 36 34 37 35 38 96 39 36 40 95 41 37 42 38 43 39 44 89 45
REMARK SMILES IDX 40 46 94 47 88 48 90 49 41 50 93 51 87 52 86 53 42 55 74 56
REMARK SMILES IDX 54 57 73 58 55 59 58 60 72 61 91 62 56 63 57 64 71 66 92 67
REMARK SMILES IDX 59 68 43 69 44 70 52 71 45 72 51 73 53 74 50 75 46 76 47 77
REMARK SMILES IDX 48 78 49 79 75 80 76 81 84 82 77 83 83 84 85 85 82 86 78 87
REMARK SMILES IDX 79 88 80 89 81 90 60 91 61 92 69 93 62 94 68 95 70 96 67 97
REMARK SMILES IDX 63 98 64 99 65 100 66 101
REMARK H PARENT 27 4 4 22 31 35 90 54 58 65
REMARK Flexibility Score: inf
ROOT
ATOM      1  C   UNL A   1      32.538  24.264  26.159  1.00  0.00     0.222 C 
ATOM      2  O   UNL A   1      31.818  24.693  27.064  1.00  0.00    -0.275 OA
ATOM      3  N   UNL A   1      33.902  24.042  26.364  1.00  0.00    -0.356 N 
ATOM      4  H   UNL A   1      34.473  24.667  26.866  1.00  0.00     0.163 HD
ENDROOT
BRANCH   1   5
ATOM      5  C   UNL A   1      31.995  23.946  24.763  1.00  0.00     0.127 C 
BRANCH   5   6
ATOM      6  C   UNL A   1      32.701  24.764  23.676  1.00  0.00     0.120 C 
ATOM      7  N   UNL A   1      32.466  26.297  23.547  1.00  0.00    -0.331 N 
ATOM      8  C   UNL A   1      33.254  26.774  22.363  1.00  0.00     0.148 C 
ATOM      9  C   UNL A   1      32.898  25.963  21.077  1.00  0.00     0.181 C 
ATOM     10  C   UNL A   1      32.527  24.016  22.281  1.00  0.00     0.185 C 
ATOM     11  O   UNL A   1      33.310  24.601  21.238  1.00  0.00    -0.377 OA
BRANCH   7  12
ATOM     12  C   UNL A   1      31.909  27.387  24.490  1.00  0.00     0.254 C 
ATOM     13  O   UNL A   1      30.666  27.417  24.499  1.00  0.00    -0.269 OA
BRANCH  12  14
ATOM     14  C   UNL A   1      32.703  28.427  25.749  1.00  0.00     0.045 A 
ATOM     15  C   UNL A   1      31.368  31.004  26.552  1.00  0.00     0.047 C 
ATOM     16  C   UNL A   1      32.546  29.932  26.407  1.00  0.00    -0.015 A 
ATOM     17  C   UNL A   1      33.531  30.551  27.179  1.00  0.00     0.038 A 
ATOM     18  C   UNL A   1      34.528  29.655  27.534  1.00  0.00     0.026 A 
ATOM     19  C   UNL A   1      33.871  27.763  26.094  1.00  0.00     0.014 A 
ATOM     20  C   UNL A   1      34.728  28.348  27.017  1.00  0.00     0.003 A 
BRANCH  17  21
ATOM     21  N   UNL A   1      33.579  31.905  27.560  1.00  0.00    -0.379 N 
ATOM     22  H   UNL A   1      32.980  32.435  26.985  1.00  0.00     0.160 HD
BRANCH  21  23
ATOM     23  C   UNL A   1      34.273  32.833  28.591  1.00  0.00     0.169 C 
BRANCH  23  24
ATOM     24  C   UNL A   1      33.918  34.355  28.790  1.00  0.00     0.059 A 
ATOM     25  C   UNL A   1      34.315  35.400  27.946  1.00  0.00     0.026 A 
ATOM     26  N   UNL A   1      33.136  34.670  29.859  1.00  0.00    -0.259 NA
ATOM     27  C   UNL A   1      34.102  36.745  28.301  1.00  0.00     0.004 A 
ATOM     28  C   UNL A   1      32.874  35.975  30.148  1.00  0.00     0.111 A 
ATOM     29  C   UNL A   1      33.366  37.043  29.430  1.00  0.00     0.020 A 
ENDBRANCH  23  24
ENDBRANCH  21  23
ENDBRANCH  17  21
ENDBRANCH  12  14
ENDBRANCH   7  12
ENDBRANCH   5   6
ENDBRANCH   1   5
BRANCH   3  30
ATOM     30  C   UNL A   1      34.401  22.831  25.784  1.00  0.00     0.117 C 
BRANCH  30  31
ATOM     31  C   UNL A   1      36.003  22.468  24.942  1.00  0.00     0.042 C 
BRANCH  31  32
ATOM     32  C   UNL A   1      37.720  22.403  25.521  1.00  0.00     0.118 C 
BRANCH  32  33
ATOM     33  N   UNL A   1      38.630  21.233  25.920  1.00  0.00    -0.352 N 
ATOM     34  C   UNL A   1      40.020  20.980  26.206  1.00  0.00     0.251 C 
ATOM     35  H   UNL A   1      38.106  20.405  26.008  1.00  0.00     0.163 HD
ATOM     36  O   UNL A   1      40.432  19.838  25.959  1.00  0.00    -0.269 OA
BRANCH  34  37
ATOM     37  C   UNL A   1      41.059  21.913  26.819  1.00  0.00     0.039 A 
ATOM     38  C   UNL A   1      41.447  21.964  28.186  1.00  0.00     0.014 A 
ATOM     39  C   UNL A   1      41.698  22.821  26.038  1.00  0.00     0.014 A 
ATOM     40  C   UNL A   1      42.187  23.081  28.740  1.00  0.00     0.010 A 
ATOM     41  C   UNL A   1      42.449  23.874  26.581  1.00  0.00     0.010 A 
ATOM     42  C   UNL A   1      42.580  24.145  27.928  1.00  0.00    -0.014 A 
BRANCH  42  43
ATOM     43  C   UNL A   1      42.762  25.623  28.214  1.00  0.00     0.031 A 
ATOM     44  C   UNL A   1      41.653  26.665  28.145  1.00  0.00     0.074 A 
ATOM     45  C   UNL A   1      43.737  25.949  29.103  1.00  0.00     0.049 A 
ATOM     46  N   UNL A   1      41.732  27.864  28.638  1.00  0.00    -0.248 NA
ATOM     47  C   UNL A   1      40.349  26.450  27.530  1.00  0.00     0.031 C 
ATOM     48  C   UNL A   1      43.670  26.946  30.199  1.00  0.00     0.029 A 
ATOM     49  N   UNL A   1      44.975  25.390  29.319  1.00  0.00    -0.354 N 
ATOM     50  C   UNL A   1      40.464  28.396  28.759  1.00  0.00     0.074 A 
ATOM     51  C   UNL A   1      39.655  27.521  27.948  1.00  0.00     0.031 C 
ATOM     52  C   UNL A   1      44.859  27.041  30.809  1.00  0.00     0.029 A 
ATOM     53  C   UNL A   1      45.796  26.280  30.022  1.00  0.00     0.049 A 
ATOM     54  H   UNL A   1      45.246  24.491  29.020  1.00  0.00     0.167 HD
ATOM     55  C   UNL A   1      40.241  29.454  29.606  1.00  0.00     0.034 A 
ATOM     56  C   UNL A   1      46.894  26.810  29.402  1.00  0.00     0.034 A 
ATOM     57  C   UNL A   1      41.491  30.015  30.133  1.00  0.00     0.049 A 
ATOM     58  C   UNL A   1      46.717  28.286  29.055  1.00  0.00     0.074 A 
ATOM     59  C   UNL A   1      42.071  30.189  31.379  1.00  0.00     0.029 A 
ATOM     60  N   UNL A   1      42.441  30.434  29.220  1.00  0.00    -0.354 N 
ATOM     61  N   UNL A   1      45.801  29.073  29.558  1.00  0.00    -0.248 NA
ATOM     62  C   UNL A   1      47.516  28.963  28.036  1.00  0.00     0.031 C 
ATOM     63  C   UNL A   1      43.415  30.644  31.178  1.00  0.00     0.029 A 
ATOM     64  C   UNL A   1      43.628  30.792  29.819  1.00  0.00     0.049 A 
ATOM     65  H   UNL A   1      42.285  30.473  28.250  1.00  0.00     0.167 HD
ATOM     66  C   UNL A   1      45.748  30.236  28.832  1.00  0.00     0.074 A 
ATOM     67  C   UNL A   1      46.881  30.143  27.926  1.00  0.00     0.031 C 
ATOM     68  C   UNL A   1      44.740  31.155  28.952  1.00  0.00     0.034 A 
BRANCH  55  69
ATOM     69  C   UNL A   1      38.896  30.032  30.046  1.00  0.00     0.023 A 
ATOM     70  C   UNL A   1      38.732  31.441  30.100  1.00  0.00     0.031 A 
ATOM     71  C   UNL A   1      37.785  29.292  30.498  1.00  0.00     0.131 A 
ATOM     72  C   UNL A   1      37.539  32.039  30.564  1.00  0.00     0.055 A 
ATOM     73  C   UNL A   1      36.577  29.886  30.902  1.00  0.00     0.041 A 
ATOM     74  F   UNL A   1      37.824  27.962  30.635  1.00  0.00    -0.206 F 
ATOM     75  C   UNL A   1      36.449  31.265  30.942  1.00  0.00     0.022 A 
BRANCH  72  76
ATOM     76  S   UNL A   1      37.445  33.847  30.738  1.00  0.00     0.124 S 
ATOM     77  O   UNL A   1      36.192  34.021  31.466  1.00  0.00    -0.237 OA
ATOM     78  O   UNL A   1      38.671  34.153  31.466  1.00  0.00    -0.237 OA
ATOM     79  O   UNL A   1      37.419  34.320  29.354  1.00  0.00    -0.744 OA
ENDBRANCH  72  76
ENDBRANCH  55  69
BRANCH  56  80
ATOM     80  C   UNL A   1      47.553  25.747  28.577  1.00  0.00     0.023 A 
ATOM     81  C   UNL A   1      47.115  25.678  27.233  1.00  0.00     0.031 A 
ATOM     82  C   UNL A   1      48.869  25.345  28.867  1.00  0.00     0.131 A 
ATOM     83  C   UNL A   1      48.041  25.438  26.208  1.00  0.00     0.055 A 
ATOM     84  C   UNL A   1      49.774  25.054  27.840  1.00  0.00     0.041 A 
ATOM     85  F   UNL A   1      49.353  25.438  30.115  1.00  0.00    -0.206 F 
ATOM     86  C   UNL A   1      49.378  25.156  26.505  1.00  0.00     0.022 A 
BRANCH  83  87
ATOM     87  S   UNL A   1      47.574  25.805  24.485  1.00  0.00     0.124 S 
ATOM     88  O   UNL A   1      47.224  24.482  23.983  1.00  0.00    -0.237 OA
ATOM     89  O   UNL A   1      46.467  26.744  24.637  1.00  0.00    -0.237 OA
ATOM     90  O   UNL A   1      48.796  26.390  23.941  1.00  0.00    -0.744 OA
ENDBRANCH  83  87
ENDBRANCH  56  80
BRANCH  68  91
ATOM     91  C   UNL A   1      44.709  32.447  28.164  1.00  0.00     0.023 A 
ATOM     92  C   UNL A   1      45.126  33.654  28.744  1.00  0.00     0.031 A 
ATOM     93  C   UNL A   1      44.206  32.538  26.844  1.00  0.00     0.131 A 
ATOM     94  C   UNL A   1      45.132  34.849  28.004  1.00  0.00     0.055 A 
ATOM     95  C   UNL A   1      44.119  33.748  26.145  1.00  0.00     0.041 A 
ATOM     96  F   UNL A   1      43.821  31.456  26.153  1.00  0.00    -0.206 F 
ATOM     97  C   UNL A   1      44.602  34.912  26.718  1.00  0.00     0.022 A 
BRANCH  94  98
ATOM     98  S   UNL A   1      45.947  36.295  28.725  1.00  0.00     0.124 S 
ATOM     99  O   UNL A   1      46.237  35.855  30.085  1.00  0.00    -0.237 OA
ATOM    100  O   UNL A   1      47.105  36.445  27.847  1.00  0.00    -0.237 OA
ATOM    101  O   UNL A   1      44.943  37.351  28.611  1.00  0.00    -0.744 OA
ENDBRANCH  94  98
ENDBRANCH  68  91
ENDBRANCH  42  43
ENDBRANCH  34  37
ENDBRANCH  32  33
ENDBRANCH  31  32
ENDBRANCH  30  31
ENDBRANCH   3  30
TORSDOF 19
ENDMDL
MODEL 3
REMARK VINA RESULT:     -12.8      4.211      9.092
REMARK SMILES Cc1c(NCc2ccccn2)cccc1C(=O)N1CCOC[C@@H]1CC(=O)NCCCNC(=O)c1ccc(-c2c3nc(c(-c4cc(S(=O)(=O)[O-])ccc4F)c4ccc([nH]4)c(-c4cc(S(=O)(=O)[O-])ccc4F)c4nc(c(-c5cc(S(=O)(=O)[O-])ccc5F)c5ccc2[nH]5)C=C4)C=C3)cc1
REMARK SMILES IDX 25 1 26 2 27 3 24 5 23 6 18 7 19 8 20 9 22 10 21 11 16 12
REMARK SMILES IDX 17 13 15 14 1 15 2 16 3 17 12 18 14 19 13 20 4 21 5 23 6 24
REMARK SMILES IDX 7 25 11 26 8 27 10 28 9 29 28 30 29 31 30 32 31 33 32 34
REMARK SMILES IDX 33 36 34 37 35 38 96 39 36 40 95 41 37 42 38 43 39 44 89 45
REMARK SMILES IDX 40 46 94 47 88 48 90 49 41 50 93 51 87 52 86 53 42 55 74 56
REMARK SMILES IDX 54 57 73 58 55 59 58 60 72 61 91 62 56 63 57 64 71 66 92 67
REMARK SMILES IDX 59 68 43 69 44 70 52 71 45 72 51 73 53 74 50 75 46 76 47 77
REMARK SMILES IDX 48 78 49 79 75 80 76 81 84 82 77 83 83 84 85 85 82 86 78 87
REMARK SMILES IDX 79 88 80 89 81 90 60 91 61 92 69 93 62 94 68 95 70 96 67 97
REMARK SMILES IDX 63 98 64 99 65 100 66 101
REMARK H PARENT 27 4 4 22 31 35 90 54 58 65
REMARK Flexibility Score: inf
ROOT
ATOM      1  C   UNL A   1      45.296  22.157  25.774  1.00  0.00     0.222 C 
ATOM      2  O   UNL A   1      46.387  21.582  25.752  1.00  0.00    -0.275 OA
ATOM      3  N   UNL A   1      45.010  23.127  26.737  1.00  0.00    -0.356 N 
ATOM      4  H   UNL A   1      45.263  23.028  27.684  1.00  0.00     0.163 HD
ENDROOT
BRANCH   1   5
ATOM      5  C   UNL A   1      44.191  21.853  24.760  1.00  0.00     0.127 C 
BRANCH   5   6
ATOM      6  C   UNL A   1      43.475  20.535  25.072  1.00  0.00     0.120 C 
ATOM      7  N   UNL A   1      42.375  20.461  26.170  1.00  0.00    -0.331 N 
ATOM      8  C   UNL A   1      41.924  19.033  26.259  1.00  0.00     0.148 C 
ATOM      9  C   UNL A   1      43.129  18.068  26.497  1.00  0.00     0.181 C 
ATOM     10  C   UNL A   1      44.568  19.389  25.247  1.00  0.00     0.185 C 
ATOM     11  O   UNL A   1      43.992  18.086  25.354  1.00  0.00    -0.377 OA
BRANCH   7  12
ATOM     12  C   UNL A   1      41.495  21.509  26.890  1.00  0.00     0.254 C 
ATOM     13  O   UNL A   1      42.110  22.104  27.792  1.00  0.00    -0.269 OA
BRANCH  12  14
ATOM     14  C   UNL A   1      39.860  22.195  26.502  1.00  0.00     0.045 A 
ATOM     15  C   UNL A   1      37.893  20.488  24.990  1.00  0.00     0.047 C 
ATOM     16  C   UNL A   1      38.531  21.823  25.598  1.00  0.00    -0.015 A 
ATOM     17  C   UNL A   1      37.523  22.736  25.283  1.00  0.00     0.038 A 
ATOM     18  C   UNL A   1      37.646  23.898  26.030  1.00  0.00     0.026 A 
ATOM     19  C   UNL A   1      39.868  23.483  27.017  1.00  0.00     0.014 A 
ATOM     20  C   UNL A   1      38.751  24.287  26.831  1.00  0.00     0.003 A 
BRANCH  17  21
ATOM     21  N   UNL A   1      36.503  22.573  24.327  1.00  0.00    -0.379 N 
ATOM     22  H   UNL A   1      36.899  22.463  23.432  1.00  0.00     0.160 HD
BRANCH  21  23
ATOM     23  C   UNL A   1      34.957  22.511  24.227  1.00  0.00     0.169 C 
BRANCH  23  24
ATOM     24  C   UNL A   1      33.990  22.488  25.471  1.00  0.00     0.059 A 
ATOM     25  C   UNL A   1      32.657  22.917  25.473  1.00  0.00     0.026 A 
ATOM     26  N   UNL A   1      34.491  21.981  26.631  1.00  0.00    -0.259 NA
ATOM     27  C   UNL A   1      31.927  23.027  26.672  1.00  0.00     0.004 A 
ATOM     28  C   UNL A   1      33.744  22.023  27.769  1.00  0.00     0.111 A 
ATOM     29  C   UNL A   1      32.483  22.572  27.851  1.00  0.00     0.020 A 
ENDBRANCH  23  24
ENDBRANCH  21  23
ENDBRANCH  17  21
ENDBRANCH  12  14
ENDBRANCH   7  12
ENDBRANCH   5   6
ENDBRANCH   1   5
BRANCH   3  30
ATOM     30  C   UNL A   1      44.319  24.277  26.236  1.00  0.00     0.117 C 
BRANCH  30  31
ATOM     31  C   UNL A   1      44.955  25.799  25.406  1.00  0.00     0.042 C 
BRANCH  31  32
ATOM     32  C   UNL A   1      44.871  27.562  25.818  1.00  0.00     0.118 C 
BRANCH  32  33
ATOM     33  N   UNL A   1      45.955  28.594  26.160  1.00  0.00    -0.352 N 
ATOM     34  C   UNL A   1      46.067  29.995  26.478  1.00  0.00     0.251 C 
ATOM     35  H   UNL A   1      46.843  28.170  26.164  1.00  0.00     0.163 HD
ATOM     36  O   UNL A   1      47.128  30.548  26.160  1.00  0.00    -0.269 OA
BRANCH  34  37
ATOM     37  C   UNL A   1      45.071  30.898  27.200  1.00  0.00     0.039 A 
ATOM     38  C   UNL A   1      45.386  31.967  28.083  1.00  0.00     0.014 A 
ATOM     39  C   UNL A   1      43.738  30.699  27.040  1.00  0.00     0.014 A 
ATOM     40  C   UNL A   1      44.400  32.555  28.970  1.00  0.00     0.010 A 
ATOM     41  C   UNL A   1      42.788  31.306  27.875  1.00  0.00     0.010 A 
ATOM     42  C   UNL A   1      43.081  32.106  28.962  1.00  0.00    -0.014 A 
BRANCH  42  43
ATOM     43  C   UNL A   1      42.037  32.010  30.058  1.00  0.00     0.031 A 
ATOM     44  C   UNL A   1      40.835  32.934  30.196  1.00  0.00     0.074 A 
ATOM     45  C   UNL A   1      41.811  30.771  30.568  1.00  0.00     0.049 A 
ATOM     46  N   UNL A   1      39.806  32.703  30.956  1.00  0.00    -0.248 NA
ATOM     47  C   UNL A   1      40.669  34.194  29.481  1.00  0.00     0.031 C 
ATOM     48  C   UNL A   1      40.505  30.145  30.889  1.00  0.00     0.029 A 
ATOM     49  N   UNL A   1      42.678  29.731  30.810  1.00  0.00    -0.354 N 
ATOM     50  C   UNL A   1      38.753  33.504  30.563  1.00  0.00     0.074 A 
ATOM     51  C   UNL A   1      39.381  34.492  29.720  1.00  0.00     0.031 C 
ATOM     52  C   UNL A   1      40.695  28.944  31.449  1.00  0.00     0.029 A 
ATOM     53  C   UNL A   1      42.107  28.819  31.708  1.00  0.00     0.049 A 
ATOM     54  H   UNL A   1      43.573  29.641  30.410  1.00  0.00     0.167 HD
ATOM     55  C   UNL A   1      37.469  33.176  30.921  1.00  0.00     0.034 A 
ATOM     56  C   UNL A   1      42.655  28.673  32.952  1.00  0.00     0.034 A 
ATOM     57  C   UNL A   1      37.429  32.072  31.888  1.00  0.00     0.049 A 
ATOM     58  C   UNL A   1      41.789  29.283  34.051  1.00  0.00     0.074 A 
ATOM     59  C   UNL A   1      36.905  30.791  31.934  1.00  0.00     0.029 A 
ATOM     60  N   UNL A   1      38.140  32.223  33.064  1.00  0.00    -0.354 N 
ATOM     61  N   UNL A   1      40.529  29.612  33.921  1.00  0.00    -0.248 NA
ATOM     62  C   UNL A   1      42.314  29.652  35.364  1.00  0.00     0.031 C 
ATOM     63  C   UNL A   1      37.390  30.159  33.125  1.00  0.00     0.029 A 
ATOM     64  C   UNL A   1      38.163  31.073  33.821  1.00  0.00     0.049 A 
ATOM     65  H   UNL A   1      38.582  33.061  33.330  1.00  0.00     0.167 HD
ATOM     66  C   UNL A   1      40.144  30.379  34.992  1.00  0.00     0.074 A 
ATOM     67  C   UNL A   1      41.281  30.327  35.896  1.00  0.00     0.031 C 
ATOM     68  C   UNL A   1      38.967  31.078  35.034  1.00  0.00     0.034 A 
BRANCH  55  69
ATOM     69  C   UNL A   1      36.169  33.792  30.408  1.00  0.00     0.023 A 
ATOM     70  C   UNL A   1      35.374  34.571  31.291  1.00  0.00     0.031 A 
ATOM     71  C   UNL A   1      35.609  33.598  29.129  1.00  0.00     0.131 A 
ATOM     72  C   UNL A   1      34.128  35.109  30.899  1.00  0.00     0.055 A 
ATOM     73  C   UNL A   1      34.399  34.185  28.721  1.00  0.00     0.041 A 
ATOM     74  F   UNL A   1      36.165  32.784  28.225  1.00  0.00    -0.206 F 
ATOM     75  C   UNL A   1      33.648  34.940  29.607  1.00  0.00     0.022 A 
BRANCH  72  76
ATOM     76  S   UNL A   1      33.099  35.978  32.121  1.00  0.00     0.124 S 
ATOM     77  O   UNL A   1      32.142  34.946  32.506  1.00  0.00    -0.237 OA
ATOM     78  O   UNL A   1      34.076  36.370  33.130  1.00  0.00    -0.237 OA
ATOM     79  O   UNL A   1      32.527  37.087  31.356  1.00  0.00    -0.744 OA
ENDBRANCH  72  76
ENDBRANCH  55  69
BRANCH  56  80
ATOM     80  C   UNL A   1      44.149  28.706  32.838  1.00  0.00     0.023 A 
ATOM     81  C   UNL A   1      44.716  27.616  32.135  1.00  0.00     0.031 A 
ATOM     82  C   UNL A   1      44.827  29.937  32.812  1.00  0.00     0.131 A 
ATOM     83  C   UNL A   1      45.790  27.833  31.260  1.00  0.00     0.055 A 
ATOM     84  C   UNL A   1      45.933  30.131  31.976  1.00  0.00     0.041 A 
ATOM     85  F   UNL A   1      44.309  31.016  33.418  1.00  0.00    -0.206 F 
ATOM     86  C   UNL A   1      46.381  29.095  31.154  1.00  0.00     0.022 A 
BRANCH  83  87
ATOM     87  S   UNL A   1      46.207  26.553  30.031  1.00  0.00     0.124 S 
ATOM     88  O   UNL A   1      46.835  27.343  28.979  1.00  0.00    -0.237 OA
ATOM     89  O   UNL A   1      47.092  25.659  30.773  1.00  0.00    -0.237 OA
ATOM     90  O   UNL A   1      44.902  25.984  29.708  1.00  0.00    -0.744 OA
ENDBRANCH  83  87
ENDBRANCH  56  80
BRANCH  68  91
ATOM     91  C   UNL A   1      38.543  31.898  36.233  1.00  0.00     0.023 A 
ATOM     92  C   UNL A   1      37.768  31.331  37.256  1.00  0.00     0.031 A 
ATOM     93  C   UNL A   1      38.831  33.277  36.371  1.00  0.00     0.131 A 
ATOM     94  C   UNL A   1      37.401  32.080  38.387  1.00  0.00     0.055 A 
ATOM     95  C   UNL A   1      38.379  34.045  37.451  1.00  0.00     0.041 A 
ATOM     96  F   UNL A   1      39.603  33.933  35.494  1.00  0.00    -0.206 F 
ATOM     97  C   UNL A   1      37.674  33.442  38.478  1.00  0.00     0.022 A 
BRANCH  94  98
ATOM     98  S   UNL A   1      36.654  31.205  39.785  1.00  0.00     0.124 S 
ATOM     99  O   UNL A   1      37.286  31.841  40.935  1.00  0.00    -0.237 OA
ATOM    100  O   UNL A   1      35.236  31.508  39.593  1.00  0.00    -0.237 OA
ATOM    101  O   UNL A   1      37.024  29.810  39.559  1.00  0.00    -0.744 OA
ENDBRANCH  94  98
ENDBRANCH  68  91
ENDBRANCH  42  43
ENDBRANCH  34  37
ENDBRANCH  32  33
ENDBRANCH  31  32
ENDBRANCH  30  31
ENDBRANCH   3  30
TORSDOF 19
ENDMDL
