MODEL 1
REMARK VINA RESULT:     -10.7      0.000      0.000
REMARK SMILES O=C(N[C@H](CCBr)C(=O)NCCCNC(=O)c1ccc(-c2c3nc(c(-c4cc(S(=O)(=O)[O-])ccc4F)c4ccc([nH]4)c(-c4cc(S(=O)(=O)[O-])ccc4F)c4nc(c(-c5cc(S(=O)(=O)[O-])ccc5F)c5ccc2[nH]5)C=C4)C=C3)cc1)OCc1ccccc1
REMARK SMILES IDX 11 1 10 2 8 3 9 4 4 6 3 7 1 8 2 9 80 11 81 12 82 13 83 14
REMARK SMILES IDX 87 15 84 16 86 17 85 18 5 19 6 20 7 21 12 22 13 23 14 24
REMARK SMILES IDX 15 25 16 27 17 28 18 29 79 30 19 31 78 32 20 33 21 34 22 35
REMARK SMILES IDX 72 36 23 37 77 38 71 39 73 40 24 41 76 42 70 43 69 44 25 46
REMARK SMILES IDX 57 47 37 48 56 49 38 50 41 51 55 52 74 53 39 54 40 55 54 57
REMARK SMILES IDX 75 58 42 59 26 60 27 61 35 62 28 63 34 64 36 65 33 66 29 67
REMARK SMILES IDX 30 68 31 69 32 70 58 71 59 72 67 73 60 74 66 75 68 76 65 77
REMARK SMILES IDX 61 78 62 79 63 80 64 81 43 82 44 83 52 84 45 85 51 86 53 87
REMARK SMILES IDX 50 88 46 89 47 90 48 91 49 92
REMARK H PARENT 10 5 3 10 14 26 73 45 41 56
REMARK Flexibility Score: inf
ROOT
ATOM      1  C   UNL A   1      34.972  23.183  25.902  1.00  0.00     0.117 C 
ENDROOT
BRANCH   1   2
ATOM      2  N   UNL A   1      33.873  23.069  26.844  1.00  0.00    -0.354 N 
ATOM      3  C   UNL A   1      32.542  22.918  26.615  1.00  0.00     0.242 C 
ATOM      4  O   UNL A   1      31.751  22.944  27.563  1.00  0.00    -0.273 OA
ATOM      5  H   UNL A   1      34.131  23.109  27.794  1.00  0.00     0.163 HD
BRANCH   3   6
ATOM      6  C   UNL A   1      31.979  22.853  25.191  1.00  0.00     0.175 C 
BRANCH   6   7
ATOM      7  N   UNL A   1      30.654  23.464  24.983  1.00  0.00    -0.310 N 
ATOM      8  O   UNL A   1      29.783  25.118  23.659  1.00  0.00    -0.225 OA
ATOM      9  C   UNL A   1      30.558  24.762  24.528  1.00  0.00     0.408 C 
ATOM     10  H   UNL A   1      29.837  22.947  25.170  1.00  0.00     0.167 HD
BRANCH   9  11
ATOM     11  O   UNL A   1      31.391  25.568  25.202  1.00  0.00    -0.445 OA
BRANCH  11  12
ATOM     12  C   UNL A   1      30.900  26.475  26.198  1.00  0.00     0.270 C 
BRANCH  12  13
ATOM     13  C   UNL A   1      31.948  27.571  26.201  1.00  0.00    -0.011 A 
ATOM     14  C   UNL A   1      32.690  27.869  25.047  1.00  0.00     0.007 A 
ATOM     15  C   UNL A   1      32.365  28.124  27.422  1.00  0.00     0.007 A 
ATOM     16  C   UNL A   1      33.884  28.593  25.134  1.00  0.00     0.000 A 
ATOM     17  C   UNL A   1      33.545  28.868  27.502  1.00  0.00     0.000 A 
ATOM     18  C   UNL A   1      34.321  29.076  26.364  1.00  0.00     0.000 A 
ENDBRANCH  12  13
ENDBRANCH  11  12
ENDBRANCH   9  11
ENDBRANCH   6   7
BRANCH   6  19
ATOM     19  C   UNL A   1      32.067  21.390  24.714  1.00  0.00     0.047 C 
BRANCH  19  20
ATOM     20  C   UNL A   1      32.390  21.277  23.221  1.00  0.00     0.083 C 
ATOM     21  Br  UNL A   1      33.226  22.894  22.518  1.00  0.00    -0.093 Br
ENDBRANCH  19  20
ENDBRANCH   6  19
ENDBRANCH   3   6
ENDBRANCH   1   2
BRANCH   1  22
ATOM     22  C   UNL A   1      35.585  21.817  25.642  1.00  0.00     0.042 C 
BRANCH  22  23
ATOM     23  C   UNL A   1      36.929  21.899  24.932  1.00  0.00     0.118 C 
BRANCH  23  24
ATOM     24  N   UNL A   1      37.812  20.795  25.278  1.00  0.00    -0.352 N 
ATOM     25  C   UNL A   1      39.024  20.842  25.927  1.00  0.00     0.251 C 
ATOM     26  H   UNL A   1      37.503  19.899  25.012  1.00  0.00     0.163 HD
ATOM     27  O   UNL A   1      39.710  19.828  26.016  1.00  0.00    -0.269 OA
BRANCH  25  28
ATOM     28  C   UNL A   1      39.509  22.130  26.473  1.00  0.00     0.039 A 
ATOM     29  C   UNL A   1      40.585  22.120  27.361  1.00  0.00     0.014 A 
ATOM     30  C   UNL A   1      38.933  23.343  26.079  1.00  0.00     0.014 A 
ATOM     31  C   UNL A   1      41.131  23.329  27.798  1.00  0.00     0.010 A 
ATOM     32  C   UNL A   1      39.523  24.547  26.461  1.00  0.00     0.010 A 
ATOM     33  C   UNL A   1      40.634  24.553  27.319  1.00  0.00    -0.014 A 
BRANCH  33  34
ATOM     34  C   UNL A   1      41.277  25.839  27.704  1.00  0.00     0.031 A 
ATOM     35  C   UNL A   1      42.698  26.129  27.305  1.00  0.00     0.074 A 
ATOM     36  C   UNL A   1      40.589  26.733  28.443  1.00  0.00     0.049 A 
ATOM     37  N   UNL A   1      43.431  27.183  27.565  1.00  0.00    -0.248 NA
ATOM     38  C   UNL A   1      43.392  25.090  26.532  1.00  0.00     0.031 C 
ATOM     39  C   UNL A   1      39.217  26.555  28.923  1.00  0.00     0.029 A 
ATOM     40  N   UNL A   1      40.947  27.969  28.922  1.00  0.00    -0.354 N 
ATOM     41  C   UNL A   1      44.671  26.936  26.985  1.00  0.00     0.074 A 
ATOM     42  C   UNL A   1      44.608  25.604  26.419  1.00  0.00     0.031 C 
ATOM     43  C   UNL A   1      38.840  27.653  29.598  1.00  0.00     0.029 A 
ATOM     44  C   UNL A   1      39.956  28.595  29.643  1.00  0.00     0.049 A 
ATOM     45  H   UNL A   1      41.832  28.372  28.764  1.00  0.00     0.167 HD
ATOM     46  C   UNL A   1      45.751  27.752  26.909  1.00  0.00     0.034 A 
ATOM     47  C   UNL A   1      39.945  29.785  30.277  1.00  0.00     0.034 A 
ATOM     48  C   UNL A   1      45.803  29.077  27.480  1.00  0.00     0.049 A 
ATOM     49  C   UNL A   1      41.179  30.653  30.222  1.00  0.00     0.074 A 
ATOM     50  C   UNL A   1      46.834  29.999  27.424  1.00  0.00     0.029 A 
ATOM     51  N   UNL A   1      44.788  29.666  28.224  1.00  0.00    -0.354 N 
ATOM     52  N   UNL A   1      42.326  30.425  29.624  1.00  0.00    -0.248 NA
ATOM     53  C   UNL A   1      41.111  31.944  30.920  1.00  0.00     0.031 C 
ATOM     54  C   UNL A   1      46.474  31.110  28.193  1.00  0.00     0.029 A 
ATOM     55  C   UNL A   1      45.183  30.922  28.661  1.00  0.00     0.049 A 
ATOM     56  H   UNL A   1      43.915  29.252  28.414  1.00  0.00     0.167 HD
ATOM     57  C   UNL A   1      43.101  31.561  29.846  1.00  0.00     0.074 A 
ATOM     58  C   UNL A   1      42.287  32.475  30.618  1.00  0.00     0.031 C 
ATOM     59  C   UNL A   1      44.369  31.825  29.440  1.00  0.00     0.034 A 
BRANCH  46  60
ATOM     60  C   UNL A   1      46.975  27.218  26.202  1.00  0.00     0.023 A 
ATOM     61  C   UNL A   1      47.946  26.458  26.880  1.00  0.00     0.031 A 
ATOM     62  C   UNL A   1      47.188  27.488  24.839  1.00  0.00     0.131 A 
ATOM     63  C   UNL A   1      49.115  26.060  26.215  1.00  0.00     0.055 A 
ATOM     64  C   UNL A   1      48.313  27.015  24.161  1.00  0.00     0.041 A 
ATOM     65  F   UNL A   1      46.309  28.225  24.142  1.00  0.00    -0.206 F 
ATOM     66  C   UNL A   1      49.293  26.309  24.853  1.00  0.00     0.022 A 
BRANCH  63  67
ATOM     67  S   UNL A   1      50.463  25.340  27.193  1.00  0.00     0.124 S 
ATOM     68  O   UNL A   1      49.788  24.223  27.848  1.00  0.00    -0.237 OA
ATOM     69  O   UNL A   1      51.441  24.986  26.170  1.00  0.00    -0.237 OA
ATOM     70  O   UNL A   1      50.858  26.428  28.084  1.00  0.00    -0.744 OA
ENDBRANCH  63  67
ENDBRANCH  46  60
BRANCH  47  71
ATOM     71  C   UNL A   1      38.739  30.232  31.032  1.00  0.00     0.023 A 
ATOM     72  C   UNL A   1      37.702  30.933  30.394  1.00  0.00     0.031 A 
ATOM     73  C   UNL A   1      38.631  30.015  32.418  1.00  0.00     0.131 A 
ATOM     74  C   UNL A   1      36.632  31.439  31.147  1.00  0.00     0.055 A 
ATOM     75  C   UNL A   1      37.535  30.468  33.153  1.00  0.00     0.041 A 
ATOM     76  F   UNL A   1      39.592  29.349  33.079  1.00  0.00    -0.206 F 
ATOM     77  C   UNL A   1      36.534  31.199  32.520  1.00  0.00     0.022 A 
BRANCH  74  78
ATOM     78  S   UNL A   1      35.416  32.502  30.323  1.00  0.00     0.124 S 
ATOM     79  O   UNL A   1      34.377  32.609  31.341  1.00  0.00    -0.237 OA
ATOM     80  O   UNL A   1      36.194  33.710  30.069  1.00  0.00    -0.237 OA
ATOM     81  O   UNL A   1      35.047  31.738  29.132  1.00  0.00    -0.744 OA
ENDBRANCH  74  78
ENDBRANCH  47  71
BRANCH  59  82
ATOM     82  C   UNL A   1      44.934  33.184  29.785  1.00  0.00     0.023 A 
ATOM     83  C   UNL A   1      44.796  34.287  28.925  1.00  0.00     0.031 A 
ATOM     84  C   UNL A   1      45.634  33.371  30.990  1.00  0.00     0.131 A 
ATOM     85  C   UNL A   1      45.397  35.512  29.255  1.00  0.00     0.055 A 
ATOM     86  C   UNL A   1      46.175  34.609  31.344  1.00  0.00     0.041 A 
ATOM     87  F   UNL A   1      45.802  32.353  31.850  1.00  0.00    -0.206 F 
ATOM     88  C   UNL A   1      46.070  35.685  30.468  1.00  0.00     0.022 A 
BRANCH  85  89
ATOM     89  S   UNL A   1      45.370  36.855  28.036  1.00  0.00     0.124 S 
ATOM     90  O   UNL A   1      46.338  36.387  27.048  1.00  0.00    -0.237 OA
ATOM     91  O   UNL A   1      43.975  36.860  27.608  1.00  0.00    -0.237 OA
ATOM     92  O   UNL A   1      45.786  38.026  28.805  1.00  0.00    -0.744 OA
ENDBRANCH  85  89
ENDBRANCH  59  82
ENDBRANCH  33  34
ENDBRANCH  25  28
ENDBRANCH  23  24
ENDBRANCH  22  23
ENDBRANCH   1  22
TORSDOF 19
ENDMDL
MODEL 2
REMARK VINA RESULT:     -10.5      1.730      3.564
REMARK SMILES O=C(N[C@H](CCBr)C(=O)NCCCNC(=O)c1ccc(-c2c3nc(c(-c4cc(S(=O)(=O)[O-])ccc4F)c4ccc([nH]4)c(-c4cc(S(=O)(=O)[O-])ccc4F)c4nc(c(-c5cc(S(=O)(=O)[O-])ccc5F)c5ccc2[nH]5)C=C4)C=C3)cc1)OCc1ccccc1
REMARK SMILES IDX 11 1 10 2 8 3 9 4 4 6 3 7 1 8 2 9 80 11 81 12 82 13 83 14
REMARK SMILES IDX 87 15 84 16 86 17 85 18 5 19 6 20 7 21 12 22 13 23 14 24
REMARK SMILES IDX 15 25 16 27 17 28 18 29 79 30 19 31 78 32 20 33 21 34 22 35
REMARK SMILES IDX 72 36 23 37 77 38 71 39 73 40 24 41 76 42 70 43 69 44 25 46
REMARK SMILES IDX 57 47 37 48 56 49 38 50 41 51 55 52 74 53 39 54 40 55 54 57
REMARK SMILES IDX 75 58 42 59 26 60 27 61 35 62 28 63 34 64 36 65 33 66 29 67
REMARK SMILES IDX 30 68 31 69 32 70 58 71 59 72 67 73 60 74 66 75 68 76 65 77
REMARK SMILES IDX 61 78 62 79 63 80 64 81 43 82 44 83 52 84 45 85 51 86 53 87
REMARK SMILES IDX 50 88 46 89 47 90 48 91 49 92
REMARK H PARENT 10 5 3 10 14 26 73 45 41 56
REMARK Flexibility Score: inf
ROOT
ATOM      1  C   UNL A   1      33.969  22.827  26.622  1.00  0.00     0.117 C 
ENDROOT
BRANCH   1   2
ATOM      2  N   UNL A   1      34.251  23.876  25.658  1.00  0.00    -0.354 N 
ATOM      3  C   UNL A   1      33.642  24.159  24.476  1.00  0.00     0.242 C 
ATOM      4  O   UNL A   1      34.103  25.042  23.747  1.00  0.00    -0.273 OA
ATOM      5  H   UNL A   1      34.999  24.471  25.895  1.00  0.00     0.163 HD
BRANCH   3   6
ATOM      6  C   UNL A   1      32.471  23.317  23.960  1.00  0.00     0.175 C 
BRANCH   6   7
ATOM      7  N   UNL A   1      32.752  22.448  22.802  1.00  0.00    -0.310 N 
ATOM      8  O   UNL A   1      31.708  20.702  21.750  1.00  0.00    -0.225 OA
ATOM      9  C   UNL A   1      32.217  21.178  22.748  1.00  0.00     0.408 C 
ATOM     10  H   UNL A   1      33.321  22.774  22.067  1.00  0.00     0.167 HD
BRANCH   9  11
ATOM     11  O   UNL A   1      32.382  20.541  23.915  1.00  0.00    -0.445 OA
BRANCH  11  12
ATOM     12  C   UNL A   1      33.645  19.963  24.272  1.00  0.00     0.270 C 
BRANCH  12  13
ATOM     13  C   UNL A   1      33.322  18.485  24.376  1.00  0.00    -0.011 A 
ATOM     14  C   UNL A   1      32.532  17.986  25.423  1.00  0.00     0.007 A 
ATOM     15  C   UNL A   1      34.019  17.568  23.574  1.00  0.00     0.007 A 
ATOM     16  C   UNL A   1      32.540  16.623  25.737  1.00  0.00     0.000 A 
ATOM     17  C   UNL A   1      34.005  16.203  23.872  1.00  0.00     0.000 A 
ATOM     18  C   UNL A   1      33.292  15.735  24.973  1.00  0.00     0.000 A 
ENDBRANCH  12  13
ENDBRANCH  11  12
ENDBRANCH   9  11
ENDBRANCH   6   7
BRANCH   6  19
ATOM     19  C   UNL A   1      31.268  24.256  23.750  1.00  0.00     0.047 C 
BRANCH  19  20
ATOM     20  C   UNL A   1      30.832  24.952  25.044  1.00  0.00     0.083 C 
ATOM     21  Br  UNL A   1      30.922  26.896  24.909  1.00  0.00    -0.093 Br
ENDBRANCH  19  20
ENDBRANCH   6  19
ENDBRANCH   3   6
ENDBRANCH   1   2
BRANCH   1  22
ATOM     22  C   UNL A   1      35.164  21.899  26.756  1.00  0.00     0.042 C 
BRANCH  22  23
ATOM     23  C   UNL A   1      36.271  22.213  25.759  1.00  0.00     0.118 C 
BRANCH  23  24
ATOM     24  N   UNL A   1      37.292  21.178  25.714  1.00  0.00    -0.352 N 
ATOM     25  C   UNL A   1      38.638  21.293  25.975  1.00  0.00     0.251 C 
ATOM     26  H   UNL A   1      36.980  20.278  25.463  1.00  0.00     0.163 HD
ATOM     27  O   UNL A   1      39.387  20.347  25.753  1.00  0.00    -0.269 OA
BRANCH  25  28
ATOM     28  C   UNL A   1      39.175  22.578  26.478  1.00  0.00     0.039 A 
ATOM     29  C   UNL A   1      40.301  22.558  27.303  1.00  0.00     0.014 A 
ATOM     30  C   UNL A   1      38.597  23.796  26.107  1.00  0.00     0.014 A 
ATOM     31  C   UNL A   1      40.891  23.761  27.696  1.00  0.00     0.010 A 
ATOM     32  C   UNL A   1      39.228  24.994  26.442  1.00  0.00     0.010 A 
ATOM     33  C   UNL A   1      40.387  24.989  27.235  1.00  0.00    -0.014 A 
BRANCH  33  34
ATOM     34  C   UNL A   1      41.072  26.267  27.569  1.00  0.00     0.031 A 
ATOM     35  C   UNL A   1      42.503  26.492  27.165  1.00  0.00     0.074 A 
ATOM     36  C   UNL A   1      40.413  27.214  28.267  1.00  0.00     0.049 A 
ATOM     37  N   UNL A   1      43.270  27.530  27.385  1.00  0.00    -0.248 NA
ATOM     38  C   UNL A   1      43.163  25.399  26.439  1.00  0.00     0.031 C 
ATOM     39  C   UNL A   1      39.034  27.102  28.748  1.00  0.00     0.029 A 
ATOM     40  N   UNL A   1      40.811  28.456  28.696  1.00  0.00    -0.354 N 
ATOM     41  C   UNL A   1      44.503  27.218  26.821  1.00  0.00     0.074 A 
ATOM     42  C   UNL A   1      44.397  25.866  26.310  1.00  0.00     0.031 C 
ATOM     43  C   UNL A   1      38.692  28.239  29.375  1.00  0.00     0.029 A 
ATOM     44  C   UNL A   1      39.839  29.144  29.386  1.00  0.00     0.049 A 
ATOM     45  H   UNL A   1      41.710  28.821  28.526  1.00  0.00     0.167 HD
ATOM     46  C   UNL A   1      45.611  27.993  26.716  1.00  0.00     0.034 A 
ATOM     47  C   UNL A   1      39.867  30.359  29.971  1.00  0.00     0.034 A 
ATOM     48  C   UNL A   1      45.706  29.338  27.232  1.00  0.00     0.049 A 
ATOM     49  C   UNL A   1      41.130  31.182  29.885  1.00  0.00     0.074 A 
ATOM     50  C   UNL A   1      46.767  30.221  27.142  1.00  0.00     0.029 A 
ATOM     51  N   UNL A   1      44.709  29.991  27.946  1.00  0.00    -0.354 N 
ATOM     52  N   UNL A   1      42.270  30.891  29.303  1.00  0.00    -0.248 NA
ATOM     53  C   UNL A   1      41.104  32.502  30.530  1.00  0.00     0.031 C 
ATOM     54  C   UNL A   1      46.443  31.375  27.863  1.00  0.00     0.029 A 
ATOM     55  C   UNL A   1      45.146  31.251  28.332  1.00  0.00     0.049 A 
ATOM     56  H   UNL A   1      43.822  29.615  28.149  1.00  0.00     0.167 HD
ATOM     57  C   UNL A   1      43.082  32.008  29.481  1.00  0.00     0.074 A 
ATOM     58  C   UNL A   1      42.297  32.980  30.211  1.00  0.00     0.031 C 
ATOM     59  C   UNL A   1      44.360  32.212  29.071  1.00  0.00     0.034 A 
BRANCH  46  60
ATOM     60  C   UNL A   1      46.818  27.389  26.037  1.00  0.00     0.023 A 
ATOM     61  C   UNL A   1      47.841  26.762  26.772  1.00  0.00     0.031 A 
ATOM     62  C   UNL A   1      46.962  27.457  24.640  1.00  0.00     0.131 A 
ATOM     63  C   UNL A   1      48.991  26.298  26.118  1.00  0.00     0.055 A 
ATOM     64  C   UNL A   1      48.070  26.916  23.986  1.00  0.00     0.041 A 
ATOM     65  F   UNL A   1      46.030  28.061  23.886  1.00  0.00    -0.206 F 
ATOM     66  C   UNL A   1      49.101  26.345  24.727  1.00  0.00     0.022 A 
BRANCH  63  67
ATOM     67  S   UNL A   1      50.403  25.764  27.124  1.00  0.00     0.124 S 
ATOM     68  O   UNL A   1      50.465  26.822  28.129  1.00  0.00    -0.237 OA
ATOM     69  O   UNL A   1      49.975  24.454  27.600  1.00  0.00    -0.237 OA
ATOM     70  O   UNL A   1      51.514  25.751  26.175  1.00  0.00    -0.744 OA
ENDBRANCH  63  67
ENDBRANCH  46  60
BRANCH  47  71
ATOM     71  C   UNL A   1      38.674  30.877  30.701  1.00  0.00     0.023 A 
ATOM     72  C   UNL A   1      37.595  31.454  30.011  1.00  0.00     0.031 A 
ATOM     73  C   UNL A   1      38.620  30.856  32.107  1.00  0.00     0.131 A 
ATOM     74  C   UNL A   1      36.536  32.034  30.726  1.00  0.00     0.055 A 
ATOM     75  C   UNL A   1      37.537  31.381  32.812  1.00  0.00     0.041 A 
ATOM     76  F   UNL A   1      39.624  30.316  32.817  1.00  0.00    -0.206 F 
ATOM     77  C   UNL A   1      36.493  31.989  32.122  1.00  0.00     0.022 A 
BRANCH  74  78
ATOM     78  S   UNL A   1      35.260  32.939  29.808  1.00  0.00     0.124 S 
ATOM     79  O   UNL A   1      34.285  33.221  30.855  1.00  0.00    -0.237 OA
ATOM     80  O   UNL A   1      36.009  34.084  29.300  1.00  0.00    -0.237 OA
ATOM     81  O   UNL A   1      34.827  31.980  28.793  1.00  0.00    -0.744 OA
ENDBRANCH  74  78
ENDBRANCH  47  71
BRANCH  59  82
ATOM     82  C   UNL A   1      44.970  33.564  29.361  1.00  0.00     0.023 A 
ATOM     83  C   UNL A   1      44.846  34.643  28.469  1.00  0.00     0.031 A 
ATOM     84  C   UNL A   1      45.699  33.768  30.547  1.00  0.00     0.131 A 
ATOM     85  C   UNL A   1      45.488  35.861  28.750  1.00  0.00     0.055 A 
ATOM     86  C   UNL A   1      46.281  35.000  30.851  1.00  0.00     0.041 A 
ATOM     87  F   UNL A   1      45.855  32.772  31.434  1.00  0.00    -0.206 F 
ATOM     88  C   UNL A   1      46.189  36.051  29.943  1.00  0.00     0.022 A 
BRANCH  85  89
ATOM     89  S   UNL A   1      45.475  37.165  27.489  1.00  0.00     0.124 S 
ATOM     90  O   UNL A   1      44.070  37.191  27.095  1.00  0.00    -0.237 OA
ATOM     91  O   UNL A   1      45.949  38.325  28.235  1.00  0.00    -0.237 OA
ATOM     92  O   UNL A   1      46.395  36.666  26.469  1.00  0.00    -0.744 OA
ENDBRANCH  85  89
ENDBRANCH  59  82
ENDBRANCH  33  34
ENDBRANCH  25  28
ENDBRANCH  23  24
ENDBRANCH  22  23
ENDBRANCH   1  22
TORSDOF 19
ENDMDL
MODEL 3
REMARK VINA RESULT:     -10.2      2.601      3.168
REMARK SMILES O=C(N[C@H](CCBr)C(=O)NCCCNC(=O)c1ccc(-c2c3nc(c(-c4cc(S(=O)(=O)[O-])ccc4F)c4ccc([nH]4)c(-c4cc(S(=O)(=O)[O-])ccc4F)c4nc(c(-c5cc(S(=O)(=O)[O-])ccc5F)c5ccc2[nH]5)C=C4)C=C3)cc1)OCc1ccccc1
REMARK SMILES IDX 11 1 10 2 8 3 9 4 4 6 3 7 1 8 2 9 80 11 81 12 82 13 83 14
REMARK SMILES IDX 87 15 84 16 86 17 85 18 5 19 6 20 7 21 12 22 13 23 14 24
REMARK SMILES IDX 15 25 16 27 17 28 18 29 79 30 19 31 78 32 20 33 21 34 22 35
REMARK SMILES IDX 72 36 23 37 77 38 71 39 73 40 24 41 76 42 70 43 69 44 25 46
REMARK SMILES IDX 57 47 37 48 56 49 38 50 41 51 55 52 74 53 39 54 40 55 54 57
REMARK SMILES IDX 75 58 42 59 26 60 27 61 35 62 28 63 34 64 36 65 33 66 29 67
REMARK SMILES IDX 30 68 31 69 32 70 58 71 59 72 67 73 60 74 66 75 68 76 65 77
REMARK SMILES IDX 61 78 62 79 63 80 64 81 43 82 44 83 52 84 45 85 51 86 53 87
REMARK SMILES IDX 50 88 46 89 47 90 48 91 49 92
REMARK H PARENT 10 5 3 10 14 26 73 45 41 56
REMARK Flexibility Score: inf
ROOT
ATOM      1  C   UNL A   1      35.778  22.715  24.501  1.00  0.00     0.117 C 
ENDROOT
BRANCH   1   2
ATOM      2  N   UNL A   1      35.189  22.260  25.748  1.00  0.00    -0.354 N 
ATOM      3  C   UNL A   1      34.008  21.626  25.972  1.00  0.00     0.242 C 
ATOM      4  O   UNL A   1      33.639  21.412  27.131  1.00  0.00    -0.273 OA
ATOM      5  H   UNL A   1      35.727  22.438  26.553  1.00  0.00     0.163 HD
BRANCH   3   6
ATOM      6  C   UNL A   1      33.052  21.289  24.823  1.00  0.00     0.175 C 
BRANCH   6   7
ATOM      7  N   UNL A   1      31.742  21.965  24.844  1.00  0.00    -0.310 N 
ATOM      8  O   UNL A   1      30.646  23.493  23.535  1.00  0.00    -0.225 OA
ATOM      9  C   UNL A   1      31.592  23.197  24.241  1.00  0.00     0.408 C 
ATOM     10  H   UNL A   1      30.973  21.539  25.288  1.00  0.00     0.167 HD
BRANCH   9  11
ATOM     11  O   UNL A   1      32.595  24.019  24.580  1.00  0.00    -0.445 OA
BRANCH  11  12
ATOM     12  C   UNL A   1      32.549  24.785  25.791  1.00  0.00     0.270 C 
BRANCH  12  13
ATOM     13  C   UNL A   1      33.228  26.082  25.395  1.00  0.00    -0.011 A 
ATOM     14  C   UNL A   1      33.399  27.124  26.320  1.00  0.00     0.007 A 
ATOM     15  C   UNL A   1      33.464  26.352  24.038  1.00  0.00     0.007 A 
ATOM     16  C   UNL A   1      33.672  28.426  25.887  1.00  0.00     0.000 A 
ATOM     17  C   UNL A   1      33.761  27.648  23.609  1.00  0.00     0.000 A 
ATOM     18  C   UNL A   1      33.834  28.691  24.530  1.00  0.00     0.000 A 
ENDBRANCH  12  13
ENDBRANCH  11  12
ENDBRANCH   9  11
ENDBRANCH   6   7
BRANCH   6  19
ATOM     19  C   UNL A   1      32.954  19.754  24.723  1.00  0.00     0.047 C 
BRANCH  19  20
ATOM     20  C   UNL A   1      34.319  19.092  24.509  1.00  0.00     0.083 C 
ATOM     21  Br  UNL A   1      34.168  17.178  24.154  1.00  0.00    -0.093 Br
ENDBRANCH  19  20
ENDBRANCH   6  19
ENDBRANCH   3   6
ENDBRANCH   1   2
BRANCH   1  22
ATOM     22  C   UNL A   1      37.277  22.901  24.664  1.00  0.00     0.042 C 
BRANCH  22  23
ATOM     23  C   UNL A   1      37.787  22.430  26.018  1.00  0.00     0.118 C 
BRANCH  23  24
ATOM     24  N   UNL A   1      39.074  21.755  25.927  1.00  0.00    -0.352 N 
ATOM     25  C   UNL A   1      40.328  22.271  26.156  1.00  0.00     0.251 C 
ATOM     26  H   UNL A   1      39.042  20.806  25.666  1.00  0.00     0.163 HD
ATOM     27  O   UNL A   1      41.322  21.601  25.897  1.00  0.00    -0.269 OA
BRANCH  25  28
ATOM     28  C   UNL A   1      40.463  23.653  26.671  1.00  0.00     0.039 A 
ATOM     29  C   UNL A   1      40.705  23.841  28.033  1.00  0.00     0.014 A 
ATOM     30  C   UNL A   1      40.394  24.754  25.811  1.00  0.00     0.014 A 
ATOM     31  C   UNL A   1      40.949  25.127  28.520  1.00  0.00     0.010 A 
ATOM     32  C   UNL A   1      40.707  26.027  26.287  1.00  0.00     0.010 A 
ATOM     33  C   UNL A   1      40.995  26.227  27.646  1.00  0.00    -0.014 A 
BRANCH  33  34
ATOM     34  C   UNL A   1      41.354  27.582  28.145  1.00  0.00     0.031 A 
ATOM     35  C   UNL A   1      42.792  28.022  28.188  1.00  0.00     0.074 A 
ATOM     36  C   UNL A   1      40.384  28.406  28.593  1.00  0.00     0.049 A 
ATOM     37  N   UNL A   1      43.297  29.155  28.607  1.00  0.00    -0.248 NA
ATOM     38  C   UNL A   1      43.792  27.055  27.717  1.00  0.00     0.031 C 
ATOM     39  C   UNL A   1      38.956  28.084  28.636  1.00  0.00     0.029 A 
ATOM     40  N   UNL A   1      40.449  29.681  29.096  1.00  0.00    -0.354 N 
ATOM     41  C   UNL A   1      44.674  29.038  28.448  1.00  0.00     0.074 A 
ATOM     42  C   UNL A   1      44.925  27.698  27.957  1.00  0.00     0.031 C 
ATOM     43  C   UNL A   1      38.280  29.143  29.108  1.00  0.00     0.029 A 
ATOM     44  C   UNL A   1      39.225  30.204  29.446  1.00  0.00     0.049 A 
ATOM     45  H   UNL A   1      41.294  30.177  29.197  1.00  0.00     0.167 HD
ATOM     46  C   UNL A   1      45.637  29.968  28.667  1.00  0.00     0.034 A 
ATOM     47  C   UNL A   1      38.898  31.395  29.987  1.00  0.00     0.034 A 
ATOM     48  C   UNL A   1      45.375  31.299  29.160  1.00  0.00     0.049 A 
ATOM     49  C   UNL A   1      39.994  32.394  30.270  1.00  0.00     0.074 A 
ATOM     50  C   UNL A   1      46.273  32.329  29.376  1.00  0.00     0.029 A 
ATOM     51  N   UNL A   1      44.125  31.783  29.526  1.00  0.00    -0.354 N 
ATOM     52  N   UNL A   1      41.286  32.286  30.064  1.00  0.00    -0.248 NA
ATOM     53  C   UNL A   1      39.583  33.680  30.849  1.00  0.00     0.031 C 
ATOM     54  C   UNL A   1      45.583  33.406  29.942  1.00  0.00     0.029 A 
ATOM     55  C   UNL A   1      44.237  33.083  30.000  1.00  0.00     0.049 A 
ATOM     56  H   UNL A   1      43.283  31.278  29.460  1.00  0.00     0.167 HD
ATOM     57  C   UNL A   1      41.836  33.505  30.457  1.00  0.00     0.074 A 
ATOM     58  C   UNL A   1      40.735  34.334  30.896  1.00  0.00     0.031 C 
ATOM     59  C   UNL A   1      43.134  33.902  30.447  1.00  0.00     0.034 A 
BRANCH  46  60
ATOM     60  C   UNL A   1      47.067  29.562  28.396  1.00  0.00     0.023 A 
ATOM     61  C   UNL A   1      47.872  28.986  29.396  1.00  0.00     0.031 A 
ATOM     62  C   UNL A   1      47.643  29.772  27.131  1.00  0.00     0.131 A 
ATOM     63  C   UNL A   1      49.222  28.710  29.137  1.00  0.00     0.055 A 
ATOM     64  C   UNL A   1      48.964  29.416  26.855  1.00  0.00     0.041 A 
ATOM     65  F   UNL A   1      46.933  30.338  26.142  1.00  0.00    -0.206 F 
ATOM     66  C   UNL A   1      49.767  28.895  27.865  1.00  0.00     0.022 A 
BRANCH  63  67
ATOM     67  S   UNL A   1      50.292  28.243  30.526  1.00  0.00     0.124 S 
ATOM     68  O   UNL A   1      50.669  29.550  31.059  1.00  0.00    -0.237 OA
ATOM     69  O   UNL A   1      49.399  27.446  31.359  1.00  0.00    -0.237 OA
ATOM     70  O   UNL A   1      51.377  27.502  29.888  1.00  0.00    -0.744 OA
ENDBRANCH  63  67
ENDBRANCH  46  60
BRANCH  47  71
ATOM     71  C   UNL A   1      37.479  31.717  30.312  1.00  0.00     0.023 A 
ATOM     72  C   UNL A   1      36.584  32.142  29.317  1.00  0.00     0.031 A 
ATOM     73  C   UNL A   1      37.009  31.660  31.638  1.00  0.00     0.131 A 
ATOM     74  C   UNL A   1      35.286  32.545  29.666  1.00  0.00     0.055 A 
ATOM     75  C   UNL A   1      35.699  32.005  31.972  1.00  0.00     0.041 A 
ATOM     76  F   UNL A   1      37.821  31.260  32.630  1.00  0.00    -0.206 F 
ATOM     77  C   UNL A   1      34.833  32.466  30.985  1.00  0.00     0.022 A 
BRANCH  74  78
ATOM     78  S   UNL A   1      34.227  33.269  28.385  1.00  0.00     0.124 S 
ATOM     79  O   UNL A   1      33.317  34.087  29.178  1.00  0.00    -0.237 OA
ATOM     80  O   UNL A   1      35.194  33.993  27.566  1.00  0.00    -0.237 OA
ATOM     81  O   UNL A   1      33.621  32.103  27.745  1.00  0.00    -0.744 OA
ENDBRANCH  74  78
ENDBRANCH  47  71
BRANCH  59  82
ATOM     82  C   UNL A   1      43.424  35.320  30.881  1.00  0.00     0.023 A 
ATOM     83  C   UNL A   1      43.546  35.673  32.236  1.00  0.00     0.031 A 
ATOM     84  C   UNL A   1      43.567  36.336  29.919  1.00  0.00     0.131 A 
ATOM     85  C   UNL A   1      43.747  37.017  32.594  1.00  0.00     0.055 A 
ATOM     86  C   UNL A   1      43.831  37.659  30.278  1.00  0.00     0.041 A 
ATOM     87  F   UNL A   1      43.456  36.059  28.609  1.00  0.00    -0.206 F 
ATOM     88  C   UNL A   1      43.909  38.008  31.622  1.00  0.00     0.022 A 
BRANCH  85  89
ATOM     89  S   UNL A   1      43.702  37.468  34.350  1.00  0.00     0.124 S 
ATOM     90  O   UNL A   1      45.065  37.935  34.579  1.00  0.00    -0.237 OA
ATOM     91  O   UNL A   1      42.663  38.493  34.382  1.00  0.00    -0.237 OA
ATOM     92  O   UNL A   1      43.356  36.215  35.018  1.00  0.00    -0.744 OA
ENDBRANCH  85  89
ENDBRANCH  59  82
ENDBRANCH  33  34
ENDBRANCH  25  28
ENDBRANCH  23  24
ENDBRANCH  22  23
ENDBRANCH   1  22
TORSDOF 19
ENDMDL
