MODEL 1
REMARK VINA RESULT:     -11.5      0.000      0.000
REMARK SMILES CCCC[C@H]1C(=S)c2cc(C(=O)NCCCNC(=O)c3ccc(-c4c5nc(c(-c6cc(S(=O)(=O)[O-])ccc6F)c6ccc([nH]6)c(-c6cc(S(=O)(=O)[O-])ccc6F)c6nc(c(-c7cc(S(=O)(=O)[O-])ccc7F)c7ccc4[nH]7)C=C6)C=C5)cc3)ccc2N=C1C
REMARK SMILES IDX 15 1 14 2 13 3 11 4 12 5 10 7 5 8 6 9 87 10 7 11 8 12 86 13
REMARK SMILES IDX 88 14 9 15 85 16 84 17 83 18 4 19 3 20 2 21 1 22 16 23 17 24
REMARK SMILES IDX 18 25 19 27 20 28 21 29 82 30 22 31 81 32 23 33 24 34 25 35
REMARK SMILES IDX 75 36 26 37 80 38 74 39 76 40 27 41 79 42 73 43 72 44 28 46
REMARK SMILES IDX 60 47 40 48 59 49 41 50 44 51 58 52 77 53 42 54 43 55 57 57
REMARK SMILES IDX 78 58 45 59 29 60 30 61 38 62 31 63 37 64 39 65 36 66 32 67
REMARK SMILES IDX 33 68 34 69 35 70 61 71 62 72 70 73 63 74 69 75 71 76 68 77
REMARK SMILES IDX 64 78 65 79 66 80 67 81 46 82 47 83 55 84 48 85 54 86 56 87
REMARK SMILES IDX 53 88 49 89 50 90 51 91 52 92
REMARK H PARENT 13 6 17 26 76 45 44 56
REMARK Flexibility Score: inf
ROOT
ATOM      1  C   UNL A   1      31.455  32.090  26.914  1.00  0.00     0.042 C 
ENDROOT
BRANCH   1   2
ATOM      2  C   UNL A   1      31.730  30.634  26.549  1.00  0.00     0.118 C 
BRANCH   2   3
ATOM      3  N   UNL A   1      32.965  30.163  27.146  1.00  0.00    -0.352 N 
ATOM      4  C   UNL A   1      33.835  29.152  26.837  1.00  0.00     0.251 C 
ATOM      5  O   UNL A   1      34.841  29.052  27.541  1.00  0.00    -0.269 OA
ATOM      6  H   UNL A   1      33.235  30.677  27.941  1.00  0.00     0.163 HD
BRANCH   4   7
ATOM      7  C   UNL A   1      33.668  28.212  25.689  1.00  0.00     0.040 A 
ATOM      8  C   UNL A   1      33.185  23.470  24.256  1.00  0.00     0.075 C 
ATOM      9  C   UNL A   1      32.848  24.499  25.328  1.00  0.00     0.033 C 
ATOM     10  C   UNL A   1      33.227  24.054  22.859  1.00  0.00     0.024 C 
ATOM     11  S   UNL A   1      32.071  23.997  26.744  1.00  0.00    -0.083 S 
ATOM     12  C   UNL A   1      33.181  25.908  25.016  1.00  0.00     0.016 A 
ATOM     13  N   UNL A   1      33.315  25.322  22.613  1.00  0.00    -0.257 NA
ATOM     14  C   UNL A   1      33.188  23.110  21.682  1.00  0.00     0.062 C 
ATOM     15  C   UNL A   1      33.343  26.883  26.014  1.00  0.00     0.025 A 
ATOM     16  C   UNL A   1      33.368  26.240  23.671  1.00  0.00     0.071 A 
ATOM     17  C   UNL A   1      33.642  27.570  23.346  1.00  0.00     0.030 A 
ATOM     18  C   UNL A   1      33.772  28.548  24.340  1.00  0.00     0.016 A 
BRANCH   8  19
ATOM     19  C   UNL A   1      34.421  22.611  24.605  1.00  0.00     0.015 C 
BRANCH  19  20
ATOM     20  C   UNL A   1      35.768  23.302  24.860  1.00  0.00     0.001 C 
BRANCH  20  21
ATOM     21  C   UNL A   1      37.016  22.705  24.215  1.00  0.00    -0.003 C 
ATOM     22  C   UNL A   1      37.364  21.305  24.690  1.00  0.00     0.004 C 
ENDBRANCH  20  21
ENDBRANCH  19  20
ENDBRANCH   8  19
ENDBRANCH   4   7
ENDBRANCH   2   3
ENDBRANCH   1   2
BRANCH   1  23
ATOM     23  C   UNL A   1      32.702  32.968  26.892  1.00  0.00     0.118 C 
BRANCH  23  24
ATOM     24  N   UNL A   1      32.561  34.152  27.728  1.00  0.00    -0.352 N 
ATOM     25  C   UNL A   1      33.240  34.514  28.870  1.00  0.00     0.251 C 
ATOM     26  H   UNL A   1      31.876  34.793  27.431  1.00  0.00     0.163 HD
ATOM     27  O   UNL A   1      32.828  35.451  29.541  1.00  0.00    -0.269 OA
BRANCH  25  28
ATOM     28  C   UNL A   1      34.440  33.757  29.296  1.00  0.00     0.039 A 
ATOM     29  C   UNL A   1      34.320  32.589  30.053  1.00  0.00     0.014 A 
ATOM     30  C   UNL A   1      35.707  34.217  28.923  1.00  0.00     0.014 A 
ATOM     31  C   UNL A   1      35.456  31.987  30.581  1.00  0.00     0.010 A 
ATOM     32  C   UNL A   1      36.851  33.554  29.378  1.00  0.00     0.010 A 
ATOM     33  C   UNL A   1      36.737  32.462  30.253  1.00  0.00    -0.014 A 
BRANCH  33  34
ATOM     34  C   UNL A   1      37.935  31.793  30.828  1.00  0.00     0.031 A 
ATOM     35  C   UNL A   1      38.387  32.092  32.231  1.00  0.00     0.074 A 
ATOM     36  C   UNL A   1      38.587  30.873  30.090  1.00  0.00     0.049 A 
ATOM     37  N   UNL A   1      39.382  31.572  32.903  1.00  0.00    -0.248 NA
ATOM     38  C   UNL A   1      37.632  33.111  32.978  1.00  0.00     0.031 C 
ATOM     39  C   UNL A   1      38.240  30.509  28.716  1.00  0.00     0.029 A 
ATOM     40  N   UNL A   1      39.657  30.065  30.389  1.00  0.00    -0.354 N 
ATOM     41  C   UNL A   1      39.384  32.207  34.140  1.00  0.00     0.074 A 
ATOM     42  C   UNL A   1      38.314  33.179  34.114  1.00  0.00     0.031 C 
ATOM     43  C   UNL A   1      39.043  29.517  28.309  1.00  0.00     0.029 A 
ATOM     44  C   UNL A   1      40.011  29.221  29.362  1.00  0.00     0.049 A 
ATOM     45  H   UNL A   1      40.125  30.087  31.255  1.00  0.00     0.167 HD
ATOM     46  C   UNL A   1      40.194  31.984  35.203  1.00  0.00     0.034 A 
ATOM     47  C   UNL A   1      41.010  28.319  29.264  1.00  0.00     0.034 A 
ATOM     48  C   UNL A   1      41.241  30.994  35.218  1.00  0.00     0.049 A 
ATOM     49  C   UNL A   1      41.908  28.102  30.454  1.00  0.00     0.074 A 
ATOM     50  C   UNL A   1      42.087  30.664  36.262  1.00  0.00     0.029 A 
ATOM     51  N   UNL A   1      41.586  30.175  34.152  1.00  0.00    -0.354 N 
ATOM     52  N   UNL A   1      41.856  28.669  31.637  1.00  0.00    -0.248 NA
ATOM     53  C   UNL A   1      42.996  27.126  30.306  1.00  0.00     0.031 C 
ATOM     54  C   UNL A   1      42.984  29.698  35.808  1.00  0.00     0.029 A 
ATOM     55  C   UNL A   1      42.653  29.363  34.505  1.00  0.00     0.049 A 
ATOM     56  H   UNL A   1      41.138  30.170  33.275  1.00  0.00     0.167 HD
ATOM     57  C   UNL A   1      42.894  28.109  32.377  1.00  0.00     0.074 A 
ATOM     58  C   UNL A   1      43.536  27.135  31.518  1.00  0.00     0.031 C 
ATOM     59  C   UNL A   1      43.282  28.386  33.648  1.00  0.00     0.034 A 
BRANCH  46  60
ATOM     60  C   UNL A   1      39.994  32.807  36.453  1.00  0.00     0.023 A 
ATOM     61  C   UNL A   1      39.069  32.388  37.430  1.00  0.00     0.031 A 
ATOM     62  C   UNL A   1      40.611  34.060  36.617  1.00  0.00     0.131 A 
ATOM     63  C   UNL A   1      38.765  33.229  38.508  1.00  0.00     0.055 A 
ATOM     64  C   UNL A   1      40.334  34.876  37.716  1.00  0.00     0.041 A 
ATOM     65  F   UNL A   1      41.499  34.507  35.714  1.00  0.00    -0.206 F 
ATOM     66  C   UNL A   1      39.396  34.467  38.659  1.00  0.00     0.022 A 
BRANCH  63  67
ATOM     67  S   UNL A   1      37.488  32.782  39.716  1.00  0.00     0.124 S 
ATOM     68  O   UNL A   1      36.309  32.636  38.864  1.00  0.00    -0.237 OA
ATOM     69  O   UNL A   1      38.014  31.537  40.270  1.00  0.00    -0.237 OA
ATOM     70  O   UNL A   1      37.455  33.916  40.631  1.00  0.00    -0.744 OA
ENDBRANCH  63  67
ENDBRANCH  46  60
BRANCH  47  71
ATOM     71  C   UNL A   1      41.163  27.543  27.998  1.00  0.00     0.023 A 
ATOM     72  C   UNL A   1      40.838  26.174  27.950  1.00  0.00     0.031 A 
ATOM     73  C   UNL A   1      41.750  28.121  26.861  1.00  0.00     0.131 A 
ATOM     74  C   UNL A   1      41.182  25.413  26.826  1.00  0.00     0.055 A 
ATOM     75  C   UNL A   1      42.018  27.375  25.710  1.00  0.00     0.041 A 
ATOM     76  F   UNL A   1      42.089  29.419  26.860  1.00  0.00    -0.206 F 
ATOM     77  C   UNL A   1      41.754  26.008  25.698  1.00  0.00     0.022 A 
BRANCH  74  78
ATOM     78  S   UNL A   1      41.048  23.603  26.856  1.00  0.00     0.124 S 
ATOM     79  O   UNL A   1      39.638  23.398  26.538  1.00  0.00    -0.237 OA
ATOM     80  O   UNL A   1      41.993  23.216  25.811  1.00  0.00    -0.237 OA
ATOM     81  O   UNL A   1      41.448  23.251  28.213  1.00  0.00    -0.744 OA
ENDBRANCH  74  78
ENDBRANCH  47  71
BRANCH  59  82
ATOM     82  C   UNL A   1      44.463  27.640  34.220  1.00  0.00     0.023 A 
ATOM     83  C   UNL A   1      44.258  26.469  34.976  1.00  0.00     0.031 A 
ATOM     84  C   UNL A   1      45.763  28.172  34.159  1.00  0.00     0.131 A 
ATOM     85  C   UNL A   1      45.325  25.897  35.679  1.00  0.00     0.055 A 
ATOM     86  C   UNL A   1      46.833  27.569  34.821  1.00  0.00     0.041 A 
ATOM     87  F   UNL A   1      46.009  29.292  33.461  1.00  0.00    -0.206 F 
ATOM     88  C   UNL A   1      46.613  26.435  35.599  1.00  0.00     0.022 A 
BRANCH  85  89
ATOM     89  S   UNL A   1      45.062  24.495  36.800  1.00  0.00     0.124 S 
ATOM     90  O   UNL A   1      46.415  24.245  37.292  1.00  0.00    -0.237 OA
ATOM     91  O   UNL A   1      44.137  25.055  37.782  1.00  0.00    -0.237 OA
ATOM     92  O   UNL A   1      44.510  23.454  35.940  1.00  0.00    -0.744 OA
ENDBRANCH  85  89
ENDBRANCH  59  82
ENDBRANCH  33  34
ENDBRANCH  25  28
ENDBRANCH  23  24
ENDBRANCH   1  23
TORSDOF 16
ENDMDL
MODEL 2
REMARK VINA RESULT:     -11.5      2.097      7.880
REMARK SMILES CCCC[C@H]1C(=S)c2cc(C(=O)NCCCNC(=O)c3ccc(-c4c5nc(c(-c6cc(S(=O)(=O)[O-])ccc6F)c6ccc([nH]6)c(-c6cc(S(=O)(=O)[O-])ccc6F)c6nc(c(-c7cc(S(=O)(=O)[O-])ccc7F)c7ccc4[nH]7)C=C6)C=C5)cc3)ccc2N=C1C
REMARK SMILES IDX 15 1 14 2 13 3 11 4 12 5 10 7 5 8 6 9 87 10 7 11 8 12 86 13
REMARK SMILES IDX 88 14 9 15 85 16 84 17 83 18 4 19 3 20 2 21 1 22 16 23 17 24
REMARK SMILES IDX 18 25 19 27 20 28 21 29 82 30 22 31 81 32 23 33 24 34 25 35
REMARK SMILES IDX 75 36 26 37 80 38 74 39 76 40 27 41 79 42 73 43 72 44 28 46
REMARK SMILES IDX 60 47 40 48 59 49 41 50 44 51 58 52 77 53 42 54 43 55 57 57
REMARK SMILES IDX 78 58 45 59 29 60 30 61 38 62 31 63 37 64 39 65 36 66 32 67
REMARK SMILES IDX 33 68 34 69 35 70 61 71 62 72 70 73 63 74 69 75 71 76 68 77
REMARK SMILES IDX 64 78 65 79 66 80 67 81 46 82 47 83 55 84 48 85 54 86 56 87
REMARK SMILES IDX 53 88 49 89 50 90 51 91 52 92
REMARK H PARENT 13 6 17 26 76 45 44 56
REMARK Flexibility Score: inf
ROOT
ATOM      1  C   UNL A   1      31.616  32.135  26.753  1.00  0.00     0.042 C 
ENDROOT
BRANCH   1   2
ATOM      2  C   UNL A   1      31.781  30.631  26.549  1.00  0.00     0.118 C 
BRANCH   2   3
ATOM      3  N   UNL A   1      32.986  30.139  27.189  1.00  0.00    -0.352 N 
ATOM      4  C   UNL A   1      33.844  29.108  26.914  1.00  0.00     0.251 C 
ATOM      5  O   UNL A   1      34.824  28.992  27.651  1.00  0.00    -0.269 OA
ATOM      6  H   UNL A   1      33.240  30.653  27.989  1.00  0.00     0.163 HD
BRANCH   4   7
ATOM      7  C   UNL A   1      33.694  28.164  25.767  1.00  0.00     0.040 A 
ATOM      8  C   UNL A   1      33.044  23.437  24.352  1.00  0.00     0.075 C 
ATOM      9  C   UNL A   1      32.700  24.496  25.392  1.00  0.00     0.033 C 
ATOM     10  C   UNL A   1      33.199  24.000  22.955  1.00  0.00     0.024 C 
ATOM     11  S   UNL A   1      31.815  24.053  26.765  1.00  0.00    -0.083 S 
ATOM     12  C   UNL A   1      33.126  25.881  25.088  1.00  0.00     0.016 A 
ATOM     13  N   UNL A   1      33.368  25.259  22.702  1.00  0.00    -0.257 NA
ATOM     14  C   UNL A   1      33.178  23.046  21.787  1.00  0.00     0.062 C 
ATOM     15  C   UNL A   1      33.281  26.858  26.084  1.00  0.00     0.025 A 
ATOM     16  C   UNL A   1      33.409  26.186  23.753  1.00  0.00     0.071 A 
ATOM     17  C   UNL A   1      33.772  27.495  23.433  1.00  0.00     0.030 A 
ATOM     18  C   UNL A   1      33.895  28.478  24.423  1.00  0.00     0.016 A 
BRANCH   8  19
ATOM     19  C   UNL A   1      34.209  22.518  24.781  1.00  0.00     0.015 C 
BRANCH  19  20
ATOM     20  C   UNL A   1      35.481  23.145  25.372  1.00  0.00     0.001 C 
BRANCH  20  21
ATOM     21  C   UNL A   1      36.808  22.876  24.667  1.00  0.00    -0.003 C 
ATOM     22  C   UNL A   1      36.744  22.949  23.152  1.00  0.00     0.004 C 
ENDBRANCH  20  21
ENDBRANCH  19  20
ENDBRANCH   8  19
ENDBRANCH   4   7
ENDBRANCH   2   3
ENDBRANCH   1   2
BRANCH   1  23
ATOM     23  C   UNL A   1      32.870  32.815  27.293  1.00  0.00     0.118 C 
BRANCH  23  24
ATOM     24  N   UNL A   1      32.619  34.186  27.716  1.00  0.00    -0.352 N 
ATOM     25  C   UNL A   1      33.140  34.894  28.776  1.00  0.00     0.251 C 
ATOM     26  H   UNL A   1      31.979  34.683  27.158  1.00  0.00     0.163 HD
ATOM     27  O   UNL A   1      32.642  35.969  29.082  1.00  0.00    -0.269 OA
BRANCH  25  28
ATOM     28  C   UNL A   1      34.273  34.342  29.556  1.00  0.00     0.039 A 
ATOM     29  C   UNL A   1      35.589  34.490  29.112  1.00  0.00     0.014 A 
ATOM     30  C   UNL A   1      34.015  33.674  30.757  1.00  0.00     0.014 A 
ATOM     31  C   UNL A   1      36.619  33.827  29.769  1.00  0.00     0.010 A 
ATOM     32  C   UNL A   1      35.066  33.085  31.467  1.00  0.00     0.010 A 
ATOM     33  C   UNL A   1      36.372  33.113  30.953  1.00  0.00    -0.014 A 
BRANCH  33  34
ATOM     34  C   UNL A   1      37.496  32.418  31.636  1.00  0.00     0.031 A 
ATOM     35  C   UNL A   1      38.224  31.284  30.967  1.00  0.00     0.074 A 
ATOM     36  C   UNL A   1      37.889  32.849  32.851  1.00  0.00     0.049 A 
ATOM     37  N   UNL A   1      39.249  30.596  31.399  1.00  0.00    -0.248 NA
ATOM     38  C   UNL A   1      37.738  30.862  29.643  1.00  0.00     0.031 C 
ATOM     39  C   UNL A   1      37.251  33.934  33.596  1.00  0.00     0.029 A 
ATOM     40  N   UNL A   1      38.921  32.449  33.664  1.00  0.00    -0.354 N 
ATOM     41  C   UNL A   1      39.521  29.653  30.415  1.00  0.00     0.074 A 
ATOM     42  C   UNL A   1      38.530  29.831  29.378  1.00  0.00     0.031 C 
ATOM     43  C   UNL A   1      37.934  34.150  34.728  1.00  0.00     0.029 A 
ATOM     44  C   UNL A   1      39.015  33.173  34.830  1.00  0.00     0.049 A 
ATOM     45  H   UNL A   1      39.536  31.715  33.434  1.00  0.00     0.167 HD
ATOM     46  C   UNL A   1      40.517  28.735  30.376  1.00  0.00     0.034 A 
ATOM     47  C   UNL A   1      39.862  33.060  35.875  1.00  0.00     0.034 A 
ATOM     48  C   UNL A   1      41.511  28.588  31.409  1.00  0.00     0.049 A 
ATOM     49  C   UNL A   1      40.950  32.021  35.815  1.00  0.00     0.074 A 
ATOM     50  C   UNL A   1      42.585  27.716  31.441  1.00  0.00     0.029 A 
ATOM     51  N   UNL A   1      41.560  29.322  32.586  1.00  0.00    -0.354 N 
ATOM     52  N   UNL A   1      41.230  31.178  34.848  1.00  0.00    -0.248 NA
ATOM     53  C   UNL A   1      41.842  31.914  36.977  1.00  0.00     0.031 C 
ATOM     54  C   UNL A   1      43.241  27.876  32.661  1.00  0.00     0.029 A 
ATOM     55  C   UNL A   1      42.627  28.900  33.364  1.00  0.00     0.049 A 
ATOM     56  H   UNL A   1      40.929  30.038  32.832  1.00  0.00     0.167 HD
ATOM     57  C   UNL A   1      42.336  30.451  35.279  1.00  0.00     0.074 A 
ATOM     58  C   UNL A   1      42.694  30.976  36.581  1.00  0.00     0.031 C 
ATOM     59  C   UNL A   1      42.986  29.436  34.656  1.00  0.00     0.034 A 
BRANCH  46  60
ATOM     60  C   UNL A   1      40.611  27.815  29.183  1.00  0.00     0.023 A 
ATOM     61  C   UNL A   1      41.516  28.102  28.143  1.00  0.00     0.031 A 
ATOM     62  C   UNL A   1      39.721  26.740  29.010  1.00  0.00     0.131 A 
ATOM     63  C   UNL A   1      41.489  27.343  26.965  1.00  0.00     0.055 A 
ATOM     64  C   UNL A   1      39.726  25.961  27.851  1.00  0.00     0.041 A 
ATOM     65  F   UNL A   1      38.836  26.425  29.971  1.00  0.00    -0.206 F 
ATOM     66  C   UNL A   1      40.604  26.271  26.817  1.00  0.00     0.022 A 
BRANCH  63  67
ATOM     67  S   UNL A   1      42.551  27.760  25.555  1.00  0.00     0.124 S 
ATOM     68  O   UNL A   1      42.381  26.587  24.698  1.00  0.00    -0.237 OA
ATOM     69  O   UNL A   1      41.933  28.987  25.060  1.00  0.00    -0.237 OA
ATOM     70  O   UNL A   1      43.876  27.912  26.144  1.00  0.00    -0.744 OA
ENDBRANCH  63  67
ENDBRANCH  46  60
BRANCH  47  71
ATOM     71  C   UNL A   1      39.712  33.993  37.031  1.00  0.00     0.023 A 
ATOM     72  C   UNL A   1      40.619  35.054  37.220  1.00  0.00     0.031 A 
ATOM     73  C   UNL A   1      38.748  33.766  38.025  1.00  0.00     0.131 A 
ATOM     74  C   UNL A   1      40.597  35.789  38.412  1.00  0.00     0.055 A 
ATOM     75  C   UNL A   1      38.678  34.553  39.177  1.00  0.00     0.041 A 
ATOM     76  F   UNL A   1      37.868  32.760  37.898  1.00  0.00    -0.206 F 
ATOM     77  C   UNL A   1      39.621  35.556  39.385  1.00  0.00     0.022 A 
BRANCH  74  78
ATOM     78  S   UNL A   1      41.931  36.954  38.807  1.00  0.00     0.124 S 
ATOM     79  O   UNL A   1      41.188  38.114  39.288  1.00  0.00    -0.237 OA
ATOM     80  O   UNL A   1      42.680  36.218  39.823  1.00  0.00    -0.237 OA
ATOM     81  O   UNL A   1      42.623  37.128  37.535  1.00  0.00    -0.744 OA
ENDBRANCH  74  78
ENDBRANCH  47  71
BRANCH  59  82
ATOM     82  C   UNL A   1      44.163  28.797  35.353  1.00  0.00     0.023 A 
ATOM     83  C   UNL A   1      43.948  27.828  36.352  1.00  0.00     0.031 A 
ATOM     84  C   UNL A   1      45.474  29.260  35.148  1.00  0.00     0.131 A 
ATOM     85  C   UNL A   1      45.018  27.390  37.141  1.00  0.00     0.055 A 
ATOM     86  C   UNL A   1      46.546  28.783  35.903  1.00  0.00     0.041 A 
ATOM     87  F   UNL A   1      45.730  30.191  34.215  1.00  0.00    -0.206 F 
ATOM     88  C   UNL A   1      46.318  27.855  36.916  1.00  0.00     0.022 A 
BRANCH  85  89
ATOM     89  S   UNL A   1      44.749  26.277  38.549  1.00  0.00     0.124 S 
ATOM     90  O   UNL A   1      45.276  25.013  38.039  1.00  0.00    -0.237 OA
ATOM     91  O   UNL A   1      45.549  26.908  39.596  1.00  0.00    -0.237 OA
ATOM     92  O   UNL A   1      43.305  26.311  38.755  1.00  0.00    -0.744 OA
ENDBRANCH  85  89
ENDBRANCH  59  82
ENDBRANCH  33  34
ENDBRANCH  25  28
ENDBRANCH  23  24
ENDBRANCH   1  23
TORSDOF 16
ENDMDL
MODEL 3
REMARK VINA RESULT:     -11.4      2.082      2.439
REMARK SMILES CCCC[C@H]1C(=S)c2cc(C(=O)NCCCNC(=O)c3ccc(-c4c5nc(c(-c6cc(S(=O)(=O)[O-])ccc6F)c6ccc([nH]6)c(-c6cc(S(=O)(=O)[O-])ccc6F)c6nc(c(-c7cc(S(=O)(=O)[O-])ccc7F)c7ccc4[nH]7)C=C6)C=C5)cc3)ccc2N=C1C
REMARK SMILES IDX 15 1 14 2 13 3 11 4 12 5 10 7 5 8 6 9 87 10 7 11 8 12 86 13
REMARK SMILES IDX 88 14 9 15 85 16 84 17 83 18 4 19 3 20 2 21 1 22 16 23 17 24
REMARK SMILES IDX 18 25 19 27 20 28 21 29 82 30 22 31 81 32 23 33 24 34 25 35
REMARK SMILES IDX 75 36 26 37 80 38 74 39 76 40 27 41 79 42 73 43 72 44 28 46
REMARK SMILES IDX 60 47 40 48 59 49 41 50 44 51 58 52 77 53 42 54 43 55 57 57
REMARK SMILES IDX 78 58 45 59 29 60 30 61 38 62 31 63 37 64 39 65 36 66 32 67
REMARK SMILES IDX 33 68 34 69 35 70 61 71 62 72 70 73 63 74 69 75 71 76 68 77
REMARK SMILES IDX 64 78 65 79 66 80 67 81 46 82 47 83 55 84 48 85 54 86 56 87
REMARK SMILES IDX 53 88 49 89 50 90 51 91 52 92
REMARK H PARENT 13 6 17 26 76 45 44 56
REMARK Flexibility Score: inf
ROOT
ATOM      1  C   UNL A   1      31.775  31.838  26.672  1.00  0.00     0.042 C 
ENDROOT
BRANCH   1   2
ATOM      2  C   UNL A   1      31.863  30.315  26.708  1.00  0.00     0.118 C 
BRANCH   2   3
ATOM      3  N   UNL A   1      33.154  29.871  27.201  1.00  0.00    -0.352 N 
ATOM      4  C   UNL A   1      34.027  28.893  26.806  1.00  0.00     0.251 C 
ATOM      5  O   UNL A   1      35.086  28.812  27.431  1.00  0.00    -0.269 OA
ATOM      6  H   UNL A   1      33.467  30.378  27.984  1.00  0.00     0.163 HD
BRANCH   4   7
ATOM      7  C   UNL A   1      33.801  27.971  25.654  1.00  0.00     0.040 A 
ATOM      8  C   UNL A   1      33.075  23.267  24.197  1.00  0.00     0.075 C 
ATOM      9  C   UNL A   1      32.800  24.304  25.279  1.00  0.00     0.033 C 
ATOM     10  C   UNL A   1      33.128  23.858  22.803  1.00  0.00     0.024 C 
ATOM     11  S   UNL A   1      32.017  23.829  26.702  1.00  0.00    -0.083 S 
ATOM     12  C   UNL A   1      33.197  25.697  24.973  1.00  0.00     0.016 A 
ATOM     13  N   UNL A   1      33.273  25.122  22.564  1.00  0.00    -0.257 NA
ATOM     14  C   UNL A   1      33.030  22.926  21.621  1.00  0.00     0.062 C 
ATOM     15  C   UNL A   1      33.417  26.656  25.974  1.00  0.00     0.025 A 
ATOM     16  C   UNL A   1      33.383  26.030  23.627  1.00  0.00     0.071 A 
ATOM     17  C   UNL A   1      33.717  27.347  23.308  1.00  0.00     0.030 A 
ATOM     18  C   UNL A   1      33.905  28.311  24.306  1.00  0.00     0.016 A 
BRANCH   8  19
ATOM     19  C   UNL A   1      34.272  22.348  24.525  1.00  0.00     0.015 C 
BRANCH  19  20
ATOM     20  C   UNL A   1      35.650  22.667  23.927  1.00  0.00     0.001 C 
BRANCH  20  21
ATOM     21  C   UNL A   1      36.466  23.790  24.563  1.00  0.00    -0.003 C 
ATOM     22  C   UNL A   1      36.528  23.744  26.080  1.00  0.00     0.004 C 
ENDBRANCH  20  21
ENDBRANCH  19  20
ENDBRANCH   8  19
ENDBRANCH   4   7
ENDBRANCH   2   3
ENDBRANCH   1   2
BRANCH   1  23
ATOM     23  C   UNL A   1      33.000  32.531  27.261  1.00  0.00     0.118 C 
BRANCH  23  24
ATOM     24  N   UNL A   1      32.719  33.902  27.667  1.00  0.00    -0.352 N 
ATOM     25  C   UNL A   1      33.254  34.646  28.695  1.00  0.00     0.251 C 
ATOM     26  H   UNL A   1      32.045  34.368  27.122  1.00  0.00     0.163 HD
ATOM     27  O   UNL A   1      32.732  35.712  28.997  1.00  0.00    -0.269 OA
BRANCH  25  28
ATOM     28  C   UNL A   1      34.429  34.146  29.445  1.00  0.00     0.039 A 
ATOM     29  C   UNL A   1      35.727  34.452  29.032  1.00  0.00     0.014 A 
ATOM     30  C   UNL A   1      34.228  33.366  30.588  1.00  0.00     0.014 A 
ATOM     31  C   UNL A   1      36.813  33.841  29.650  1.00  0.00     0.010 A 
ATOM     32  C   UNL A   1      35.327  32.825  31.265  1.00  0.00     0.010 A 
ATOM     33  C   UNL A   1      36.627  33.017  30.772  1.00  0.00    -0.014 A 
BRANCH  33  34
ATOM     34  C   UNL A   1      37.808  32.381  31.415  1.00  0.00     0.031 A 
ATOM     35  C   UNL A   1      38.294  32.839  32.764  1.00  0.00     0.074 A 
ATOM     36  C   UNL A   1      38.414  31.349  30.795  1.00  0.00     0.049 A 
ATOM     37  N   UNL A   1      39.278  32.370  33.486  1.00  0.00    -0.248 NA
ATOM     38  C   UNL A   1      37.590  33.974  33.382  1.00  0.00     0.031 C 
ATOM     39  C   UNL A   1      38.031  30.826  29.483  1.00  0.00     0.029 A 
ATOM     40  N   UNL A   1      39.457  30.544  31.182  1.00  0.00    -0.354 N 
ATOM     41  C   UNL A   1      39.324  33.157  34.631  1.00  0.00     0.074 A 
ATOM     42  C   UNL A   1      38.292  34.160  34.492  1.00  0.00     0.031 C 
ATOM     43  C   UNL A   1      38.790  29.760  29.197  1.00  0.00     0.029 A 
ATOM     44  C   UNL A   1      39.763  29.562  30.269  1.00  0.00     0.049 A 
ATOM     45  H   UNL A   1      39.939  30.658  32.034  1.00  0.00     0.167 HD
ATOM     46  C   UNL A   1      40.143  33.040  35.704  1.00  0.00     0.034 A 
ATOM     47  C   UNL A   1      40.726  28.617  30.277  1.00  0.00     0.034 A 
ATOM     48  C   UNL A   1      41.151  32.020  35.835  1.00  0.00     0.049 A 
ATOM     49  C   UNL A   1      41.633  28.519  31.474  1.00  0.00     0.074 A 
ATOM     50  C   UNL A   1      42.001  31.793  36.904  1.00  0.00     0.029 A 
ATOM     51  N   UNL A   1      41.448  31.058  34.880  1.00  0.00    -0.354 N 
ATOM     52  N   UNL A   1      41.622  29.234  32.575  1.00  0.00    -0.248 NA
ATOM     53  C   UNL A   1      42.681  27.489  31.441  1.00  0.00     0.031 C 
ATOM     54  C   UNL A   1      42.854  30.742  36.567  1.00  0.00     0.029 A 
ATOM     55  C   UNL A   1      42.490  30.257  35.321  1.00  0.00     0.049 A 
ATOM     56  H   UNL A   1      40.986  30.959  34.015  1.00  0.00     0.167 HD
ATOM     57  C   UNL A   1      42.649  28.733  33.370  1.00  0.00     0.074 A 
ATOM     58  C   UNL A   1      43.241  27.633  32.636  1.00  0.00     0.031 C 
ATOM     59  C   UNL A   1      43.067  29.154  34.590  1.00  0.00     0.034 A 
BRANCH  46  60
ATOM     60  C   UNL A   1      39.993  34.023  36.841  1.00  0.00     0.023 A 
ATOM     61  C   UNL A   1      40.993  34.987  37.074  1.00  0.00     0.031 A 
ATOM     62  C   UNL A   1      38.940  33.923  37.768  1.00  0.00     0.131 A 
ATOM     63  C   UNL A   1      40.936  35.789  38.221  1.00  0.00     0.055 A 
ATOM     64  C   UNL A   1      38.866  34.753  38.888  1.00  0.00     0.041 A 
ATOM     65  F   UNL A   1      37.962  33.019  37.594  1.00  0.00    -0.206 F 
ATOM     66  C   UNL A   1      39.875  35.682  39.125  1.00  0.00     0.022 A 
BRANCH  63  67
ATOM     67  S   UNL A   1      42.269  36.953  38.621  1.00  0.00     0.124 S 
ATOM     68  O   UNL A   1      42.816  37.245  37.297  1.00  0.00    -0.237 OA
ATOM     69  O   UNL A   1      41.538  38.050  39.249  1.00  0.00    -0.237 OA
ATOM     70  O   UNL A   1      43.148  36.192  39.501  1.00  0.00    -0.744 OA
ENDBRANCH  63  67
ENDBRANCH  46  60
BRANCH  47  71
ATOM     71  C   UNL A   1      40.828  27.680  29.118  1.00  0.00     0.023 A 
ATOM     72  C   UNL A   1      41.779  27.896  28.102  1.00  0.00     0.031 A 
ATOM     73  C   UNL A   1      39.903  26.638  28.945  1.00  0.00     0.131 A 
ATOM     74  C   UNL A   1      41.727  27.140  26.924  1.00  0.00     0.055 A 
ATOM     75  C   UNL A   1      39.906  25.834  27.803  1.00  0.00     0.041 A 
ATOM     76  F   UNL A   1      38.970  26.399  29.879  1.00  0.00    -0.206 F 
ATOM     77  C   UNL A   1      40.807  26.098  26.775  1.00  0.00     0.022 A 
BRANCH  74  78
ATOM     78  S   UNL A   1      42.740  27.592  25.488  1.00  0.00     0.124 S 
ATOM     79  O   UNL A   1      42.040  28.768  24.980  1.00  0.00    -0.237 OA
ATOM     80  O   UNL A   1      44.038  27.849  26.107  1.00  0.00    -0.237 OA
ATOM     81  O   UNL A   1      42.684  26.407  24.640  1.00  0.00    -0.744 OA
ENDBRANCH  74  78
ENDBRANCH  47  71
BRANCH  59  82
ATOM     82  C   UNL A   1      44.229  28.442  35.241  1.00  0.00     0.023 A 
ATOM     83  C   UNL A   1      43.995  27.504  36.266  1.00  0.00     0.031 A 
ATOM     84  C   UNL A   1      45.558  28.808  34.965  1.00  0.00     0.131 A 
ATOM     85  C   UNL A   1      45.070  27.002  37.009  1.00  0.00     0.055 A 
ATOM     86  C   UNL A   1      46.630  28.265  35.675  1.00  0.00     0.041 A 
ATOM     87  F   UNL A   1      45.833  29.705  34.005  1.00  0.00    -0.206 F 
ATOM     88  C   UNL A   1      46.386  27.370  36.714  1.00  0.00     0.022 A 
BRANCH  85  89
ATOM     89  S   UNL A   1      44.793  25.931  38.447  1.00  0.00     0.124 S 
ATOM     90  O   UNL A   1      45.956  26.235  39.278  1.00  0.00    -0.237 OA
ATOM     91  O   UNL A   1      43.517  26.424  38.958  1.00  0.00    -0.237 OA
ATOM     92  O   UNL A   1      44.766  24.585  37.885  1.00  0.00    -0.744 OA
ENDBRANCH  85  89
ENDBRANCH  59  82
ENDBRANCH  33  34
ENDBRANCH  25  28
ENDBRANCH  23  24
ENDBRANCH   1  23
TORSDOF 16
ENDMDL
