MODEL 1
REMARK VINA RESULT:     -12.2      0.000      0.000
REMARK SMILES O=C(NCCCNC(=O)c1nn(-c2ccc([N+](=O)[O-])cc2)cc1CCO)c1ccc(-c2c3nc(c(-c4cc(S(=O)(=O)[O-])ccc4F)c4ccc([nH]4)c(-c4cc(S(=O)(=O)[O-])ccc4F)c4nc(c(-c5cc(S(=O)(=O)[O-])ccc5F)c5ccc2[nH]5)C=C4)C=C3)cc1
REMARK SMILES IDX 5 1 4 2 3 3 1 4 2 5 27 7 28 8 89 9 29 10 88 11 30 12 31 13
REMARK SMILES IDX 32 14 82 15 33 16 87 17 81 18 83 19 34 20 86 21 80 22 79 23
REMARK SMILES IDX 35 25 67 26 47 27 66 28 48 29 51 30 65 31 84 32 49 33 50 34
REMARK SMILES IDX 64 36 85 37 52 38 36 39 37 40 45 41 38 42 44 43 46 44 43 45
REMARK SMILES IDX 39 46 40 47 41 48 42 49 68 50 69 51 77 52 70 53 76 54 78 55
REMARK SMILES IDX 75 56 71 57 72 58 73 59 74 60 53 61 54 62 62 63 55 64 61 65
REMARK SMILES IDX 63 66 60 67 56 68 57 69 58 70 59 71 6 72 7 73 8 74 9 76
REMARK SMILES IDX 10 77 11 78 23 79 12 80 22 81 24 82 25 83 26 84 13 86 14 87
REMARK SMILES IDX 21 88 15 89 20 90 16 91 17 92 18 93 19 94
REMARK H PARENT 3 6 83 24 51 35 7 75 26 85
REMARK Flexibility Score: inf
ROOT
ATOM      1  C   UNL A   1      32.291  29.801  27.264  1.00  0.00     0.042 C 
ENDROOT
BRANCH   1   2
ATOM      2  C   UNL A   1      33.772  30.176  27.241  1.00  0.00     0.118 C 
BRANCH   2   3
ATOM      3  N   UNL A   1      34.160  31.247  28.137  1.00  0.00    -0.352 N 
ATOM      4  O   UNL A   1      35.319  32.785  29.198  1.00  0.00    -0.269 OA
ATOM      5  C   UNL A   1      35.334  31.649  28.712  1.00  0.00     0.251 C 
ATOM      6  H   UNL A   1      33.400  31.817  28.393  1.00  0.00     0.163 HD
BRANCH   5   7
ATOM      7  C   UNL A   1      36.561  30.819  28.863  1.00  0.00     0.039 A 
ATOM      8  C   UNL A   1      36.648  29.436  28.703  1.00  0.00     0.014 A 
ATOM      9  C   UNL A   1      37.716  31.520  29.267  1.00  0.00     0.014 A 
ATOM     10  C   UNL A   1      37.828  28.763  29.032  1.00  0.00     0.010 A 
ATOM     11  C   UNL A   1      38.893  30.855  29.592  1.00  0.00     0.010 A 
ATOM     12  C   UNL A   1      38.937  29.467  29.515  1.00  0.00    -0.014 A 
BRANCH  12  13
ATOM     13  C   UNL A   1      40.196  28.748  29.742  1.00  0.00     0.031 A 
ATOM     14  C   UNL A   1      40.524  28.567  31.187  1.00  0.00     0.074 A 
ATOM     15  C   UNL A   1      40.918  28.144  28.772  1.00  0.00     0.049 A 
ATOM     16  N   UNL A   1      41.544  29.019  31.840  1.00  0.00    -0.248 NA
ATOM     17  C   UNL A   1      39.512  27.926  32.045  1.00  0.00     0.031 C 
ATOM     18  C   UNL A   1      40.575  28.006  27.356  1.00  0.00     0.029 A 
ATOM     19  N   UNL A   1      42.081  27.430  28.868  1.00  0.00    -0.354 N 
ATOM     20  C   UNL A   1      41.422  28.524  33.139  1.00  0.00     0.074 A 
ATOM     21  C   UNL A   1      40.078  28.032  33.247  1.00  0.00     0.031 C 
ATOM     22  C   UNL A   1      41.375  27.075  26.785  1.00  0.00     0.029 A 
ATOM     23  C   UNL A   1      42.370  26.639  27.753  1.00  0.00     0.049 A 
ATOM     24  H   UNL A   1      42.666  27.470  29.658  1.00  0.00     0.167 HD
ATOM     25  C   UNL A   1      42.515  28.349  33.935  1.00  0.00     0.034 A 
ATOM     26  C   UNL A   1      43.316  25.659  27.644  1.00  0.00     0.034 A 
ATOM     27  C   UNL A   1      43.628  29.143  33.462  1.00  0.00     0.049 A 
ATOM     28  C   UNL A   1      44.320  25.911  28.707  1.00  0.00     0.074 A 
ATOM     29  C   UNL A   1      43.830  30.494  33.244  1.00  0.00     0.029 A 
ATOM     30  N   UNL A   1      44.642  28.510  32.777  1.00  0.00    -0.354 N 
ATOM     31  N   UNL A   1      45.094  26.960  28.723  1.00  0.00    -0.248 NA
ATOM     32  C   UNL A   1      44.119  25.268  29.997  1.00  0.00     0.031 C 
ATOM     33  C   UNL A   1      44.596  30.558  32.043  1.00  0.00     0.029 A 
ATOM     34  C   UNL A   1      44.891  29.252  31.649  1.00  0.00     0.049 A 
ATOM     35  H   UNL A   1      45.102  27.683  33.046  1.00  0.00     0.167 HD
ATOM     36  C   UNL A   1      45.114  27.368  30.047  1.00  0.00     0.074 A 
ATOM     37  C   UNL A   1      44.568  26.238  30.799  1.00  0.00     0.031 C 
ATOM     38  C   UNL A   1      45.304  28.678  30.384  1.00  0.00     0.034 A 
BRANCH  25  39
ATOM     39  C   UNL A   1      42.711  27.169  34.875  1.00  0.00     0.023 A 
ATOM     40  C   UNL A   1      43.546  26.131  34.416  1.00  0.00     0.031 A 
ATOM     41  C   UNL A   1      41.911  26.852  35.996  1.00  0.00     0.131 A 
ATOM     42  C   UNL A   1      43.433  24.828  34.928  1.00  0.00     0.055 A 
ATOM     43  C   UNL A   1      41.854  25.568  36.549  1.00  0.00     0.041 A 
ATOM     44  F   UNL A   1      41.085  27.726  36.576  1.00  0.00    -0.206 F 
ATOM     45  C   UNL A   1      42.582  24.535  35.987  1.00  0.00     0.022 A 
BRANCH  42  46
ATOM     46  S   UNL A   1      44.257  23.489  34.030  1.00  0.00     0.124 S 
ATOM     47  O   UNL A   1      43.470  23.441  32.802  1.00  0.00    -0.237 OA
ATOM     48  O   UNL A   1      45.615  24.006  33.906  1.00  0.00    -0.237 OA
ATOM     49  O   UNL A   1      44.102  22.341  34.920  1.00  0.00    -0.744 OA
ENDBRANCH  42  46
ENDBRANCH  25  39
BRANCH  26  50
ATOM     50  C   UNL A   1      43.205  24.352  26.921  1.00  0.00     0.023 A 
ATOM     51  C   UNL A   1      44.152  23.883  25.979  1.00  0.00     0.031 A 
ATOM     52  C   UNL A   1      42.244  23.411  27.359  1.00  0.00     0.131 A 
ATOM     53  C   UNL A   1      44.104  22.540  25.517  1.00  0.00     0.055 A 
ATOM     54  C   UNL A   1      42.202  22.092  26.902  1.00  0.00     0.041 A 
ATOM     55  F   UNL A   1      41.359  23.720  28.319  1.00  0.00    -0.206 F 
ATOM     56  C   UNL A   1      43.137  21.647  25.985  1.00  0.00     0.022 A 
BRANCH  53  57
ATOM     57  S   UNL A   1      45.349  21.893  24.345  1.00  0.00     0.124 S 
ATOM     58  O   UNL A   1      45.784  23.100  23.651  1.00  0.00    -0.237 OA
ATOM     59  O   UNL A   1      46.322  21.265  25.230  1.00  0.00    -0.237 OA
ATOM     60  O   UNL A   1      44.587  20.955  23.517  1.00  0.00    -0.744 OA
ENDBRANCH  53  57
ENDBRANCH  26  50
BRANCH  38  61
ATOM     61  C   UNL A   1      45.781  29.643  29.318  1.00  0.00     0.023 A 
ATOM     62  C   UNL A   1      44.942  30.358  28.433  1.00  0.00     0.031 A 
ATOM     63  C   UNL A   1      47.156  29.935  29.293  1.00  0.00     0.131 A 
ATOM     64  C   UNL A   1      45.495  31.319  27.562  1.00  0.00     0.055 A 
ATOM     65  C   UNL A   1      47.697  30.899  28.445  1.00  0.00     0.041 A 
ATOM     66  F   UNL A   1      48.001  29.310  30.130  1.00  0.00    -0.206 F 
ATOM     67  C   UNL A   1      46.867  31.591  27.571  1.00  0.00     0.022 A 
BRANCH  64  68
ATOM     68  S   UNL A   1      44.442  32.235  26.388  1.00  0.00     0.124 S 
ATOM     69  O   UNL A   1      43.408  31.271  26.032  1.00  0.00    -0.237 OA
ATOM     70  O   UNL A   1      44.005  33.381  27.182  1.00  0.00    -0.237 OA
ATOM     71  O   UNL A   1      45.361  32.571  25.300  1.00  0.00    -0.744 OA
ENDBRANCH  64  68
ENDBRANCH  38  61
ENDBRANCH  12  13
ENDBRANCH   5   7
ENDBRANCH   2   3
ENDBRANCH   1   2
BRANCH   1  72
ATOM     72  C   UNL A   1      31.985  28.321  27.510  1.00  0.00     0.118 C 
BRANCH  72  73
ATOM     73  N   UNL A   1      32.949  27.419  26.893  1.00  0.00    -0.351 N 
ATOM     74  C   UNL A   1      32.881  26.752  25.688  1.00  0.00     0.272 C 
ATOM     75  H   UNL A   1      33.770  27.263  27.412  1.00  0.00     0.163 HD
ATOM     76  O   UNL A   1      33.783  25.977  25.377  1.00  0.00    -0.267 OA
BRANCH  74  77
ATOM     77  C   UNL A   1      31.692  26.917  24.848  1.00  0.00     0.153 A 
ATOM     78  N   UNL A   1      31.517  27.991  24.057  1.00  0.00    -0.162 NA
ATOM     79  C   UNL A   1      30.630  25.981  24.683  1.00  0.00     0.006 A 
ATOM     80  N   UNL A   1      30.243  27.891  23.628  1.00  0.00    -0.240 N 
ATOM     81  C   UNL A   1      29.681  26.684  23.967  1.00  0.00     0.119 A 
BRANCH  79  82
ATOM     82  C   UNL A   1      30.513  24.590  25.226  1.00  0.00     0.068 C 
BRANCH  82  83
ATOM     83  C   UNL A   1      31.148  23.527  24.319  1.00  0.00     0.161 C 
BRANCH  83  84
ATOM     84  O   UNL A   1      30.559  23.492  23.024  1.00  0.00    -0.396 OA
ATOM     85  H   UNL A   1      29.718  23.975  23.038  1.00  0.00     0.210 HD
ENDBRANCH  83  84
ENDBRANCH  82  83
ENDBRANCH  79  82
BRANCH  80  86
ATOM     86  C   UNL A   1      29.625  28.943  22.918  1.00  0.00     0.065 A 
ATOM     87  C   UNL A   1      28.267  29.213  23.131  1.00  0.00     0.035 A 
ATOM     88  C   UNL A   1      30.371  29.694  22.001  1.00  0.00     0.035 A 
ATOM     89  C   UNL A   1      27.665  30.285  22.466  1.00  0.00     0.088 A 
ATOM     90  C   UNL A   1      29.753  30.726  21.288  1.00  0.00     0.088 A 
ATOM     91  C   UNL A   1      28.410  31.036  21.544  1.00  0.00     0.269 A 
BRANCH  91  92
ATOM     92  N   UNL A   1      27.791  32.191  20.879  1.00  0.00     0.062 N 
ATOM     93  O   UNL A   1      27.323  32.017  19.742  1.00  0.00    -0.258 OA
ATOM     94  O   UNL A   1      27.709  33.248  21.517  1.00  0.00    -0.258 OA
ENDBRANCH  91  92
ENDBRANCH  80  86
ENDBRANCH  74  77
ENDBRANCH  72  73
ENDBRANCH   1  72
TORSDOF 18
ENDMDL
MODEL 2
REMARK VINA RESULT:     -12.2      3.822      9.117
REMARK SMILES O=C(NCCCNC(=O)c1nn(-c2ccc([N+](=O)[O-])cc2)cc1CCO)c1ccc(-c2c3nc(c(-c4cc(S(=O)(=O)[O-])ccc4F)c4ccc([nH]4)c(-c4cc(S(=O)(=O)[O-])ccc4F)c4nc(c(-c5cc(S(=O)(=O)[O-])ccc5F)c5ccc2[nH]5)C=C4)C=C3)cc1
REMARK SMILES IDX 5 1 4 2 3 3 1 4 2 5 27 7 28 8 89 9 29 10 88 11 30 12 31 13
REMARK SMILES IDX 32 14 82 15 33 16 87 17 81 18 83 19 34 20 86 21 80 22 79 23
REMARK SMILES IDX 35 25 67 26 47 27 66 28 48 29 51 30 65 31 84 32 49 33 50 34
REMARK SMILES IDX 64 36 85 37 52 38 36 39 37 40 45 41 38 42 44 43 46 44 43 45
REMARK SMILES IDX 39 46 40 47 41 48 42 49 68 50 69 51 77 52 70 53 76 54 78 55
REMARK SMILES IDX 75 56 71 57 72 58 73 59 74 60 53 61 54 62 62 63 55 64 61 65
REMARK SMILES IDX 63 66 60 67 56 68 57 69 58 70 59 71 6 72 7 73 8 74 9 76
REMARK SMILES IDX 10 77 11 78 23 79 12 80 22 81 24 82 25 83 26 84 13 86 14 87
REMARK SMILES IDX 21 88 15 89 20 90 16 91 17 92 18 93 19 94
REMARK H PARENT 3 6 83 24 51 35 7 75 26 85
REMARK Flexibility Score: inf
ROOT
ATOM      1  C   UNL A   1      37.288  22.590  24.684  1.00  0.00     0.042 C 
ENDROOT
BRANCH   1   2
ATOM      2  C   UNL A   1      37.924  23.278  25.891  1.00  0.00     0.118 C 
BRANCH   2   3
ATOM      3  N   UNL A   1      39.138  22.665  26.393  1.00  0.00    -0.352 N 
ATOM      4  O   UNL A   1      40.844  22.113  27.665  1.00  0.00    -0.269 OA
ATOM      5  C   UNL A   1      40.108  23.030  27.285  1.00  0.00     0.251 C 
ATOM      6  H   UNL A   1      39.303  21.780  25.997  1.00  0.00     0.163 HD
BRANCH   5   7
ATOM      7  C   UNL A   1      40.384  24.416  27.755  1.00  0.00     0.039 A 
ATOM      8  C   UNL A   1      41.574  24.875  28.320  1.00  0.00     0.014 A 
ATOM      9  C   UNL A   1      39.297  25.311  27.664  1.00  0.00     0.014 A 
ATOM     10  C   UNL A   1      41.643  26.159  28.867  1.00  0.00     0.010 A 
ATOM     11  C   UNL A   1      39.363  26.590  28.203  1.00  0.00     0.010 A 
ATOM     12  C   UNL A   1      40.526  27.003  28.844  1.00  0.00    -0.014 A 
BRANCH  12  13
ATOM     13  C   UNL A   1      40.663  28.383  29.321  1.00  0.00     0.031 A 
ATOM     14  C   UNL A   1      41.753  29.142  28.639  1.00  0.00     0.074 A 
ATOM     15  C   UNL A   1      39.797  28.992  30.161  1.00  0.00     0.049 A 
ATOM     16  N   UNL A   1      42.817  29.659  29.161  1.00  0.00    -0.248 NA
ATOM     17  C   UNL A   1      41.727  29.205  27.168  1.00  0.00     0.031 C 
ATOM     18  C   UNL A   1      38.539  28.460  30.689  1.00  0.00     0.029 A 
ATOM     19  N   UNL A   1      39.807  30.271  30.648  1.00  0.00    -0.354 N 
ATOM     20  C   UNL A   1      43.479  30.313  28.121  1.00  0.00     0.074 A 
ATOM     21  C   UNL A   1      42.870  29.840  26.909  1.00  0.00     0.031 C 
ATOM     22  C   UNL A   1      37.810  29.469  31.223  1.00  0.00     0.029 A 
ATOM     23  C   UNL A   1      38.592  30.695  31.192  1.00  0.00     0.049 A 
ATOM     24  H   UNL A   1      40.606  30.844  30.618  1.00  0.00     0.167 HD
ATOM     25  C   UNL A   1      44.311  31.365  28.362  1.00  0.00     0.034 A 
ATOM     26  C   UNL A   1      38.229  31.965  31.540  1.00  0.00     0.034 A 
ATOM     27  C   UNL A   1      44.747  31.369  29.742  1.00  0.00     0.049 A 
ATOM     28  C   UNL A   1      39.483  32.733  31.732  1.00  0.00     0.074 A 
ATOM     29  C   UNL A   1      45.424  30.470  30.546  1.00  0.00     0.029 A 
ATOM     30  N   UNL A   1      44.169  32.267  30.612  1.00  0.00    -0.354 N 
ATOM     31  N   UNL A   1      40.335  32.482  32.686  1.00  0.00    -0.248 NA
ATOM     32  C   UNL A   1      40.029  33.441  30.583  1.00  0.00     0.031 C 
ATOM     33  C   UNL A   1      44.782  30.561  31.815  1.00  0.00     0.029 A 
ATOM     34  C   UNL A   1      43.817  31.568  31.739  1.00  0.00     0.049 A 
ATOM     35  H   UNL A   1      44.033  33.229  30.454  1.00  0.00     0.167 HD
ATOM     36  C   UNL A   1      41.581  32.589  32.089  1.00  0.00     0.074 A 
ATOM     37  C   UNL A   1      41.333  33.267  30.816  1.00  0.00     0.031 C 
ATOM     38  C   UNL A   1      42.651  31.872  32.544  1.00  0.00     0.034 A 
BRANCH  25  39
ATOM     39  C   UNL A   1      44.401  32.606  27.487  1.00  0.00     0.023 A 
ATOM     40  C   UNL A   1      43.785  33.772  27.984  1.00  0.00     0.031 A 
ATOM     41  C   UNL A   1      44.743  32.640  26.117  1.00  0.00     0.131 A 
ATOM     42  C   UNL A   1      43.376  34.802  27.120  1.00  0.00     0.055 A 
ATOM     43  C   UNL A   1      44.396  33.700  25.273  1.00  0.00     0.041 A 
ATOM     44  F   UNL A   1      45.358  31.632  25.492  1.00  0.00    -0.206 F 
ATOM     45  C   UNL A   1      43.667  34.768  25.762  1.00  0.00     0.022 A 
BRANCH  42  46
ATOM     46  S   UNL A   1      42.263  36.069  27.778  1.00  0.00     0.124 S 
ATOM     47  O   UNL A   1      42.429  37.135  26.795  1.00  0.00    -0.237 OA
ATOM     48  O   UNL A   1      40.981  35.374  27.766  1.00  0.00    -0.237 OA
ATOM     49  O   UNL A   1      42.813  36.345  29.103  1.00  0.00    -0.744 OA
ENDBRANCH  42  46
ENDBRANCH  25  39
BRANCH  26  50
ATOM     50  C   UNL A   1      36.892  32.618  31.367  1.00  0.00     0.023 A 
ATOM     51  C   UNL A   1      36.279  32.850  30.111  1.00  0.00     0.031 A 
ATOM     52  C   UNL A   1      36.071  32.803  32.504  1.00  0.00     0.131 A 
ATOM     53  C   UNL A   1      34.918  33.253  30.038  1.00  0.00     0.055 A 
ATOM     54  C   UNL A   1      34.733  33.197  32.426  1.00  0.00     0.041 A 
ATOM     55  F   UNL A   1      36.520  32.519  33.736  1.00  0.00    -0.206 F 
ATOM     56  C   UNL A   1      34.148  33.416  31.191  1.00  0.00     0.022 A 
BRANCH  53  57
ATOM     57  S   UNL A   1      34.087  33.504  28.429  1.00  0.00     0.124 S 
ATOM     58  O   UNL A   1      32.993  34.403  28.777  1.00  0.00    -0.237 OA
ATOM     59  O   UNL A   1      35.152  34.063  27.605  1.00  0.00    -0.237 OA
ATOM     60  O   UNL A   1      33.668  32.153  28.045  1.00  0.00    -0.744 OA
ENDBRANCH  53  57
ENDBRANCH  26  50
BRANCH  38  61
ATOM     61  C   UNL A   1      42.545  31.177  33.885  1.00  0.00     0.023 A 
ATOM     62  C   UNL A   1      42.199  29.818  34.073  1.00  0.00     0.031 A 
ATOM     63  C   UNL A   1      42.938  31.912  35.017  1.00  0.00     0.131 A 
ATOM     64  C   UNL A   1      42.250  29.252  35.363  1.00  0.00     0.055 A 
ATOM     65  C   UNL A   1      43.005  31.344  36.288  1.00  0.00     0.041 A 
ATOM     66  F   UNL A   1      43.306  33.199  34.899  1.00  0.00    -0.206 F 
ATOM     67  C   UNL A   1      42.655  30.011  36.466  1.00  0.00     0.022 A 
BRANCH  64  68
ATOM     68  S   UNL A   1      41.780  27.512  35.640  1.00  0.00     0.124 S 
ATOM     69  O   UNL A   1      43.061  26.820  35.721  1.00  0.00    -0.237 OA
ATOM     70  O   UNL A   1      41.011  27.585  36.880  1.00  0.00    -0.237 OA
ATOM     71  O   UNL A   1      40.984  27.183  34.457  1.00  0.00    -0.744 OA
ENDBRANCH  64  68
ENDBRANCH  38  61
ENDBRANCH  12  13
ENDBRANCH   5   7
ENDBRANCH   2   3
ENDBRANCH   1   2
BRANCH   1  72
ATOM     72  C   UNL A   1      36.599  21.252  24.969  1.00  0.00     0.118 C 
BRANCH  72  73
ATOM     73  N   UNL A   1      35.891  21.224  26.243  1.00  0.00    -0.351 N 
ATOM     74  C   UNL A   1      34.577  21.532  26.524  1.00  0.00     0.272 C 
ATOM     75  H   UNL A   1      36.431  20.945  27.017  1.00  0.00     0.163 HD
ATOM     76  O   UNL A   1      34.189  21.507  27.690  1.00  0.00    -0.267 OA
BRANCH  74  77
ATOM     77  C   UNL A   1      33.697  21.966  25.436  1.00  0.00     0.153 A 
ATOM     78  N   UNL A   1      33.441  23.265  25.196  1.00  0.00    -0.162 NA
ATOM     79  C   UNL A   1      33.070  21.132  24.464  1.00  0.00     0.006 A 
ATOM     80  N   UNL A   1      32.445  23.251  24.288  1.00  0.00    -0.240 N 
ATOM     81  C   UNL A   1      32.206  21.987  23.807  1.00  0.00     0.119 A 
BRANCH  79  82
ATOM     82  C   UNL A   1      33.232  19.659  24.249  1.00  0.00     0.068 C 
BRANCH  82  83
ATOM     83  C   UNL A   1      32.383  18.808  25.202  1.00  0.00     0.161 C 
BRANCH  83  84
ATOM     84  O   UNL A   1      32.947  18.719  26.506  1.00  0.00    -0.396 OA
ATOM     85  H   UNL A   1      32.235  18.639  27.161  1.00  0.00     0.210 HD
ENDBRANCH  83  84
ENDBRANCH  82  83
ENDBRANCH  79  82
BRANCH  80  86
ATOM     86  C   UNL A   1      31.771  24.437  23.923  1.00  0.00     0.065 A 
ATOM     87  C   UNL A   1      31.981  24.984  22.650  1.00  0.00     0.035 A 
ATOM     88  C   UNL A   1      30.914  25.059  24.838  1.00  0.00     0.035 A 
ATOM     89  C   UNL A   1      31.279  26.131  22.268  1.00  0.00     0.088 A 
ATOM     90  C   UNL A   1      30.260  26.242  24.480  1.00  0.00     0.088 A 
ATOM     91  C   UNL A   1      30.422  26.758  23.187  1.00  0.00     0.269 A 
BRANCH  91  92
ATOM     92  N   UNL A   1      29.650  27.936  22.771  1.00  0.00     0.062 N 
ATOM     93  O   UNL A   1      30.193  28.733  21.990  1.00  0.00    -0.258 OA
ATOM     94  O   UNL A   1      28.480  28.028  23.166  1.00  0.00    -0.258 OA
ENDBRANCH  91  92
ENDBRANCH  80  86
ENDBRANCH  74  77
ENDBRANCH  72  73
ENDBRANCH   1  72
TORSDOF 18
ENDMDL
MODEL 3
REMARK VINA RESULT:     -12.1      4.477     10.386
REMARK SMILES O=C(NCCCNC(=O)c1nn(-c2ccc([N+](=O)[O-])cc2)cc1CCO)c1ccc(-c2c3nc(c(-c4cc(S(=O)(=O)[O-])ccc4F)c4ccc([nH]4)c(-c4cc(S(=O)(=O)[O-])ccc4F)c4nc(c(-c5cc(S(=O)(=O)[O-])ccc5F)c5ccc2[nH]5)C=C4)C=C3)cc1
REMARK SMILES IDX 5 1 4 2 3 3 1 4 2 5 27 7 28 8 89 9 29 10 88 11 30 12 31 13
REMARK SMILES IDX 32 14 82 15 33 16 87 17 81 18 83 19 34 20 86 21 80 22 79 23
REMARK SMILES IDX 35 25 67 26 47 27 66 28 48 29 51 30 65 31 84 32 49 33 50 34
REMARK SMILES IDX 64 36 85 37 52 38 36 39 37 40 45 41 38 42 44 43 46 44 43 45
REMARK SMILES IDX 39 46 40 47 41 48 42 49 68 50 69 51 77 52 70 53 76 54 78 55
REMARK SMILES IDX 75 56 71 57 72 58 73 59 74 60 53 61 54 62 62 63 55 64 61 65
REMARK SMILES IDX 63 66 60 67 56 68 57 69 58 70 59 71 6 72 7 73 8 74 9 76
REMARK SMILES IDX 10 77 11 78 23 79 12 80 22 81 24 82 25 83 26 84 13 86 14 87
REMARK SMILES IDX 21 88 15 89 20 90 16 91 17 92 18 93 19 94
REMARK H PARENT 3 6 83 24 51 35 7 75 26 85
REMARK Flexibility Score: inf
ROOT
ATOM      1  C   UNL A   1      36.820  23.629  25.130  1.00  0.00     0.042 C 
ENDROOT
BRANCH   1   2
ATOM      2  C   UNL A   1      37.371  23.151  26.472  1.00  0.00     0.118 C 
BRANCH   2   3
ATOM      3  N   UNL A   1      38.733  22.656  26.448  1.00  0.00    -0.352 N 
ATOM      4  O   UNL A   1      40.822  22.220  26.981  1.00  0.00    -0.269 OA
ATOM      5  C   UNL A   1      39.920  23.065  26.991  1.00  0.00     0.251 C 
ATOM      6  H   UNL A   1      38.825  21.834  25.916  1.00  0.00     0.163 HD
BRANCH   5   7
ATOM      7  C   UNL A   1      40.221  24.431  27.502  1.00  0.00     0.039 A 
ATOM      8  C   UNL A   1      41.348  24.811  28.232  1.00  0.00     0.014 A 
ATOM      9  C   UNL A   1      39.222  25.398  27.263  1.00  0.00     0.014 A 
ATOM     10  C   UNL A   1      41.427  26.090  28.789  1.00  0.00     0.010 A 
ATOM     11  C   UNL A   1      39.298  26.673  27.813  1.00  0.00     0.010 A 
ATOM     12  C   UNL A   1      40.384  27.008  28.613  1.00  0.00    -0.014 A 
BRANCH  12  13
ATOM     13  C   UNL A   1      40.547  28.378  29.112  1.00  0.00     0.031 A 
ATOM     14  C   UNL A   1      41.687  29.108  28.483  1.00  0.00     0.074 A 
ATOM     15  C   UNL A   1      39.667  29.006  29.923  1.00  0.00     0.049 A 
ATOM     16  N   UNL A   1      42.745  29.584  29.052  1.00  0.00    -0.248 NA
ATOM     17  C   UNL A   1      41.723  29.187  27.012  1.00  0.00     0.031 C 
ATOM     18  C   UNL A   1      38.373  28.510  30.395  1.00  0.00     0.029 A 
ATOM     19  N   UNL A   1      39.699  30.278  30.426  1.00  0.00    -0.354 N 
ATOM     20  C   UNL A   1      43.469  30.226  28.048  1.00  0.00     0.074 A 
ATOM     21  C   UNL A   1      42.895  29.786  26.808  1.00  0.00     0.031 C 
ATOM     22  C   UNL A   1      37.655  29.536  30.911  1.00  0.00     0.029 A 
ATOM     23  C   UNL A   1      38.478  30.737  30.926  1.00  0.00     0.049 A 
ATOM     24  H   UNL A   1      40.517  30.825  30.434  1.00  0.00     0.167 HD
ATOM     25  C   UNL A   1      44.325  31.248  28.335  1.00  0.00     0.034 A 
ATOM     26  C   UNL A   1      38.142  32.014  31.274  1.00  0.00     0.034 A 
ATOM     27  C   UNL A   1      44.705  31.223  29.730  1.00  0.00     0.049 A 
ATOM     28  C   UNL A   1      39.412  32.738  31.525  1.00  0.00     0.074 A 
ATOM     29  C   UNL A   1      45.320  30.294  30.550  1.00  0.00     0.029 A 
ATOM     30  N   UNL A   1      44.121  32.130  30.587  1.00  0.00    -0.354 N 
ATOM     31  N   UNL A   1      40.216  32.449  32.509  1.00  0.00    -0.248 NA
ATOM     32  C   UNL A   1      40.026  33.439  30.407  1.00  0.00     0.031 C 
ATOM     33  C   UNL A   1      44.630  30.393  31.794  1.00  0.00     0.029 A 
ATOM     34  C   UNL A   1      43.702  31.431  31.692  1.00  0.00     0.049 A 
ATOM     35  H   UNL A   1      44.023  33.098  30.436  1.00  0.00     0.167 HD
ATOM     36  C   UNL A   1      41.488  32.521  31.963  1.00  0.00     0.074 A 
ATOM     37  C   UNL A   1      41.313  33.221  30.690  1.00  0.00     0.031 C 
ATOM     38  C   UNL A   1      42.515  31.765  32.452  1.00  0.00     0.034 A 
BRANCH  25  39
ATOM     39  C   UNL A   1      44.490  32.495  27.479  1.00  0.00     0.023 A 
ATOM     40  C   UNL A   1      43.878  33.671  27.956  1.00  0.00     0.031 A 
ATOM     41  C   UNL A   1      44.903  32.533  26.128  1.00  0.00     0.131 A 
ATOM     42  C   UNL A   1      43.539  34.719  27.083  1.00  0.00     0.055 A 
ATOM     43  C   UNL A   1      44.626  33.609  25.279  1.00  0.00     0.041 A 
ATOM     44  F   UNL A   1      45.524  31.516  25.525  1.00  0.00    -0.206 F 
ATOM     45  C   UNL A   1      43.899  34.691  25.742  1.00  0.00     0.022 A 
BRANCH  42  46
ATOM     46  S   UNL A   1      42.426  36.007  27.697  1.00  0.00     0.124 S 
ATOM     47  O   UNL A   1      42.767  37.123  26.821  1.00  0.00    -0.237 OA
ATOM     48  O   UNL A   1      41.118  35.396  27.485  1.00  0.00    -0.237 OA
ATOM     49  O   UNL A   1      42.826  36.161  29.094  1.00  0.00    -0.744 OA
ENDBRANCH  42  46
ENDBRANCH  25  39
BRANCH  26  50
ATOM     50  C   UNL A   1      36.835  32.712  31.055  1.00  0.00     0.023 A 
ATOM     51  C   UNL A   1      36.146  33.440  32.056  1.00  0.00     0.031 A 
ATOM     52  C   UNL A   1      36.360  32.870  29.733  1.00  0.00     0.131 A 
ATOM     53  C   UNL A   1      35.042  34.267  31.714  1.00  0.00     0.055 A 
ATOM     54  C   UNL A   1      35.275  33.686  29.402  1.00  0.00     0.041 A 
ATOM     55  F   UNL A   1      36.995  32.303  28.696  1.00  0.00    -0.206 F 
ATOM     56  C   UNL A   1      34.616  34.395  30.391  1.00  0.00     0.022 A 
BRANCH  53  57
ATOM     57  S   UNL A   1      34.173  35.263  32.978  1.00  0.00     0.124 S 
ATOM     58  O   UNL A   1      34.680  36.606  32.722  1.00  0.00    -0.237 OA
ATOM     59  O   UNL A   1      32.771  35.025  32.660  1.00  0.00    -0.237 OA
ATOM     60  O   UNL A   1      34.618  34.673  34.244  1.00  0.00    -0.744 OA
ENDBRANCH  53  57
ENDBRANCH  26  50
BRANCH  38  61
ATOM     61  C   UNL A   1      42.332  31.060  33.780  1.00  0.00     0.023 A 
ATOM     62  C   UNL A   1      42.085  29.676  33.940  1.00  0.00     0.031 A 
ATOM     63  C   UNL A   1      42.545  31.822  34.942  1.00  0.00     0.131 A 
ATOM     64  C   UNL A   1      42.052  29.113  35.232  1.00  0.00     0.055 A 
ATOM     65  C   UNL A   1      42.531  31.258  36.216  1.00  0.00     0.041 A 
ATOM     66  F   UNL A   1      42.814  33.136  34.854  1.00  0.00    -0.206 F 
ATOM     67  C   UNL A   1      42.278  29.900  36.365  1.00  0.00     0.022 A 
BRANCH  64  68
ATOM     68  S   UNL A   1      41.705  27.338  35.470  1.00  0.00     0.124 S 
ATOM     69  O   UNL A   1      41.234  27.263  36.848  1.00  0.00    -0.237 OA
ATOM     70  O   UNL A   1      40.709  27.069  34.436  1.00  0.00    -0.237 OA
ATOM     71  O   UNL A   1      43.003  26.705  35.235  1.00  0.00    -0.744 OA
ENDBRANCH  64  68
ENDBRANCH  38  61
ENDBRANCH  12  13
ENDBRANCH   5   7
ENDBRANCH   2   3
ENDBRANCH   1   2
BRANCH   1  72
ATOM     72  C   UNL A   1      35.510  24.422  25.195  1.00  0.00     0.118 C 
BRANCH  72  73
ATOM     73  N   UNL A   1      34.897  24.637  23.890  1.00  0.00    -0.351 N 
ATOM     74  C   UNL A   1      33.886  23.936  23.270  1.00  0.00     0.272 C 
ATOM     75  H   UNL A   1      35.258  25.394  23.377  1.00  0.00     0.163 HD
ATOM     76  O   UNL A   1      33.554  24.243  22.127  1.00  0.00    -0.267 OA
BRANCH  74  77
ATOM     77  C   UNL A   1      33.290  22.785  23.954  1.00  0.00     0.153 A 
ATOM     78  N   UNL A   1      33.967  21.638  24.150  1.00  0.00    -0.162 NA
ATOM     79  C   UNL A   1      32.000  22.728  24.557  1.00  0.00     0.006 A 
ATOM     80  N   UNL A   1      33.038  20.770  24.598  1.00  0.00    -0.240 N 
ATOM     81  C   UNL A   1      31.845  21.393  24.875  1.00  0.00     0.119 A 
BRANCH  79  82
ATOM     82  C   UNL A   1      30.998  23.827  24.734  1.00  0.00     0.068 C 
BRANCH  82  83
ATOM     83  C   UNL A   1      30.974  24.406  26.154  1.00  0.00     0.161 C 
BRANCH  83  84
ATOM     84  O   UNL A   1      29.659  24.738  26.587  1.00  0.00    -0.396 OA
ATOM     85  H   UNL A   1      29.303  25.445  26.026  1.00  0.00     0.210 HD
ENDBRANCH  83  84
ENDBRANCH  82  83
ENDBRANCH  79  82
BRANCH  80  86
ATOM     86  C   UNL A   1      33.329  19.396  24.740  1.00  0.00     0.065 A 
ATOM     87  C   UNL A   1      34.610  18.928  24.421  1.00  0.00     0.035 A 
ATOM     88  C   UNL A   1      32.334  18.517  25.185  1.00  0.00     0.035 A 
ATOM     89  C   UNL A   1      34.916  17.576  24.608  1.00  0.00     0.088 A 
ATOM     90  C   UNL A   1      32.620  17.155  25.310  1.00  0.00     0.088 A 
ATOM     91  C   UNL A   1      33.918  16.693  25.049  1.00  0.00     0.269 A 
BRANCH  91  92
ATOM     92  N   UNL A   1      34.252  15.283  25.289  1.00  0.00     0.062 N 
ATOM     93  O   UNL A   1      33.311  14.492  25.462  1.00  0.00    -0.258 OA
ATOM     94  O   UNL A   1      35.444  14.954  25.234  1.00  0.00    -0.258 OA
ENDBRANCH  91  92
ENDBRANCH  80  86
ENDBRANCH  74  77
ENDBRANCH  72  73
ENDBRANCH   1  72
TORSDOF 18
ENDMDL
