MODEL 1
REMARK VINA RESULT:     -14.4      0.000      0.000
REMARK SMILES Cc1ccc(C)c(-c2cc(C(=O)NCCCNC(=O)c3ccc(-c4c5nc(c(-c6cc(S(=O)(=O)[O-])ccc6F)c6ccc([nH]6)c(-c6cc(S(=O)(=O)[O-])ccc6F)c6nc(c(-c7cc(S(=O)(=O)[O-])ccc7F)c7ccc4[nH]7)C=C6)C=C5)cc3)c3cc(C)ccc3n2)c1
REMARK SMILES IDX 16 1 15 2 14 3 13 4 11 5 12 6 10 8 8 9 9 10 90 11 89 12
REMARK SMILES IDX 83 13 88 14 84 15 87 16 85 17 86 18 7 19 1 20 2 21 3 22
REMARK SMILES IDX 91 23 4 24 5 25 6 26 17 27 18 28 19 30 20 31 21 32 82 33
REMARK SMILES IDX 22 34 81 35 23 36 24 37 25 38 75 39 26 40 80 41 74 42 76 43
REMARK SMILES IDX 27 44 79 45 73 46 72 47 28 49 60 50 40 51 59 52 41 53 44 54
REMARK SMILES IDX 58 55 77 56 42 57 43 58 57 60 78 61 45 62 29 63 30 64 38 65
REMARK SMILES IDX 31 66 37 67 39 68 36 69 32 70 33 71 34 72 35 73 61 74 62 75
REMARK SMILES IDX 70 76 63 77 69 78 71 79 68 80 64 81 65 82 66 83 67 84 46 85
REMARK SMILES IDX 47 86 55 87 48 88 54 89 56 90 53 91 49 92 50 93 51 94 52 95
REMARK H PARENT 13 7 17 29 76 48 44 59
REMARK Flexibility Score: inf
ROOT
ATOM      1  C   UNL A   1      39.532  24.048  27.084  1.00  0.00     0.118 C 
ENDROOT
BRANCH   1   2
ATOM      2  C   UNL A   1      38.165  24.147  26.465  1.00  0.00     0.042 C 
BRANCH   2   3
ATOM      3  C   UNL A   1      37.715  22.842  25.847  1.00  0.00     0.118 C 
BRANCH   3   4
ATOM      4  N   UNL A   1      37.610  22.655  24.408  1.00  0.00    -0.352 N 
ATOM      5  C   UNL A   1      36.507  22.930  23.603  1.00  0.00     0.252 C 
ATOM      6  O   UNL A   1      36.627  22.939  22.382  1.00  0.00    -0.269 OA
ATOM      7  H   UNL A   1      38.406  22.295  23.954  1.00  0.00     0.163 HD
BRANCH   5   8
ATOM      8  C   UNL A   1      35.140  23.079  24.189  1.00  0.00     0.051 A 
ATOM      9  C   UNL A   1      33.250  24.508  24.369  1.00  0.00     0.072 A 
ATOM     10  C   UNL A   1      34.610  24.369  24.165  1.00  0.00     0.043 A 
ATOM     11  N   UNL A   1      32.416  23.437  24.420  1.00  0.00    -0.248 NA
ATOM     12  C   UNL A   1      32.946  22.206  24.476  1.00  0.00     0.072 A 
ATOM     13  C   UNL A   1      34.323  21.990  24.557  1.00  0.00     0.013 A 
ATOM     14  C   UNL A   1      32.120  21.092  24.383  1.00  0.00     0.029 A 
ATOM     15  C   UNL A   1      34.799  20.694  24.862  1.00  0.00     0.014 A 
ATOM     16  C   UNL A   1      32.631  19.789  24.403  1.00  0.00     0.005 A 
ATOM     17  C   UNL A   1      33.980  19.578  24.672  1.00  0.00    -0.050 A 
ATOM     18  C   UNL A   1      34.598  18.217  24.515  1.00  0.00     0.044 C 
BRANCH   9  19
ATOM     19  C   UNL A   1      32.621  25.808  24.635  1.00  0.00     0.003 A 
ATOM     20  C   UNL A   1      31.779  28.049  27.626  1.00  0.00     0.044 C 
ATOM     21  C   UNL A   1      31.908  27.535  26.222  1.00  0.00    -0.050 A 
ATOM     22  C   UNL A   1      31.419  28.300  25.161  1.00  0.00     0.004 A 
ATOM     23  C   UNL A   1      32.511  26.297  25.951  1.00  0.00     0.014 A 
ATOM     24  C   UNL A   1      31.512  27.832  23.853  1.00  0.00     0.004 A 
ATOM     25  C   UNL A   1      32.092  26.584  23.576  1.00  0.00    -0.042 A 
ATOM     26  C   UNL A   1      32.139  26.139  22.137  1.00  0.00     0.045 C 
ENDBRANCH   9  19
ENDBRANCH   5   8
ENDBRANCH   3   4
ENDBRANCH   2   3
ENDBRANCH   1   2
BRANCH   1  27
ATOM     27  N   UNL A   1      40.711  24.329  26.263  1.00  0.00    -0.352 N 
ATOM     28  C   UNL A   1      41.269  25.572  25.928  1.00  0.00     0.251 C 
ATOM     29  H   UNL A   1      41.174  23.542  25.898  1.00  0.00     0.163 HD
ATOM     30  O   UNL A   1      42.214  25.622  25.165  1.00  0.00    -0.269 OA
BRANCH  28  31
ATOM     31  C   UNL A   1      40.697  26.831  26.498  1.00  0.00     0.039 A 
ATOM     32  C   UNL A   1      40.881  28.106  25.941  1.00  0.00     0.014 A 
ATOM     33  C   UNL A   1      40.264  26.814  27.809  1.00  0.00     0.014 A 
ATOM     34  C   UNL A   1      40.755  29.218  26.808  1.00  0.00     0.010 A 
ATOM     35  C   UNL A   1      39.493  27.841  28.220  1.00  0.00     0.010 A 
ATOM     36  C   UNL A   1      40.210  28.998  28.071  1.00  0.00    -0.014 A 
BRANCH  36  37
ATOM     37  C   UNL A   1      40.393  29.732  29.319  1.00  0.00     0.031 A 
ATOM     38  C   UNL A   1      39.152  30.412  29.766  1.00  0.00     0.074 A 
ATOM     39  C   UNL A   1      41.257  29.457  30.322  1.00  0.00     0.049 A 
ATOM     40  N   UNL A   1      38.773  31.597  29.437  1.00  0.00    -0.248 NA
ATOM     41  C   UNL A   1      38.102  29.604  30.418  1.00  0.00     0.031 C 
ATOM     42  C   UNL A   1      42.217  28.366  30.495  1.00  0.00     0.029 A 
ATOM     43  N   UNL A   1      41.338  30.121  31.513  1.00  0.00    -0.354 N 
ATOM     44  C   UNL A   1      37.542  31.764  30.049  1.00  0.00     0.074 A 
ATOM     45  C   UNL A   1      37.066  30.436  30.313  1.00  0.00     0.031 C 
ATOM     46  C   UNL A   1      42.668  28.362  31.777  1.00  0.00     0.029 A 
ATOM     47  C   UNL A   1      42.147  29.531  32.473  1.00  0.00     0.049 A 
ATOM     48  H   UNL A   1      40.856  30.962  31.679  1.00  0.00     0.167 HD
ATOM     49  C   UNL A   1      37.140  32.972  30.534  1.00  0.00     0.034 A 
ATOM     50  C   UNL A   1      42.333  29.982  33.744  1.00  0.00     0.034 A 
ATOM     51  C   UNL A   1      38.139  33.987  30.240  1.00  0.00     0.049 A 
ATOM     52  C   UNL A   1      41.890  31.405  33.778  1.00  0.00     0.074 A 
ATOM     53  C   UNL A   1      38.731  34.467  29.086  1.00  0.00     0.029 A 
ATOM     54  N   UNL A   1      39.001  34.335  31.263  1.00  0.00    -0.354 N 
ATOM     55  N   UNL A   1      42.447  32.359  33.083  1.00  0.00    -0.248 NA
ATOM     56  C   UNL A   1      40.553  31.712  34.268  1.00  0.00     0.031 C 
ATOM     57  C   UNL A   1      40.114  34.624  29.413  1.00  0.00     0.029 A 
ATOM     58  C   UNL A   1      40.283  34.302  30.763  1.00  0.00     0.049 A 
ATOM     59  H   UNL A   1      38.743  34.566  32.184  1.00  0.00     0.167 HD
ATOM     60  C   UNL A   1      41.405  33.187  32.692  1.00  0.00     0.074 A 
ATOM     61  C   UNL A   1      40.291  32.814  33.558  1.00  0.00     0.031 C 
ATOM     62  C   UNL A   1      41.458  33.885  31.517  1.00  0.00     0.034 A 
BRANCH  49  63
ATOM     63  C   UNL A   1      36.034  33.208  31.537  1.00  0.00     0.023 A 
ATOM     64  C   UNL A   1      34.952  34.001  31.110  1.00  0.00     0.031 A 
ATOM     65  C   UNL A   1      36.026  32.866  32.908  1.00  0.00     0.131 A 
ATOM     66  C   UNL A   1      33.980  34.459  32.014  1.00  0.00     0.055 A 
ATOM     67  C   UNL A   1      35.018  33.263  33.792  1.00  0.00     0.041 A 
ATOM     68  F   UNL A   1      37.022  32.206  33.505  1.00  0.00    -0.206 F 
ATOM     69  C   UNL A   1      33.999  34.087  33.353  1.00  0.00     0.022 A 
BRANCH  66  70
ATOM     70  S   UNL A   1      32.780  35.682  31.435  1.00  0.00     0.124 S 
ATOM     71  O   UNL A   1      32.542  35.243  30.065  1.00  0.00    -0.237 OA
ATOM     72  O   UNL A   1      31.681  35.488  32.375  1.00  0.00    -0.237 OA
ATOM     73  O   UNL A   1      33.499  36.946  31.567  1.00  0.00    -0.744 OA
ENDBRANCH  66  70
ENDBRANCH  49  63
BRANCH  50  74
ATOM     74  C   UNL A   1      42.629  29.208  34.979  1.00  0.00     0.023 A 
ATOM     75  C   UNL A   1      41.894  28.063  35.356  1.00  0.00     0.031 A 
ATOM     76  C   UNL A   1      43.826  29.457  35.684  1.00  0.00     0.131 A 
ATOM     77  C   UNL A   1      42.362  27.226  36.396  1.00  0.00     0.055 A 
ATOM     78  C   UNL A   1      44.280  28.630  36.715  1.00  0.00     0.041 A 
ATOM     79  F   UNL A   1      44.640  30.463  35.326  1.00  0.00    -0.206 F 
ATOM     80  C   UNL A   1      43.552  27.506  37.072  1.00  0.00     0.022 A 
BRANCH  77  81
ATOM     81  S   UNL A   1      41.472  25.690  36.812  1.00  0.00     0.124 S 
ATOM     82  O   UNL A   1      42.541  24.832  37.307  1.00  0.00    -0.237 OA
ATOM     83  O   UNL A   1      40.499  26.150  37.798  1.00  0.00    -0.237 OA
ATOM     84  O   UNL A   1      40.892  25.275  35.534  1.00  0.00    -0.744 OA
ENDBRANCH  77  81
ENDBRANCH  50  74
BRANCH  62  85
ATOM     85  C   UNL A   1      42.807  34.024  30.831  1.00  0.00     0.023 A 
ATOM     86  C   UNL A   1      43.316  33.136  29.856  1.00  0.00     0.031 A 
ATOM     87  C   UNL A   1      43.563  35.178  31.108  1.00  0.00     0.131 A 
ATOM     88  C   UNL A   1      44.536  33.413  29.208  1.00  0.00     0.055 A 
ATOM     89  C   UNL A   1      44.763  35.458  30.452  1.00  0.00     0.041 A 
ATOM     90  F   UNL A   1      43.127  36.078  32.005  1.00  0.00    -0.206 F 
ATOM     91  C   UNL A   1      45.257  34.573  29.502  1.00  0.00     0.022 A 
BRANCH  88  92
ATOM     92  S   UNL A   1      45.202  32.260  27.964  1.00  0.00     0.124 S 
ATOM     93  O   UNL A   1      44.085  31.361  27.703  1.00  0.00    -0.237 OA
ATOM     94  O   UNL A   1      45.573  33.157  26.871  1.00  0.00    -0.237 OA
ATOM     95  O   UNL A   1      46.338  31.639  28.650  1.00  0.00    -0.744 OA
ENDBRANCH  88  92
ENDBRANCH  62  85
ENDBRANCH  36  37
ENDBRANCH  28  31
ENDBRANCH   1  27
TORSDOF 14
ENDMDL
MODEL 2
REMARK VINA RESULT:     -13.9      4.127     10.104
REMARK SMILES Cc1ccc(C)c(-c2cc(C(=O)NCCCNC(=O)c3ccc(-c4c5nc(c(-c6cc(S(=O)(=O)[O-])ccc6F)c6ccc([nH]6)c(-c6cc(S(=O)(=O)[O-])ccc6F)c6nc(c(-c7cc(S(=O)(=O)[O-])ccc7F)c7ccc4[nH]7)C=C6)C=C5)cc3)c3cc(C)ccc3n2)c1
REMARK SMILES IDX 16 1 15 2 14 3 13 4 11 5 12 6 10 8 8 9 9 10 90 11 89 12
REMARK SMILES IDX 83 13 88 14 84 15 87 16 85 17 86 18 7 19 1 20 2 21 3 22
REMARK SMILES IDX 91 23 4 24 5 25 6 26 17 27 18 28 19 30 20 31 21 32 82 33
REMARK SMILES IDX 22 34 81 35 23 36 24 37 25 38 75 39 26 40 80 41 74 42 76 43
REMARK SMILES IDX 27 44 79 45 73 46 72 47 28 49 60 50 40 51 59 52 41 53 44 54
REMARK SMILES IDX 58 55 77 56 42 57 43 58 57 60 78 61 45 62 29 63 30 64 38 65
REMARK SMILES IDX 31 66 37 67 39 68 36 69 32 70 33 71 34 72 35 73 61 74 62 75
REMARK SMILES IDX 70 76 63 77 69 78 71 79 68 80 64 81 65 82 66 83 67 84 46 85
REMARK SMILES IDX 47 86 55 87 48 88 54 89 56 90 53 91 49 92 50 93 51 94 52 95
REMARK H PARENT 13 7 17 29 76 48 44 59
REMARK Flexibility Score: inf
ROOT
ATOM      1  C   UNL A   1      35.132  29.129  26.993  1.00  0.00     0.118 C 
ENDROOT
BRANCH   1   2
ATOM      2  C   UNL A   1      33.646  28.933  27.098  1.00  0.00     0.042 C 
BRANCH   2   3
ATOM      3  C   UNL A   1      32.920  29.328  25.831  1.00  0.00     0.118 C 
BRANCH   3   4
ATOM      4  N   UNL A   1      33.606  29.497  24.560  1.00  0.00    -0.352 N 
ATOM      5  C   UNL A   1      33.565  28.639  23.462  1.00  0.00     0.252 C 
ATOM      6  O   UNL A   1      34.006  29.010  22.378  1.00  0.00    -0.269 OA
ATOM      7  H   UNL A   1      34.161  30.305  24.464  1.00  0.00     0.163 HD
BRANCH   5   8
ATOM      8  C   UNL A   1      33.120  27.219  23.607  1.00  0.00     0.051 A 
ATOM      9  C   UNL A   1      33.681  25.091  24.501  1.00  0.00     0.072 A 
ATOM     10  C   UNL A   1      34.100  26.320  24.026  1.00  0.00     0.043 A 
ATOM     11  N   UNL A   1      32.370  24.812  24.722  1.00  0.00    -0.248 NA
ATOM     12  C   UNL A   1      31.442  25.675  24.282  1.00  0.00     0.072 A 
ATOM     13  C   UNL A   1      31.772  26.812  23.540  1.00  0.00     0.013 A 
ATOM     14  C   UNL A   1      30.107  25.488  24.620  1.00  0.00     0.029 A 
ATOM     15  C   UNL A   1      30.742  27.537  22.899  1.00  0.00     0.014 A 
ATOM     16  C   UNL A   1      29.109  26.380  24.212  1.00  0.00     0.005 A 
ATOM     17  C   UNL A   1      29.416  27.403  23.319  1.00  0.00    -0.050 A 
ATOM     18  C   UNL A   1      28.421  28.485  23.008  1.00  0.00     0.044 C 
BRANCH   9  19
ATOM     19  C   UNL A   1      34.606  23.971  24.714  1.00  0.00     0.003 A 
ATOM     20  C   UNL A   1      38.084  23.342  26.194  1.00  0.00     0.044 C 
ATOM     21  C   UNL A   1      36.750  23.119  25.544  1.00  0.00    -0.050 A 
ATOM     22  C   UNL A   1      36.392  21.832  25.133  1.00  0.00     0.004 A 
ATOM     23  C   UNL A   1      35.853  24.178  25.336  1.00  0.00     0.014 A 
ATOM     24  C   UNL A   1      35.167  21.607  24.511  1.00  0.00     0.004 A 
ATOM     25  C   UNL A   1      34.274  22.665  24.279  1.00  0.00    -0.042 A 
ATOM     26  C   UNL A   1      32.975  22.344  23.583  1.00  0.00     0.045 C 
ENDBRANCH   9  19
ENDBRANCH   5   8
ENDBRANCH   3   4
ENDBRANCH   2   3
ENDBRANCH   1   2
BRANCH   1  27
ATOM     27  N   UNL A   1      35.732  30.351  27.530  1.00  0.00    -0.352 N 
ATOM     28  C   UNL A   1      36.974  30.513  28.164  1.00  0.00     0.251 C 
ATOM     29  H   UNL A   1      35.194  31.169  27.434  1.00  0.00     0.163 HD
ATOM     30  O   UNL A   1      37.281  31.597  28.621  1.00  0.00    -0.269 OA
BRANCH  28  31
ATOM     31  C   UNL A   1      37.912  29.354  28.286  1.00  0.00     0.039 A 
ATOM     32  C   UNL A   1      37.957  28.487  29.389  1.00  0.00     0.014 A 
ATOM     33  C   UNL A   1      39.018  29.322  27.461  1.00  0.00     0.014 A 
ATOM     34  C   UNL A   1      39.171  27.797  29.623  1.00  0.00     0.010 A 
ATOM     35  C   UNL A   1      39.687  28.155  27.369  1.00  0.00     0.010 A 
ATOM     36  C   UNL A   1      40.134  27.820  28.618  1.00  0.00    -0.014 A 
BRANCH  36  37
ATOM     37  C   UNL A   1      41.585  27.679  28.698  1.00  0.00     0.031 A 
ATOM     38  C   UNL A   1      42.100  26.592  27.830  1.00  0.00     0.074 A 
ATOM     39  C   UNL A   1      42.495  28.642  28.966  1.00  0.00     0.049 A 
ATOM     40  N   UNL A   1      42.231  25.354  28.159  1.00  0.00    -0.248 NA
ATOM     41  C   UNL A   1      42.224  26.846  26.380  1.00  0.00     0.031 C 
ATOM     42  C   UNL A   1      42.338  30.076  29.213  1.00  0.00     0.029 A 
ATOM     43  N   UNL A   1      43.853  28.488  28.947  1.00  0.00    -0.354 N 
ATOM     44  C   UNL A   1      42.690  24.724  27.013  1.00  0.00     0.074 A 
ATOM     45  C   UNL A   1      42.328  25.595  25.931  1.00  0.00     0.031 C 
ATOM     46  C   UNL A   1      43.556  30.677  29.170  1.00  0.00     0.029 A 
ATOM     47  C   UNL A   1      44.590  29.659  29.041  1.00  0.00     0.049 A 
ATOM     48  H   UNL A   1      44.279  27.604  28.874  1.00  0.00     0.167 HD
ATOM     49  C   UNL A   1      43.564  23.682  27.069  1.00  0.00     0.034 A 
ATOM     50  C   UNL A   1      45.946  29.752  28.988  1.00  0.00     0.034 A 
ATOM     51  C   UNL A   1      43.842  23.334  28.454  1.00  0.00     0.049 A 
ATOM     52  C   UNL A   1      46.495  28.392  29.253  1.00  0.00     0.074 A 
ATOM     53  C   UNL A   1      43.070  22.954  29.537  1.00  0.00     0.029 A 
ATOM     54  N   UNL A   1      45.022  23.807  28.996  1.00  0.00    -0.354 N 
ATOM     55  N   UNL A   1      46.325  27.742  30.373  1.00  0.00    -0.248 NA
ATOM     56  C   UNL A   1      46.885  27.560  28.123  1.00  0.00     0.031 C 
ATOM     57  C   UNL A   1      43.613  23.668  30.651  1.00  0.00     0.029 A 
ATOM     58  C   UNL A   1      44.727  24.388  30.208  1.00  0.00     0.049 A 
ATOM     59  H   UNL A   1      45.915  23.738  28.587  1.00  0.00     0.167 HD
ATOM     60  C   UNL A   1      46.169  26.414  30.009  1.00  0.00     0.074 A 
ATOM     61  C   UNL A   1      46.654  26.347  28.634  1.00  0.00     0.031 C 
ATOM     62  C   UNL A   1      45.395  25.563  30.750  1.00  0.00     0.034 A 
BRANCH  49  63
ATOM     63  C   UNL A   1      44.420  23.172  25.932  1.00  0.00     0.023 A 
ATOM     64  C   UNL A   1      44.198  21.846  25.518  1.00  0.00     0.031 A 
ATOM     65  C   UNL A   1      45.532  23.812  25.337  1.00  0.00     0.131 A 
ATOM     66  C   UNL A   1      45.070  21.204  24.624  1.00  0.00     0.055 A 
ATOM     67  C   UNL A   1      46.357  23.193  24.392  1.00  0.00     0.041 A 
ATOM     68  F   UNL A   1      45.950  25.031  25.686  1.00  0.00    -0.206 F 
ATOM     69  C   UNL A   1      46.145  21.872  24.049  1.00  0.00     0.022 A 
BRANCH  66  70
ATOM     70  S   UNL A   1      44.863  19.427  24.351  1.00  0.00     0.124 S 
ATOM     71  O   UNL A   1      46.145  18.903  24.808  1.00  0.00    -0.237 OA
ATOM     72  O   UNL A   1      43.708  19.130  25.191  1.00  0.00    -0.237 OA
ATOM     73  O   UNL A   1      44.631  19.334  22.912  1.00  0.00    -0.744 OA
ENDBRANCH  66  70
ENDBRANCH  49  63
BRANCH  50  74
ATOM     74  C   UNL A   1      46.790  30.868  28.483  1.00  0.00     0.023 A 
ATOM     75  C   UNL A   1      46.343  31.777  27.499  1.00  0.00     0.031 A 
ATOM     76  C   UNL A   1      47.981  31.201  29.163  1.00  0.00     0.131 A 
ATOM     77  C   UNL A   1      47.079  32.955  27.230  1.00  0.00     0.055 A 
ATOM     78  C   UNL A   1      48.707  32.363  28.889  1.00  0.00     0.041 A 
ATOM     79  F   UNL A   1      48.425  30.449  30.183  1.00  0.00    -0.206 F 
ATOM     80  C   UNL A   1      48.254  33.250  27.923  1.00  0.00     0.022 A 
BRANCH  77  81
ATOM     81  S   UNL A   1      46.447  34.181  26.037  1.00  0.00     0.124 S 
ATOM     82  O   UNL A   1      47.635  34.494  25.252  1.00  0.00    -0.237 OA
ATOM     83  O   UNL A   1      45.394  33.438  25.353  1.00  0.00    -0.237 OA
ATOM     84  O   UNL A   1      45.968  35.271  26.889  1.00  0.00    -0.744 OA
ENDBRANCH  77  81
ENDBRANCH  50  74
BRANCH  62  85
ATOM     85  C   UNL A   1      45.010  25.993  32.156  1.00  0.00     0.023 A 
ATOM     86  C   UNL A   1      43.822  26.679  32.496  1.00  0.00     0.031 A 
ATOM     87  C   UNL A   1      45.844  25.587  33.213  1.00  0.00     0.131 A 
ATOM     88  C   UNL A   1      43.513  26.942  33.846  1.00  0.00     0.055 A 
ATOM     89  C   UNL A   1      45.527  25.833  34.551  1.00  0.00     0.041 A 
ATOM     90  F   UNL A   1      46.976  24.908  32.964  1.00  0.00    -0.206 F 
ATOM     91  C   UNL A   1      44.361  26.517  34.872  1.00  0.00     0.022 A 
BRANCH  88  92
ATOM     92  S   UNL A   1      41.991  27.843  34.286  1.00  0.00     0.124 S 
ATOM     93  O   UNL A   1      42.448  28.825  35.260  1.00  0.00    -0.237 OA
ATOM     94  O   UNL A   1      41.557  28.373  32.995  1.00  0.00    -0.237 OA
ATOM     95  O   UNL A   1      41.124  26.797  34.834  1.00  0.00    -0.744 OA
ENDBRANCH  88  92
ENDBRANCH  62  85
ENDBRANCH  36  37
ENDBRANCH  28  31
ENDBRANCH   1  27
TORSDOF 14
ENDMDL
MODEL 3
REMARK VINA RESULT:     -13.8      4.215     10.297
REMARK SMILES Cc1ccc(C)c(-c2cc(C(=O)NCCCNC(=O)c3ccc(-c4c5nc(c(-c6cc(S(=O)(=O)[O-])ccc6F)c6ccc([nH]6)c(-c6cc(S(=O)(=O)[O-])ccc6F)c6nc(c(-c7cc(S(=O)(=O)[O-])ccc7F)c7ccc4[nH]7)C=C6)C=C5)cc3)c3cc(C)ccc3n2)c1
REMARK SMILES IDX 16 1 15 2 14 3 13 4 11 5 12 6 10 8 8 9 9 10 90 11 89 12
REMARK SMILES IDX 83 13 88 14 84 15 87 16 85 17 86 18 7 19 1 20 2 21 3 22
REMARK SMILES IDX 91 23 4 24 5 25 6 26 17 27 18 28 19 30 20 31 21 32 82 33
REMARK SMILES IDX 22 34 81 35 23 36 24 37 25 38 75 39 26 40 80 41 74 42 76 43
REMARK SMILES IDX 27 44 79 45 73 46 72 47 28 49 60 50 40 51 59 52 41 53 44 54
REMARK SMILES IDX 58 55 77 56 42 57 43 58 57 60 78 61 45 62 29 63 30 64 38 65
REMARK SMILES IDX 31 66 37 67 39 68 36 69 32 70 33 71 34 72 35 73 61 74 62 75
REMARK SMILES IDX 70 76 63 77 69 78 71 79 68 80 64 81 65 82 66 83 67 84 46 85
REMARK SMILES IDX 47 86 55 87 48 88 54 89 56 90 53 91 49 92 50 93 51 94 52 95
REMARK H PARENT 13 7 17 29 76 48 44 59
REMARK Flexibility Score: inf
ROOT
ATOM      1  C   UNL A   1      35.146  29.322  28.184  1.00  0.00     0.118 C 
ENDROOT
BRANCH   1   2
ATOM      2  C   UNL A   1      34.830  29.830  26.805  1.00  0.00     0.042 C 
BRANCH   2   3
ATOM      3  C   UNL A   1      33.393  30.287  26.675  1.00  0.00     0.118 C 
BRANCH   3   4
ATOM      4  N   UNL A   1      32.310  29.683  27.435  1.00  0.00    -0.352 N 
ATOM      5  C   UNL A   1      31.783  28.403  27.274  1.00  0.00     0.252 C 
ATOM      6  O   UNL A   1      31.028  27.941  28.125  1.00  0.00    -0.269 OA
ATOM      7  H   UNL A   1      31.904  30.239  28.138  1.00  0.00     0.163 HD
BRANCH   5   8
ATOM      8  C   UNL A   1      32.006  27.627  26.016  1.00  0.00     0.051 A 
ATOM      9  C   UNL A   1      32.579  25.501  25.123  1.00  0.00     0.072 A 
ATOM     10  C   UNL A   1      32.651  26.400  26.171  1.00  0.00     0.043 A 
ATOM     11  N   UNL A   1      31.775  25.710  24.048  1.00  0.00    -0.248 NA
ATOM     12  C   UNL A   1      31.189  26.908  23.901  1.00  0.00     0.072 A 
ATOM     13  C   UNL A   1      31.435  27.970  24.774  1.00  0.00     0.013 A 
ATOM     14  C   UNL A   1      30.252  27.101  22.893  1.00  0.00     0.029 A 
ATOM     15  C   UNL A   1      30.988  29.265  24.424  1.00  0.00     0.014 A 
ATOM     16  C   UNL A   1      29.592  28.323  22.723  1.00  0.00     0.005 A 
ATOM     17  C   UNL A   1      29.977  29.430  23.474  1.00  0.00    -0.050 A 
ATOM     18  C   UNL A   1      29.172  30.699  23.454  1.00  0.00     0.044 C 
BRANCH   9  19
ATOM     19  C   UNL A   1      33.427  24.305  25.050  1.00  0.00     0.003 A 
ATOM     20  C   UNL A   1      36.621  23.135  23.287  1.00  0.00     0.044 C 
ATOM     21  C   UNL A   1      35.399  23.154  24.158  1.00  0.00    -0.050 A 
ATOM     22  C   UNL A   1      35.066  22.018  24.901  1.00  0.00     0.004 A 
ATOM     23  C   UNL A   1      34.581  24.291  24.242  1.00  0.00     0.014 A 
ATOM     24  C   UNL A   1      33.926  22.010  25.700  1.00  0.00     0.004 A 
ATOM     25  C   UNL A   1      33.090  23.134  25.772  1.00  0.00    -0.042 A 
ATOM     26  C   UNL A   1      31.865  23.040  26.645  1.00  0.00     0.045 C 
ENDBRANCH   9  19
ENDBRANCH   5   8
ENDBRANCH   3   4
ENDBRANCH   2   3
ENDBRANCH   1   2
BRANCH   1  27
ATOM     27  N   UNL A   1      35.647  30.255  29.194  1.00  0.00    -0.352 N 
ATOM     28  C   UNL A   1      36.817  30.168  29.964  1.00  0.00     0.251 C 
ATOM     29  H   UNL A   1      35.089  31.049  29.356  1.00  0.00     0.163 HD
ATOM     30  O   UNL A   1      37.039  31.004  30.819  1.00  0.00    -0.269 OA
BRANCH  28  31
ATOM     31  C   UNL A   1      37.782  29.047  29.741  1.00  0.00     0.039 A 
ATOM     32  C   UNL A   1      38.095  28.072  30.700  1.00  0.00     0.014 A 
ATOM     33  C   UNL A   1      38.672  29.154  28.691  1.00  0.00     0.014 A 
ATOM     34  C   UNL A   1      39.345  27.418  30.577  1.00  0.00     0.010 A 
ATOM     35  C   UNL A   1      39.327  28.035  28.319  1.00  0.00     0.010 A 
ATOM     36  C   UNL A   1      40.054  27.591  29.390  1.00  0.00    -0.014 A 
BRANCH  36  37
ATOM     37  C   UNL A   1      41.487  27.511  29.127  1.00  0.00     0.031 A 
ATOM     38  C   UNL A   1      41.835  26.395  28.214  1.00  0.00     0.074 A 
ATOM     39  C   UNL A   1      42.385  28.521  29.122  1.00  0.00     0.049 A 
ATOM     40  N   UNL A   1      42.103  25.183  28.560  1.00  0.00    -0.248 NA
ATOM     41  C   UNL A   1      41.599  26.568  26.766  1.00  0.00     0.031 C 
ATOM     42  C   UNL A   1      42.219  29.960  29.332  1.00  0.00     0.029 A 
ATOM     43  N   UNL A   1      43.705  28.417  28.787  1.00  0.00    -0.354 N 
ATOM     44  C   UNL A   1      42.308  24.506  27.369  1.00  0.00     0.074 A 
ATOM     45  C   UNL A   1      41.656  25.298  26.365  1.00  0.00     0.031 C 
ATOM     46  C   UNL A   1      43.360  30.603  28.969  1.00  0.00     0.029 A 
ATOM     47  C   UNL A   1      44.383  29.619  28.645  1.00  0.00     0.049 A 
ATOM     48  H   UNL A   1      44.146  27.548  28.655  1.00  0.00     0.167 HD
ATOM     49  C   UNL A   1      43.222  23.502  27.264  1.00  0.00     0.034 A 
ATOM     50  C   UNL A   1      45.682  29.759  28.263  1.00  0.00     0.034 A 
ATOM     51  C   UNL A   1      43.838  23.247  28.556  1.00  0.00     0.049 A 
ATOM     52  C   UNL A   1      46.346  28.439  28.454  1.00  0.00     0.074 A 
ATOM     53  C   UNL A   1      43.366  22.902  29.810  1.00  0.00     0.029 A 
ATOM     54  N   UNL A   1      45.087  23.794  28.776  1.00  0.00    -0.354 N 
ATOM     55  N   UNL A   1      46.480  27.850  29.611  1.00  0.00    -0.248 NA
ATOM     56  C   UNL A   1      46.498  27.557  27.305  1.00  0.00     0.031 C 
ATOM     57  C   UNL A   1      44.121  23.699  30.725  1.00  0.00     0.029 A 
ATOM     58  C   UNL A   1      45.060  24.434  29.994  1.00  0.00     0.049 A 
ATOM     59  H   UNL A   1      45.861  23.735  28.170  1.00  0.00     0.167 HD
ATOM     60  C   UNL A   1      46.309  26.497  29.359  1.00  0.00     0.074 A 
ATOM     61  C   UNL A   1      46.457  26.368  27.914  1.00  0.00     0.031 C 
ATOM     62  C   UNL A   1      45.777  25.663  30.304  1.00  0.00     0.034 A 
BRANCH  49  63
ATOM     63  C   UNL A   1      43.809  22.960  25.980  1.00  0.00     0.023 A 
ATOM     64  C   UNL A   1      43.736  21.567  25.790  1.00  0.00     0.031 A 
ATOM     65  C   UNL A   1      44.569  23.661  25.016  1.00  0.00     0.131 A 
ATOM     66  C   UNL A   1      44.430  20.935  24.746  1.00  0.00     0.055 A 
ATOM     67  C   UNL A   1      45.199  23.037  23.935  1.00  0.00     0.041 A 
ATOM     68  F   UNL A   1      44.828  24.969  25.096  1.00  0.00    -0.206 F 
ATOM     69  C   UNL A   1      45.155  21.662  23.809  1.00  0.00     0.022 A 
BRANCH  66  70
ATOM     70  S   UNL A   1      44.497  19.127  24.732  1.00  0.00     0.124 S 
ATOM     71  O   UNL A   1      44.770  18.849  23.326  1.00  0.00    -0.237 OA
ATOM     72  O   UNL A   1      45.585  18.862  25.666  1.00  0.00    -0.237 OA
ATOM     73  O   UNL A   1      43.167  18.739  25.195  1.00  0.00    -0.744 OA
ENDBRANCH  66  70
ENDBRANCH  49  63
BRANCH  50  74
ATOM     74  C   UNL A   1      46.324  30.875  27.518  1.00  0.00     0.023 A 
ATOM     75  C   UNL A   1      45.582  31.890  26.876  1.00  0.00     0.031 A 
ATOM     76  C   UNL A   1      47.713  31.087  27.646  1.00  0.00     0.131 A 
ATOM     77  C   UNL A   1      46.231  33.051  26.394  1.00  0.00     0.055 A 
ATOM     78  C   UNL A   1      48.350  32.233  27.163  1.00  0.00     0.041 A 
ATOM     79  F   UNL A   1      48.482  30.225  28.332  1.00  0.00    -0.206 F 
ATOM     80  C   UNL A   1      47.609  33.225  26.539  1.00  0.00     0.022 A 
BRANCH  77  81
ATOM     81  S   UNL A   1      45.260  34.410  25.662  1.00  0.00     0.124 S 
ATOM     82  O   UNL A   1      45.572  35.529  26.543  1.00  0.00    -0.237 OA
ATOM     83  O   UNL A   1      45.797  34.483  24.307  1.00  0.00    -0.237 OA
ATOM     84  O   UNL A   1      43.881  33.928  25.744  1.00  0.00    -0.744 OA
ENDBRANCH  77  81
ENDBRANCH  50  74
BRANCH  62  85
ATOM     85  C   UNL A   1      45.716  26.159  31.740  1.00  0.00     0.023 A 
ATOM     86  C   UNL A   1      44.582  26.750  32.344  1.00  0.00     0.031 A 
ATOM     87  C   UNL A   1      46.832  25.919  32.561  1.00  0.00     0.131 A 
ATOM     88  C   UNL A   1      44.599  27.083  33.714  1.00  0.00     0.055 A 
ATOM     89  C   UNL A   1      46.840  26.234  33.921  1.00  0.00     0.041 A 
ATOM     90  F   UNL A   1      47.933  25.337  32.058  1.00  0.00    -0.206 F 
ATOM     91  C   UNL A   1      45.723  26.824  34.501  1.00  0.00     0.022 A 
BRANCH  88  92
ATOM     92  S   UNL A   1      43.146  27.862  34.491  1.00  0.00     0.124 S 
ATOM     93  O   UNL A   1      42.146  27.845  33.431  1.00  0.00    -0.237 OA
ATOM     94  O   UNL A   1      42.891  26.983  35.629  1.00  0.00    -0.237 OA
ATOM     95  O   UNL A   1      43.629  29.197  34.852  1.00  0.00    -0.744 OA
ENDBRANCH  88  92
ENDBRANCH  62  85
ENDBRANCH  36  37
ENDBRANCH  28  31
ENDBRANCH   1  27
TORSDOF 14
ENDMDL
