MODEL 1
REMARK VINA RESULT:     -12.7      0.000      0.000
REMARK SMILES C=C(C)COc1ccc2nc(C)n(-c3cccc(C(=O)NCCCNC(=O)c4ccc(-c5c6nc(c(-c7cc(S(=O)(=O)[O-])ccc7F)c7ccc([nH]7)c(-c7cc(S(=O)(=O)[O-])ccc7F)c7nc(c(-c8cc(S(=O)(=O)[O-])ccc8F)c8ccc5[nH]8)C=C7)C=C6)cc4)c3)c(=O)c2c1
REMARK SMILES IDX 22 1 21 2 19 3 20 4 18 6 14 7 15 8 91 9 16 10 17 11 13 12
REMARK SMILES IDX 6 13 7 14 95 15 8 16 94 17 9 18 92 19 10 20 93 21 11 22
REMARK SMILES IDX 12 23 5 24 4 25 2 26 1 27 3 28 23 29 24 30 25 31 26 32 27 34
REMARK SMILES IDX 28 35 29 36 90 37 30 38 89 39 31 40 32 41 33 42 83 43 34 44
REMARK SMILES IDX 88 45 82 46 84 47 35 48 87 49 81 50 80 51 36 53 68 54 48 55
REMARK SMILES IDX 67 56 49 57 52 58 66 59 85 60 50 61 51 62 65 64 86 65 53 66
REMARK SMILES IDX 37 67 38 68 46 69 39 70 45 71 47 72 44 73 40 74 41 75 42 76
REMARK SMILES IDX 43 77 69 78 70 79 78 80 71 81 77 82 79 83 76 84 72 85 73 86
REMARK SMILES IDX 74 87 75 88 54 89 55 90 63 91 56 92 62 93 64 94 61 95 57 96
REMARK SMILES IDX 58 97 59 98 60 99
REMARK H PARENT 21 5 25 33 84 52 52 63
REMARK Flexibility Score: inf
ROOT
ATOM      1  C   UNL A   1      36.487  20.671  25.056  1.00  0.00     0.118 C 
ENDROOT
BRANCH   1   2
ATOM      2  N   UNL A   1      35.289  19.890  24.753  1.00  0.00    -0.352 N 
ATOM      3  C   UNL A   1      33.947  20.062  25.007  1.00  0.00     0.251 C 
ATOM      4  O   UNL A   1      33.171  19.196  24.602  1.00  0.00    -0.269 OA
ATOM      5  H   UNL A   1      35.484  19.060  24.260  1.00  0.00     0.163 HD
BRANCH   3   6
ATOM      6  C   UNL A   1      33.399  21.194  25.801  1.00  0.00     0.041 A 
ATOM      7  C   UNL A   1      32.688  23.503  25.972  1.00  0.00     0.051 A 
ATOM      8  C   UNL A   1      32.741  23.414  27.368  1.00  0.00     0.027 A 
ATOM      9  C   UNL A   1      32.860  22.337  25.218  1.00  0.00     0.040 A 
ATOM     10  C   UNL A   1      33.107  22.217  27.983  1.00  0.00     0.003 A 
ATOM     11  C   UNL A   1      33.485  21.126  27.198  1.00  0.00     0.014 A 
BRANCH   7  12
ATOM     12  N   UNL A   1      32.678  24.765  25.288  1.00  0.00    -0.264 N 
ATOM     13  C   UNL A   1      30.396  28.315  22.860  1.00  0.00     0.120 A 
ATOM     14  C   UNL A   1      31.651  28.826  22.527  1.00  0.00     0.049 A 
ATOM     15  C   UNL A   1      30.301  27.181  23.667  1.00  0.00     0.062 A 
ATOM     16  C   UNL A   1      32.807  28.186  22.964  1.00  0.00     0.033 A 
ATOM     17  C   UNL A   1      31.473  26.548  24.106  1.00  0.00     0.070 A 
ATOM     18  C   UNL A   1      32.723  27.046  23.759  1.00  0.00     0.078 A 
ATOM     19  C   UNL A   1      31.437  25.328  24.937  1.00  0.00     0.266 A 
ATOM     20  N   UNL A   1      33.909  26.432  24.142  1.00  0.00    -0.234 NA
ATOM     21  O   UNL A   1      30.337  24.883  25.267  1.00  0.00    -0.268 OA
ATOM     22  C   UNL A   1      33.860  25.338  24.831  1.00  0.00     0.113 A 
ATOM     23  C   UNL A   1      35.206  24.671  25.048  1.00  0.00     0.088 C 
BRANCH  13  24
ATOM     24  O   UNL A   1      29.232  28.941  22.495  1.00  0.00    -0.489 OA
BRANCH  24  25
ATOM     25  C   UNL A   1      29.444  30.168  21.773  1.00  0.00     0.260 C 
BRANCH  25  26
ATOM     26  C   UNL A   1      28.760  31.363  22.408  1.00  0.00    -0.043 C 
ATOM     27  C   UNL A   1      28.782  31.610  23.730  1.00  0.00     0.011 C 
ATOM     28  C   UNL A   1      28.100  32.312  21.446  1.00  0.00     0.042 C 
ENDBRANCH  25  26
ENDBRANCH  24  25
ENDBRANCH  13  24
ENDBRANCH   7  12
ENDBRANCH   3   6
ENDBRANCH   1   2
BRANCH   1  29
ATOM     29  C   UNL A   1      37.795  19.921  24.860  1.00  0.00     0.042 C 
BRANCH  29  30
ATOM     30  C   UNL A   1      38.931  20.365  25.765  1.00  0.00     0.118 C 
BRANCH  30  31
ATOM     31  N   UNL A   1      40.027  19.407  25.836  1.00  0.00    -0.352 N 
ATOM     32  C   UNL A   1      41.378  19.563  26.063  1.00  0.00     0.251 C 
ATOM     33  H   UNL A   1      39.751  18.472  25.694  1.00  0.00     0.163 HD
ATOM     34  O   UNL A   1      42.114  18.593  25.930  1.00  0.00    -0.269 OA
BRANCH  32  35
ATOM     35  C   UNL A   1      41.957  20.885  26.409  1.00  0.00     0.039 A 
ATOM     36  C   UNL A   1      42.315  21.210  27.715  1.00  0.00     0.014 A 
ATOM     37  C   UNL A   1      42.165  21.823  25.392  1.00  0.00     0.014 A 
ATOM     38  C   UNL A   1      42.644  22.523  28.040  1.00  0.00     0.010 A 
ATOM     39  C   UNL A   1      42.619  23.112  25.703  1.00  0.00     0.010 A 
ATOM     40  C   UNL A   1      42.797  23.496  27.040  1.00  0.00    -0.014 A 
BRANCH  40  41
ATOM     41  C   UNL A   1      43.130  24.898  27.424  1.00  0.00     0.031 A 
ATOM     42  C   UNL A   1      44.466  25.497  27.065  1.00  0.00     0.074 A 
ATOM     43  C   UNL A   1      42.196  25.659  28.030  1.00  0.00     0.049 A 
ATOM     44  N   UNL A   1      44.915  26.705  27.295  1.00  0.00    -0.248 NA
ATOM     45  C   UNL A   1      45.427  24.634  26.357  1.00  0.00     0.031 C 
ATOM     46  C   UNL A   1      40.860  25.197  28.413  1.00  0.00     0.029 A 
ATOM     47  N   UNL A   1      42.203  26.983  28.401  1.00  0.00    -0.354 N 
ATOM     48  C   UNL A   1      46.209  26.740  26.783  1.00  0.00     0.074 A 
ATOM     49  C   UNL A   1      46.489  25.423  26.259  1.00  0.00     0.031 C 
ATOM     50  C   UNL A   1      40.154  26.232  28.887  1.00  0.00     0.029 A 
ATOM     51  C   UNL A   1      41.007  27.415  28.929  1.00  0.00     0.049 A 
ATOM     52  H   UNL A   1      42.990  27.567  28.298  1.00  0.00     0.167 HD
ATOM     53  C   UNL A   1      47.076  27.780  26.739  1.00  0.00     0.034 A 
ATOM     54  C   UNL A   1      40.636  28.623  29.405  1.00  0.00     0.034 A 
ATOM     55  C   UNL A   1      46.773  29.099  27.233  1.00  0.00     0.049 A 
ATOM     56  C   UNL A   1      41.635  29.752  29.375  1.00  0.00     0.074 A 
ATOM     57  C   UNL A   1      47.586  30.219  27.226  1.00  0.00     0.029 A 
ATOM     58  N   UNL A   1      45.568  29.484  27.801  1.00  0.00    -0.354 N 
ATOM     59  N   UNL A   1      42.848  29.765  28.875  1.00  0.00    -0.248 NA
ATOM     60  C   UNL A   1      41.223  31.027  29.978  1.00  0.00     0.031 C 
ATOM     61  C   UNL A   1      46.893  31.265  27.834  1.00  0.00     0.029 A 
ATOM     62  C   UNL A   1      45.623  30.820  28.163  1.00  0.00     0.049 A 
ATOM     63  H   UNL A   1      44.789  28.895  27.928  1.00  0.00     0.167 HD
ATOM     64  C   UNL A   1      43.334  31.053  29.084  1.00  0.00     0.074 A 
ATOM     65  C   UNL A   1      42.273  31.797  29.729  1.00  0.00     0.031 C 
ATOM     66  C   UNL A   1      44.552  31.565  28.776  1.00  0.00     0.034 A 
BRANCH  53  67
ATOM     67  C   UNL A   1      48.435  27.571  26.120  1.00  0.00     0.023 A 
ATOM     68  C   UNL A   1      48.593  27.654  24.723  1.00  0.00     0.031 A 
ATOM     69  C   UNL A   1      49.531  27.141  26.889  1.00  0.00     0.131 A 
ATOM     70  C   UNL A   1      49.804  27.268  24.135  1.00  0.00     0.055 A 
ATOM     71  C   UNL A   1      50.748  26.795  26.301  1.00  0.00     0.041 A 
ATOM     72  F   UNL A   1      49.431  27.049  28.225  1.00  0.00    -0.206 F 
ATOM     73  C   UNL A   1      50.884  26.844  24.917  1.00  0.00     0.022 A 
BRANCH  70  74
ATOM     74  S   UNL A   1      50.007  27.242  22.333  1.00  0.00     0.124 S 
ATOM     75  O   UNL A   1      51.389  26.788  22.193  1.00  0.00    -0.237 OA
ATOM     76  O   UNL A   1      48.989  26.278  21.926  1.00  0.00    -0.237 OA
ATOM     77  O   UNL A   1      49.766  28.624  21.933  1.00  0.00    -0.744 OA
ENDBRANCH  70  74
ENDBRANCH  53  67
BRANCH  54  78
ATOM     78  C   UNL A   1      39.244  28.820  29.910  1.00  0.00     0.023 A 
ATOM     79  C   UNL A   1      38.239  29.356  29.084  1.00  0.00     0.031 A 
ATOM     80  C   UNL A   1      38.922  28.558  31.253  1.00  0.00     0.131 A 
ATOM     81  C   UNL A   1      36.989  29.682  29.625  1.00  0.00     0.055 A 
ATOM     82  C   UNL A   1      37.649  28.813  31.769  1.00  0.00     0.041 A 
ATOM     83  F   UNL A   1      39.847  28.056  32.085  1.00  0.00    -0.206 F 
ATOM     84  C   UNL A   1      36.681  29.396  30.958  1.00  0.00     0.022 A 
BRANCH  81  85
ATOM     85  S   UNL A   1      35.776  30.621  28.655  1.00  0.00     0.124 S 
ATOM     86  O   UNL A   1      35.149  31.452  29.677  1.00  0.00    -0.237 OA
ATOM     87  O   UNL A   1      36.633  31.327  27.704  1.00  0.00    -0.237 OA
ATOM     88  O   UNL A   1      34.929  29.586  28.071  1.00  0.00    -0.744 OA
ENDBRANCH  81  85
ENDBRANCH  54  78
BRANCH  66  89
ATOM     89  C   UNL A   1      44.834  33.010  29.107  1.00  0.00     0.023 A 
ATOM     90  C   UNL A   1      44.476  34.020  28.192  1.00  0.00     0.031 A 
ATOM     91  C   UNL A   1      45.595  33.368  30.232  1.00  0.00     0.131 A 
ATOM     92  C   UNL A   1      44.920  35.332  28.397  1.00  0.00     0.055 A 
ATOM     93  C   UNL A   1      45.995  34.686  30.455  1.00  0.00     0.041 A 
ATOM     94  F   UNL A   1      45.970  32.437  31.124  1.00  0.00    -0.206 F 
ATOM     95  C   UNL A   1      45.671  35.671  29.527  1.00  0.00     0.022 A 
BRANCH  92  96
ATOM     96  S   UNL A   1      44.621  36.625  27.159  1.00  0.00     0.124 S 
ATOM     97  O   UNL A   1      44.535  37.824  27.990  1.00  0.00    -0.237 OA
ATOM     98  O   UNL A   1      45.814  36.529  26.322  1.00  0.00    -0.237 OA
ATOM     99  O   UNL A   1      43.372  36.220  26.521  1.00  0.00    -0.744 OA
ENDBRANCH  92  96
ENDBRANCH  66  89
ENDBRANCH  40  41
ENDBRANCH  32  35
ENDBRANCH  30  31
ENDBRANCH  29  30
ENDBRANCH   1  29
TORSDOF 17
ENDMDL
MODEL 2
REMARK VINA RESULT:     -12.6      5.958     11.447
REMARK SMILES C=C(C)COc1ccc2nc(C)n(-c3cccc(C(=O)NCCCNC(=O)c4ccc(-c5c6nc(c(-c7cc(S(=O)(=O)[O-])ccc7F)c7ccc([nH]7)c(-c7cc(S(=O)(=O)[O-])ccc7F)c7nc(c(-c8cc(S(=O)(=O)[O-])ccc8F)c8ccc5[nH]8)C=C7)C=C6)cc4)c3)c(=O)c2c1
REMARK SMILES IDX 22 1 21 2 19 3 20 4 18 6 14 7 15 8 91 9 16 10 17 11 13 12
REMARK SMILES IDX 6 13 7 14 95 15 8 16 94 17 9 18 92 19 10 20 93 21 11 22
REMARK SMILES IDX 12 23 5 24 4 25 2 26 1 27 3 28 23 29 24 30 25 31 26 32 27 34
REMARK SMILES IDX 28 35 29 36 90 37 30 38 89 39 31 40 32 41 33 42 83 43 34 44
REMARK SMILES IDX 88 45 82 46 84 47 35 48 87 49 81 50 80 51 36 53 68 54 48 55
REMARK SMILES IDX 67 56 49 57 52 58 66 59 85 60 50 61 51 62 65 64 86 65 53 66
REMARK SMILES IDX 37 67 38 68 46 69 39 70 45 71 47 72 44 73 40 74 41 75 42 76
REMARK SMILES IDX 43 77 69 78 70 79 78 80 71 81 77 82 79 83 76 84 72 85 73 86
REMARK SMILES IDX 74 87 75 88 54 89 55 90 63 91 56 92 62 93 64 94 61 95 57 96
REMARK SMILES IDX 58 97 59 98 60 99
REMARK H PARENT 21 5 25 33 84 52 52 63
REMARK Flexibility Score: inf
ROOT
ATOM      1  C   UNL A   1      31.942  30.211  26.005  1.00  0.00     0.118 C 
ENDROOT
BRANCH   1   2
ATOM      2  N   UNL A   1      31.513  30.191  24.607  1.00  0.00    -0.352 N 
ATOM      3  C   UNL A   1      31.029  29.210  23.772  1.00  0.00     0.251 C 
ATOM      4  O   UNL A   1      30.749  29.529  22.615  1.00  0.00    -0.269 OA
ATOM      5  H   UNL A   1      31.587  31.069  24.168  1.00  0.00     0.163 HD
BRANCH   3   6
ATOM      6  C   UNL A   1      30.896  27.783  24.169  1.00  0.00     0.041 A 
ATOM      7  C   UNL A   1      31.843  25.571  24.440  1.00  0.00     0.051 A 
ATOM      8  C   UNL A   1      30.554  25.033  24.539  1.00  0.00     0.027 A 
ATOM      9  C   UNL A   1      31.990  26.962  24.421  1.00  0.00     0.040 A 
ATOM     10  C   UNL A   1      29.437  25.866  24.470  1.00  0.00     0.003 A 
ATOM     11  C   UNL A   1      29.609  27.231  24.232  1.00  0.00     0.014 A 
BRANCH   7  12
ATOM     12  N   UNL A   1      32.988  24.757  24.144  1.00  0.00    -0.264 N 
ATOM     13  C   UNL A   1      37.177  22.618  25.402  1.00  0.00     0.120 A 
ATOM     14  C   UNL A   1      37.393  22.359  24.047  1.00  0.00     0.049 A 
ATOM     15  C   UNL A   1      36.004  23.257  25.806  1.00  0.00     0.062 A 
ATOM     16  C   UNL A   1      36.464  22.771  23.097  1.00  0.00     0.033 A 
ATOM     17  C   UNL A   1      35.073  23.663  24.840  1.00  0.00     0.070 A 
ATOM     18  C   UNL A   1      35.298  23.422  23.490  1.00  0.00     0.078 A 
ATOM     19  C   UNL A   1      33.829  24.372  25.203  1.00  0.00     0.266 A 
ATOM     20  N   UNL A   1      34.419  23.838  22.497  1.00  0.00    -0.234 NA
ATOM     21  O   UNL A   1      33.607  24.578  26.397  1.00  0.00    -0.268 OA
ATOM     22  C   UNL A   1      33.357  24.497  22.828  1.00  0.00     0.113 A 
ATOM     23  C   UNL A   1      32.562  25.041  21.655  1.00  0.00     0.088 C 
BRANCH  13  24
ATOM     24  O   UNL A   1      38.039  22.184  26.375  1.00  0.00    -0.489 OA
BRANCH  24  25
ATOM     25  C   UNL A   1      39.146  21.421  25.862  1.00  0.00     0.260 C 
BRANCH  25  26
ATOM     26  C   UNL A   1      40.277  21.259  26.858  1.00  0.00    -0.043 C 
ATOM     27  C   UNL A   1      40.996  20.129  26.982  1.00  0.00     0.011 C 
ATOM     28  C   UNL A   1      40.599  22.485  27.668  1.00  0.00     0.042 C 
ENDBRANCH  25  26
ENDBRANCH  24  25
ENDBRANCH  13  24
ENDBRANCH   7  12
ENDBRANCH   3   6
ENDBRANCH   1   2
BRANCH   1  29
ATOM     29  C   UNL A   1      31.655  31.516  26.733  1.00  0.00     0.042 C 
BRANCH  29  30
ATOM     30  C   UNL A   1      32.880  32.236  27.266  1.00  0.00     0.118 C 
BRANCH  30  31
ATOM     31  N   UNL A   1      32.631  33.628  27.616  1.00  0.00    -0.352 N 
ATOM     32  C   UNL A   1      33.214  34.468  28.542  1.00  0.00     0.251 C 
ATOM     33  H   UNL A   1      31.908  34.048  27.095  1.00  0.00     0.163 HD
ATOM     34  O   UNL A   1      32.714  35.569  28.736  1.00  0.00    -0.269 OA
BRANCH  32  35
ATOM     35  C   UNL A   1      34.392  34.043  29.338  1.00  0.00     0.039 A 
ATOM     36  C   UNL A   1      35.684  34.441  29.007  1.00  0.00     0.014 A 
ATOM     37  C   UNL A   1      34.196  33.234  30.463  1.00  0.00     0.014 A 
ATOM     38  C   UNL A   1      36.777  33.851  29.633  1.00  0.00     0.010 A 
ATOM     39  C   UNL A   1      35.297  32.739  31.176  1.00  0.00     0.010 A 
ATOM     40  C   UNL A   1      36.601  32.987  30.725  1.00  0.00    -0.014 A 
BRANCH  40  41
ATOM     41  C   UNL A   1      37.792  32.355  31.362  1.00  0.00     0.031 A 
ATOM     42  C   UNL A   1      38.210  32.735  32.761  1.00  0.00     0.074 A 
ATOM     43  C   UNL A   1      38.455  31.379  30.708  1.00  0.00     0.049 A 
ATOM     44  N   UNL A   1      39.201  32.271  33.479  1.00  0.00    -0.248 NA
ATOM     45  C   UNL A   1      37.417  33.771  33.446  1.00  0.00     0.031 C 
ATOM     46  C   UNL A   1      38.136  30.912  29.357  1.00  0.00     0.029 A 
ATOM     47  N   UNL A   1      39.506  30.580  31.091  1.00  0.00    -0.354 N 
ATOM     48  C   UNL A   1      39.164  32.967  34.684  1.00  0.00     0.074 A 
ATOM     49  C   UNL A   1      38.073  33.910  34.590  1.00  0.00     0.031 C 
ATOM     50  C   UNL A   1      38.912  29.863  29.057  1.00  0.00     0.029 A 
ATOM     51  C   UNL A   1      39.850  29.633  30.152  1.00  0.00     0.049 A 
ATOM     52  H   UNL A   1      39.968  30.676  31.955  1.00  0.00     0.167 HD
ATOM     53  C   UNL A   1      39.955  32.819  35.773  1.00  0.00     0.034 A 
ATOM     54  C   UNL A   1      40.816  28.690  30.161  1.00  0.00     0.034 A 
ATOM     55  C   UNL A   1      41.018  31.851  35.868  1.00  0.00     0.049 A 
ATOM     56  C   UNL A   1      41.704  28.573  31.373  1.00  0.00     0.074 A 
ATOM     57  C   UNL A   1      41.870  31.623  36.935  1.00  0.00     0.029 A 
ATOM     58  N   UNL A   1      41.362  30.942  34.880  1.00  0.00    -0.354 N 
ATOM     59  N   UNL A   1      41.643  29.234  32.506  1.00  0.00    -0.248 NA
ATOM     60  C   UNL A   1      42.797  27.593  31.312  1.00  0.00     0.031 C 
ATOM     61  C   UNL A   1      42.761  30.614  36.573  1.00  0.00     0.029 A 
ATOM     62  C   UNL A   1      42.426  30.163  35.307  1.00  0.00     0.049 A 
ATOM     63  H   UNL A   1      40.918  30.861  34.005  1.00  0.00     0.167 HD
ATOM     64  C   UNL A   1      42.672  28.733  33.297  1.00  0.00     0.074 A 
ATOM     65  C   UNL A   1      43.323  27.695  32.525  1.00  0.00     0.031 C 
ATOM     66  C   UNL A   1      43.049  29.108  34.545  1.00  0.00     0.034 A 
BRANCH  53  67
ATOM     67  C   UNL A   1      39.712  33.697  36.976  1.00  0.00     0.023 A 
ATOM     68  C   UNL A   1      40.567  34.786  37.236  1.00  0.00     0.031 A 
ATOM     69  C   UNL A   1      38.743  33.366  37.939  1.00  0.00     0.131 A 
ATOM     70  C   UNL A   1      40.464  35.477  38.450  1.00  0.00     0.055 A 
ATOM     71  C   UNL A   1      38.619  34.084  39.130  1.00  0.00     0.041 A 
ATOM     72  F   UNL A   1      37.903  32.339  37.735  1.00  0.00    -0.206 F 
ATOM     73  C   UNL A   1      39.492  35.135  39.395  1.00  0.00     0.022 A 
BRANCH  70  74
ATOM     74  S   UNL A   1      41.624  36.804  38.876  1.00  0.00     0.124 S 
ATOM     75  O   UNL A   1      40.718  37.873  39.290  1.00  0.00    -0.237 OA
ATOM     76  O   UNL A   1      42.404  36.195  39.949  1.00  0.00    -0.237 OA
ATOM     77  O   UNL A   1      42.346  37.052  37.633  1.00  0.00    -0.744 OA
ENDBRANCH  70  74
ENDBRANCH  53  67
BRANCH  54  78
ATOM     78  C   UNL A   1      40.956  27.767  28.995  1.00  0.00     0.023 A 
ATOM     79  C   UNL A   1      41.953  27.968  28.023  1.00  0.00     0.031 A 
ATOM     80  C   UNL A   1      40.037  26.723  28.790  1.00  0.00     0.131 A 
ATOM     81  C   UNL A   1      41.962  27.189  26.859  1.00  0.00     0.055 A 
ATOM     82  C   UNL A   1      40.097  25.899  27.664  1.00  0.00     0.041 A 
ATOM     83  F   UNL A   1      39.061  26.495  29.682  1.00  0.00    -0.206 F 
ATOM     84  C   UNL A   1      41.052  26.143  26.681  1.00  0.00     0.022 A 
BRANCH  81  85
ATOM     85  S   UNL A   1      43.058  27.605  25.474  1.00  0.00     0.124 S 
ATOM     86  O   UNL A   1      44.115  28.358  26.140  1.00  0.00    -0.237 OA
ATOM     87  O   UNL A   1      43.438  26.282  24.982  1.00  0.00    -0.237 OA
ATOM     88  O   UNL A   1      42.201  28.373  24.577  1.00  0.00    -0.744 OA
ENDBRANCH  81  85
ENDBRANCH  54  78
BRANCH  66  89
ATOM     89  C   UNL A   1      44.210  28.398  35.196  1.00  0.00     0.023 A 
ATOM     90  C   UNL A   1      43.972  27.454  36.214  1.00  0.00     0.031 A 
ATOM     91  C   UNL A   1      45.538  28.771  34.930  1.00  0.00     0.131 A 
ATOM     92  C   UNL A   1      45.044  26.951  36.960  1.00  0.00     0.055 A 
ATOM     93  C   UNL A   1      46.607  28.231  35.645  1.00  0.00     0.041 A 
ATOM     94  F   UNL A   1      45.812  29.677  33.977  1.00  0.00    -0.206 F 
ATOM     95  C   UNL A   1      46.361  27.328  36.676  1.00  0.00     0.022 A 
BRANCH  92  96
ATOM     96  S   UNL A   1      44.764  25.863  38.386  1.00  0.00     0.124 S 
ATOM     97  O   UNL A   1      44.724  24.545  37.755  1.00  0.00    -0.237 OA
ATOM     98  O   UNL A   1      45.941  26.126  39.208  1.00  0.00    -0.237 OA
ATOM     99  O   UNL A   1      43.494  26.325  38.938  1.00  0.00    -0.744 OA
ENDBRANCH  92  96
ENDBRANCH  66  89
ENDBRANCH  40  41
ENDBRANCH  32  35
ENDBRANCH  30  31
ENDBRANCH  29  30
ENDBRANCH   1  29
TORSDOF 17
ENDMDL
MODEL 3
REMARK VINA RESULT:     -12.5      5.139      9.168
REMARK SMILES C=C(C)COc1ccc2nc(C)n(-c3cccc(C(=O)NCCCNC(=O)c4ccc(-c5c6nc(c(-c7cc(S(=O)(=O)[O-])ccc7F)c7ccc([nH]7)c(-c7cc(S(=O)(=O)[O-])ccc7F)c7nc(c(-c8cc(S(=O)(=O)[O-])ccc8F)c8ccc5[nH]8)C=C7)C=C6)cc4)c3)c(=O)c2c1
REMARK SMILES IDX 22 1 21 2 19 3 20 4 18 6 14 7 15 8 91 9 16 10 17 11 13 12
REMARK SMILES IDX 6 13 7 14 95 15 8 16 94 17 9 18 92 19 10 20 93 21 11 22
REMARK SMILES IDX 12 23 5 24 4 25 2 26 1 27 3 28 23 29 24 30 25 31 26 32 27 34
REMARK SMILES IDX 28 35 29 36 90 37 30 38 89 39 31 40 32 41 33 42 83 43 34 44
REMARK SMILES IDX 88 45 82 46 84 47 35 48 87 49 81 50 80 51 36 53 68 54 48 55
REMARK SMILES IDX 67 56 49 57 52 58 66 59 85 60 50 61 51 62 65 64 86 65 53 66
REMARK SMILES IDX 37 67 38 68 46 69 39 70 45 71 47 72 44 73 40 74 41 75 42 76
REMARK SMILES IDX 43 77 69 78 70 79 78 80 71 81 77 82 79 83 76 84 72 85 73 86
REMARK SMILES IDX 74 87 75 88 54 89 55 90 63 91 56 92 62 93 64 94 61 95 57 96
REMARK SMILES IDX 58 97 59 98 60 99
REMARK H PARENT 21 5 25 33 84 52 52 63
REMARK Flexibility Score: inf
ROOT
ATOM      1  C   UNL A   1      31.089  30.426  25.001  1.00  0.00     0.118 C 
ENDROOT
BRANCH   1   2
ATOM      2  N   UNL A   1      30.261  29.908  23.914  1.00  0.00    -0.352 N 
ATOM      3  C   UNL A   1      30.451  28.953  22.941  1.00  0.00     0.251 C 
ATOM      4  O   UNL A   1      29.526  28.744  22.154  1.00  0.00    -0.269 OA
ATOM      5  H   UNL A   1      29.375  30.334  23.868  1.00  0.00     0.163 HD
BRANCH   3   6
ATOM      6  C   UNL A   1      31.730  28.220  22.746  1.00  0.00     0.041 A 
ATOM      7  C   UNL A   1      33.132  26.284  23.135  1.00  0.00     0.051 A 
ATOM      8  C   UNL A   1      34.251  27.012  22.712  1.00  0.00     0.027 A 
ATOM      9  C   UNL A   1      31.864  26.856  22.986  1.00  0.00     0.040 A 
ATOM     10  C   UNL A   1      34.112  28.335  22.291  1.00  0.00     0.003 A 
ATOM     11  C   UNL A   1      32.861  28.952  22.359  1.00  0.00     0.014 A 
BRANCH   7  12
ATOM     12  N   UNL A   1      33.254  25.078  23.903  1.00  0.00    -0.264 N 
ATOM     13  C   UNL A   1      32.728  20.270  24.460  1.00  0.00     0.120 A 
ATOM     14  C   UNL A   1      32.986  20.449  25.820  1.00  0.00     0.049 A 
ATOM     15  C   UNL A   1      32.755  21.367  23.598  1.00  0.00     0.062 A 
ATOM     16  C   UNL A   1      33.231  21.723  26.325  1.00  0.00     0.033 A 
ATOM     17  C   UNL A   1      33.009  22.644  24.119  1.00  0.00     0.070 A 
ATOM     18  C   UNL A   1      33.247  22.825  25.476  1.00  0.00     0.078 A 
ATOM     19  C   UNL A   1      33.020  23.848  23.262  1.00  0.00     0.266 A 
ATOM     20  N   UNL A   1      33.468  24.076  26.038  1.00  0.00    -0.234 NA
ATOM     21  O   UNL A   1      32.827  23.702  22.055  1.00  0.00    -0.268 OA
ATOM     22  C   UNL A   1      33.430  25.125  25.282  1.00  0.00     0.113 A 
ATOM     23  C   UNL A   1      33.519  26.443  26.030  1.00  0.00     0.088 C 
BRANCH  13  24
ATOM     24  O   UNL A   1      32.532  19.029  23.911  1.00  0.00    -0.489 OA
BRANCH  24  25
ATOM     25  C   UNL A   1      32.536  17.966  24.882  1.00  0.00     0.260 C 
BRANCH  25  26
ATOM     26  C   UNL A   1      33.254  16.719  24.404  1.00  0.00    -0.043 C 
ATOM     27  C   UNL A   1      33.165  15.531  25.028  1.00  0.00     0.011 C 
ATOM     28  C   UNL A   1      34.030  16.876  23.125  1.00  0.00     0.042 C 
ENDBRANCH  25  26
ENDBRANCH  24  25
ENDBRANCH  13  24
ENDBRANCH   7  12
ENDBRANCH   3   6
ENDBRANCH   1   2
BRANCH   1  29
ATOM     29  C   UNL A   1      31.420  29.408  26.082  1.00  0.00     0.042 C 
BRANCH  29  30
ATOM     30  C   UNL A   1      32.440  29.869  27.108  1.00  0.00     0.118 C 
BRANCH  30  31
ATOM     31  N   UNL A   1      32.641  31.313  27.121  1.00  0.00    -0.352 N 
ATOM     32  C   UNL A   1      33.685  32.097  27.565  1.00  0.00     0.251 C 
ATOM     33  H   UNL A   1      31.889  31.824  26.743  1.00  0.00     0.163 HD
ATOM     34  O   UNL A   1      33.539  33.313  27.589  1.00  0.00    -0.269 OA
BRANCH  32  35
ATOM     35  C   UNL A   1      34.948  31.496  28.060  1.00  0.00     0.039 A 
ATOM     36  C   UNL A   1      35.048  30.141  28.359  1.00  0.00     0.014 A 
ATOM     37  C   UNL A   1      36.075  32.313  28.213  1.00  0.00     0.014 A 
ATOM     38  C   UNL A   1      36.169  29.655  29.026  1.00  0.00     0.010 A 
ATOM     39  C   UNL A   1      37.252  31.793  28.770  1.00  0.00     0.010 A 
ATOM     40  C   UNL A   1      37.287  30.475  29.246  1.00  0.00    -0.014 A 
BRANCH  40  41
ATOM     41  C   UNL A   1      38.464  29.930  29.981  1.00  0.00     0.031 A 
ATOM     42  C   UNL A   1      39.416  28.973  29.309  1.00  0.00     0.074 A 
ATOM     43  C   UNL A   1      38.720  30.358  31.235  1.00  0.00     0.049 A 
ATOM     44  N   UNL A   1      40.502  28.421  29.787  1.00  0.00    -0.248 NA
ATOM     45  C   UNL A   1      39.114  28.580  27.922  1.00  0.00     0.031 C 
ATOM     46  C   UNL A   1      37.882  31.297  31.984  1.00  0.00     0.029 A 
ATOM     47  N   UNL A   1      39.765  30.098  32.088  1.00  0.00    -0.354 N 
ATOM     48  C   UNL A   1      40.999  27.605  28.774  1.00  0.00     0.074 A 
ATOM     49  C   UNL A   1      40.078  27.706  27.664  1.00  0.00     0.031 C 
ATOM     50  C   UNL A   1      38.481  31.594  33.145  1.00  0.00     0.029 A 
ATOM     51  C   UNL A   1      39.703  30.803  33.269  1.00  0.00     0.049 A 
ATOM     52  H   UNL A   1      40.491  29.467  31.875  1.00  0.00     0.167 HD
ATOM     53  C   UNL A   1      42.127  26.856  28.764  1.00  0.00     0.034 A 
ATOM     54  C   UNL A   1      40.525  30.810  34.340  1.00  0.00     0.034 A 
ATOM     55  C   UNL A   1      43.057  26.790  29.863  1.00  0.00     0.049 A 
ATOM     56  C   UNL A   1      41.754  29.938  34.314  1.00  0.00     0.074 A 
ATOM     57  C   UNL A   1      44.232  26.063  29.944  1.00  0.00     0.029 A 
ATOM     58  N   UNL A   1      42.933  27.484  31.058  1.00  0.00    -0.354 N 
ATOM     59  N   UNL A   1      42.210  29.185  33.341  1.00  0.00    -0.248 NA
ATOM     60  C   UNL A   1      42.579  29.908  35.530  1.00  0.00     0.031 C 
ATOM     61  C   UNL A   1      44.791  26.276  31.203  1.00  0.00     0.029 A 
ATOM     62  C   UNL A   1      44.003  27.187  31.887  1.00  0.00     0.049 A 
ATOM     63  H   UNL A   1      42.196  28.096  31.283  1.00  0.00     0.167 HD
ATOM     64  C   UNL A   1      43.384  28.611  33.820  1.00  0.00     0.074 A 
ATOM     65  C   UNL A   1      43.583  29.125  35.158  1.00  0.00     0.031 C 
ATOM     66  C   UNL A   1      44.213  27.729  33.207  1.00  0.00     0.034 A 
BRANCH  53  67
ATOM     67  C   UNL A   1      42.460  26.052  27.532  1.00  0.00     0.023 A 
ATOM     68  C   UNL A   1      42.052  24.707  27.438  1.00  0.00     0.031 A 
ATOM     69  C   UNL A   1      43.304  26.563  26.531  1.00  0.00     0.131 A 
ATOM     70  C   UNL A   1      42.526  23.908  26.390  1.00  0.00     0.055 A 
ATOM     71  C   UNL A   1      43.743  25.772  25.468  1.00  0.00     0.041 A 
ATOM     72  F   UNL A   1      43.717  27.840  26.575  1.00  0.00    -0.206 F 
ATOM     73  C   UNL A   1      43.365  24.434  25.403  1.00  0.00     0.022 A 
BRANCH  70  74
ATOM     74  S   UNL A   1      42.125  22.142  26.302  1.00  0.00     0.124 S 
ATOM     75  O   UNL A   1      40.670  22.172  26.168  1.00  0.00    -0.237 OA
ATOM     76  O   UNL A   1      42.853  21.723  25.108  1.00  0.00    -0.237 OA
ATOM     77  O   UNL A   1      42.619  21.606  27.565  1.00  0.00    -0.744 OA
ENDBRANCH  70  74
ENDBRANCH  53  67
BRANCH  54  78
ATOM     78  C   UNL A   1      40.220  31.702  35.499  1.00  0.00     0.023 A 
ATOM     79  C   UNL A   1      39.256  31.343  36.459  1.00  0.00     0.031 A 
ATOM     80  C   UNL A   1      40.823  32.966  35.612  1.00  0.00     0.131 A 
ATOM     81  C   UNL A   1      38.873  32.264  37.442  1.00  0.00     0.055 A 
ATOM     82  C   UNL A   1      40.493  33.852  36.640  1.00  0.00     0.041 A 
ATOM     83  F   UNL A   1      41.741  33.360  34.716  1.00  0.00    -0.206 F 
ATOM     84  C   UNL A   1      39.498  33.510  37.551  1.00  0.00     0.022 A 
BRANCH  81  85
ATOM     85  S   UNL A   1      37.448  31.933  38.517  1.00  0.00     0.124 S 
ATOM     86  O   UNL A   1      38.036  32.050  39.846  1.00  0.00    -0.237 OA
ATOM     87  O   UNL A   1      36.528  33.003  38.136  1.00  0.00    -0.237 OA
ATOM     88  O   UNL A   1      37.028  30.591  38.125  1.00  0.00    -0.744 OA
ENDBRANCH  81  85
ENDBRANCH  54  78
BRANCH  66  89
ATOM     89  C   UNL A   1      45.439  27.254  33.947  1.00  0.00     0.023 A 
ATOM     90  C   UNL A   1      45.356  26.128  34.790  1.00  0.00     0.031 A 
ATOM     91  C   UNL A   1      46.628  28.002  33.949  1.00  0.00     0.131 A 
ATOM     92  C   UNL A   1      46.427  25.811  35.634  1.00  0.00     0.055 A 
ATOM     93  C   UNL A   1      47.710  27.653  34.758  1.00  0.00     0.041 A 
ATOM     94  F   UNL A   1      46.749  29.090  33.171  1.00  0.00    -0.206 F 
ATOM     95  C   UNL A   1      47.606  26.563  35.616  1.00  0.00     0.022 A 
BRANCH  92  96
ATOM     96  S   UNL A   1      46.294  24.471  36.850  1.00  0.00     0.124 S 
ATOM     97  O   UNL A   1      47.198  24.929  37.903  1.00  0.00    -0.237 OA
ATOM     98  O   UNL A   1      44.874  24.503  37.188  1.00  0.00    -0.237 OA
ATOM     99  O   UNL A   1      46.740  23.287  36.121  1.00  0.00    -0.744 OA
ENDBRANCH  92  96
ENDBRANCH  66  89
ENDBRANCH  40  41
ENDBRANCH  32  35
ENDBRANCH  30  31
ENDBRANCH  29  30
ENDBRANCH   1  29
TORSDOF 17
ENDMDL
