MODEL 1
REMARK VINA RESULT:     -12.8      0.000      0.000
REMARK SMILES CC[C@H](C)N1C(=O)c2ccccc2[C@@H](C(=O)NCCCNC(=O)c2ccc(-c3c4nc(c(-c5cc(S(=O)(=O)[O-])ccc5F)c5ccc([nH]5)c(-c5cc(S(=O)(=O)[O-])ccc5F)c5nc(c(-c6cc(S(=O)(=O)[O-])ccc6F)c6ccc3[nH]6)C=C5)C=C4)cc2)C12CCCCC2
REMARK SMILES IDX 19 1 18 2 17 3 15 4 16 5 14 7 5 8 6 9 87 10 7 11 8 12 88 13
REMARK SMILES IDX 92 14 9 15 13 16 89 17 91 18 10 19 12 20 90 21 11 22 3 23
REMARK SMILES IDX 4 24 2 25 1 26 20 27 21 28 22 29 23 31 24 32 25 33 86 34
REMARK SMILES IDX 26 35 85 36 27 37 28 38 29 39 79 40 30 41 84 42 78 43 80 44
REMARK SMILES IDX 31 45 83 46 77 47 76 48 32 50 64 51 44 52 63 53 45 54 48 55
REMARK SMILES IDX 62 56 81 57 46 58 47 59 61 61 82 62 49 63 33 64 34 65 42 66
REMARK SMILES IDX 35 67 41 68 43 69 40 70 36 71 37 72 38 73 39 74 65 75 66 76
REMARK SMILES IDX 74 77 67 78 73 79 75 80 72 81 68 82 69 83 70 84 71 85 50 86
REMARK SMILES IDX 51 87 59 88 52 89 58 90 60 91 57 92 53 93 54 94 55 95 56 96
REMARK H PARENT 17 6 21 30 80 49 48 60
REMARK Flexibility Score: inf
ROOT
ATOM      1  C   UNL A   1      31.013  31.726  26.069  1.00  0.00     0.042 C 
ENDROOT
BRANCH   1   2
ATOM      2  C   UNL A   1      31.028  30.362  25.383  1.00  0.00     0.117 C 
BRANCH   2   3
ATOM      3  N   UNL A   1      32.251  30.077  24.638  1.00  0.00    -0.355 N 
ATOM      4  C   UNL A   1      32.608  29.116  23.741  1.00  0.00     0.229 C 
ATOM      5  O   UNL A   1      33.730  29.244  23.237  1.00  0.00    -0.274 OA
ATOM      6  H   UNL A   1      32.974  30.719  24.824  1.00  0.00     0.163 HD
BRANCH   4   7
ATOM      7  C   UNL A   1      31.676  27.975  23.283  1.00  0.00     0.135 C 
ATOM      8  N   UNL A   1      30.185  26.050  24.048  1.00  0.00    -0.329 N 
ATOM      9  C   UNL A   1      29.029  26.835  23.918  1.00  0.00     0.254 C 
ATOM     10  C   UNL A   1      31.570  26.688  24.217  1.00  0.00     0.059 C 
ATOM     11  O   UNL A   1      27.896  26.455  24.204  1.00  0.00    -0.269 OA
ATOM     12  C   UNL A   1      29.150  28.138  23.242  1.00  0.00     0.044 A 
ATOM     13  C   UNL A   1      31.732  26.926  25.740  1.00  0.00     0.030 C 
ATOM     14  C   UNL A   1      32.730  25.699  23.832  1.00  0.00     0.030 C 
ATOM     15  C   UNL A   1      27.986  28.873  22.961  1.00  0.00     0.014 A 
ATOM     16  C   UNL A   1      30.381  28.590  22.788  1.00  0.00    -0.020 A 
ATOM     17  C   UNL A   1      33.122  27.335  26.240  1.00  0.00     0.002 C 
ATOM     18  C   UNL A   1      34.134  26.166  24.218  1.00  0.00     0.002 C 
ATOM     19  C   UNL A   1      28.043  30.024  22.176  1.00  0.00     0.001 A 
ATOM     20  C   UNL A   1      30.413  29.704  21.920  1.00  0.00     0.005 A 
ATOM     21  C   UNL A   1      34.244  26.454  25.711  1.00  0.00     0.000 C 
ATOM     22  C   UNL A   1      29.255  30.420  21.626  1.00  0.00     0.000 A 
BRANCH   8  23
ATOM     23  C   UNL A   1      29.960  24.584  24.192  1.00  0.00     0.082 C 
ATOM     24  C   UNL A   1      30.655  23.733  23.120  1.00  0.00     0.031 C 
BRANCH  23  25
ATOM     25  C   UNL A   1      30.325  24.170  25.634  1.00  0.00     0.021 C 
ATOM     26  C   UNL A   1      31.131  22.887  25.728  1.00  0.00     0.006 C 
ENDBRANCH  23  25
ENDBRANCH   8  23
ENDBRANCH   4   7
ENDBRANCH   2   3
ENDBRANCH   1   2
BRANCH   1  27
ATOM     27  C   UNL A   1      32.181  31.994  27.001  1.00  0.00     0.118 C 
BRANCH  27  28
ATOM     28  N   UNL A   1      32.356  33.412  27.247  1.00  0.00    -0.352 N 
ATOM     29  C   UNL A   1      33.289  34.022  28.051  1.00  0.00     0.251 C 
ATOM     30  H   UNL A   1      31.729  34.011  26.781  1.00  0.00     0.163 HD
ATOM     31  O   UNL A   1      33.133  35.199  28.378  1.00  0.00    -0.269 OA
BRANCH  29  32
ATOM     32  C   UNL A   1      34.451  33.250  28.547  1.00  0.00     0.039 A 
ATOM     33  C   UNL A   1      34.290  31.953  29.044  1.00  0.00     0.014 A 
ATOM     34  C   UNL A   1      35.718  33.838  28.531  1.00  0.00     0.014 A 
ATOM     35  C   UNL A   1      35.357  31.310  29.669  1.00  0.00     0.010 A 
ATOM     36  C   UNL A   1      36.807  33.151  29.076  1.00  0.00     0.010 A 
ATOM     37  C   UNL A   1      36.629  31.899  29.690  1.00  0.00    -0.014 A 
BRANCH  37  38
ATOM     38  C   UNL A   1      37.771  31.209  30.350  1.00  0.00     0.031 A 
ATOM     39  C   UNL A   1      38.110  31.501  31.788  1.00  0.00     0.074 A 
ATOM     40  C   UNL A   1      38.504  30.315  29.656  1.00  0.00     0.049 A 
ATOM     41  N   UNL A   1      39.111  31.063  32.506  1.00  0.00    -0.248 NA
ATOM     42  C   UNL A   1      37.208  32.410  32.515  1.00  0.00     0.031 C 
ATOM     43  C   UNL A   1      38.254  29.928  28.268  1.00  0.00     0.029 A 
ATOM     44  N   UNL A   1      39.600  29.569  30.017  1.00  0.00    -0.354 N 
ATOM     45  C   UNL A   1      38.973  31.653  33.758  1.00  0.00     0.074 A 
ATOM     46  C   UNL A   1      37.813  32.514  33.691  1.00  0.00     0.031 C 
ATOM     47  C   UNL A   1      39.145  28.996  27.905  1.00  0.00     0.029 A 
ATOM     48  C   UNL A   1      40.085  28.777  29.001  1.00  0.00     0.049 A 
ATOM     49  H   UNL A   1      40.000  29.599  30.916  1.00  0.00     0.167 HD
ATOM     50  C   UNL A   1      39.736  31.478  34.863  1.00  0.00     0.034 A 
ATOM     51  C   UNL A   1      41.175  27.983  28.943  1.00  0.00     0.034 A 
ATOM     52  C   UNL A   1      40.878  30.601  34.915  1.00  0.00     0.049 A 
ATOM     53  C   UNL A   1      42.049  27.856  30.165  1.00  0.00     0.074 A 
ATOM     54  C   UNL A   1      41.705  30.342  35.994  1.00  0.00     0.029 A 
ATOM     55  N   UNL A   1      41.351  29.837  33.857  1.00  0.00    -0.354 N 
ATOM     56  N   UNL A   1      41.891  28.401  31.348  1.00  0.00    -0.248 NA
ATOM     57  C   UNL A   1      43.246  27.009  30.053  1.00  0.00     0.031 C 
ATOM     58  C   UNL A   1      42.718  29.485  35.570  1.00  0.00     0.029 A 
ATOM     59  C   UNL A   1      42.475  29.129  34.253  1.00  0.00     0.049 A 
ATOM     60  H   UNL A   1      40.949  29.802  32.960  1.00  0.00     0.167 HD
ATOM     61  C   UNL A   1      42.944  27.937  32.130  1.00  0.00     0.074 A 
ATOM     62  C   UNL A   1      43.729  27.056  31.289  1.00  0.00     0.031 C 
ATOM     63  C   UNL A   1      43.231  28.219  33.425  1.00  0.00     0.034 A 
BRANCH  50  64
ATOM     64  C   UNL A   1      39.378  32.228  36.125  1.00  0.00     0.023 A 
ATOM     65  C   UNL A   1      38.457  31.674  37.036  1.00  0.00     0.031 A 
ATOM     66  C   UNL A   1      39.829  33.540  36.355  1.00  0.00     0.131 A 
ATOM     67  C   UNL A   1      37.984  32.445  38.106  1.00  0.00     0.055 A 
ATOM     68  C   UNL A   1      39.393  34.285  37.452  1.00  0.00     0.041 A 
ATOM     69  F   UNL A   1      40.703  34.118  35.515  1.00  0.00    -0.206 F 
ATOM     70  C   UNL A   1      38.455  33.743  38.324  1.00  0.00     0.022 A 
BRANCH  67  71
ATOM     71  S   UNL A   1      36.682  31.824  39.206  1.00  0.00     0.124 S 
ATOM     72  O   UNL A   1      37.272  32.048  40.525  1.00  0.00    -0.237 OA
ATOM     73  O   UNL A   1      35.558  32.693  38.870  1.00  0.00    -0.237 OA
ATOM     74  O   UNL A   1      36.535  30.424  38.822  1.00  0.00    -0.744 OA
ENDBRANCH  67  71
ENDBRANCH  50  64
BRANCH  51  75
ATOM     75  C   UNL A   1      41.456  27.228  27.686  1.00  0.00     0.023 A 
ATOM     76  C   UNL A   1      41.279  25.833  27.620  1.00  0.00     0.031 A 
ATOM     77  C   UNL A   1      42.022  27.872  26.572  1.00  0.00     0.131 A 
ATOM     78  C   UNL A   1      41.739  25.121  26.504  1.00  0.00     0.055 A 
ATOM     79  C   UNL A   1      42.405  27.168  25.429  1.00  0.00     0.041 A 
ATOM     80  F   UNL A   1      42.223  29.199  26.589  1.00  0.00    -0.206 F 
ATOM     81  C   UNL A   1      42.285  25.782  25.400  1.00  0.00     0.022 A 
BRANCH  78  82
ATOM     82  S   UNL A   1      41.780  23.307  26.511  1.00  0.00     0.124 S 
ATOM     83  O   UNL A   1      40.361  22.968  26.549  1.00  0.00    -0.237 OA
ATOM     84  O   UNL A   1      42.464  23.022  25.251  1.00  0.00    -0.237 OA
ATOM     85  O   UNL A   1      42.540  22.984  27.714  1.00  0.00    -0.744 OA
ENDBRANCH  78  82
ENDBRANCH  51  75
BRANCH  63  86
ATOM     86  C   UNL A   1      44.424  27.560  34.078  1.00  0.00     0.023 A 
ATOM     87  C   UNL A   1      44.241  26.366  34.806  1.00  0.00     0.031 A 
ATOM     88  C   UNL A   1      45.666  28.208  34.166  1.00  0.00     0.131 A 
ATOM     89  C   UNL A   1      45.257  25.899  35.648  1.00  0.00     0.055 A 
ATOM     90  C   UNL A   1      46.698  27.706  34.961  1.00  0.00     0.041 A 
ATOM     91  F   UNL A   1      45.887  29.353  33.500  1.00  0.00    -0.206 F 
ATOM     92  C   UNL A   1      46.488  26.559  35.724  1.00  0.00     0.022 A 
BRANCH  89  93
ATOM     93  S   UNL A   1      44.976  24.496  36.762  1.00  0.00     0.124 S 
ATOM     94  O   UNL A   1      46.330  24.197  37.222  1.00  0.00    -0.237 OA
ATOM     95  O   UNL A   1      44.089  25.075  37.767  1.00  0.00    -0.237 OA
ATOM     96  O   UNL A   1      44.375  23.480  35.904  1.00  0.00    -0.744 OA
ENDBRANCH  89  93
ENDBRANCH  63  86
ENDBRANCH  37  38
ENDBRANCH  29  32
ENDBRANCH  27  28
ENDBRANCH   1  27
TORSDOF 15
ENDMDL
MODEL 2
REMARK VINA RESULT:     -12.7      3.389      8.736
REMARK SMILES CC[C@H](C)N1C(=O)c2ccccc2[C@@H](C(=O)NCCCNC(=O)c2ccc(-c3c4nc(c(-c5cc(S(=O)(=O)[O-])ccc5F)c5ccc([nH]5)c(-c5cc(S(=O)(=O)[O-])ccc5F)c5nc(c(-c6cc(S(=O)(=O)[O-])ccc6F)c6ccc3[nH]6)C=C5)C=C4)cc2)C12CCCCC2
REMARK SMILES IDX 19 1 18 2 17 3 15 4 16 5 14 7 5 8 6 9 87 10 7 11 8 12 88 13
REMARK SMILES IDX 92 14 9 15 13 16 89 17 91 18 10 19 12 20 90 21 11 22 3 23
REMARK SMILES IDX 4 24 2 25 1 26 20 27 21 28 22 29 23 31 24 32 25 33 86 34
REMARK SMILES IDX 26 35 85 36 27 37 28 38 29 39 79 40 30 41 84 42 78 43 80 44
REMARK SMILES IDX 31 45 83 46 77 47 76 48 32 50 64 51 44 52 63 53 45 54 48 55
REMARK SMILES IDX 62 56 81 57 46 58 47 59 61 61 82 62 49 63 33 64 34 65 42 66
REMARK SMILES IDX 35 67 41 68 43 69 40 70 36 71 37 72 38 73 39 74 65 75 66 76
REMARK SMILES IDX 74 77 67 78 73 79 75 80 72 81 68 82 69 83 70 84 71 85 50 86
REMARK SMILES IDX 51 87 59 88 52 89 58 90 60 91 57 92 53 93 54 94 55 95 56 96
REMARK H PARENT 17 6 21 30 80 49 48 60
REMARK Flexibility Score: inf
ROOT
ATOM      1  C   UNL A   1      32.796  28.037  26.576  1.00  0.00     0.042 C 
ENDROOT
BRANCH   1   2
ATOM      2  C   UNL A   1      33.101  26.554  26.380  1.00  0.00     0.117 C 
BRANCH   2   3
ATOM      3  N   UNL A   1      33.761  26.237  25.117  1.00  0.00    -0.355 N 
ATOM      4  C   UNL A   1      34.175  25.079  24.532  1.00  0.00     0.229 C 
ATOM      5  O   UNL A   1      34.630  25.189  23.388  1.00  0.00    -0.274 OA
ATOM      6  H   UNL A   1      33.948  27.034  24.570  1.00  0.00     0.163 HD
BRANCH   4   7
ATOM      7  C   UNL A   1      34.024  23.686  25.178  1.00  0.00     0.135 C 
ATOM      8  N   UNL A   1      33.455  21.232  24.764  1.00  0.00    -0.329 N 
ATOM      9  C   UNL A   1      34.813  20.882  24.699  1.00  0.00     0.254 C 
ATOM     10  C   UNL A   1      32.988  22.672  24.515  1.00  0.00     0.059 C 
ATOM     11  O   UNL A   1      35.226  19.751  24.459  1.00  0.00    -0.269 OA
ATOM     12  C   UNL A   1      35.807  21.890  25.107  1.00  0.00     0.044 A 
ATOM     13  C   UNL A   1      32.798  22.785  22.981  1.00  0.00     0.030 C 
ATOM     14  C   UNL A   1      31.565  22.948  25.124  1.00  0.00     0.030 C 
ATOM     15  C   UNL A   1      37.158  21.517  25.200  1.00  0.00     0.014 A 
ATOM     16  C   UNL A   1      35.410  23.159  25.500  1.00  0.00    -0.020 A 
ATOM     17  C   UNL A   1      32.103  24.045  22.453  1.00  0.00     0.002 C 
ATOM     18  C   UNL A   1      30.923  24.268  24.698  1.00  0.00     0.002 C 
ATOM     19  C   UNL A   1      38.102  22.389  25.742  1.00  0.00     0.001 A 
ATOM     20  C   UNL A   1      36.355  23.998  26.131  1.00  0.00     0.005 A 
ATOM     21  C   UNL A   1      30.809  24.378  23.182  1.00  0.00     0.000 C 
ATOM     22  C   UNL A   1      37.691  23.619  26.240  1.00  0.00     0.000 A 
BRANCH   8  23
ATOM     23  C   UNL A   1      32.499  20.098  24.907  1.00  0.00     0.082 C 
ATOM     24  C   UNL A   1      32.253  19.315  23.609  1.00  0.00     0.031 C 
BRANCH  23  25
ATOM     25  C   UNL A   1      32.965  19.207  26.079  1.00  0.00     0.021 C 
ATOM     26  C   UNL A   1      32.737  17.722  25.862  1.00  0.00     0.006 C 
ENDBRANCH  23  25
ENDBRANCH   8  23
ENDBRANCH   4   7
ENDBRANCH   2   3
ENDBRANCH   1   2
BRANCH   1  27
ATOM     27  C   UNL A   1      33.856  28.989  26.052  1.00  0.00     0.118 C 
BRANCH  27  28
ATOM     28  N   UNL A   1      33.705  30.319  26.610  1.00  0.00    -0.352 N 
ATOM     29  C   UNL A   1      34.431  30.900  27.622  1.00  0.00     0.251 C 
ATOM     30  H   UNL A   1      32.995  30.874  26.214  1.00  0.00     0.163 HD
ATOM     31  O   UNL A   1      34.004  31.916  28.170  1.00  0.00    -0.269 OA
BRANCH  29  32
ATOM     32  C   UNL A   1      35.698  30.277  28.070  1.00  0.00     0.039 A 
ATOM     33  C   UNL A   1      35.768  29.589  29.285  1.00  0.00     0.014 A 
ATOM     34  C   UNL A   1      36.838  30.399  27.271  1.00  0.00     0.014 A 
ATOM     35  C   UNL A   1      37.002  29.165  29.775  1.00  0.00     0.010 A 
ATOM     36  C   UNL A   1      38.058  29.889  27.724  1.00  0.00     0.010 A 
ATOM     37  C   UNL A   1      38.162  29.307  29.000  1.00  0.00    -0.014 A 
BRANCH  37  38
ATOM     38  C   UNL A   1      39.479  28.847  29.519  1.00  0.00     0.031 A 
ATOM     39  C   UNL A   1      40.155  27.641  28.921  1.00  0.00     0.074 A 
ATOM     40  C   UNL A   1      40.071  29.517  30.528  1.00  0.00     0.049 A 
ATOM     41  N   UNL A   1      41.258  27.045  29.291  1.00  0.00    -0.248 NA
ATOM     42  C   UNL A   1      39.503  27.018  27.757  1.00  0.00     0.031 C 
ATOM     43  C   UNL A   1      39.528  30.716  31.165  1.00  0.00     0.029 A 
ATOM     44  N   UNL A   1      41.254  29.295  31.190  1.00  0.00    -0.354 N 
ATOM     45  C   UNL A   1      41.424  25.971  28.424  1.00  0.00     0.074 A 
ATOM     46  C   UNL A   1      40.286  25.972  27.532  1.00  0.00     0.031 C 
ATOM     47  C   UNL A   1      40.387  31.142  32.102  1.00  0.00     0.029 A 
ATOM     48  C   UNL A   1      41.502  30.203  32.194  1.00  0.00     0.049 A 
ATOM     49  H   UNL A   1      41.865  28.555  30.969  1.00  0.00     0.167 HD
ATOM     50  C   UNL A   1      42.441  25.078  28.369  1.00  0.00     0.034 A 
ATOM     51  C   UNL A   1      42.496  30.265  33.105  1.00  0.00     0.034 A 
ATOM     52  C   UNL A   1      43.576  25.106  29.255  1.00  0.00     0.049 A 
ATOM     53  C   UNL A   1      43.583  29.220  33.068  1.00  0.00     0.074 A 
ATOM     54  C   UNL A   1      44.668  24.255  29.267  1.00  0.00     0.029 A 
ATOM     55  N   UNL A   1      43.777  26.026  30.275  1.00  0.00    -0.354 N 
ATOM     56  N   UNL A   1      43.738  28.226  32.226  1.00  0.00    -0.248 NA
ATOM     57  C   UNL A   1      44.630  29.300  34.096  1.00  0.00     0.031 C 
ATOM     58  C   UNL A   1      45.486  24.611  30.337  1.00  0.00     0.029 A 
ATOM     59  C   UNL A   1      44.960  25.744  30.938  1.00  0.00     0.049 A 
ATOM     60  H   UNL A   1      43.169  26.768  30.494  1.00  0.00     0.167 HD
ATOM     61  C   UNL A   1      44.915  27.585  32.600  1.00  0.00     0.074 A 
ATOM     62  C   UNL A   1      45.440  28.310  33.738  1.00  0.00     0.031 C 
ATOM     63  C   UNL A   1      45.502  26.495  32.047  1.00  0.00     0.034 A 
BRANCH  50  64
ATOM     64  C   UNL A   1      42.406  23.993  27.318  1.00  0.00     0.023 A 
ATOM     65  C   UNL A   1      41.816  22.748  27.610  1.00  0.00     0.031 A 
ATOM     66  C   UNL A   1      43.077  24.136  26.090  1.00  0.00     0.131 A 
ATOM     67  C   UNL A   1      41.947  21.683  26.708  1.00  0.00     0.055 A 
ATOM     68  C   UNL A   1      43.160  23.087  25.172  1.00  0.00     0.041 A 
ATOM     69  F   UNL A   1      43.660  25.300  25.762  1.00  0.00    -0.206 F 
ATOM     70  C   UNL A   1      42.607  21.850  25.487  1.00  0.00     0.022 A 
BRANCH  67  71
ATOM     71  S   UNL A   1      41.340  20.024  27.119  1.00  0.00     0.124 S 
ATOM     72  O   UNL A   1      40.398  19.773  26.031  1.00  0.00    -0.237 OA
ATOM     73  O   UNL A   1      42.566  19.233  27.079  1.00  0.00    -0.237 OA
ATOM     74  O   UNL A   1      40.738  20.187  28.438  1.00  0.00    -0.744 OA
ENDBRANCH  67  71
ENDBRANCH  50  64
BRANCH  51  75
ATOM     75  C   UNL A   1      42.508  31.386  34.092  1.00  0.00     0.023 A 
ATOM     76  C   UNL A   1      41.699  31.349  35.243  1.00  0.00     0.031 A 
ATOM     77  C   UNL A   1      43.235  32.560  33.835  1.00  0.00     0.131 A 
ATOM     78  C   UNL A   1      41.571  32.491  36.044  1.00  0.00     0.055 A 
ATOM     79  C   UNL A   1      43.167  33.669  34.682  1.00  0.00     0.041 A 
ATOM     80  F   UNL A   1      44.011  32.650  32.745  1.00  0.00    -0.206 F 
ATOM     81  C   UNL A   1      42.315  33.646  35.782  1.00  0.00     0.022 A 
BRANCH  78  82
ATOM     82  S   UNL A   1      40.329  32.567  37.365  1.00  0.00     0.124 S 
ATOM     83  O   UNL A   1      39.866  33.948  37.271  1.00  0.00    -0.237 OA
ATOM     84  O   UNL A   1      39.373  31.550  36.930  1.00  0.00    -0.237 OA
ATOM     85  O   UNL A   1      41.083  32.233  38.568  1.00  0.00    -0.744 OA
ENDBRANCH  78  82
ENDBRANCH  51  75
BRANCH  63  86
ATOM     86  C   UNL A   1      46.813  25.996  32.610  1.00  0.00     0.023 A 
ATOM     87  C   UNL A   1      48.015  26.311  31.945  1.00  0.00     0.031 A 
ATOM     88  C   UNL A   1      46.855  25.052  33.649  1.00  0.00     0.131 A 
ATOM     89  C   UNL A   1      49.194  25.632  32.276  1.00  0.00     0.055 A 
ATOM     90  C   UNL A   1      48.046  24.421  34.015  1.00  0.00     0.041 A 
ATOM     91  F   UNL A   1      45.735  24.710  34.306  1.00  0.00    -0.206 F 
ATOM     92  C   UNL A   1      49.218  24.694  33.312  1.00  0.00     0.022 A 
BRANCH  89  93
ATOM     93  S   UNL A   1      50.705  25.853  31.296  1.00  0.00     0.124 S 
ATOM     94  O   UNL A   1      50.633  27.269  30.942  1.00  0.00    -0.237 OA
ATOM     95  O   UNL A   1      51.747  25.503  32.257  1.00  0.00    -0.237 OA
ATOM     96  O   UNL A   1      50.540  24.926  30.180  1.00  0.00    -0.744 OA
ENDBRANCH  89  93
ENDBRANCH  63  86
ENDBRANCH  37  38
ENDBRANCH  29  32
ENDBRANCH  27  28
ENDBRANCH   1  27
TORSDOF 15
ENDMDL
MODEL 3
REMARK VINA RESULT:     -12.7      5.048      7.967
REMARK SMILES CC[C@H](C)N1C(=O)c2ccccc2[C@@H](C(=O)NCCCNC(=O)c2ccc(-c3c4nc(c(-c5cc(S(=O)(=O)[O-])ccc5F)c5ccc([nH]5)c(-c5cc(S(=O)(=O)[O-])ccc5F)c5nc(c(-c6cc(S(=O)(=O)[O-])ccc6F)c6ccc3[nH]6)C=C5)C=C4)cc2)C12CCCCC2
REMARK SMILES IDX 19 1 18 2 17 3 15 4 16 5 14 7 5 8 6 9 87 10 7 11 8 12 88 13
REMARK SMILES IDX 92 14 9 15 13 16 89 17 91 18 10 19 12 20 90 21 11 22 3 23
REMARK SMILES IDX 4 24 2 25 1 26 20 27 21 28 22 29 23 31 24 32 25 33 86 34
REMARK SMILES IDX 26 35 85 36 27 37 28 38 29 39 79 40 30 41 84 42 78 43 80 44
REMARK SMILES IDX 31 45 83 46 77 47 76 48 32 50 64 51 44 52 63 53 45 54 48 55
REMARK SMILES IDX 62 56 81 57 46 58 47 59 61 61 82 62 49 63 33 64 34 65 42 66
REMARK SMILES IDX 35 67 41 68 43 69 40 70 36 71 37 72 38 73 39 74 65 75 66 76
REMARK SMILES IDX 74 77 67 78 73 79 75 80 72 81 68 82 69 83 70 84 71 85 50 86
REMARK SMILES IDX 51 87 59 88 52 89 58 90 60 91 57 92 53 93 54 94 55 95 56 96
REMARK H PARENT 17 6 21 30 80 49 48 60
REMARK Flexibility Score: inf
ROOT
ATOM      1  C   UNL A   1      35.601  22.575  25.545  1.00  0.00     0.042 C 
ENDROOT
BRANCH   1   2
ATOM      2  C   UNL A   1      34.962  23.959  25.622  1.00  0.00     0.117 C 
BRANCH   2   3
ATOM      3  N   UNL A   1      33.827  24.048  26.535  1.00  0.00    -0.355 N 
ATOM      4  C   UNL A   1      32.522  24.414  26.390  1.00  0.00     0.229 C 
ATOM      5  O   UNL A   1      31.812  24.278  27.393  1.00  0.00    -0.274 OA
ATOM      6  H   UNL A   1      34.053  23.786  27.457  1.00  0.00     0.163 HD
BRANCH   4   7
ATOM      7  C   UNL A   1      31.904  24.887  25.058  1.00  0.00     0.135 C 
ATOM      8  N   UNL A   1      32.172  26.452  23.059  1.00  0.00    -0.329 N 
ATOM      9  C   UNL A   1      32.701  25.422  22.266  1.00  0.00     0.254 C 
ATOM     10  C   UNL A   1      32.207  26.381  24.591  1.00  0.00     0.059 C 
ATOM     11  O   UNL A   1      33.099  25.568  21.114  1.00  0.00    -0.269 OA
ATOM     12  C   UNL A   1      32.624  24.044  22.782  1.00  0.00     0.044 A 
ATOM     13  C   UNL A   1      33.583  26.965  25.000  1.00  0.00     0.030 C 
ATOM     14  C   UNL A   1      31.145  27.332  25.254  1.00  0.00     0.030 C 
ATOM     15  C   UNL A   1      33.004  22.980  21.946  1.00  0.00     0.014 A 
ATOM     16  C   UNL A   1      32.083  23.783  24.033  1.00  0.00    -0.020 A 
ATOM     17  C   UNL A   1      33.809  27.245  26.490  1.00  0.00     0.002 C 
ATOM     18  C   UNL A   1      31.292  27.513  26.765  1.00  0.00     0.002 C 
ATOM     19  C   UNL A   1      32.786  21.658  22.334  1.00  0.00     0.001 A 
ATOM     20  C   UNL A   1      31.785  22.446  24.374  1.00  0.00     0.005 A 
ATOM     21  C   UNL A   1      32.677  28.027  27.142  1.00  0.00     0.000 C 
ATOM     22  C   UNL A   1      32.144  21.392  23.536  1.00  0.00     0.000 A 
BRANCH   8  23
ATOM     23  C   UNL A   1      31.747  27.679  22.328  1.00  0.00     0.082 C 
ATOM     24  C   UNL A   1      30.255  28.013  22.472  1.00  0.00     0.031 C 
BRANCH  23  25
ATOM     25  C   UNL A   1      32.676  28.841  22.739  1.00  0.00     0.021 C 
ATOM     26  C   UNL A   1      34.118  28.674  22.295  1.00  0.00     0.006 C 
ENDBRANCH  23  25
ENDBRANCH   8  23
ENDBRANCH   4   7
ENDBRANCH   2   3
ENDBRANCH   1   2
BRANCH   1  27
ATOM     27  C   UNL A   1      36.971  22.531  24.892  1.00  0.00     0.118 C 
BRANCH  27  28
ATOM     28  N   UNL A   1      37.764  21.421  25.384  1.00  0.00    -0.352 N 
ATOM     29  C   UNL A   1      38.974  21.468  26.034  1.00  0.00     0.251 C 
ATOM     30  H   UNL A   1      37.389  20.524  25.233  1.00  0.00     0.163 HD
ATOM     31  O   UNL A   1      39.650  20.444  26.134  1.00  0.00    -0.269 OA
BRANCH  29  32
ATOM     32  C   UNL A   1      39.471  22.755  26.574  1.00  0.00     0.039 A 
ATOM     33  C   UNL A   1      38.984  23.972  26.087  1.00  0.00     0.014 A 
ATOM     34  C   UNL A   1      40.450  22.744  27.570  1.00  0.00     0.014 A 
ATOM     35  C   UNL A   1      39.585  25.167  26.475  1.00  0.00     0.010 A 
ATOM     36  C   UNL A   1      40.986  23.952  28.026  1.00  0.00     0.010 A 
ATOM     37  C   UNL A   1      40.591  25.173  27.452  1.00  0.00    -0.014 A 
BRANCH  37  38
ATOM     38  C   UNL A   1      41.229  26.450  27.873  1.00  0.00     0.031 A 
ATOM     39  C   UNL A   1      40.436  27.485  28.629  1.00  0.00     0.074 A 
ATOM     40  C   UNL A   1      42.524  26.680  27.579  1.00  0.00     0.049 A 
ATOM     41  N   UNL A   1      40.794  28.684  29.007  1.00  0.00    -0.248 NA
ATOM     42  C   UNL A   1      39.059  27.126  29.006  1.00  0.00     0.031 C 
ATOM     43  C   UNL A   1      43.401  25.742  26.879  1.00  0.00     0.029 A 
ATOM     44  N   UNL A   1      43.331  27.764  27.831  1.00  0.00    -0.354 N 
ATOM     45  C   UNL A   1      39.686  29.231  29.646  1.00  0.00     0.074 A 
ATOM     46  C   UNL A   1      38.629  28.247  29.570  1.00  0.00     0.031 C 
ATOM     47  C   UNL A   1      44.628  26.273  26.786  1.00  0.00     0.029 A 
ATOM     48  C   UNL A   1      44.610  27.624  27.343  1.00  0.00     0.049 A 
ATOM     49  H   UNL A   1      43.023  28.564  28.315  1.00  0.00     0.167 HD
ATOM     50  C   UNL A   1      39.570  30.436  30.253  1.00  0.00     0.034 A 
ATOM     51  C   UNL A   1      45.647  28.488  27.317  1.00  0.00     0.034 A 
ATOM     52  C   UNL A   1      40.642  31.396  30.335  1.00  0.00     0.049 A 
ATOM     53  C   UNL A   1      45.473  29.850  27.939  1.00  0.00     0.074 A 
ATOM     54  C   UNL A   1      40.628  32.638  30.945  1.00  0.00     0.029 A 
ATOM     55  N   UNL A   1      41.913  31.226  29.804  1.00  0.00    -0.354 N 
ATOM     56  N   UNL A   1      44.428  30.342  28.561  1.00  0.00    -0.248 NA
ATOM     57  C   UNL A   1      46.612  30.777  27.863  1.00  0.00     0.031 C 
ATOM     58  C   UNL A   1      41.860  33.248  30.718  1.00  0.00     0.029 A 
ATOM     59  C   UNL A   1      42.680  32.353  30.049  1.00  0.00     0.049 A 
ATOM     60  H   UNL A   1      42.223  30.425  29.325  1.00  0.00     0.167 HD
ATOM     61  C   UNL A   1      44.794  31.618  28.980  1.00  0.00     0.074 A 
ATOM     62  C   UNL A   1      46.162  31.819  28.551  1.00  0.00     0.031 C 
ATOM     63  C   UNL A   1      44.059  32.535  29.657  1.00  0.00     0.034 A 
BRANCH  50  64
ATOM     64  C   UNL A   1      38.254  30.807  30.897  1.00  0.00     0.023 A 
ATOM     65  C   UNL A   1      37.279  31.504  30.156  1.00  0.00     0.031 A 
ATOM     66  C   UNL A   1      38.023  30.604  32.270  1.00  0.00     0.131 A 
ATOM     67  C   UNL A   1      36.143  32.011  30.801  1.00  0.00     0.055 A 
ATOM     68  C   UNL A   1      36.864  31.066  32.896  1.00  0.00     0.041 A 
ATOM     69  F   UNL A   1      38.922  29.950  33.024  1.00  0.00    -0.206 F 
ATOM     70  C   UNL A   1      35.926  31.786  32.164  1.00  0.00     0.022 A 
BRANCH  67  71
ATOM     71  S   UNL A   1      34.946  33.047  29.916  1.00  0.00     0.124 S 
ATOM     72  O   UNL A   1      34.316  32.079  29.021  1.00  0.00    -0.237 OA
ATOM     73  O   UNL A   1      34.101  33.533  31.003  1.00  0.00    -0.237 OA
ATOM     74  O   UNL A   1      35.771  34.055  29.259  1.00  0.00    -0.744 OA
ENDBRANCH  67  71
ENDBRANCH  50  64
BRANCH  51  75
ATOM     75  C   UNL A   1      46.939  28.053  26.710  1.00  0.00     0.023 A 
ATOM     76  C   UNL A   1      47.164  28.159  25.324  1.00  0.00     0.031 A 
ATOM     77  C   UNL A   1      47.919  27.414  27.489  1.00  0.00     0.131 A 
ATOM     78  C   UNL A   1      48.294  27.561  24.752  1.00  0.00     0.055 A 
ATOM     79  C   UNL A   1      49.084  26.889  26.924  1.00  0.00     0.041 A 
ATOM     80  F   UNL A   1      47.747  27.276  28.812  1.00  0.00    -0.206 F 
ATOM     81  C   UNL A   1      49.266  26.943  25.545  1.00  0.00     0.022 A 
BRANCH  78  82
ATOM     82  S   UNL A   1      48.468  27.437  22.950  1.00  0.00     0.124 S 
ATOM     83  O   UNL A   1      48.391  25.995  22.733  1.00  0.00    -0.237 OA
ATOM     84  O   UNL A   1      47.315  28.207  22.488  1.00  0.00    -0.237 OA
ATOM     85  O   UNL A   1      49.766  28.047  22.685  1.00  0.00    -0.744 OA
ENDBRANCH  78  82
ENDBRANCH  51  75
BRANCH  63  86
ATOM     86  C   UNL A   1      44.690  33.854  30.036  1.00  0.00     0.023 A 
ATOM     87  C   UNL A   1      44.734  34.897  29.089  1.00  0.00     0.031 A 
ATOM     88  C   UNL A   1      45.423  34.004  31.224  1.00  0.00     0.131 A 
ATOM     89  C   UNL A   1      45.555  36.009  29.312  1.00  0.00     0.055 A 
ATOM     90  C   UNL A   1      46.194  35.142  31.468  1.00  0.00     0.041 A 
ATOM     91  F   UNL A   1      45.422  33.035  32.154  1.00  0.00    -0.206 F 
ATOM     92  C   UNL A   1      46.280  36.141  30.500  1.00  0.00     0.022 A 
BRANCH  89  93
ATOM     93  S   UNL A   1      45.805  37.258  28.021  1.00  0.00     0.124 S 
ATOM     94  O   UNL A   1      44.577  37.138  27.239  1.00  0.00    -0.237 OA
ATOM     95  O   UNL A   1      45.928  38.485  28.803  1.00  0.00    -0.237 OA
ATOM     96  O   UNL A   1      47.020  36.823  27.339  1.00  0.00    -0.744 OA
ENDBRANCH  89  93
ENDBRANCH  63  86
ENDBRANCH  37  38
ENDBRANCH  29  32
ENDBRANCH  27  28
ENDBRANCH   1  27
TORSDOF 15
ENDMDL
