MODEL 1
REMARK VINA RESULT:     -12.1      0.000      0.000
REMARK SMILES C[C@@H]1CCC[C@@]1(C(=O)NCCCNC(=O)c1ccc(-c2c3nc(c(-c4cc(S(=O)(=O)[O-])ccc4F)c4ccc([nH]4)c(-c4cc(S(=O)(=O)[O-])ccc4F)c4nc(c(-c5cc(S(=O)(=O)[O-])ccc5F)c5ccc2[nH]5)C=C4)C=C3)cc1)c1ccc(Cl)cc1Cl
REMARK SMILES IDX 12 1 11 2 10 3 9 4 7 5 8 6 6 8 1 9 2 10 3 11 4 12 5 13 79 14
REMARK SMILES IDX 80 15 85 16 81 17 84 18 86 19 82 20 83 21 13 22 14 23 15 25
REMARK SMILES IDX 16 26 17 27 78 28 18 29 77 30 19 31 20 32 21 33 71 34 22 35
REMARK SMILES IDX 76 36 70 37 72 38 23 39 75 40 69 41 68 42 24 44 56 45 36 46
REMARK SMILES IDX 55 47 37 48 40 49 54 50 73 51 38 52 39 53 53 55 74 56 41 57
REMARK SMILES IDX 25 58 26 59 34 60 27 61 33 62 35 63 32 64 28 65 29 66 30 67
REMARK SMILES IDX 31 68 57 69 58 70 66 71 59 72 65 73 67 74 64 75 60 76 61 77
REMARK SMILES IDX 62 78 63 79 42 80 43 81 51 82 44 83 50 84 52 85 49 86 45 87
REMARK SMILES IDX 46 88 47 89 48 90
REMARK H PARENT 9 7 13 24 72 43 40 54
REMARK Flexibility Score: inf
ROOT
ATOM      1  C   UNL A   1      32.512  29.755  26.167  1.00  0.00     0.118 C 
ENDROOT
BRANCH   1   2
ATOM      2  C   UNL A   1      31.667  28.966  27.148  1.00  0.00     0.042 C 
BRANCH   2   3
ATOM      3  C   UNL A   1      31.627  27.483  26.832  1.00  0.00     0.117 C 
BRANCH   3   4
ATOM      4  N   UNL A   1      32.934  26.938  26.502  1.00  0.00    -0.355 N 
ATOM      5  C   UNL A   1      33.311  26.087  25.497  1.00  0.00     0.230 C 
ATOM      6  O   UNL A   1      34.509  25.801  25.415  1.00  0.00    -0.274 OA
ATOM      7  H   UNL A   1      33.664  27.225  27.098  1.00  0.00     0.163 HD
BRANCH   5   8
ATOM      8  C   UNL A   1      32.241  25.468  24.557  1.00  0.00     0.078 C 
ATOM      9  C   UNL A   1      32.242  23.740  26.557  1.00  0.00     0.009 C 
ATOM     10  C   UNL A   1      31.418  24.455  25.457  1.00  0.00     0.006 C 
ATOM     11  C   UNL A   1      30.907  23.359  24.514  1.00  0.00     0.005 C 
ATOM     12  C   UNL A   1      31.836  23.371  23.308  1.00  0.00     0.002 C 
ATOM     13  C   UNL A   1      32.853  24.497  23.521  1.00  0.00     0.022 C 
BRANCH   8  14
ATOM     14  C   UNL A   1      31.446  26.576  23.789  1.00  0.00    -0.013 A 
ATOM     15  C   UNL A   1      30.037  26.621  23.855  1.00  0.00     0.008 A 
ATOM     16  C   UNL A   1      32.066  27.639  23.077  1.00  0.00     0.046 A 
ATOM     17  C   UNL A   1      29.302  27.707  23.364  1.00  0.00     0.021 A 
ATOM     18  C   UNL A   1      31.335  28.756  22.648  1.00  0.00     0.041 A 
ATOM     19  Cl  UNL A   1      33.743  27.675  22.648  1.00  0.00    -0.084 Cl
ATOM     20  C   UNL A   1      29.959  28.792  22.807  1.00  0.00     0.042 A 
ATOM     21  Cl  UNL A   1      29.066  30.170  22.300  1.00  0.00    -0.084 Cl
ENDBRANCH   8  14
ENDBRANCH   5   8
ENDBRANCH   3   4
ENDBRANCH   2   3
ENDBRANCH   1   2
BRANCH   1  22
ATOM     22  N   UNL A   1      32.406  31.193  26.389  1.00  0.00    -0.352 N 
ATOM     23  C   UNL A   1      33.139  32.020  27.201  1.00  0.00     0.251 C 
ATOM     24  H   UNL A   1      31.697  31.639  25.873  1.00  0.00     0.163 HD
ATOM     25  O   UNL A   1      32.706  33.149  27.452  1.00  0.00    -0.269 OA
BRANCH  23  26
ATOM     26  C   UNL A   1      34.413  31.560  27.789  1.00  0.00     0.039 A 
ATOM     27  C   UNL A   1      35.460  32.470  27.952  1.00  0.00     0.014 A 
ATOM     28  C   UNL A   1      34.583  30.229  28.175  1.00  0.00     0.014 A 
ATOM     29  C   UNL A   1      36.643  32.055  28.565  1.00  0.00     0.010 A 
ATOM     30  C   UNL A   1      35.703  29.855  28.905  1.00  0.00     0.010 A 
ATOM     31  C   UNL A   1      36.757  30.756  29.089  1.00  0.00    -0.014 A 
BRANCH  31  32
ATOM     32  C   UNL A   1      37.979  30.328  29.818  1.00  0.00     0.031 A 
ATOM     33  C   UNL A   1      38.221  30.781  31.233  1.00  0.00     0.074 A 
ATOM     34  C   UNL A   1      38.890  29.563  29.184  1.00  0.00     0.049 A 
ATOM     35  N   UNL A   1      39.216  30.497  32.035  1.00  0.00    -0.248 NA
ATOM     36  C   UNL A   1      37.238  31.711  31.809  1.00  0.00     0.031 C 
ATOM     37  C   UNL A   1      38.799  29.124  27.789  1.00  0.00     0.029 A 
ATOM     38  N   UNL A   1      40.060  29.006  29.630  1.00  0.00    -0.354 N 
ATOM     39  C   UNL A   1      38.982  31.219  33.201  1.00  0.00     0.074 A 
ATOM     40  C   UNL A   1      37.805  32.025  32.962  1.00  0.00     0.031 C 
ATOM     41  C   UNL A   1      39.830  28.311  27.516  1.00  0.00     0.029 A 
ATOM     42  C   UNL A   1      40.680  28.208  28.697  1.00  0.00     0.049 A 
ATOM     43  H   UNL A   1      40.423  29.163  30.531  1.00  0.00     0.167 HD
ATOM     44  C   UNL A   1      39.661  31.186  34.376  1.00  0.00     0.034 A 
ATOM     45  C   UNL A   1      41.800  27.468  28.787  1.00  0.00     0.034 A 
ATOM     46  C   UNL A   1      40.832  30.370  34.591  1.00  0.00     0.049 A 
ATOM     47  C   UNL A   1      42.548  27.451  30.094  1.00  0.00     0.074 A 
ATOM     48  C   UNL A   1      41.571  30.204  35.749  1.00  0.00     0.029 A 
ATOM     49  N   UNL A   1      41.448  29.590  33.616  1.00  0.00    -0.354 N 
ATOM     50  N   UNL A   1      42.272  28.077  31.215  1.00  0.00    -0.248 NA
ATOM     51  C   UNL A   1      43.751  26.614  30.147  1.00  0.00     0.031 C 
ATOM     52  C   UNL A   1      42.673  29.392  35.454  1.00  0.00     0.029 A 
ATOM     53  C   UNL A   1      42.578  28.977  34.134  1.00  0.00     0.049 A 
ATOM     54  H   UNL A   1      41.127  29.490  32.690  1.00  0.00     0.167 HD
ATOM     55  C   UNL A   1      43.260  27.693  32.116  1.00  0.00     0.074 A 
ATOM     56  C   UNL A   1      44.116  26.757  31.412  1.00  0.00     0.031 C 
ATOM     57  C   UNL A   1      43.446  28.077  33.407  1.00  0.00     0.034 A 
BRANCH  44  58
ATOM     58  C   UNL A   1      39.159  32.080  35.489  1.00  0.00     0.023 A 
ATOM     59  C   UNL A   1      39.543  33.432  35.583  1.00  0.00     0.031 A 
ATOM     60  C   UNL A   1      38.343  31.563  36.511  1.00  0.00     0.131 A 
ATOM     61  C   UNL A   1      39.209  34.181  36.722  1.00  0.00     0.055 A 
ATOM     62  C   UNL A   1      37.928  32.346  37.592  1.00  0.00     0.041 A 
ATOM     63  F   UNL A   1      37.957  30.278  36.495  1.00  0.00    -0.206 F 
ATOM     64  C   UNL A   1      38.381  33.656  37.714  1.00  0.00     0.022 A 
BRANCH  61  65
ATOM     65  S   UNL A   1      40.040  35.775  36.979  1.00  0.00     0.124 S 
ATOM     66  O   UNL A   1      39.688  36.492  35.756  1.00  0.00    -0.237 OA
ATOM     67  O   UNL A   1      39.418  36.259  38.206  1.00  0.00    -0.237 OA
ATOM     68  O   UNL A   1      41.451  35.411  37.094  1.00  0.00    -0.744 OA
ENDBRANCH  61  65
ENDBRANCH  44  58
BRANCH  45  69
ATOM     69  C   UNL A   1      42.264  26.663  27.622  1.00  0.00     0.023 A 
ATOM     70  C   UNL A   1      41.911  25.311  27.493  1.00  0.00     0.031 A 
ATOM     71  C   UNL A   1      43.074  27.231  26.623  1.00  0.00     0.131 A 
ATOM     72  C   UNL A   1      42.392  24.561  26.409  1.00  0.00     0.055 A 
ATOM     73  C   UNL A   1      43.510  26.494  25.520  1.00  0.00     0.041 A 
ATOM     74  F   UNL A   1      43.434  28.522  26.693  1.00  0.00    -0.206 F 
ATOM     75  C   UNL A   1      43.177  25.148  25.413  1.00  0.00     0.022 A 
BRANCH  72  76
ATOM     76  S   UNL A   1      42.024  22.785  26.346  1.00  0.00     0.124 S 
ATOM     77  O   UNL A   1      42.702  22.298  27.542  1.00  0.00    -0.237 OA
ATOM     78  O   UNL A   1      40.566  22.776  26.385  1.00  0.00    -0.237 OA
ATOM     79  O   UNL A   1      42.614  22.361  25.078  1.00  0.00    -0.744 OA
ENDBRANCH  72  76
ENDBRANCH  45  69
BRANCH  57  80
ATOM     80  C   UNL A   1      44.621  27.460  34.132  1.00  0.00     0.023 A 
ATOM     81  C   UNL A   1      44.512  26.219  34.784  1.00  0.00     0.031 A 
ATOM     82  C   UNL A   1      45.845  28.146  34.218  1.00  0.00     0.131 A 
ATOM     83  C   UNL A   1      45.575  25.745  35.566  1.00  0.00     0.055 A 
ATOM     84  C   UNL A   1      46.928  27.628  34.930  1.00  0.00     0.041 A 
ATOM     85  F   UNL A   1      46.009  29.336  33.620  1.00  0.00    -0.206 F 
ATOM     86  C   UNL A   1      46.790  26.431  35.627  1.00  0.00     0.022 A 
BRANCH  83  87
ATOM     87  S   UNL A   1      45.294  24.295  36.620  1.00  0.00     0.124 S 
ATOM     88  O   UNL A   1      46.644  23.757  36.757  1.00  0.00    -0.237 OA
ATOM     89  O   UNL A   1      44.720  24.890  37.822  1.00  0.00    -0.237 OA
ATOM     90  O   UNL A   1      44.377  23.473  35.835  1.00  0.00    -0.744 OA
ENDBRANCH  83  87
ENDBRANCH  57  80
ENDBRANCH  31  32
ENDBRANCH  23  26
ENDBRANCH   1  22
TORSDOF 14
ENDMDL
MODEL 2
REMARK VINA RESULT:     -12.1      5.190     10.165
REMARK SMILES C[C@@H]1CCC[C@@]1(C(=O)NCCCNC(=O)c1ccc(-c2c3nc(c(-c4cc(S(=O)(=O)[O-])ccc4F)c4ccc([nH]4)c(-c4cc(S(=O)(=O)[O-])ccc4F)c4nc(c(-c5cc(S(=O)(=O)[O-])ccc5F)c5ccc2[nH]5)C=C4)C=C3)cc1)c1ccc(Cl)cc1Cl
REMARK SMILES IDX 12 1 11 2 10 3 9 4 7 5 8 6 6 8 1 9 2 10 3 11 4 12 5 13 79 14
REMARK SMILES IDX 80 15 85 16 81 17 84 18 86 19 82 20 83 21 13 22 14 23 15 25
REMARK SMILES IDX 16 26 17 27 78 28 18 29 77 30 19 31 20 32 21 33 71 34 22 35
REMARK SMILES IDX 76 36 70 37 72 38 23 39 75 40 69 41 68 42 24 44 56 45 36 46
REMARK SMILES IDX 55 47 37 48 40 49 54 50 73 51 38 52 39 53 53 55 74 56 41 57
REMARK SMILES IDX 25 58 26 59 34 60 27 61 33 62 35 63 32 64 28 65 29 66 30 67
REMARK SMILES IDX 31 68 57 69 58 70 66 71 59 72 65 73 67 74 64 75 60 76 61 77
REMARK SMILES IDX 62 78 63 79 42 80 43 81 51 82 44 83 50 84 52 85 49 86 45 87
REMARK SMILES IDX 46 88 47 89 48 90
REMARK H PARENT 9 7 13 24 72 43 40 54
REMARK Flexibility Score: inf
ROOT
ATOM      1  C   UNL A   1      36.843  22.241  25.348  1.00  0.00     0.118 C 
ENDROOT
BRANCH   1   2
ATOM      2  C   UNL A   1      36.618  22.324  23.851  1.00  0.00     0.042 C 
BRANCH   2   3
ATOM      3  C   UNL A   1      35.568  23.349  23.468  1.00  0.00     0.117 C 
BRANCH   3   4
ATOM      4  N   UNL A   1      35.336  24.340  24.508  1.00  0.00    -0.355 N 
ATOM      5  C   UNL A   1      34.167  24.763  25.083  1.00  0.00     0.230 C 
ATOM      6  O   UNL A   1      34.250  25.604  25.983  1.00  0.00    -0.274 OA
ATOM      7  H   UNL A   1      36.149  24.776  24.851  1.00  0.00     0.163 HD
BRANCH   5   8
ATOM      8  C   UNL A   1      32.804  24.240  24.554  1.00  0.00     0.078 C 
ATOM      9  C   UNL A   1      33.208  26.325  22.982  1.00  0.00     0.009 C 
ATOM     10  C   UNL A   1      32.620  24.899  23.124  1.00  0.00     0.006 C 
ATOM     11  C   UNL A   1      31.108  25.028  22.901  1.00  0.00     0.005 C 
ATOM     12  C   UNL A   1      30.475  25.029  24.285  1.00  0.00     0.002 C 
ATOM     13  C   UNL A   1      31.601  24.852  25.309  1.00  0.00     0.022 C 
BRANCH   8  14
ATOM     14  C   UNL A   1      32.711  22.680  24.657  1.00  0.00    -0.013 A 
ATOM     15  C   UNL A   1      32.382  21.907  23.524  1.00  0.00     0.008 A 
ATOM     16  C   UNL A   1      33.039  21.949  25.831  1.00  0.00     0.046 A 
ATOM     17  C   UNL A   1      32.494  20.511  23.516  1.00  0.00     0.021 A 
ATOM     18  C   UNL A   1      33.216  20.558  25.801  1.00  0.00     0.041 A 
ATOM     19  Cl  UNL A   1      33.233  22.660  27.398  1.00  0.00    -0.084 Cl
ATOM     20  C   UNL A   1      32.958  19.848  24.640  1.00  0.00     0.042 A 
ATOM     21  Cl  UNL A   1      33.196  18.146  24.597  1.00  0.00    -0.084 Cl
ENDBRANCH   8  14
ENDBRANCH   5   8
ENDBRANCH   3   4
ENDBRANCH   2   3
ENDBRANCH   1   2
BRANCH   1  22
ATOM     22  N   UNL A   1      37.819  21.216  25.697  1.00  0.00    -0.352 N 
ATOM     23  C   UNL A   1      39.106  21.337  26.157  1.00  0.00     0.251 C 
ATOM     24  H   UNL A   1      37.504  20.290  25.586  1.00  0.00     0.163 HD
ATOM     25  O   UNL A   1      39.849  20.352  26.123  1.00  0.00    -0.269 OA
BRANCH  23  26
ATOM     26  C   UNL A   1      39.605  22.633  26.661  1.00  0.00     0.039 A 
ATOM     27  C   UNL A   1      40.589  22.649  27.651  1.00  0.00     0.014 A 
ATOM     28  C   UNL A   1      39.099  23.835  26.164  1.00  0.00     0.014 A 
ATOM     29  C   UNL A   1      41.108  23.870  28.085  1.00  0.00     0.010 A 
ATOM     30  C   UNL A   1      39.711  25.037  26.495  1.00  0.00     0.010 A 
ATOM     31  C   UNL A   1      40.707  25.072  27.477  1.00  0.00    -0.014 A 
BRANCH  31  32
ATOM     32  C   UNL A   1      41.313  26.370  27.871  1.00  0.00     0.031 A 
ATOM     33  C   UNL A   1      42.725  26.705  27.470  1.00  0.00     0.074 A 
ATOM     34  C   UNL A   1      40.599  27.228  28.627  1.00  0.00     0.049 A 
ATOM     35  N   UNL A   1      43.417  27.792  27.704  1.00  0.00    -0.248 NA
ATOM     36  C   UNL A   1      43.474  25.665  26.750  1.00  0.00     0.031 C 
ATOM     37  C   UNL A   1      39.249  26.979  29.137  1.00  0.00     0.029 A 
ATOM     38  N   UNL A   1      40.900  28.484  29.084  1.00  0.00    -0.354 N 
ATOM     39  C   UNL A   1      44.680  27.560  27.168  1.00  0.00     0.074 A 
ATOM     40  C   UNL A   1      44.684  26.197  26.687  1.00  0.00     0.031 C 
ATOM     41  C   UNL A   1      38.812  28.075  29.776  1.00  0.00     0.029 A 
ATOM     42  C   UNL A   1      39.865  29.084  29.764  1.00  0.00     0.049 A 
ATOM     43  H   UNL A   1      41.773  28.916  28.941  1.00  0.00     0.167 HD
ATOM     44  C   UNL A   1      45.727  28.416  27.054  1.00  0.00     0.034 A 
ATOM     45  C   UNL A   1      39.772  30.313  30.305  1.00  0.00     0.034 A 
ATOM     46  C   UNL A   1      45.697  29.775  27.540  1.00  0.00     0.049 A 
ATOM     47  C   UNL A   1      40.948  31.245  30.179  1.00  0.00     0.074 A 
ATOM     48  C   UNL A   1      46.668  30.755  27.431  1.00  0.00     0.029 A 
ATOM     49  N   UNL A   1      44.641  30.343  28.246  1.00  0.00    -0.354 N 
ATOM     50  N   UNL A   1      42.109  31.041  29.600  1.00  0.00    -0.248 NA
ATOM     51  C   UNL A   1      40.789  32.579  30.768  1.00  0.00     0.031 C 
ATOM     52  C   UNL A   1      46.233  31.883  28.137  1.00  0.00     0.029 A 
ATOM     53  C   UNL A   1      44.953  31.643  28.613  1.00  0.00     0.049 A 
ATOM     54  H   UNL A   1      43.793  29.886  28.454  1.00  0.00     0.167 HD
ATOM     55  C   UNL A   1      42.815  32.232  29.739  1.00  0.00     0.074 A 
ATOM     56  C   UNL A   1      41.932  33.154  30.428  1.00  0.00     0.031 C 
ATOM     57  C   UNL A   1      44.077  32.538  29.337  1.00  0.00     0.034 A 
BRANCH  44  58
ATOM     58  C   UNL A   1      46.986  27.883  26.404  1.00  0.00     0.023 A 
ATOM     59  C   UNL A   1      47.285  28.135  25.051  1.00  0.00     0.031 A 
ATOM     60  C   UNL A   1      47.867  27.052  27.120  1.00  0.00     0.131 A 
ATOM     61  C   UNL A   1      48.360  27.478  24.432  1.00  0.00     0.055 A 
ATOM     62  C   UNL A   1      48.995  26.484  26.524  1.00  0.00     0.041 A 
ATOM     63  F   UNL A   1      47.631  26.754  28.408  1.00  0.00    -0.206 F 
ATOM     64  C   UNL A   1      49.234  26.675  25.166  1.00  0.00     0.022 A 
BRANCH  61  65
ATOM     65  S   UNL A   1      48.475  27.528  22.622  1.00  0.00     0.124 S 
ATOM     66  O   UNL A   1      47.269  28.274  22.270  1.00  0.00    -0.237 OA
ATOM     67  O   UNL A   1      49.740  28.219  22.406  1.00  0.00    -0.237 OA
ATOM     68  O   UNL A   1      48.458  26.118  22.238  1.00  0.00    -0.744 OA
ENDBRANCH  61  65
ENDBRANCH  44  58
BRANCH  45  69
ATOM     69  C   UNL A   1      38.517  30.740  30.986  1.00  0.00     0.023 A 
ATOM     70  C   UNL A   1      37.503  31.403  30.278  1.00  0.00     0.031 A 
ATOM     71  C   UNL A   1      38.316  30.499  32.357  1.00  0.00     0.131 A 
ATOM     72  C   UNL A   1      36.347  31.833  30.947  1.00  0.00     0.055 A 
ATOM     73  C   UNL A   1      37.143  30.884  33.008  1.00  0.00     0.041 A 
ATOM     74  F   UNL A   1      39.251  29.861  33.078  1.00  0.00    -0.206 F 
ATOM     75  C   UNL A   1      36.154  31.564  32.305  1.00  0.00     0.022 A 
BRANCH  72  76
ATOM     76  S   UNL A   1      35.118  32.802  30.030  1.00  0.00     0.124 S 
ATOM     77  O   UNL A   1      35.925  33.909  29.531  1.00  0.00    -0.237 OA
ATOM     78  O   UNL A   1      34.658  31.842  29.033  1.00  0.00    -0.237 OA
ATOM     79  O   UNL A   1      34.134  33.156  31.051  1.00  0.00    -0.744 OA
ENDBRANCH  72  76
ENDBRANCH  45  69
BRANCH  57  80
ATOM     80  C   UNL A   1      44.557  33.942  29.629  1.00  0.00     0.023 A 
ATOM     81  C   UNL A   1      44.415  34.977  28.687  1.00  0.00     0.031 A 
ATOM     82  C   UNL A   1      45.211  34.235  30.838  1.00  0.00     0.131 A 
ATOM     83  C   UNL A   1      44.998  36.228  28.930  1.00  0.00     0.055 A 
ATOM     84  C   UNL A   1      45.717  35.508  31.108  1.00  0.00     0.041 A 
ATOM     85  F   UNL A   1      45.380  33.289  31.773  1.00  0.00    -0.206 F 
ATOM     86  C   UNL A   1      45.630  36.507  30.144  1.00  0.00     0.022 A 
BRANCH  83  87
ATOM     87  S   UNL A   1      45.046  37.439  27.579  1.00  0.00     0.124 S 
ATOM     88  O   UNL A   1      43.683  37.371  27.065  1.00  0.00    -0.237 OA
ATOM     89  O   UNL A   1      45.404  38.670  28.277  1.00  0.00    -0.237 OA
ATOM     90  O   UNL A   1      46.074  36.912  26.684  1.00  0.00    -0.744 OA
ENDBRANCH  83  87
ENDBRANCH  57  80
ENDBRANCH  31  32
ENDBRANCH  23  26
ENDBRANCH   1  22
TORSDOF 14
ENDMDL
MODEL 3
REMARK VINA RESULT:     -12.1      4.905     10.091
REMARK SMILES C[C@@H]1CCC[C@@]1(C(=O)NCCCNC(=O)c1ccc(-c2c3nc(c(-c4cc(S(=O)(=O)[O-])ccc4F)c4ccc([nH]4)c(-c4cc(S(=O)(=O)[O-])ccc4F)c4nc(c(-c5cc(S(=O)(=O)[O-])ccc5F)c5ccc2[nH]5)C=C4)C=C3)cc1)c1ccc(Cl)cc1Cl
REMARK SMILES IDX 12 1 11 2 10 3 9 4 7 5 8 6 6 8 1 9 2 10 3 11 4 12 5 13 79 14
REMARK SMILES IDX 80 15 85 16 81 17 84 18 86 19 82 20 83 21 13 22 14 23 15 25
REMARK SMILES IDX 16 26 17 27 78 28 18 29 77 30 19 31 20 32 21 33 71 34 22 35
REMARK SMILES IDX 76 36 70 37 72 38 23 39 75 40 69 41 68 42 24 44 56 45 36 46
REMARK SMILES IDX 55 47 37 48 40 49 54 50 73 51 38 52 39 53 53 55 74 56 41 57
REMARK SMILES IDX 25 58 26 59 34 60 27 61 33 62 35 63 32 64 28 65 29 66 30 67
REMARK SMILES IDX 31 68 57 69 58 70 66 71 59 72 65 73 67 74 64 75 60 76 61 77
REMARK SMILES IDX 62 78 63 79 42 80 43 81 51 82 44 83 50 84 52 85 49 86 45 87
REMARK SMILES IDX 46 88 47 89 48 90
REMARK H PARENT 9 7 13 24 72 43 40 54
REMARK Flexibility Score: inf
ROOT
ATOM      1  C   UNL A   1      36.376  22.123  25.432  1.00  0.00     0.118 C 
ENDROOT
BRANCH   1   2
ATOM      2  C   UNL A   1      35.847  22.177  24.012  1.00  0.00     0.042 C 
BRANCH   2   3
ATOM      3  C   UNL A   1      35.452  23.576  23.582  1.00  0.00     0.117 C 
BRANCH   3   4
ATOM      4  N   UNL A   1      35.074  24.428  24.699  1.00  0.00    -0.355 N 
ATOM      5  C   UNL A   1      33.838  24.853  25.110  1.00  0.00     0.230 C 
ATOM      6  O   UNL A   1      33.788  25.553  26.126  1.00  0.00    -0.274 OA
ATOM      7  H   UNL A   1      35.826  24.750  25.246  1.00  0.00     0.163 HD
BRANCH   5   8
ATOM      8  C   UNL A   1      32.577  24.512  24.269  1.00  0.00     0.078 C 
ATOM      9  C   UNL A   1      33.435  26.699  23.059  1.00  0.00     0.009 C 
ATOM     10  C   UNL A   1      32.733  25.325  22.918  1.00  0.00     0.006 C 
ATOM     11  C   UNL A   1      31.310  25.613  22.423  1.00  0.00     0.005 C 
ATOM     12  C   UNL A   1      30.411  25.534  23.649  1.00  0.00     0.002 C 
ATOM     13  C   UNL A   1      31.292  25.154  24.843  1.00  0.00     0.022 C 
BRANCH   8  14
ATOM     14  C   UNL A   1      32.358  22.966  24.171  1.00  0.00    -0.013 A 
ATOM     15  C   UNL A   1      32.205  22.344  22.914  1.00  0.00     0.008 A 
ATOM     16  C   UNL A   1      32.395  22.093  25.292  1.00  0.00     0.046 A 
ATOM     17  C   UNL A   1      32.219  20.952  22.764  1.00  0.00     0.021 A 
ATOM     18  C   UNL A   1      32.477  20.701  25.134  1.00  0.00     0.041 A 
ATOM     19  Cl  UNL A   1      32.325  22.621  26.940  1.00  0.00    -0.084 Cl
ATOM     20  C   UNL A   1      32.404  20.138  23.870  1.00  0.00     0.042 A 
ATOM     21  Cl  UNL A   1      32.527  18.435  23.674  1.00  0.00    -0.084 Cl
ENDBRANCH   8  14
ENDBRANCH   5   8
ENDBRANCH   3   4
ENDBRANCH   2   3
ENDBRANCH   1   2
BRANCH   1  22
ATOM     22  N   UNL A   1      37.350  21.053  25.611  1.00  0.00    -0.352 N 
ATOM     23  C   UNL A   1      38.685  21.112  25.923  1.00  0.00     0.251 C 
ATOM     24  H   UNL A   1      36.993  20.144  25.490  1.00  0.00     0.163 HD
ATOM     25  O   UNL A   1      39.384  20.109  25.752  1.00  0.00    -0.269 OA
BRANCH  23  26
ATOM     26  C   UNL A   1      39.283  22.363  26.432  1.00  0.00     0.039 A 
ATOM     27  C   UNL A   1      40.401  22.298  27.266  1.00  0.00     0.014 A 
ATOM     28  C   UNL A   1      38.739  23.603  26.094  1.00  0.00     0.014 A 
ATOM     29  C   UNL A   1      41.007  23.479  27.697  1.00  0.00     0.010 A 
ATOM     30  C   UNL A   1      39.422  24.771  26.409  1.00  0.00     0.010 A 
ATOM     31  C   UNL A   1      40.551  24.725  27.234  1.00  0.00    -0.014 A 
BRANCH  31  32
ATOM     32  C   UNL A   1      41.239  25.984  27.619  1.00  0.00     0.031 A 
ATOM     33  C   UNL A   1      42.646  26.256  27.155  1.00  0.00     0.074 A 
ATOM     34  C   UNL A   1      40.606  26.862  28.421  1.00  0.00     0.049 A 
ATOM     35  N   UNL A   1      43.401  27.303  27.373  1.00  0.00    -0.248 NA
ATOM     36  C   UNL A   1      43.307  25.194  26.383  1.00  0.00     0.031 C 
ATOM     37  C   UNL A   1      39.271  26.671  28.993  1.00  0.00     0.029 A 
ATOM     38  N   UNL A   1      40.991  28.093  28.883  1.00  0.00    -0.354 N 
ATOM     39  C   UNL A   1      44.625  27.019  26.772  1.00  0.00     0.074 A 
ATOM     40  C   UNL A   1      44.537  25.666  26.270  1.00  0.00     0.031 C 
ATOM     41  C   UNL A   1      38.921  27.776  29.669  1.00  0.00     0.029 A 
ATOM     42  C   UNL A   1      40.021  28.732  29.622  1.00  0.00     0.049 A 
ATOM     43  H   UNL A   1      41.876  28.485  28.704  1.00  0.00     0.167 HD
ATOM     44  C   UNL A   1      45.707  27.824  26.621  1.00  0.00     0.034 A 
ATOM     45  C   UNL A   1      40.016  29.954  30.186  1.00  0.00     0.034 A 
ATOM     46  C   UNL A   1      45.768  29.174  27.129  1.00  0.00     0.049 A 
ATOM     47  C   UNL A   1      41.229  30.829  30.017  1.00  0.00     0.074 A 
ATOM     48  C   UNL A   1      46.780  30.107  26.989  1.00  0.00     0.029 A 
ATOM     49  N   UNL A   1      44.776  29.781  27.894  1.00  0.00    -0.354 N 
ATOM     50  N   UNL A   1      42.349  30.579  29.380  1.00  0.00    -0.248 NA
ATOM     51  C   UNL A   1      41.166  32.158  30.634  1.00  0.00     0.031 C 
ATOM     52  C   UNL A   1      46.437  31.242  27.732  1.00  0.00     0.029 A 
ATOM     53  C   UNL A   1      45.170  31.057  28.266  1.00  0.00     0.049 A 
ATOM     54  H   UNL A   1      43.918  29.363  28.136  1.00  0.00     0.167 HD
ATOM     55  C   UNL A   1      43.120  31.731  29.503  1.00  0.00     0.074 A 
ATOM     56  C   UNL A   1      42.319  32.683  30.248  1.00  0.00     0.031 C 
ATOM     57  C   UNL A   1      44.375  31.981  29.045  1.00  0.00     0.034 A 
BRANCH  44  58
ATOM     58  C   UNL A   1      46.905  27.242  25.902  1.00  0.00     0.023 A 
ATOM     59  C   UNL A   1      47.904  26.526  26.589  1.00  0.00     0.031 A 
ATOM     60  C   UNL A   1      47.092  27.461  24.526  1.00  0.00     0.131 A 
ATOM     61  C   UNL A   1      49.087  26.158  25.930  1.00  0.00     0.055 A 
ATOM     62  C   UNL A   1      48.226  27.001  23.852  1.00  0.00     0.041 A 
ATOM     63  F   UNL A   1      46.189  28.153  23.814  1.00  0.00    -0.206 F 
ATOM     64  C   UNL A   1      49.244  26.366  24.559  1.00  0.00     0.022 A 
BRANCH  61  65
ATOM     65  S   UNL A   1      50.492  25.592  26.930  1.00  0.00     0.124 S 
ATOM     66  O   UNL A   1      51.466  25.243  25.899  1.00  0.00    -0.237 OA
ATOM     67  O   UNL A   1      50.802  26.769  27.732  1.00  0.00    -0.237 OA
ATOM     68  O   UNL A   1      49.949  24.455  27.670  1.00  0.00    -0.744 OA
ENDBRANCH  61  65
ENDBRANCH  44  58
BRANCH  45  69
ATOM     69  C   UNL A   1      38.817  30.430  30.933  1.00  0.00     0.023 A 
ATOM     70  C   UNL A   1      37.773  31.095  30.272  1.00  0.00     0.031 A 
ATOM     71  C   UNL A   1      38.701  30.234  32.321  1.00  0.00     0.131 A 
ATOM     72  C   UNL A   1      36.673  31.571  31.002  1.00  0.00     0.055 A 
ATOM     73  C   UNL A   1      37.582  30.665  33.035  1.00  0.00     0.041 A 
ATOM     74  F   UNL A   1      39.667  29.595  32.999  1.00  0.00    -0.206 F 
ATOM     75  C   UNL A   1      36.564  31.347  32.377  1.00  0.00     0.022 A 
BRANCH  72  76
ATOM     76  S   UNL A   1      35.408  32.541  30.137  1.00  0.00     0.124 S 
ATOM     77  O   UNL A   1      35.047  31.650  29.041  1.00  0.00    -0.237 OA
ATOM     78  O   UNL A   1      34.401  32.723  31.176  1.00  0.00    -0.237 OA
ATOM     79  O   UNL A   1      36.121  33.756  29.744  1.00  0.00    -0.744 OA
ENDBRANCH  72  76
ENDBRANCH  45  69
BRANCH  57  80
ATOM     80  C   UNL A   1      44.938  33.354  29.335  1.00  0.00     0.023 A 
ATOM     81  C   UNL A   1      44.856  34.395  28.393  1.00  0.00     0.031 A 
ATOM     82  C   UNL A   1      45.611  33.609  30.543  1.00  0.00     0.131 A 
ATOM     83  C   UNL A   1      45.513  35.610  28.634  1.00  0.00     0.055 A 
ATOM     84  C   UNL A   1      46.192  34.849  30.812  1.00  0.00     0.041 A 
ATOM     85  F   UNL A   1      45.725  32.654  31.479  1.00  0.00    -0.206 F 
ATOM     86  C   UNL A   1      46.163  35.852  29.846  1.00  0.00     0.022 A 
BRANCH  83  87
ATOM     87  S   UNL A   1      45.631  36.814  27.282  1.00  0.00     0.124 S 
ATOM     88  O   UNL A   1      46.763  37.632  27.706  1.00  0.00    -0.237 OA
ATOM     89  O   UNL A   1      45.861  35.959  26.122  1.00  0.00    -0.237 OA
ATOM     90  O   UNL A   1      44.335  37.488  27.310  1.00  0.00    -0.744 OA
ENDBRANCH  83  87
ENDBRANCH  57  80
ENDBRANCH  31  32
ENDBRANCH  23  26
ENDBRANCH   1  22
TORSDOF 14
ENDMDL
