MODEL 1
REMARK VINA RESULT:     -12.8      0.000      0.000
REMARK SMILES Cc1c(Cl)cc2c(c1C)O[C@H](C(F)(F)F)C(C(=O)NCCCNC(=O)c1ccc(-c3c4nc(c(-c5cc(S(=O)(=O)[O-])ccc5F)c5ccc([nH]5)c(-c5cc(S(=O)(=O)[O-])ccc5F)c5nc(c(-c6cc(S(=O)(=O)[O-])ccc6F)c6ccc3[nH]6)C=C5)C=C4)cc1)=C2
REMARK SMILES IDX 22 1 21 2 20 3 19 4 17 5 18 6 16 8 1 9 2 10 3 11 8 12 4 13
REMARK SMILES IDX 5 14 7 15 9 16 6 17 10 18 89 19 11 20 12 21 13 22 14 23
REMARK SMILES IDX 15 24 23 25 24 26 25 28 26 29 27 30 88 31 28 32 87 33 29 34
REMARK SMILES IDX 30 35 31 36 81 37 32 38 86 39 80 40 82 41 33 42 85 43 79 44
REMARK SMILES IDX 78 45 34 47 66 48 46 49 65 50 47 51 50 52 64 53 83 54 48 55
REMARK SMILES IDX 49 56 63 58 84 59 51 60 35 61 36 62 44 63 37 64 43 65 45 66
REMARK SMILES IDX 42 67 38 68 39 69 40 70 41 71 67 72 68 73 76 74 69 75 75 76
REMARK SMILES IDX 77 77 74 78 70 79 71 80 72 81 73 82 52 83 53 84 61 85 54 86
REMARK SMILES IDX 60 87 62 88 59 89 55 90 56 91 57 92 58 93
REMARK H PARENT 19 7 23 27 82 46 50 57
REMARK Flexibility Score: inf
ROOT
ATOM      1  C   UNL A   1      35.700  22.315  26.172  1.00  0.00     0.118 C 
ENDROOT
BRANCH   1   2
ATOM      2  C   UNL A   1      34.323  21.762  26.513  1.00  0.00     0.042 C 
BRANCH   2   3
ATOM      3  C   UNL A   1      33.362  21.856  25.337  1.00  0.00     0.118 C 
BRANCH   3   4
ATOM      4  N   UNL A   1      34.030  22.288  24.118  1.00  0.00    -0.352 N 
ATOM      5  C   UNL A   1      34.128  23.425  23.389  1.00  0.00     0.251 C 
ATOM      6  O   UNL A   1      34.851  23.352  22.390  1.00  0.00    -0.270 OA
ATOM      7  H   UNL A   1      34.551  21.557  23.715  1.00  0.00     0.163 HD
BRANCH   5   8
ATOM      8  C   UNL A   1      33.441  24.708  23.711  1.00  0.00     0.067 C 
ATOM      9  C   UNL A   1      31.598  30.600  25.863  1.00  0.00     0.046 C 
ATOM     10  C   UNL A   1      32.232  29.266  25.569  1.00  0.00    -0.026 A 
ATOM     11  C   UNL A   1      33.310  28.767  26.331  1.00  0.00     0.045 A 
ATOM     12  C   UNL A   1      31.731  28.471  24.511  1.00  0.00    -0.004 A 
ATOM     13  Cl  UNL A   1      33.968  29.633  27.677  1.00  0.00    -0.084 Cl
ATOM     14  C   UNL A   1      33.903  27.534  26.031  1.00  0.00     0.032 A 
ATOM     15  C   UNL A   1      32.347  27.238  24.226  1.00  0.00     0.131 A 
ATOM     16  C   UNL A   1      30.553  28.882  23.658  1.00  0.00     0.049 C 
ATOM     17  C   UNL A   1      33.428  26.768  24.970  1.00  0.00     0.019 A 
ATOM     18  O   UNL A   1      31.867  26.547  23.147  1.00  0.00    -0.475 OA
ATOM     19  C   UNL A   1      34.058  25.504  24.605  1.00  0.00     0.025 C 
ATOM     20  C   UNL A   1      32.124  25.122  23.124  1.00  0.00     0.314 C 
BRANCH  20  21
ATOM     21  C   UNL A   1      30.934  24.379  23.760  1.00  0.00     0.429 C 
ATOM     22  F   UNL A   1      29.783  25.067  23.559  1.00  0.00    -0.167 F 
ATOM     23  F   UNL A   1      30.742  23.147  23.231  1.00  0.00    -0.167 F 
ATOM     24  F   UNL A   1      31.075  24.211  25.094  1.00  0.00    -0.167 F 
ENDBRANCH  20  21
ENDBRANCH   5   8
ENDBRANCH   3   4
ENDBRANCH   2   3
ENDBRANCH   1   2
BRANCH   1  25
ATOM     25  N   UNL A   1      36.659  21.244  25.910  1.00  0.00    -0.352 N 
ATOM     26  C   UNL A   1      38.021  21.299  25.750  1.00  0.00     0.251 C 
ATOM     27  H   UNL A   1      36.268  20.344  25.834  1.00  0.00     0.163 HD
ATOM     28  O   UNL A   1      38.608  20.349  25.236  1.00  0.00    -0.269 OA
BRANCH  26  29
ATOM     29  C   UNL A   1      38.767  22.493  26.191  1.00  0.00     0.039 A 
ATOM     30  C   UNL A   1      39.909  22.341  26.980  1.00  0.00     0.014 A 
ATOM     31  C   UNL A   1      38.320  23.769  25.839  1.00  0.00     0.014 A 
ATOM     32  C   UNL A   1      40.639  23.469  27.355  1.00  0.00     0.010 A 
ATOM     33  C   UNL A   1      39.100  24.880  26.128  1.00  0.00     0.010 A 
ATOM     34  C   UNL A   1      40.261  24.743  26.899  1.00  0.00    -0.014 A 
BRANCH  34  35
ATOM     35  C   UNL A   1      41.038  25.957  27.253  1.00  0.00     0.031 A 
ATOM     36  C   UNL A   1      40.417  27.000  28.141  1.00  0.00     0.074 A 
ATOM     37  C   UNL A   1      42.274  26.132  26.746  1.00  0.00     0.049 A 
ATOM     38  N   UNL A   1      40.887  28.168  28.494  1.00  0.00    -0.248 NA
ATOM     39  C   UNL A   1      39.080  26.702  28.687  1.00  0.00     0.031 C 
ATOM     40  C   UNL A   1      42.970  25.191  25.864  1.00  0.00     0.029 A 
ATOM     41  N   UNL A   1      43.172  27.157  26.910  1.00  0.00    -0.354 N 
ATOM     42  C   UNL A   1      39.911  28.737  29.304  1.00  0.00     0.074 A 
ATOM     43  C   UNL A   1      38.790  27.824  29.327  1.00  0.00     0.031 C 
ATOM     44  C   UNL A   1      44.204  25.657  25.611  1.00  0.00     0.029 A 
ATOM     45  C   UNL A   1      44.370  26.951  26.266  1.00  0.00     0.049 A 
ATOM     46  H   UNL A   1      42.976  27.963  27.438  1.00  0.00     0.167 HD
ATOM     47  C   UNL A   1      39.961  29.896  29.999  1.00  0.00     0.034 A 
ATOM     48  C   UNL A   1      45.476  27.720  26.213  1.00  0.00     0.034 A 
ATOM     49  C   UNL A   1      41.092  30.786  29.992  1.00  0.00     0.049 A 
ATOM     50  C   UNL A   1      45.475  29.039  26.941  1.00  0.00     0.074 A 
ATOM     51  C   UNL A   1      41.247  31.984  30.666  1.00  0.00     0.029 A 
ATOM     52  N   UNL A   1      42.266  30.564  29.290  1.00  0.00    -0.354 N 
ATOM     53  N   UNL A   1      44.533  29.570  27.686  1.00  0.00    -0.248 NA
ATOM     54  C   UNL A   1      46.684  29.865  26.820  1.00  0.00     0.031 C 
ATOM     55  C   UNL A   1      42.499  32.510  30.336  1.00  0.00     0.029 A 
ATOM     56  C   UNL A   1      43.146  31.611  29.503  1.00  0.00     0.049 A 
ATOM     57  H   UNL A   1      42.448  29.780  28.723  1.00  0.00     0.167 HD
ATOM     58  C   UNL A   1      45.050  30.777  28.147  1.00  0.00     0.074 A 
ATOM     59  C   UNL A   1      46.387  30.894  27.602  1.00  0.00     0.031 C 
ATOM     60  C   UNL A   1      44.474  31.703  28.951  1.00  0.00     0.034 A 
BRANCH  47  61
ATOM     61  C   UNL A   1      38.770  30.257  30.844  1.00  0.00     0.023 A 
ATOM     62  C   UNL A   1      37.775  31.122  30.359  1.00  0.00     0.031 A 
ATOM     63  C   UNL A   1      38.606  29.711  32.129  1.00  0.00     0.131 A 
ATOM     64  C   UNL A   1      36.676  31.445  31.166  1.00  0.00     0.055 A 
ATOM     65  C   UNL A   1      37.479  29.987  32.904  1.00  0.00     0.041 A 
ATOM     66  F   UNL A   1      39.538  28.894  32.647  1.00  0.00    -0.206 F 
ATOM     67  C   UNL A   1      36.508  30.863  32.424  1.00  0.00     0.022 A 
BRANCH  64  68
ATOM     68  S   UNL A   1      35.498  32.687  30.570  1.00  0.00     0.124 S 
ATOM     69  O   UNL A   1      35.318  32.275  29.180  1.00  0.00    -0.237 OA
ATOM     70  O   UNL A   1      34.352  32.486  31.449  1.00  0.00    -0.237 OA
ATOM     71  O   UNL A   1      36.212  33.949  30.754  1.00  0.00    -0.744 OA
ENDBRANCH  64  68
ENDBRANCH  47  61
BRANCH  48  72
ATOM     72  C   UNL A   1      46.680  27.268  25.463  1.00  0.00     0.023 A 
ATOM     73  C   UNL A   1      46.936  27.752  24.170  1.00  0.00     0.031 A 
ATOM     74  C   UNL A   1      47.571  26.323  26.002  1.00  0.00     0.131 A 
ATOM     75  C   UNL A   1      48.031  27.261  23.442  1.00  0.00     0.055 A 
ATOM     76  C   UNL A   1      48.685  25.873  25.292  1.00  0.00     0.041 A 
ATOM     77  F   UNL A   1      47.375  25.833  27.237  1.00  0.00    -0.206 F 
ATOM     78  C   UNL A   1      48.914  26.334  23.999  1.00  0.00     0.022 A 
BRANCH  75  79
ATOM     79  S   UNL A   1      48.245  27.806  21.725  1.00  0.00     0.124 S 
ATOM     80  O   UNL A   1      48.524  26.545  21.049  1.00  0.00    -0.237 OA
ATOM     81  O   UNL A   1      46.952  28.419  21.438  1.00  0.00    -0.237 OA
ATOM     82  O   UNL A   1      49.369  28.736  21.803  1.00  0.00    -0.744 OA
ENDBRANCH  75  79
ENDBRANCH  48  72
BRANCH  60  83
ATOM     83  C   UNL A   1      45.296  32.908  29.319  1.00  0.00     0.023 A 
ATOM     84  C   UNL A   1      45.244  34.087  28.559  1.00  0.00     0.031 A 
ATOM     85  C   UNL A   1      46.095  32.892  30.476  1.00  0.00     0.131 A 
ATOM     86  C   UNL A   1      46.002  35.199  28.950  1.00  0.00     0.055 A 
ATOM     87  C   UNL A   1      46.809  34.016  30.887  1.00  0.00     0.041 A 
ATOM     88  F   UNL A   1      46.170  31.788  31.237  1.00  0.00    -0.206 F 
ATOM     89  C   UNL A   1      46.769  35.177  30.119  1.00  0.00     0.022 A 
BRANCH  86  90
ATOM     90  S   UNL A   1      45.993  36.670  27.893  1.00  0.00     0.124 S 
ATOM     91  O   UNL A   1      44.610  37.119  28.010  1.00  0.00    -0.237 OA
ATOM     92  O   UNL A   1      46.995  37.522  28.528  1.00  0.00    -0.237 OA
ATOM     93  O   UNL A   1      46.369  36.152  26.579  1.00  0.00    -0.744 OA
ENDBRANCH  86  90
ENDBRANCH  60  83
ENDBRANCH  34  35
ENDBRANCH  26  29
ENDBRANCH   1  25
TORSDOF 14
ENDMDL
MODEL 2
REMARK VINA RESULT:     -12.8      5.089     10.113
REMARK SMILES Cc1c(Cl)cc2c(c1C)O[C@H](C(F)(F)F)C(C(=O)NCCCNC(=O)c1ccc(-c3c4nc(c(-c5cc(S(=O)(=O)[O-])ccc5F)c5ccc([nH]5)c(-c5cc(S(=O)(=O)[O-])ccc5F)c5nc(c(-c6cc(S(=O)(=O)[O-])ccc6F)c6ccc3[nH]6)C=C5)C=C4)cc1)=C2
REMARK SMILES IDX 22 1 21 2 20 3 19 4 17 5 18 6 16 8 1 9 2 10 3 11 8 12 4 13
REMARK SMILES IDX 5 14 7 15 9 16 6 17 10 18 89 19 11 20 12 21 13 22 14 23
REMARK SMILES IDX 15 24 23 25 24 26 25 28 26 29 27 30 88 31 28 32 87 33 29 34
REMARK SMILES IDX 30 35 31 36 81 37 32 38 86 39 80 40 82 41 33 42 85 43 79 44
REMARK SMILES IDX 78 45 34 47 66 48 46 49 65 50 47 51 50 52 64 53 83 54 48 55
REMARK SMILES IDX 49 56 63 58 84 59 51 60 35 61 36 62 44 63 37 64 43 65 45 66
REMARK SMILES IDX 42 67 38 68 39 69 40 70 41 71 67 72 68 73 76 74 69 75 75 76
REMARK SMILES IDX 77 77 74 78 70 79 71 80 72 81 73 82 52 83 53 84 61 85 54 86
REMARK SMILES IDX 60 87 62 88 59 89 55 90 56 91 57 92 58 93
REMARK H PARENT 19 7 23 27 82 46 50 57
REMARK Flexibility Score: inf
ROOT
ATOM      1  C   UNL A   1      33.080  29.179  25.283  1.00  0.00     0.118 C 
ENDROOT
BRANCH   1   2
ATOM      2  C   UNL A   1      32.648  28.885  23.852  1.00  0.00     0.042 C 
BRANCH   2   3
ATOM      3  C   UNL A   1      31.884  27.574  23.743  1.00  0.00     0.118 C 
BRANCH   3   4
ATOM      4  N   UNL A   1      31.301  27.173  25.015  1.00  0.00    -0.352 N 
ATOM      5  C   UNL A   1      31.339  26.092  25.828  1.00  0.00     0.251 C 
ATOM      6  O   UNL A   1      30.681  26.188  26.869  1.00  0.00    -0.270 OA
ATOM      7  H   UNL A   1      30.723  27.880  25.384  1.00  0.00     0.163 HD
BRANCH   5   8
ATOM      8  C   UNL A   1      32.102  24.842  25.550  1.00  0.00     0.067 C 
ATOM      9  C   UNL A   1      36.490  20.025  25.001  1.00  0.00     0.046 C 
ATOM     10  C   UNL A   1      35.708  21.297  25.206  1.00  0.00    -0.026 A 
ATOM     11  C   UNL A   1      36.338  22.515  25.535  1.00  0.00     0.045 A 
ATOM     12  C   UNL A   1      34.301  21.287  25.049  1.00  0.00    -0.004 A 
ATOM     13  Cl  UNL A   1      38.056  22.651  25.702  1.00  0.00    -0.084 Cl
ATOM     14  C   UNL A   1      35.596  23.684  25.744  1.00  0.00     0.032 A 
ATOM     15  C   UNL A   1      33.578  22.473  25.269  1.00  0.00     0.131 A 
ATOM     16  C   UNL A   1      33.525  20.052  24.654  1.00  0.00     0.049 C 
ATOM     17  C   UNL A   1      34.209  23.665  25.620  1.00  0.00     0.019 A 
ATOM     18  O   UNL A   1      32.215  22.387  25.175  1.00  0.00    -0.475 OA
ATOM     19  C   UNL A   1      33.408  24.856  25.880  1.00  0.00     0.025 C 
ATOM     20  C   UNL A   1      31.505  23.621  24.914  1.00  0.00     0.314 C 
BRANCH  20  21
ATOM     21  C   UNL A   1      31.307  23.784  23.394  1.00  0.00     0.429 C 
ATOM     22  F   UNL A   1      30.173  24.482  23.135  1.00  0.00    -0.167 F 
ATOM     23  F   UNL A   1      32.319  24.462  22.804  1.00  0.00    -0.167 F 
ATOM     24  F   UNL A   1      31.206  22.599  22.751  1.00  0.00    -0.167 F 
ENDBRANCH  20  21
ENDBRANCH   5   8
ENDBRANCH   3   4
ENDBRANCH   2   3
ENDBRANCH   1   2
BRANCH   1  25
ATOM     25  N   UNL A   1      32.582  30.475  25.739  1.00  0.00    -0.352 N 
ATOM     26  C   UNL A   1      32.929  31.215  26.842  1.00  0.00     0.251 C 
ATOM     27  H   UNL A   1      31.891  30.880  25.167  1.00  0.00     0.163 HD
ATOM     28  O   UNL A   1      32.188  32.122  27.217  1.00  0.00    -0.269 OA
BRANCH  26  29
ATOM     29  C   UNL A   1      34.177  30.914  27.568  1.00  0.00     0.039 A 
ATOM     30  C   UNL A   1      35.068  31.947  27.865  1.00  0.00     0.014 A 
ATOM     31  C   UNL A   1      34.475  29.600  27.937  1.00  0.00     0.014 A 
ATOM     32  C   UNL A   1      36.224  31.668  28.594  1.00  0.00     0.010 A 
ATOM     33  C   UNL A   1      35.572  29.340  28.746  1.00  0.00     0.010 A 
ATOM     34  C   UNL A   1      36.465  30.369  29.072  1.00  0.00    -0.014 A 
BRANCH  34  35
ATOM     35  C   UNL A   1      37.668  30.049  29.879  1.00  0.00     0.031 A 
ATOM     36  C   UNL A   1      38.766  29.216  29.274  1.00  0.00     0.074 A 
ATOM     37  C   UNL A   1      37.751  30.473  31.156  1.00  0.00     0.049 A 
ATOM     38  N   UNL A   1      39.851  28.750  29.834  1.00  0.00    -0.248 NA
ATOM     39  C   UNL A   1      38.612  28.837  27.858  1.00  0.00     0.031 C 
ATOM     40  C   UNL A   1      36.740  31.276  31.849  1.00  0.00     0.029 A 
ATOM     41  N   UNL A   1      38.736  30.299  32.095  1.00  0.00    -0.354 N 
ATOM     42  C   UNL A   1      40.508  28.033  28.841  1.00  0.00     0.074 A 
ATOM     43  C   UNL A   1      39.664  28.056  27.668  1.00  0.00     0.031 C 
ATOM     44  C   UNL A   1      37.183  31.570  33.082  1.00  0.00     0.029 A 
ATOM     45  C   UNL A   1      38.481  30.936  33.288  1.00  0.00     0.049 A 
ATOM     46  H   UNL A   1      39.548  29.769  31.930  1.00  0.00     0.167 HD
ATOM     47  C   UNL A   1      41.725  27.443  28.891  1.00  0.00     0.034 A 
ATOM     48  C   UNL A   1      39.214  30.999  34.417  1.00  0.00     0.034 A 
ATOM     49  C   UNL A   1      42.570  27.447  30.055  1.00  0.00     0.049 A 
ATOM     50  C   UNL A   1      40.534  30.272  34.465  1.00  0.00     0.074 A 
ATOM     51  C   UNL A   1      43.824  26.883  30.209  1.00  0.00     0.029 A 
ATOM     52  N   UNL A   1      42.255  28.061  31.258  1.00  0.00    -0.354 N 
ATOM     53  N   UNL A   1      41.129  29.581  33.521  1.00  0.00    -0.248 NA
ATOM     54  C   UNL A   1      41.279  30.331  35.729  1.00  0.00     0.031 C 
ATOM     55  C   UNL A   1      44.248  27.117  31.519  1.00  0.00     0.029 A 
ATOM     56  C   UNL A   1      43.285  27.878  32.163  1.00  0.00     0.049 A 
ATOM     57  H   UNL A   1      41.423  28.555  31.440  1.00  0.00     0.167 HD
ATOM     58  C   UNL A   1      42.333  29.150  34.070  1.00  0.00     0.074 A 
ATOM     59  C   UNL A   1      42.383  29.663  35.423  1.00  0.00     0.031 C 
ATOM     60  C   UNL A   1      43.313  28.402  33.505  1.00  0.00     0.034 A 
BRANCH  47  61
ATOM     61  C   UNL A   1      42.224  26.764  27.644  1.00  0.00     0.023 A 
ATOM     62  C   UNL A   1      42.139  25.370  27.497  1.00  0.00     0.031 A 
ATOM     63  C   UNL A   1      42.758  27.513  26.581  1.00  0.00     0.131 A 
ATOM     64  C   UNL A   1      42.612  24.761  26.328  1.00  0.00     0.055 A 
ATOM     65  C   UNL A   1      43.171  26.907  25.394  1.00  0.00     0.041 A 
ATOM     66  F   UNL A   1      42.879  28.847  26.680  1.00  0.00    -0.206 F 
ATOM     67  C   UNL A   1      43.103  25.522  25.265  1.00  0.00     0.022 A 
BRANCH  64  68
ATOM     68  S   UNL A   1      42.634  22.951  26.241  1.00  0.00     0.124 S 
ATOM     69  O   UNL A   1      41.268  22.623  26.641  1.00  0.00    -0.237 OA
ATOM     70  O   UNL A   1      42.966  22.703  24.842  1.00  0.00    -0.237 OA
ATOM     71  O   UNL A   1      43.668  22.576  27.203  1.00  0.00    -0.744 OA
ENDBRANCH  64  68
ENDBRANCH  47  61
BRANCH  48  72
ATOM     72  C   UNL A   1      38.739  31.784  35.589  1.00  0.00     0.023 A 
ATOM     73  C   UNL A   1      38.151  31.137  36.688  1.00  0.00     0.031 A 
ATOM     74  C   UNL A   1      38.826  33.187  35.619  1.00  0.00     0.131 A 
ATOM     75  C   UNL A   1      37.635  31.892  37.752  1.00  0.00     0.055 A 
ATOM     76  C   UNL A   1      38.354  33.931  36.701  1.00  0.00     0.041 A 
ATOM     77  F   UNL A   1      39.385  33.855  34.597  1.00  0.00    -0.206 F 
ATOM     78  C   UNL A   1      37.743  33.284  37.772  1.00  0.00     0.022 A 
BRANCH  75  79
ATOM     79  S   UNL A   1      36.757  31.027  39.083  1.00  0.00     0.124 S 
ATOM     80  O   UNL A   1      36.572  29.703  38.502  1.00  0.00    -0.237 OA
ATOM     81  O   UNL A   1      37.709  31.120  40.185  1.00  0.00    -0.237 OA
ATOM     82  O   UNL A   1      35.537  31.814  39.251  1.00  0.00    -0.744 OA
ENDBRANCH  75  79
ENDBRANCH  48  72
BRANCH  60  83
ATOM     83  C   UNL A   1      44.535  28.119  34.336  1.00  0.00     0.023 A 
ATOM     84  C   UNL A   1      44.624  26.969  35.134  1.00  0.00     0.031 A 
ATOM     85  C   UNL A   1      45.642  28.984  34.279  1.00  0.00     0.131 A 
ATOM     86  C   UNL A   1      45.792  26.725  35.871  1.00  0.00     0.055 A 
ATOM     87  C   UNL A   1      46.818  28.713  34.977  1.00  0.00     0.041 A 
ATOM     88  F   UNL A   1      45.603  30.094  33.524  1.00  0.00    -0.206 F 
ATOM     89  C   UNL A   1      46.895  27.580  35.783  1.00  0.00     0.022 A 
BRANCH  86  90
ATOM     90  S   UNL A   1      45.839  25.287  36.971  1.00  0.00     0.124 S 
ATOM     91  O   UNL A   1      45.432  25.867  38.246  1.00  0.00    -0.237 OA
ATOM     92  O   UNL A   1      44.879  24.380  36.348  1.00  0.00    -0.237 OA
ATOM     93  O   UNL A   1      47.233  24.849  36.904  1.00  0.00    -0.744 OA
ENDBRANCH  86  90
ENDBRANCH  60  83
ENDBRANCH  34  35
ENDBRANCH  26  29
ENDBRANCH   1  25
TORSDOF 14
ENDMDL
MODEL 3
REMARK VINA RESULT:     -12.7      5.710     10.666
REMARK SMILES Cc1c(Cl)cc2c(c1C)O[C@H](C(F)(F)F)C(C(=O)NCCCNC(=O)c1ccc(-c3c4nc(c(-c5cc(S(=O)(=O)[O-])ccc5F)c5ccc([nH]5)c(-c5cc(S(=O)(=O)[O-])ccc5F)c5nc(c(-c6cc(S(=O)(=O)[O-])ccc6F)c6ccc3[nH]6)C=C5)C=C4)cc1)=C2
REMARK SMILES IDX 22 1 21 2 20 3 19 4 17 5 18 6 16 8 1 9 2 10 3 11 8 12 4 13
REMARK SMILES IDX 5 14 7 15 9 16 6 17 10 18 89 19 11 20 12 21 13 22 14 23
REMARK SMILES IDX 15 24 23 25 24 26 25 28 26 29 27 30 88 31 28 32 87 33 29 34
REMARK SMILES IDX 30 35 31 36 81 37 32 38 86 39 80 40 82 41 33 42 85 43 79 44
REMARK SMILES IDX 78 45 34 47 66 48 46 49 65 50 47 51 50 52 64 53 83 54 48 55
REMARK SMILES IDX 49 56 63 58 84 59 51 60 35 61 36 62 44 63 37 64 43 65 45 66
REMARK SMILES IDX 42 67 38 68 39 69 40 70 41 71 67 72 68 73 76 74 69 75 75 76
REMARK SMILES IDX 77 77 74 78 70 79 71 80 72 81 73 82 52 83 53 84 61 85 54 86
REMARK SMILES IDX 60 87 62 88 59 89 55 90 56 91 57 92 58 93
REMARK H PARENT 19 7 23 27 82 46 50 57
REMARK Flexibility Score: inf
ROOT
ATOM      1  C   UNL A   1      32.797  32.755  27.204  1.00  0.00     0.118 C 
ENDROOT
BRANCH   1   2
ATOM      2  C   UNL A   1      31.486  32.099  26.793  1.00  0.00     0.042 C 
BRANCH   2   3
ATOM      3  C   UNL A   1      31.655  30.617  26.495  1.00  0.00     0.118 C 
BRANCH   3   4
ATOM      4  N   UNL A   1      31.415  30.311  25.092  1.00  0.00    -0.352 N 
ATOM      5  C   UNL A   1      31.358  29.205  24.314  1.00  0.00     0.251 C 
ATOM      6  O   UNL A   1      31.092  29.408  23.124  1.00  0.00    -0.270 OA
ATOM      7  H   UNL A   1      31.248  31.128  24.569  1.00  0.00     0.163 HD
BRANCH   5   8
ATOM      8  C   UNL A   1      31.587  27.812  24.791  1.00  0.00     0.067 C 
ATOM      9  C   UNL A   1      33.936  22.106  26.952  1.00  0.00     0.046 C 
ATOM     10  C   UNL A   1      33.675  23.485  26.405  1.00  0.00    -0.026 A 
ATOM     11  C   UNL A   1      34.712  24.295  25.897  1.00  0.00     0.045 A 
ATOM     12  C   UNL A   1      32.352  23.988  26.377  1.00  0.00    -0.004 A 
ATOM     13  Cl  UNL A   1      36.357  23.760  25.836  1.00  0.00    -0.084 Cl
ATOM     14  C   UNL A   1      34.456  25.583  25.412  1.00  0.00     0.032 A 
ATOM     15  C   UNL A   1      32.122  25.287  25.890  1.00  0.00     0.131 A 
ATOM     16  C   UNL A   1      31.159  23.193  26.852  1.00  0.00     0.049 C 
ATOM     17  C   UNL A   1      33.159  26.089  25.414  1.00  0.00     0.019 A 
ATOM     18  O   UNL A   1      30.835  25.748  25.955  1.00  0.00    -0.475 OA
ATOM     19  C   UNL A   1      32.871  27.445  24.960  1.00  0.00     0.025 C 
ATOM     20  C   UNL A   1      30.486  26.826  25.053  1.00  0.00     0.314 C 
BRANCH  20  21
ATOM     21  C   UNL A   1      29.900  26.237  23.756  1.00  0.00     0.429 C 
ATOM     22  F   UNL A   1      28.740  26.862  23.433  1.00  0.00    -0.167 F 
ATOM     23  F   UNL A   1      30.726  26.384  22.693  1.00  0.00    -0.167 F 
ATOM     24  F   UNL A   1      29.630  24.916  23.858  1.00  0.00    -0.167 F 
ENDBRANCH  20  21
ENDBRANCH   5   8
ENDBRANCH   3   4
ENDBRANCH   2   3
ENDBRANCH   1   2
BRANCH   1  25
ATOM     25  N   UNL A   1      32.601  34.147  27.604  1.00  0.00    -0.352 N 
ATOM     26  C   UNL A   1      33.095  34.832  28.685  1.00  0.00     0.251 C 
ATOM     27  H   UNL A   1      32.025  34.674  27.005  1.00  0.00     0.163 HD
ATOM     28  O   UNL A   1      32.575  35.897  29.014  1.00  0.00    -0.269 OA
BRANCH  26  29
ATOM     29  C   UNL A   1      34.237  34.287  29.445  1.00  0.00     0.039 A 
ATOM     30  C   UNL A   1      34.003  33.555  30.611  1.00  0.00     0.014 A 
ATOM     31  C   UNL A   1      35.544  34.520  29.009  1.00  0.00     0.014 A 
ATOM     32  C   UNL A   1      35.082  33.000  31.300  1.00  0.00     0.010 A 
ATOM     33  C   UNL A   1      36.606  33.886  29.638  1.00  0.00     0.010 A 
ATOM     34  C   UNL A   1      36.387  33.129  30.797  1.00  0.00    -0.014 A 
BRANCH  34  35
ATOM     35  C   UNL A   1      37.550  32.521  31.489  1.00  0.00     0.031 A 
ATOM     36  C   UNL A   1      38.257  31.351  30.860  1.00  0.00     0.074 A 
ATOM     37  C   UNL A   1      37.939  32.995  32.688  1.00  0.00     0.049 A 
ATOM     38  N   UNL A   1      39.229  30.621  31.338  1.00  0.00    -0.248 NA
ATOM     39  C   UNL A   1      37.792  30.930  29.525  1.00  0.00     0.031 C 
ATOM     40  C   UNL A   1      37.320  34.117  33.398  1.00  0.00     0.029 A 
ATOM     41  N   UNL A   1      38.959  32.601  33.519  1.00  0.00    -0.354 N 
ATOM     42  C   UNL A   1      39.496  29.664  30.365  1.00  0.00     0.074 A 
ATOM     43  C   UNL A   1      38.533  29.854  29.304  1.00  0.00     0.031 C 
ATOM     44  C   UNL A   1      38.005  34.355  34.528  1.00  0.00     0.029 A 
ATOM     45  C   UNL A   1      39.079  33.373  34.651  1.00  0.00     0.049 A 
ATOM     46  H   UNL A   1      39.548  31.838  33.323  1.00  0.00     0.167 HD
ATOM     47  C   UNL A   1      40.482  28.738  30.339  1.00  0.00     0.034 A 
ATOM     48  C   UNL A   1      39.956  33.296  35.671  1.00  0.00     0.034 A 
ATOM     49  C   UNL A   1      41.454  28.573  31.387  1.00  0.00     0.049 A 
ATOM     50  C   UNL A   1      41.000  32.209  35.647  1.00  0.00     0.074 A 
ATOM     51  C   UNL A   1      42.498  27.669  31.457  1.00  0.00     0.029 A 
ATOM     52  N   UNL A   1      41.512  29.344  32.538  1.00  0.00    -0.354 N 
ATOM     53  N   UNL A   1      41.222  31.300  34.727  1.00  0.00    -0.248 NA
ATOM     54  C   UNL A   1      41.908  32.134  36.799  1.00  0.00     0.031 C 
ATOM     55  C   UNL A   1      43.160  27.861  32.671  1.00  0.00     0.029 A 
ATOM     56  C   UNL A   1      42.566  28.925  33.331  1.00  0.00     0.049 A 
ATOM     57  H   UNL A   1      40.896  30.079  32.759  1.00  0.00     0.167 HD
ATOM     58  C   UNL A   1      42.316  30.567  35.176  1.00  0.00     0.074 A 
ATOM     59  C   UNL A   1      42.711  31.141  36.446  1.00  0.00     0.031 C 
ATOM     60  C   UNL A   1      42.941  29.515  34.591  1.00  0.00     0.034 A 
BRANCH  47  61
ATOM     61  C   UNL A   1      40.573  27.848  29.130  1.00  0.00     0.023 A 
ATOM     62  C   UNL A   1      41.499  28.111  28.107  1.00  0.00     0.031 A 
ATOM     63  C   UNL A   1      39.756  26.711  29.009  1.00  0.00     0.131 A 
ATOM     64  C   UNL A   1      41.563  27.269  26.989  1.00  0.00     0.055 A 
ATOM     65  C   UNL A   1      39.868  25.841  27.924  1.00  0.00     0.041 A 
ATOM     66  F   UNL A   1      38.841  26.425  29.950  1.00  0.00    -0.206 F 
ATOM     67  C   UNL A   1      40.773  26.121  26.903  1.00  0.00     0.022 A 
BRANCH  64  68
ATOM     68  S   UNL A   1      42.655  27.730  25.617  1.00  0.00     0.124 S 
ATOM     69  O   UNL A   1      42.634  26.515  24.807  1.00  0.00    -0.237 OA
ATOM     70  O   UNL A   1      41.978  28.890  25.047  1.00  0.00    -0.237 OA
ATOM     71  O   UNL A   1      43.928  28.014  26.276  1.00  0.00    -0.744 OA
ENDBRANCH  64  68
ENDBRANCH  47  61
BRANCH  48  72
ATOM     72  C   UNL A   1      39.908  34.275  36.792  1.00  0.00     0.023 A 
ATOM     73  C   UNL A   1      39.391  33.900  38.042  1.00  0.00     0.031 A 
ATOM     74  C   UNL A   1      40.336  35.604  36.627  1.00  0.00     0.131 A 
ATOM     75  C   UNL A   1      39.276  34.851  39.068  1.00  0.00     0.055 A 
ATOM     76  C   UNL A   1      40.264  36.535  37.665  1.00  0.00     0.041 A 
ATOM     77  F   UNL A   1      40.844  36.013  35.454  1.00  0.00    -0.206 F 
ATOM     78  C   UNL A   1      39.721  36.163  38.891  1.00  0.00     0.022 A 
BRANCH  75  79
ATOM     79  S   UNL A   1      38.473  34.362  40.619  1.00  0.00     0.124 S 
ATOM     80  O   UNL A   1      37.374  33.537  40.134  1.00  0.00    -0.237 OA
ATOM     81  O   UNL A   1      39.549  33.660  41.309  1.00  0.00    -0.237 OA
ATOM     82  O   UNL A   1      38.082  35.638  41.214  1.00  0.00    -0.744 OA
ENDBRANCH  75  79
ENDBRANCH  48  72
BRANCH  60  83
ATOM     83  C   UNL A   1      44.137  28.939  35.299  1.00  0.00     0.023 A 
ATOM     84  C   UNL A   1      43.998  27.922  36.255  1.00  0.00     0.031 A 
ATOM     85  C   UNL A   1      45.432  29.375  34.967  1.00  0.00     0.131 A 
ATOM     86  C   UNL A   1      45.139  27.389  36.871  1.00  0.00     0.055 A 
ATOM     87  C   UNL A   1      46.566  28.809  35.549  1.00  0.00     0.041 A 
ATOM     88  F   UNL A   1      45.613  30.343  34.053  1.00  0.00    -0.206 F 
ATOM     89  C   UNL A   1      46.422  27.813  36.511  1.00  0.00     0.022 A 
BRANCH  86  90
ATOM     90  S   UNL A   1      44.922  26.149  38.175  1.00  0.00     0.124 S 
ATOM     91  O   UNL A   1      46.070  26.411  39.036  1.00  0.00    -0.237 OA
ATOM     92  O   UNL A   1      43.617  26.498  38.730  1.00  0.00    -0.237 OA
ATOM     93  O   UNL A   1      44.964  24.879  37.452  1.00  0.00    -0.744 OA
ENDBRANCH  86  90
ENDBRANCH  60  83
ENDBRANCH  34  35
ENDBRANCH  26  29
ENDBRANCH   1  25
TORSDOF 14
ENDMDL
