MODEL 1
REMARK VINA RESULT:     -10.9      0.000      0.000
REMARK SMILES CCOc1ccccc1N1C(=O)/C(=C\c2ccc(OCC(=O)NCCCNC(=O)c3ccc(-c4c5nc(c(-c6cc(S(=O)(=O)[O-])ccc6F)c6ccc([nH]6)c(-c6cc(S(=O)(=O)[O-])ccc6F)c6nc(c(-c7cc(S(=O)(=O)[O-])ccc7F)c7ccc4[nH]7)C=C6)C=C5)cc3)cc2)SC1=S
REMARK SMILES IDX 21 1 22 2 23 3 20 5 19 6 18 7 15 8 16 9 94 10 17 11 93 12
REMARK SMILES IDX 14 13 10 14 11 15 96 16 12 17 13 18 95 19 97 20 9 21 4 22
REMARK SMILES IDX 5 23 6 24 8 25 7 26 3 27 2 28 1 29 24 30 25 31 26 32 27 33
REMARK SMILES IDX 28 34 29 36 30 37 31 38 92 39 32 40 91 41 33 42 34 43 35 44
REMARK SMILES IDX 85 45 36 46 90 47 84 48 86 49 37 50 89 51 83 52 82 53 38 55
REMARK SMILES IDX 70 56 50 57 69 58 51 59 54 60 68 61 87 62 52 63 53 64 67 66
REMARK SMILES IDX 88 67 55 68 39 69 40 70 48 71 41 72 47 73 49 74 46 75 42 76
REMARK SMILES IDX 43 77 44 78 45 79 71 80 72 81 80 82 73 83 79 84 81 85 78 86
REMARK SMILES IDX 74 87 75 88 76 89 77 90 56 91 57 92 65 93 58 94 64 95 66 96
REMARK SMILES IDX 63 97 59 98 60 99 61 100 62 101
REMARK H PARENT 23 4 27 35 86 54 54 65
REMARK Flexibility Score: inf
ROOT
ATOM      1  C   UNL A   1      39.870  22.739  27.081  1.00  0.00     0.257 C 
ATOM      2  O   UNL A   1      39.695  23.815  27.658  1.00  0.00    -0.271 OA
ATOM      3  N   UNL A   1      40.651  21.791  27.680  1.00  0.00    -0.353 N 
ATOM      4  H   UNL A   1      41.070  22.059  28.529  1.00  0.00     0.163 HD
ENDROOT
BRANCH   1   5
ATOM      5  C   UNL A   1      39.173  22.429  25.749  1.00  0.00     0.329 C 
BRANCH   5   6
ATOM      6  O   UNL A   1      38.057  21.556  25.779  1.00  0.00    -0.484 OA
BRANCH   6   7
ATOM      7  C   UNL A   1      36.888  21.993  25.218  1.00  0.00     0.120 A 
ATOM      8  C   UNL A   1      34.331  22.640  24.253  1.00  0.00    -0.024 A 
ATOM      9  C   UNL A   1      34.486  22.143  25.548  1.00  0.00     0.012 A 
ATOM     10  C   UNL A   1      35.468  22.876  23.470  1.00  0.00     0.012 A 
ATOM     11  C   UNL A   1      35.760  21.827  26.025  1.00  0.00     0.047 A 
ATOM     12  C   UNL A   1      36.742  22.550  23.950  1.00  0.00     0.047 A 
BRANCH   8  13
ATOM     13  C   UNL A   1      32.988  22.860  23.714  1.00  0.00     0.029 C 
ATOM     14  N   UNL A   1      31.687  26.141  24.621  1.00  0.00    -0.257 N 
ATOM     15  C   UNL A   1      32.769  25.280  24.459  1.00  0.00     0.270 C 
ATOM     16  C   UNL A   1      30.503  25.786  23.996  1.00  0.00     0.153 C 
ATOM     17  O   UNL A   1      33.916  25.477  24.823  1.00  0.00    -0.268 OA
ATOM     18  C   UNL A   1      32.309  24.014  23.809  1.00  0.00     0.081 C 
ATOM     19  S   UNL A   1      30.685  24.190  23.261  1.00  0.00    -0.054 SA
ATOM     20  S   UNL A   1      29.092  26.663  23.799  1.00  0.00    -0.051 S 
BRANCH  14  21
ATOM     21  C   UNL A   1      31.843  27.270  25.473  1.00  0.00     0.093 A 
ATOM     22  C   UNL A   1      32.080  28.549  24.941  1.00  0.00     0.143 A 
ATOM     23  C   UNL A   1      32.172  29.664  25.777  1.00  0.00     0.049 A 
ATOM     24  C   UNL A   1      31.985  29.516  27.152  1.00  0.00     0.004 A 
ATOM     25  C   UNL A   1      31.631  27.143  26.853  1.00  0.00     0.031 A 
ATOM     26  C   UNL A   1      31.711  28.259  27.688  1.00  0.00     0.002 A 
BRANCH  22  27
ATOM     27  O   UNL A   1      32.235  28.716  23.590  1.00  0.00    -0.492 OA
BRANCH  27  28
ATOM     28  C   UNL A   1      33.581  29.025  23.219  1.00  0.00     0.226 C 
ATOM     29  C   UNL A   1      33.995  28.092  22.092  1.00  0.00     0.049 C 
ENDBRANCH  27  28
ENDBRANCH  22  27
ENDBRANCH  14  21
ENDBRANCH   8  13
ENDBRANCH   6   7
ENDBRANCH   5   6
ENDBRANCH   1   5
BRANCH   3  30
ATOM     30  C   UNL A   1      40.943  20.443  27.230  1.00  0.00     0.117 C 
BRANCH  30  31
ATOM     31  C   UNL A   1      42.419  20.228  26.908  1.00  0.00     0.042 C 
BRANCH  31  32
ATOM     32  C   UNL A   1      42.964  21.081  25.764  1.00  0.00     0.118 C 
BRANCH  32  33
ATOM     33  N   UNL A   1      44.357  20.796  25.450  1.00  0.00    -0.352 N 
ATOM     34  C   UNL A   1      45.468  21.604  25.476  1.00  0.00     0.251 C 
ATOM     35  H   UNL A   1      44.532  19.867  25.173  1.00  0.00     0.163 HD
ATOM     36  O   UNL A   1      46.523  21.163  25.022  1.00  0.00    -0.269 OA
BRANCH  34  37
ATOM     37  C   UNL A   1      45.414  22.986  26.007  1.00  0.00     0.039 A 
ATOM     38  C   UNL A   1      45.116  24.028  25.122  1.00  0.00     0.014 A 
ATOM     39  C   UNL A   1      45.698  23.281  27.344  1.00  0.00     0.014 A 
ATOM     40  C   UNL A   1      45.038  25.346  25.587  1.00  0.00     0.010 A 
ATOM     41  C   UNL A   1      45.552  24.586  27.820  1.00  0.00     0.010 A 
ATOM     42  C   UNL A   1      45.220  25.633  26.949  1.00  0.00    -0.014 A 
BRANCH  42  43
ATOM     43  C   UNL A   1      45.064  27.021  27.466  1.00  0.00     0.031 A 
ATOM     44  C   UNL A   1      46.248  27.950  27.524  1.00  0.00     0.074 A 
ATOM     45  C   UNL A   1      43.864  27.432  27.925  1.00  0.00     0.049 A 
ATOM     46  N   UNL A   1      46.324  29.167  28.003  1.00  0.00    -0.248 NA
ATOM     47  C   UNL A   1      47.519  27.435  26.993  1.00  0.00     0.031 C 
ATOM     48  C   UNL A   1      42.648  26.615  27.959  1.00  0.00     0.029 A 
ATOM     49  N   UNL A   1      43.467  28.634  28.458  1.00  0.00    -0.354 N 
ATOM     50  C   UNL A   1      47.648  29.561  27.836  1.00  0.00     0.074 A 
ATOM     51  C   UNL A   1      48.350  28.429  27.268  1.00  0.00     0.031 C 
ATOM     52  C   UNL A   1      41.641  27.345  28.467  1.00  0.00     0.029 A 
ATOM     53  C   UNL A   1      42.143  28.665  28.832  1.00  0.00     0.049 A 
ATOM     54  H   UNL A   1      44.074  29.403  28.561  1.00  0.00     0.167 HD
ATOM     55  C   UNL A   1      48.219  30.762  28.106  1.00  0.00     0.034 A 
ATOM     56  C   UNL A   1      41.417  29.640  29.414  1.00  0.00     0.034 A 
ATOM     57  C   UNL A   1      47.510  31.886  28.669  1.00  0.00     0.049 A 
ATOM     58  C   UNL A   1      42.078  30.965  29.708  1.00  0.00     0.074 A 
ATOM     59  C   UNL A   1      47.994  33.147  28.977  1.00  0.00     0.029 A 
ATOM     60  N   UNL A   1      46.162  31.890  29.002  1.00  0.00    -0.354 N 
ATOM     61  N   UNL A   1      43.327  31.326  29.519  1.00  0.00    -0.248 NA
ATOM     62  C   UNL A   1      41.227  32.020  30.272  1.00  0.00     0.031 C 
ATOM     63  C   UNL A   1      46.953  33.894  29.539  1.00  0.00     0.029 A 
ATOM     64  C   UNL A   1      45.801  33.126  29.518  1.00  0.00     0.049 A 
ATOM     65  H   UNL A   1      45.551  31.126  28.890  1.00  0.00     0.167 HD
ATOM     66  C   UNL A   1      43.397  32.662  29.905  1.00  0.00     0.074 A 
ATOM     67  C   UNL A   1      42.062  33.046  30.315  1.00  0.00     0.031 C 
ATOM     68  C   UNL A   1      44.465  33.499  29.920  1.00  0.00     0.034 A 
BRANCH  55  69
ATOM     69  C   UNL A   1      49.692  30.911  27.805  1.00  0.00     0.023 A 
ATOM     70  C   UNL A   1      50.140  31.561  26.641  1.00  0.00     0.031 A 
ATOM     71  C   UNL A   1      50.661  30.393  28.683  1.00  0.00     0.131 A 
ATOM     72  C   UNL A   1      51.511  31.618  26.353  1.00  0.00     0.055 A 
ATOM     73  C   UNL A   1      52.028  30.522  28.428  1.00  0.00     0.041 A 
ATOM     74  F   UNL A   1      50.294  29.746  29.800  1.00  0.00    -0.206 F 
ATOM     75  C   UNL A   1      52.461  31.127  27.252  1.00  0.00     0.022 A 
BRANCH  72  76
ATOM     76  S   UNL A   1      52.031  32.238  24.731  1.00  0.00     0.124 S 
ATOM     77  O   UNL A   1      53.464  32.439  24.939  1.00  0.00    -0.237 OA
ATOM     78  O   UNL A   1      51.662  31.145  23.840  1.00  0.00    -0.237 OA
ATOM     79  O   UNL A   1      51.255  33.465  24.567  1.00  0.00    -0.744 OA
ENDBRANCH  72  76
ENDBRANCH  55  69
BRANCH  56  80
ATOM     80  C   UNL A   1      39.986  29.415  29.772  1.00  0.00     0.023 A 
ATOM     81  C   UNL A   1      38.952  29.835  28.920  1.00  0.00     0.031 A 
ATOM     82  C   UNL A   1      39.630  28.845  31.007  1.00  0.00     0.131 A 
ATOM     83  C   UNL A   1      37.616  29.741  29.340  1.00  0.00     0.055 A 
ATOM     84  C   UNL A   1      38.297  28.697  31.395  1.00  0.00     0.041 A 
ATOM     85  F   UNL A   1      40.578  28.420  31.857  1.00  0.00    -0.206 F 
ATOM     86  C   UNL A   1      37.281  29.164  30.568  1.00  0.00     0.022 A 
BRANCH  83  87
ATOM     87  S   UNL A   1      36.327  30.496  28.311  1.00  0.00     0.124 S 
ATOM     88  O   UNL A   1      36.611  31.918  28.474  1.00  0.00    -0.237 OA
ATOM     89  O   UNL A   1      36.620  29.930  26.999  1.00  0.00    -0.237 OA
ATOM     90  O   UNL A   1      35.085  30.032  28.926  1.00  0.00    -0.744 OA
ENDBRANCH  83  87
ENDBRANCH  56  80
BRANCH  68  91
ATOM     91  C   UNL A   1      44.210  34.927  30.334  1.00  0.00     0.023 A 
ATOM     92  C   UNL A   1      43.810  35.910  29.410  1.00  0.00     0.031 A 
ATOM     93  C   UNL A   1      44.411  35.320  31.669  1.00  0.00     0.131 A 
ATOM     94  C   UNL A   1      43.699  37.248  29.817  1.00  0.00     0.055 A 
ATOM     95  C   UNL A   1      44.236  36.642  32.082  1.00  0.00     0.041 A 
ATOM     96  F   UNL A   1      44.793  34.425  32.595  1.00  0.00    -0.206 F 
ATOM     97  C   UNL A   1      43.896  37.618  31.150  1.00  0.00     0.022 A 
BRANCH  94  98
ATOM     98  S   UNL A   1      43.411  38.520  28.556  1.00  0.00     0.124 S 
ATOM     99  O   UNL A   1      44.607  38.403  27.727  1.00  0.00    -0.237 OA
ATOM    100  O   UNL A   1      42.165  38.073  27.943  1.00  0.00    -0.237 OA
ATOM    101  O   UNL A   1      43.313  39.756  29.330  1.00  0.00    -0.744 OA
ENDBRANCH  94  98
ENDBRANCH  68  91
ENDBRANCH  42  43
ENDBRANCH  34  37
ENDBRANCH  32  33
ENDBRANCH  31  32
ENDBRANCH  30  31
ENDBRANCH   3  30
TORSDOF 19
ENDMDL
MODEL 2
REMARK VINA RESULT:     -10.6      3.542      8.579
REMARK SMILES CCOc1ccccc1N1C(=O)/C(=C\c2ccc(OCC(=O)NCCCNC(=O)c3ccc(-c4c5nc(c(-c6cc(S(=O)(=O)[O-])ccc6F)c6ccc([nH]6)c(-c6cc(S(=O)(=O)[O-])ccc6F)c6nc(c(-c7cc(S(=O)(=O)[O-])ccc7F)c7ccc4[nH]7)C=C6)C=C5)cc3)cc2)SC1=S
REMARK SMILES IDX 21 1 22 2 23 3 20 5 19 6 18 7 15 8 16 9 94 10 17 11 93 12
REMARK SMILES IDX 14 13 10 14 11 15 96 16 12 17 13 18 95 19 97 20 9 21 4 22
REMARK SMILES IDX 5 23 6 24 8 25 7 26 3 27 2 28 1 29 24 30 25 31 26 32 27 33
REMARK SMILES IDX 28 34 29 36 30 37 31 38 92 39 32 40 91 41 33 42 34 43 35 44
REMARK SMILES IDX 85 45 36 46 90 47 84 48 86 49 37 50 89 51 83 52 82 53 38 55
REMARK SMILES IDX 70 56 50 57 69 58 51 59 54 60 68 61 87 62 52 63 53 64 67 66
REMARK SMILES IDX 88 67 55 68 39 69 40 70 48 71 41 72 47 73 49 74 46 75 42 76
REMARK SMILES IDX 43 77 44 78 45 79 71 80 72 81 80 82 73 83 79 84 81 85 78 86
REMARK SMILES IDX 74 87 75 88 76 89 77 90 56 91 57 92 65 93 58 94 64 95 66 96
REMARK SMILES IDX 63 97 59 98 60 99 61 100 62 101
REMARK H PARENT 23 4 27 35 86 54 54 65
REMARK Flexibility Score: inf
ROOT
ATOM      1  C   UNL A   1      33.648  32.681  28.110  1.00  0.00     0.257 C 
ATOM      2  O   UNL A   1      32.712  33.319  27.622  1.00  0.00    -0.271 OA
ATOM      3  N   UNL A   1      34.152  33.071  29.318  1.00  0.00    -0.353 N 
ATOM      4  H   UNL A   1      33.755  33.886  29.702  1.00  0.00     0.163 HD
ENDROOT
BRANCH   1   5
ATOM      5  C   UNL A   1      34.199  31.426  27.418  1.00  0.00     0.329 C 
BRANCH   5   6
ATOM      6  O   UNL A   1      33.747  30.167  27.882  1.00  0.00    -0.484 OA
BRANCH   6   7
ATOM      7  C   UNL A   1      33.049  29.377  27.011  1.00  0.00     0.120 A 
ATOM      8  C   UNL A   1      31.609  27.516  25.476  1.00  0.00    -0.024 A 
ATOM      9  C   UNL A   1      31.434  27.568  26.860  1.00  0.00     0.012 A 
ATOM     10  C   UNL A   1      32.456  28.445  24.859  1.00  0.00     0.012 A 
ATOM     11  C   UNL A   1      32.148  28.498  27.619  1.00  0.00     0.047 A 
ATOM     12  C   UNL A   1      33.175  29.370  25.624  1.00  0.00     0.047 A 
BRANCH   8  13
ATOM     13  C   UNL A   1      30.949  26.466  24.699  1.00  0.00     0.029 C 
ATOM     14  N   UNL A   1      33.111  23.572  24.222  1.00  0.00    -0.257 N 
ATOM     15  C   UNL A   1      32.797  24.735  24.919  1.00  0.00     0.270 C 
ATOM     16  C   UNL A   1      32.113  23.021  23.437  1.00  0.00     0.153 C 
ATOM     17  O   UNL A   1      33.492  25.296  25.750  1.00  0.00    -0.268 OA
ATOM     18  C   UNL A   1      31.473  25.255  24.456  1.00  0.00     0.081 C 
ATOM     19  S   UNL A   1      30.708  24.093  23.439  1.00  0.00    -0.054 SA
ATOM     20  S   UNL A   1      32.063  21.547  22.646  1.00  0.00    -0.051 S 
BRANCH  14  21
ATOM     21  C   UNL A   1      34.444  23.079  24.297  1.00  0.00     0.093 A 
ATOM     22  C   UNL A   1      34.774  22.018  25.157  1.00  0.00     0.143 A 
ATOM     23  C   UNL A   1      36.070  21.496  25.182  1.00  0.00     0.049 A 
ATOM     24  C   UNL A   1      37.038  22.004  24.315  1.00  0.00     0.004 A 
ATOM     25  C   UNL A   1      35.420  23.559  23.413  1.00  0.00     0.031 A 
ATOM     26  C   UNL A   1      36.713  23.030  23.429  1.00  0.00     0.002 A 
BRANCH  22  27
ATOM     27  O   UNL A   1      33.828  21.487  25.993  1.00  0.00    -0.492 OA
BRANCH  27  28
ATOM     28  C   UNL A   1      34.113  21.718  27.375  1.00  0.00     0.226 C 
ATOM     29  C   UNL A   1      32.971  22.522  27.974  1.00  0.00     0.049 C 
ENDBRANCH  27  28
ENDBRANCH  22  27
ENDBRANCH  14  21
ENDBRANCH   8  13
ENDBRANCH   6   7
ENDBRANCH   5   6
ENDBRANCH   1   5
BRANCH   3  30
ATOM     30  C   UNL A   1      35.194  32.444  30.110  1.00  0.00     0.117 C 
BRANCH  30  31
ATOM     31  C   UNL A   1      34.817  32.294  31.580  1.00  0.00     0.042 C 
BRANCH  31  32
ATOM     32  C   UNL A   1      35.993  32.084  32.533  1.00  0.00     0.118 C 
BRANCH  32  33
ATOM     33  N   UNL A   1      36.300  30.680  32.764  1.00  0.00    -0.352 N 
ATOM     34  C   UNL A   1      37.393  29.927  32.409  1.00  0.00     0.251 C 
ATOM     35  H   UNL A   1      35.606  30.186  33.260  1.00  0.00     0.163 HD
ATOM     36  O   UNL A   1      37.354  28.712  32.594  1.00  0.00    -0.269 OA
BRANCH  34  37
ATOM     37  C   UNL A   1      38.593  30.540  31.790  1.00  0.00     0.039 A 
ATOM     38  C   UNL A   1      39.565  31.096  32.629  1.00  0.00     0.014 A 
ATOM     39  C   UNL A   1      38.754  30.622  30.404  1.00  0.00     0.014 A 
ATOM     40  C   UNL A   1      40.719  31.669  32.085  1.00  0.00     0.010 A 
ATOM     41  C   UNL A   1      39.937  31.131  29.864  1.00  0.00     0.010 A 
ATOM     42  C   UNL A   1      40.934  31.659  30.698  1.00  0.00    -0.014 A 
BRANCH  42  43
ATOM     43  C   UNL A   1      42.195  32.198  30.114  1.00  0.00     0.031 A 
ATOM     44  C   UNL A   1      43.397  31.308  29.945  1.00  0.00     0.074 A 
ATOM     45  C   UNL A   1      42.271  33.502  29.778  1.00  0.00     0.049 A 
ATOM     46  N   UNL A   1      44.599  31.610  29.521  1.00  0.00    -0.248 NA
ATOM     47  C   UNL A   1      43.233  29.896  30.322  1.00  0.00     0.031 C 
ATOM     48  C   UNL A   1      41.189  34.478  29.929  1.00  0.00     0.029 A 
ATOM     49  N   UNL A   1      43.303  34.236  29.247  1.00  0.00    -0.354 N 
ATOM     50  C   UNL A   1      45.335  30.430  29.584  1.00  0.00     0.074 A 
ATOM     51  C   UNL A   1      44.458  29.423  30.145  1.00  0.00     0.031 C 
ATOM     52  C   UNL A   1      41.608  35.674  29.485  1.00  0.00     0.029 A 
ATOM     53  C   UNL A   1      42.998  35.564  29.055  1.00  0.00     0.049 A 
ATOM     54  H   UNL A   1      44.179  33.847  29.023  1.00  0.00     0.167 HD
ATOM     55  C   UNL A   1      46.612  30.201  29.187  1.00  0.00     0.034 A 
ATOM     56  C   UNL A   1      43.754  36.582  28.596  1.00  0.00     0.034 A 
ATOM     57  C   UNL A   1      47.477  31.209  28.624  1.00  0.00     0.049 A 
ATOM     58  C   UNL A   1      45.173  36.300  28.166  1.00  0.00     0.074 A 
ATOM     59  C   UNL A   1      48.785  31.081  28.186  1.00  0.00     0.029 A 
ATOM     60  N   UNL A   1      47.120  32.535  28.414  1.00  0.00    -0.354 N 
ATOM     61  N   UNL A   1      45.841  35.171  28.210  1.00  0.00    -0.248 NA
ATOM     62  C   UNL A   1      45.929  37.425  27.602  1.00  0.00     0.031 C 
ATOM     63  C   UNL A   1      49.233  32.335  27.758  1.00  0.00     0.029 A 
ATOM     64  C   UNL A   1      48.184  33.233  27.860  1.00  0.00     0.049 A 
ATOM     65  H   UNL A   1      46.241  32.923  28.627  1.00  0.00     0.167 HD
ATOM     66  C   UNL A   1      47.083  35.444  27.643  1.00  0.00     0.074 A 
ATOM     67  C   UNL A   1      47.061  36.837  27.246  1.00  0.00     0.031 C 
ATOM     68  C   UNL A   1      48.148  34.622  27.464  1.00  0.00     0.034 A 
BRANCH  55  69
ATOM     69  C   UNL A   1      47.150  28.800  29.362  1.00  0.00     0.023 A 
ATOM     70  C   UNL A   1      47.057  27.845  28.335  1.00  0.00     0.031 A 
ATOM     71  C   UNL A   1      47.755  28.409  30.570  1.00  0.00     0.131 A 
ATOM     72  C   UNL A   1      47.499  26.532  28.554  1.00  0.00     0.055 A 
ATOM     73  C   UNL A   1      48.264  27.121  30.755  1.00  0.00     0.041 A 
ATOM     74  F   UNL A   1      47.856  29.271  31.594  1.00  0.00    -0.206 F 
ATOM     75  C   UNL A   1      48.127  26.171  29.748  1.00  0.00     0.022 A 
BRANCH  72  76
ATOM     76  S   UNL A   1      47.135  25.274  27.301  1.00  0.00     0.124 S 
ATOM     77  O   UNL A   1      45.847  24.763  27.764  1.00  0.00    -0.237 OA
ATOM     78  O   UNL A   1      47.109  26.051  26.068  1.00  0.00    -0.237 OA
ATOM     79  O   UNL A   1      48.249  24.335  27.423  1.00  0.00    -0.744 OA
ENDBRANCH  72  76
ENDBRANCH  55  69
BRANCH  56  80
ATOM     80  C   UNL A   1      43.203  37.967  28.522  1.00  0.00     0.023 A 
ATOM     81  C   UNL A   1      43.422  38.890  29.557  1.00  0.00     0.031 A 
ATOM     82  C   UNL A   1      42.388  38.364  27.448  1.00  0.00     0.131 A 
ATOM     83  C   UNL A   1      42.778  40.137  29.532  1.00  0.00     0.055 A 
ATOM     84  C   UNL A   1      41.799  39.630  27.397  1.00  0.00     0.041 A 
ATOM     85  F   UNL A   1      42.151  37.525  26.428  1.00  0.00    -0.206 F 
ATOM     86  C   UNL A   1      41.977  40.517  28.452  1.00  0.00     0.022 A 
BRANCH  83  87
ATOM     87  S   UNL A   1      42.905  41.209  30.990  1.00  0.00     0.124 S 
ATOM     88  O   UNL A   1      43.347  42.466  30.398  1.00  0.00    -0.237 OA
ATOM     89  O   UNL A   1      41.538  41.184  31.500  1.00  0.00    -0.237 OA
ATOM     90  O   UNL A   1      43.893  40.530  31.825  1.00  0.00    -0.744 OA
ENDBRANCH  83  87
ENDBRANCH  56  80
BRANCH  68  91
ATOM     91  C   UNL A   1      49.347  35.198  26.752  1.00  0.00     0.023 A 
ATOM     92  C   UNL A   1      50.451  35.716  27.453  1.00  0.00     0.031 A 
ATOM     93  C   UNL A   1      49.365  35.269  25.347  1.00  0.00     0.131 A 
ATOM     94  C   UNL A   1      51.490  36.348  26.753  1.00  0.00     0.055 A 
ATOM     95  C   UNL A   1      50.432  35.841  24.653  1.00  0.00     0.041 A 
ATOM     96  F   UNL A   1      48.339  34.791  24.626  1.00  0.00    -0.206 F 
ATOM     97  C   UNL A   1      51.494  36.402  25.357  1.00  0.00     0.022 A 
BRANCH  94  98
ATOM     98  S   UNL A   1      52.779  37.207  27.698  1.00  0.00     0.124 S 
ATOM     99  O   UNL A   1      52.047  37.647  28.882  1.00  0.00    -0.237 OA
ATOM    100  O   UNL A   1      53.763  36.152  27.912  1.00  0.00    -0.237 OA
ATOM    101  O   UNL A   1      53.206  38.279  26.800  1.00  0.00    -0.744 OA
ENDBRANCH  94  98
ENDBRANCH  68  91
ENDBRANCH  42  43
ENDBRANCH  34  37
ENDBRANCH  32  33
ENDBRANCH  31  32
ENDBRANCH  30  31
ENDBRANCH   3  30
TORSDOF 19
ENDMDL
MODEL 3
REMARK VINA RESULT:     -10.6      6.112     11.120
REMARK SMILES CCOc1ccccc1N1C(=O)/C(=C\c2ccc(OCC(=O)NCCCNC(=O)c3ccc(-c4c5nc(c(-c6cc(S(=O)(=O)[O-])ccc6F)c6ccc([nH]6)c(-c6cc(S(=O)(=O)[O-])ccc6F)c6nc(c(-c7cc(S(=O)(=O)[O-])ccc7F)c7ccc4[nH]7)C=C6)C=C5)cc3)cc2)SC1=S
REMARK SMILES IDX 21 1 22 2 23 3 20 5 19 6 18 7 15 8 16 9 94 10 17 11 93 12
REMARK SMILES IDX 14 13 10 14 11 15 96 16 12 17 13 18 95 19 97 20 9 21 4 22
REMARK SMILES IDX 5 23 6 24 8 25 7 26 3 27 2 28 1 29 24 30 25 31 26 32 27 33
REMARK SMILES IDX 28 34 29 36 30 37 31 38 92 39 32 40 91 41 33 42 34 43 35 44
REMARK SMILES IDX 85 45 36 46 90 47 84 48 86 49 37 50 89 51 83 52 82 53 38 55
REMARK SMILES IDX 70 56 50 57 69 58 51 59 54 60 68 61 87 62 52 63 53 64 67 66
REMARK SMILES IDX 88 67 55 68 39 69 40 70 48 71 41 72 47 73 49 74 46 75 42 76
REMARK SMILES IDX 43 77 44 78 45 79 71 80 72 81 80 82 73 83 79 84 81 85 78 86
REMARK SMILES IDX 74 87 75 88 76 89 77 90 56 91 57 92 65 93 58 94 64 95 66 96
REMARK SMILES IDX 63 97 59 98 60 99 61 100 62 101
REMARK H PARENT 23 4 27 35 86 54 54 65
REMARK Flexibility Score: inf
ROOT
ATOM      1  C   UNL A   1      34.936  32.087  28.007  1.00  0.00     0.257 C 
ATOM      2  O   UNL A   1      36.091  31.654  28.030  1.00  0.00    -0.271 OA
ATOM      3  N   UNL A   1      34.739  33.437  28.071  1.00  0.00    -0.353 N 
ATOM      4  H   UNL A   1      35.552  33.982  28.183  1.00  0.00     0.163 HD
ENDROOT
BRANCH   1   5
ATOM      5  C   UNL A   1      33.737  31.144  27.838  1.00  0.00     0.329 C 
BRANCH   5   6
ATOM      6  O   UNL A   1      33.189  31.003  26.540  1.00  0.00    -0.484 OA
BRANCH   6   7
ATOM      7  C   UNL A   1      32.683  29.782  26.188  1.00  0.00     0.120 A 
ATOM      8  C   UNL A   1      31.604  27.407  25.146  1.00  0.00    -0.024 A 
ATOM      9  C   UNL A   1      32.375  28.241  24.335  1.00  0.00     0.012 A 
ATOM     10  C   UNL A   1      31.434  27.733  26.497  1.00  0.00     0.012 A 
ATOM     11  C   UNL A   1      32.914  29.418  24.859  1.00  0.00     0.047 A 
ATOM     12  C   UNL A   1      31.968  28.919  27.015  1.00  0.00     0.047 A 
BRANCH   8  13
ATOM     13  C   UNL A   1      30.945  26.235  24.566  1.00  0.00     0.029 C 
ATOM     14  N   UNL A   1      33.215  23.398  24.303  1.00  0.00    -0.257 N 
ATOM     15  C   UNL A   1      32.891  24.629  24.865  1.00  0.00     0.270 C 
ATOM     16  C   UNL A   1      32.193  22.705  23.677  1.00  0.00     0.153 C 
ATOM     17  O   UNL A   1      33.615  25.325  25.558  1.00  0.00    -0.268 OA
ATOM     18  C   UNL A   1      31.513  25.026  24.443  1.00  0.00     0.081 C 
ATOM     19  S   UNL A   1      30.738  23.707  23.649  1.00  0.00    -0.054 SA
ATOM     20  S   UNL A   1      32.163  21.138  23.091  1.00  0.00    -0.051 S 
BRANCH  14  21
ATOM     21  C   UNL A   1      34.574  22.975  24.336  1.00  0.00     0.093 A 
ATOM     22  C   UNL A   1      35.014  22.033  25.280  1.00  0.00     0.143 A 
ATOM     23  C   UNL A   1      36.334  21.575  25.271  1.00  0.00     0.049 A 
ATOM     24  C   UNL A   1      37.216  22.026  24.288  1.00  0.00     0.004 A 
ATOM     25  C   UNL A   1      35.464  23.398  23.339  1.00  0.00     0.031 A 
ATOM     26  C   UNL A   1      36.781  22.932  23.322  1.00  0.00     0.002 A 
BRANCH  22  27
ATOM     27  O   UNL A   1      34.152  21.557  26.233  1.00  0.00    -0.492 OA
BRANCH  27  28
ATOM     28  C   UNL A   1      34.234  22.276  27.466  1.00  0.00     0.226 C 
ATOM     29  C   UNL A   1      32.823  22.519  27.976  1.00  0.00     0.049 C 
ENDBRANCH  27  28
ENDBRANCH  22  27
ENDBRANCH  14  21
ENDBRANCH   8  13
ENDBRANCH   6   7
ENDBRANCH   5   6
ENDBRANCH   1   5
BRANCH   3  30
ATOM     30  C   UNL A   1      33.492  34.175  27.995  1.00  0.00     0.117 C 
BRANCH  30  31
ATOM     31  C   UNL A   1      33.291  35.130  29.168  1.00  0.00     0.042 C 
BRANCH  31  32
ATOM     32  C   UNL A   1      33.646  34.557  30.539  1.00  0.00     0.118 C 
BRANCH  32  33
ATOM     33  N   UNL A   1      33.824  35.580  31.559  1.00  0.00    -0.352 N 
ATOM     34  C   UNL A   1      34.718  35.668  32.598  1.00  0.00     0.251 C 
ATOM     35  H   UNL A   1      33.197  36.337  31.493  1.00  0.00     0.163 HD
ATOM     36  O   UNL A   1      34.573  36.571  33.421  1.00  0.00    -0.269 OA
BRANCH  34  37
ATOM     37  C   UNL A   1      35.823  34.693  32.760  1.00  0.00     0.039 A 
ATOM     38  C   UNL A   1      37.059  34.984  32.173  1.00  0.00     0.014 A 
ATOM     39  C   UNL A   1      35.651  33.481  33.434  1.00  0.00     0.014 A 
ATOM     40  C   UNL A   1      38.132  34.098  32.317  1.00  0.00     0.010 A 
ATOM     41  C   UNL A   1      36.741  32.630  33.636  1.00  0.00     0.010 A 
ATOM     42  C   UNL A   1      37.993  32.929  33.081  1.00  0.00    -0.014 A 
BRANCH  42  43
ATOM     43  C   UNL A   1      39.151  32.018  33.303  1.00  0.00     0.031 A 
ATOM     44  C   UNL A   1      40.026  32.180  34.518  1.00  0.00     0.074 A 
ATOM     45  C   UNL A   1      39.441  31.071  32.387  1.00  0.00     0.049 A 
ATOM     46  N   UNL A   1      41.115  31.531  34.848  1.00  0.00    -0.248 NA
ATOM     47  C   UNL A   1      39.639  33.226  35.477  1.00  0.00     0.031 C 
ATOM     48  C   UNL A   1      38.694  30.837  31.149  1.00  0.00     0.029 A 
ATOM     49  N   UNL A   1      40.444  30.133  32.348  1.00  0.00    -0.354 N 
ATOM     50  C   UNL A   1      41.544  32.089  36.048  1.00  0.00     0.074 A 
ATOM     51  C   UNL A   1      40.632  33.171  36.353  1.00  0.00     0.031 C 
ATOM     52  C   UNL A   1      39.253  29.813  30.484  1.00  0.00     0.029 A 
ATOM     53  C   UNL A   1      40.419  29.341  31.223  1.00  0.00     0.049 A 
ATOM     54  H   UNL A   1      41.117  30.036  33.060  1.00  0.00     0.167 HD
ATOM     55  C   UNL A   1      42.585  31.719  36.835  1.00  0.00     0.034 A 
ATOM     56  C   UNL A   1      41.247  28.356  30.824  1.00  0.00     0.034 A 
ATOM     57  C   UNL A   1      43.488  30.636  36.526  1.00  0.00     0.049 A 
ATOM     58  C   UNL A   1      42.401  27.967  31.716  1.00  0.00     0.074 A 
ATOM     59  C   UNL A   1      44.571  30.177  37.257  1.00  0.00     0.029 A 
ATOM     60  N   UNL A   1      43.410  29.835  35.393  1.00  0.00    -0.354 N 
ATOM     61  N   UNL A   1      42.775  28.492  32.860  1.00  0.00    -0.248 NA
ATOM     62  C   UNL A   1      43.228  26.837  31.274  1.00  0.00     0.031 C 
ATOM     63  C   UNL A   1      45.174  29.134  36.545  1.00  0.00     0.029 A 
ATOM     64  C   UNL A   1      44.427  28.892  35.405  1.00  0.00     0.049 A 
ATOM     65  H   UNL A   1      42.731  29.924  34.686  1.00  0.00     0.167 HD
ATOM     66  C   UNL A   1      43.857  27.728  33.291  1.00  0.00     0.074 A 
ATOM     67  C   UNL A   1      44.060  26.697  32.295  1.00  0.00     0.031 C 
ATOM     68  C   UNL A   1      44.617  27.865  34.407  1.00  0.00     0.034 A 
BRANCH  55  69
ATOM     69  C   UNL A   1      42.807  32.506  38.105  1.00  0.00     0.023 A 
ATOM     70  C   UNL A   1      42.179  32.146  39.310  1.00  0.00     0.031 A 
ATOM     71  C   UNL A   1      43.648  33.634  38.113  1.00  0.00     0.131 A 
ATOM     72  C   UNL A   1      42.347  32.940  40.454  1.00  0.00     0.055 A 
ATOM     73  C   UNL A   1      43.872  34.376  39.276  1.00  0.00     0.041 A 
ATOM     74  F   UNL A   1      44.260  34.038  36.989  1.00  0.00    -0.206 F 
ATOM     75  C   UNL A   1      43.211  34.037  40.453  1.00  0.00     0.022 A 
BRANCH  72  76
ATOM     76  S   UNL A   1      41.328  32.587  41.912  1.00  0.00     0.124 S 
ATOM     77  O   UNL A   1      40.828  33.918  42.249  1.00  0.00    -0.237 OA
ATOM     78  O   UNL A   1      40.343  31.647  41.391  1.00  0.00    -0.237 OA
ATOM     79  O   UNL A   1      42.280  32.026  42.869  1.00  0.00    -0.744 OA
ENDBRANCH  72  76
ENDBRANCH  55  69
BRANCH  56  80
ATOM     80  C   UNL A   1      41.037  27.664  29.518  1.00  0.00     0.023 A 
ATOM     81  C   UNL A   1      41.893  27.896  28.429  1.00  0.00     0.031 A 
ATOM     82  C   UNL A   1      39.932  26.818  29.318  1.00  0.00     0.131 A 
ATOM     83  C   UNL A   1      41.593  27.345  27.173  1.00  0.00     0.055 A 
ATOM     84  C   UNL A   1      39.672  26.223  28.082  1.00  0.00     0.041 A 
ATOM     85  F   UNL A   1      39.085  26.557  30.326  1.00  0.00    -0.206 F 
ATOM     86  C   UNL A   1      40.494  26.501  26.995  1.00  0.00     0.022 A 
BRANCH  83  87
ATOM     87  S   UNL A   1      42.593  27.848  25.745  1.00  0.00     0.124 S 
ATOM     88  O   UNL A   1      43.948  27.691  26.260  1.00  0.00    -0.237 OA
ATOM     89  O   UNL A   1      42.175  26.884  24.733  1.00  0.00    -0.237 OA
ATOM     90  O   UNL A   1      42.171  29.226  25.504  1.00  0.00    -0.744 OA
ENDBRANCH  83  87
ENDBRANCH  56  80
BRANCH  68  91
ATOM     91  C   UNL A   1      45.692  26.831  34.634  1.00  0.00     0.023 A 
ATOM     92  C   UNL A   1      45.433  25.624  35.309  1.00  0.00     0.031 A 
ATOM     93  C   UNL A   1      47.008  27.077  34.205  1.00  0.00     0.131 A 
ATOM     94  C   UNL A   1      46.488  24.745  35.601  1.00  0.00     0.055 A 
ATOM     95  C   UNL A   1      48.041  26.169  34.440  1.00  0.00     0.041 A 
ATOM     96  F   UNL A   1      47.314  28.212  33.555  1.00  0.00    -0.206 F 
ATOM     97  C   UNL A   1      47.787  25.004  35.159  1.00  0.00     0.022 A 
BRANCH  94  98
ATOM     98  S   UNL A   1      46.160  23.318  36.672  1.00  0.00     0.124 S 
ATOM     99  O   UNL A   1      45.307  22.490  35.824  1.00  0.00    -0.237 OA
ATOM    100  O   UNL A   1      47.502  22.802  36.921  1.00  0.00    -0.237 OA
ATOM    101  O   UNL A   1      45.496  23.905  37.834  1.00  0.00    -0.744 OA
ENDBRANCH  94  98
ENDBRANCH  68  91
ENDBRANCH  42  43
ENDBRANCH  34  37
ENDBRANCH  32  33
ENDBRANCH  31  32
ENDBRANCH  30  31
ENDBRANCH   3  30
TORSDOF 19
ENDMDL
