MODEL 1
REMARK VINA RESULT:     -10.2      0.000      0.000
REMARK SMILES CC1(C)CC[C@@]2(C(=O)NCCCNC(=O)c3ccc(-c4c5nc(c(-c6cc(S(=O)(=O)[O-])ccc6F)c6ccc([nH]6)c(-c6cc(S(=O)(=O)[O-])ccc6F)c6nc(c(-c7cc(S(=O)(=O)[O-])ccc7F)c7ccc4[nH]7)C=C6)C=C5)cc3)CC[C@@]3(C)C(=CC[C@H]4[C@@]5(C)CC[C@H](O)C(C)(C)[C@@H]5CC[C@]43C)[C@@H]2C1
REMARK SMILES IDX 12 1 11 2 10 3 9 4 7 5 8 6 6 8 1 9 2 10 3 11 4 12 102 13
REMARK SMILES IDX 5 14 101 15 83 16 79 17 81 18 84 19 80 20 82 21 99 22 85 23
REMARK SMILES IDX 86 24 98 25 100 26 87 27 97 28 88 29 89 30 96 31 90 32 93 33
REMARK SMILES IDX 91 34 94 35 95 36 92 37 13 39 14 40 15 42 16 43 17 44 78 45
REMARK SMILES IDX 18 46 77 47 19 48 20 49 21 50 71 51 22 52 76 53 70 54 72 55
REMARK SMILES IDX 23 56 75 57 69 58 68 59 24 61 56 62 36 63 55 64 37 65 40 66
REMARK SMILES IDX 54 67 73 68 38 69 39 70 53 72 74 73 41 74 25 75 26 76 34 77
REMARK SMILES IDX 27 78 33 79 35 80 32 81 28 82 29 83 30 84 31 85 57 86 58 87
REMARK SMILES IDX 66 88 59 89 65 90 67 91 64 92 60 93 61 94 62 95 63 96 42 97
REMARK SMILES IDX 43 98 51 99 44 100 50 101 52 102 49 103 45 104 46 105 47 106
REMARK SMILES IDX 48 107
REMARK H PARENT 9 7 92 38 13 41 72 60 40 71
REMARK Flexibility Score: inf
ROOT
ATOM      1  C   UNL A   1      49.331  36.654  34.218  1.00  0.00     0.118 C 
ENDROOT
BRANCH   1   2
ATOM      2  C   UNL A   1      48.790  37.779  33.348  1.00  0.00     0.042 C 
BRANCH   2   3
ATOM      3  C   UNL A   1      47.510  37.572  32.566  1.00  0.00     0.117 C 
BRANCH   3   4
ATOM      4  N   UNL A   1      46.919  38.666  31.834  1.00  0.00    -0.356 N 
ATOM      5  C   UNL A   1      47.588  39.683  31.174  1.00  0.00     0.226 C 
ATOM      6  O   UNL A   1      48.644  40.147  31.597  1.00  0.00    -0.274 OA
ATOM      7  H   UNL A   1      45.935  38.691  31.800  1.00  0.00     0.163 HD
BRANCH   5   8
ATOM      8  C   UNL A   1      47.050  40.066  29.744  1.00  0.00     0.056 C 
ATOM      9  C   UNL A   1      47.384  36.831  27.283  1.00  0.00     0.011 C 
ATOM     10  C   UNL A   1      47.370  37.228  28.771  1.00  0.00    -0.035 C 
ATOM     11  C   UNL A   1      47.658  35.907  29.551  1.00  0.00     0.011 C 
ATOM     12  C   UNL A   1      48.560  38.182  28.995  1.00  0.00     0.007 C 
ATOM     13  C   UNL A   1      45.939  37.816  29.154  1.00  0.00     0.015 C 
ATOM     14  C   UNL A   1      48.188  39.639  28.788  1.00  0.00     0.018 C 
ATOM     15  C   UNL A   1      45.723  39.386  29.321  1.00  0.00     0.031 C 
ATOM     16  C   UNL A   1      44.610  39.934  30.306  1.00  0.00    -0.064 C 
ATOM     17  C   UNL A   1      46.873  41.589  29.568  1.00  0.00     0.018 C 
ATOM     18  C   UNL A   1      44.428  41.484  30.486  1.00  0.00    -0.006 C 
ATOM     19  C   UNL A   1      43.985  39.094  31.147  1.00  0.00    -0.027 C 
ATOM     20  C   UNL A   1      45.814  42.174  30.494  1.00  0.00     0.013 C 
ATOM     21  C   UNL A   1      43.668  42.004  29.224  1.00  0.00     0.017 C 
ATOM     22  C   UNL A   1      43.538  41.882  31.831  1.00  0.00    -0.020 C 
ATOM     23  C   UNL A   1      43.630  39.455  32.563  1.00  0.00     0.032 C 
ATOM     24  C   UNL A   1      43.852  40.915  33.029  1.00  0.00     0.006 C 
ATOM     25  C   UNL A   1      43.619  43.382  32.301  1.00  0.00     0.008 C 
ATOM     26  C   UNL A   1      42.000  41.666  31.510  1.00  0.00     0.012 C 
ATOM     27  C   UNL A   1      44.978  41.319  34.180  1.00  0.00    -0.025 C 
ATOM     28  C   UNL A   1      44.013  43.616  33.782  1.00  0.00     0.005 C 
ATOM     29  C   UNL A   1      44.277  40.905  35.515  1.00  0.00     0.012 C 
ATOM     30  C   UNL A   1      46.335  40.580  34.200  1.00  0.00     0.010 C 
ATOM     31  C   UNL A   1      45.290  42.838  34.073  1.00  0.00     0.003 C 
ATOM     32  C   UNL A   1      47.651  41.265  34.646  1.00  0.00     0.033 C 
ATOM     33  C   UNL A   1      46.376  43.425  35.049  1.00  0.00    -0.006 C 
ATOM     34  C   UNL A   1      47.712  42.789  34.569  1.00  0.00     0.120 C 
ATOM     35  C   UNL A   1      46.192  43.140  36.551  1.00  0.00     0.014 C 
ATOM     36  C   UNL A   1      46.478  44.961  34.916  1.00  0.00     0.014 C 
BRANCH  34  37
ATOM     37  O   UNL A   1      48.809  43.286  35.340  1.00  0.00    -0.393 OA
ATOM     38  H   UNL A   1      49.095  44.140  34.983  1.00  0.00     0.210 HD
ENDBRANCH  34  37
ENDBRANCH   5   8
ENDBRANCH   3   4
ENDBRANCH   2   3
ENDBRANCH   1   2
BRANCH   1  39
ATOM     39  N   UNL A   1      49.777  36.986  35.564  1.00  0.00    -0.352 N 
ATOM     40  C   UNL A   1      49.029  36.928  36.741  1.00  0.00     0.251 C 
ATOM     41  H   UNL A   1      50.711  37.284  35.654  1.00  0.00     0.163 HD
ATOM     42  O   UNL A   1      49.502  37.198  37.806  1.00  0.00    -0.269 OA
BRANCH  40  43
ATOM     43  C   UNL A   1      47.597  36.565  36.589  1.00  0.00     0.039 A 
ATOM     44  C   UNL A   1      46.673  37.587  36.371  1.00  0.00     0.014 A 
ATOM     45  C   UNL A   1      47.251  35.226  36.404  1.00  0.00     0.014 A 
ATOM     46  C   UNL A   1      45.416  37.266  35.855  1.00  0.00     0.010 A 
ATOM     47  C   UNL A   1      46.047  34.929  35.777  1.00  0.00     0.010 A 
ATOM     48  C   UNL A   1      45.114  35.942  35.491  1.00  0.00    -0.014 A 
BRANCH  48  49
ATOM     49  C   UNL A   1      43.827  35.597  34.824  1.00  0.00     0.031 A 
ATOM     50  C   UNL A   1      42.631  35.240  35.667  1.00  0.00     0.074 A 
ATOM     51  C   UNL A   1      43.746  35.529  33.479  1.00  0.00     0.049 A 
ATOM     52  N   UNL A   1      41.447  34.823  35.299  1.00  0.00    -0.248 NA
ATOM     53  C   UNL A   1      42.816  35.301  37.125  1.00  0.00     0.031 C 
ATOM     54  C   UNL A   1      44.853  35.758  32.546  1.00  0.00     0.029 A 
ATOM     55  N   UNL A   1      42.683  35.241  32.657  1.00  0.00    -0.354 N 
ATOM     56  C   UNL A   1      40.765  34.544  36.479  1.00  0.00     0.074 A 
ATOM     57  C   UNL A   1      41.708  34.729  37.559  1.00  0.00     0.031 C 
ATOM     58  C   UNL A   1      44.402  35.643  31.287  1.00  0.00     0.029 A 
ATOM     59  C   UNL A   1      42.985  35.296  31.315  1.00  0.00     0.049 A 
ATOM     60  H   UNL A   1      41.787  35.017  32.997  1.00  0.00     0.167 HD
ATOM     61  C   UNL A   1      39.460  34.217  36.656  1.00  0.00     0.034 A 
ATOM     62  C   UNL A   1      42.208  35.092  30.232  1.00  0.00     0.034 A 
ATOM     63  C   UNL A   1      38.526  34.074  35.568  1.00  0.00     0.049 A 
ATOM     64  C   UNL A   1      40.749  34.768  30.439  1.00  0.00     0.074 A 
ATOM     65  C   UNL A   1      37.171  33.805  35.618  1.00  0.00     0.029 A 
ATOM     66  N   UNL A   1      38.857  34.192  34.222  1.00  0.00    -0.354 N 
ATOM     67  N   UNL A   1      40.099  34.577  31.564  1.00  0.00    -0.248 NA
ATOM     68  C   UNL A   1      39.918  34.653  29.235  1.00  0.00     0.031 C 
ATOM     69  C   UNL A   1      36.693  33.708  34.306  1.00  0.00     0.029 A 
ATOM     70  C   UNL A   1      37.735  33.986  33.435  1.00  0.00     0.049 A 
ATOM     71  H   UNL A   1      39.757  34.393  33.878  1.00  0.00     0.167 HD
ATOM     72  C   UNL A   1      38.775  34.340  31.203  1.00  0.00     0.074 A 
ATOM     73  C   UNL A   1      38.719  34.434  29.758  1.00  0.00     0.031 C 
ATOM     74  C   UNL A   1      37.702  34.073  31.993  1.00  0.00     0.034 A 
BRANCH  61  75
ATOM     75  C   UNL A   1      38.998  33.995  38.079  1.00  0.00     0.023 A 
ATOM     76  C   UNL A   1      38.524  32.739  38.506  1.00  0.00     0.031 A 
ATOM     77  C   UNL A   1      38.936  35.061  38.992  1.00  0.00     0.131 A 
ATOM     78  C   UNL A   1      37.891  32.614  39.751  1.00  0.00     0.055 A 
ATOM     79  C   UNL A   1      38.405  34.901  40.276  1.00  0.00     0.041 A 
ATOM     80  F   UNL A   1      39.357  36.286  38.644  1.00  0.00    -0.206 F 
ATOM     81  C   UNL A   1      37.853  33.678  40.651  1.00  0.00     0.022 A 
BRANCH  78  82
ATOM     82  S   UNL A   1      36.936  31.106  40.080  1.00  0.00     0.124 S 
ATOM     83  O   UNL A   1      37.757  30.454  41.098  1.00  0.00    -0.237 OA
ATOM     84  O   UNL A   1      35.655  31.635  40.534  1.00  0.00    -0.237 OA
ATOM     85  O   UNL A   1      36.909  30.429  38.785  1.00  0.00    -0.744 OA
ENDBRANCH  78  82
ENDBRANCH  61  75
BRANCH  62  86
ATOM     86  C   UNL A   1      42.783  35.195  28.859  1.00  0.00     0.023 A 
ATOM     87  C   UNL A   1      43.375  34.088  28.229  1.00  0.00     0.031 A 
ATOM     88  C   UNL A   1      42.762  36.416  28.160  1.00  0.00     0.131 A 
ATOM     89  C   UNL A   1      43.951  34.230  26.955  1.00  0.00     0.055 A 
ATOM     90  C   UNL A   1      43.298  36.541  26.875  1.00  0.00     0.041 A 
ATOM     91  F   UNL A   1      42.199  37.502  28.711  1.00  0.00    -0.206 F 
ATOM     92  C   UNL A   1      43.906  35.446  26.270  1.00  0.00     0.022 A 
BRANCH  89  93
ATOM     93  S   UNL A   1      44.814  32.810  26.223  1.00  0.00     0.124 S 
ATOM     94  O   UNL A   1      44.026  32.570  25.021  1.00  0.00    -0.237 OA
ATOM     95  O   UNL A   1      46.156  33.345  26.016  1.00  0.00    -0.237 OA
ATOM     96  O   UNL A   1      44.710  31.780  27.255  1.00  0.00    -0.744 OA
ENDBRANCH  89  93
ENDBRANCH  62  86
BRANCH  74  97
ATOM     97  C   UNL A   1      36.371  33.901  31.304  1.00  0.00     0.023 A 
ATOM     98  C   UNL A   1      35.403  34.919  31.300  1.00  0.00     0.031 A 
ATOM     99  C   UNL A   1      36.071  32.698  30.642  1.00  0.00     0.131 A 
ATOM    100  C   UNL A   1      34.158  34.696  30.692  1.00  0.00     0.055 A 
ATOM    101  C   UNL A   1      34.854  32.504  29.987  1.00  0.00     0.041 A 
ATOM    102  F   UNL A   1      36.960  31.692  30.615  1.00  0.00    -0.206 F 
ATOM    103  C   UNL A   1      33.884  33.501  30.021  1.00  0.00     0.022 A 
BRANCH 100 104
ATOM    104  S   UNL A   1      32.865  35.955  30.869  1.00  0.00     0.124 S 
ATOM    105  O   UNL A   1      32.370  36.076  29.501  1.00  0.00    -0.237 OA
ATOM    106  O   UNL A   1      31.954  35.335  31.825  1.00  0.00    -0.237 OA
ATOM    107  O   UNL A   1      33.589  37.122  31.371  1.00  0.00    -0.744 OA
ENDBRANCH 100 104
ENDBRANCH  74  97
ENDBRANCH  48  49
ENDBRANCH  40  43
ENDBRANCH   1  39
TORSDOF 14
ENDMDL
MODEL 2
REMARK VINA RESULT:     -10.2     11.097     16.523
REMARK SMILES CC1(C)CC[C@@]2(C(=O)NCCCNC(=O)c3ccc(-c4c5nc(c(-c6cc(S(=O)(=O)[O-])ccc6F)c6ccc([nH]6)c(-c6cc(S(=O)(=O)[O-])ccc6F)c6nc(c(-c7cc(S(=O)(=O)[O-])ccc7F)c7ccc4[nH]7)C=C6)C=C5)cc3)CC[C@@]3(C)C(=CC[C@H]4[C@@]5(C)CC[C@H](O)C(C)(C)[C@@H]5CC[C@]43C)[C@@H]2C1
REMARK SMILES IDX 12 1 11 2 10 3 9 4 7 5 8 6 6 8 1 9 2 10 3 11 4 12 102 13
REMARK SMILES IDX 5 14 101 15 83 16 79 17 81 18 84 19 80 20 82 21 99 22 85 23
REMARK SMILES IDX 86 24 98 25 100 26 87 27 97 28 88 29 89 30 96 31 90 32 93 33
REMARK SMILES IDX 91 34 94 35 95 36 92 37 13 39 14 40 15 42 16 43 17 44 78 45
REMARK SMILES IDX 18 46 77 47 19 48 20 49 21 50 71 51 22 52 76 53 70 54 72 55
REMARK SMILES IDX 23 56 75 57 69 58 68 59 24 61 56 62 36 63 55 64 37 65 40 66
REMARK SMILES IDX 54 67 73 68 38 69 39 70 53 72 74 73 41 74 25 75 26 76 34 77
REMARK SMILES IDX 27 78 33 79 35 80 32 81 28 82 29 83 30 84 31 85 57 86 58 87
REMARK SMILES IDX 66 88 59 89 65 90 67 91 64 92 60 93 61 94 62 95 63 96 42 97
REMARK SMILES IDX 43 98 51 99 44 100 50 101 52 102 49 103 45 104 46 105 47 106
REMARK SMILES IDX 48 107
REMARK H PARENT 9 7 92 38 13 41 72 60 40 71
REMARK Flexibility Score: inf
ROOT
ATOM      1  C   UNL A   1      51.123  29.423  36.130  1.00  0.00     0.118 C 
ENDROOT
BRANCH   1   2
ATOM      2  C   UNL A   1      51.049  27.928  36.396  1.00  0.00     0.042 C 
BRANCH   2   3
ATOM      3  C   UNL A   1      49.712  27.221  36.343  1.00  0.00     0.117 C 
BRANCH   3   4
ATOM      4  N   UNL A   1      49.641  25.784  36.447  1.00  0.00    -0.356 N 
ATOM      5  C   UNL A   1      50.136  25.000  37.476  1.00  0.00     0.226 C 
ATOM      6  O   UNL A   1      51.170  25.289  38.074  1.00  0.00    -0.274 OA
ATOM      7  H   UNL A   1      49.194  25.311  35.709  1.00  0.00     0.163 HD
BRANCH   5   8
ATOM      8  C   UNL A   1      49.200  23.842  37.990  1.00  0.00     0.056 C 
ATOM      9  C   UNL A   1      45.508  25.371  38.799  1.00  0.00     0.011 C 
ATOM     10  C   UNL A   1      46.809  25.680  38.036  1.00  0.00    -0.035 C 
ATOM     11  C   UNL A   1      46.612  27.114  37.453  1.00  0.00     0.011 C 
ATOM     12  C   UNL A   1      47.941  25.742  39.081  1.00  0.00     0.007 C 
ATOM     13  C   UNL A   1      47.011  24.614  36.870  1.00  0.00     0.015 C 
ATOM     14  C   UNL A   1      48.604  24.395  39.305  1.00  0.00     0.018 C 
ATOM     15  C   UNL A   1      48.059  23.424  37.028  1.00  0.00     0.031 C 
ATOM     16  C   UNL A   1      48.761  22.807  35.749  1.00  0.00    -0.064 C 
ATOM     17  C   UNL A   1      49.988  22.568  38.363  1.00  0.00     0.018 C 
ATOM     18  C   UNL A   1      49.815  21.656  35.920  1.00  0.00    -0.006 C 
ATOM     19  C   UNL A   1      48.630  23.410  34.555  1.00  0.00    -0.027 C 
ATOM     20  C   UNL A   1      50.688  21.931  37.169  1.00  0.00     0.013 C 
ATOM     21  C   UNL A   1      49.018  20.343  36.202  1.00  0.00     0.017 C 
ATOM     22  C   UNL A   1      50.746  21.419  34.564  1.00  0.00    -0.020 C 
ATOM     23  C   UNL A   1      49.752  23.526  33.561  1.00  0.00     0.032 C 
ATOM     24  C   UNL A   1      51.077  22.781  33.854  1.00  0.00     0.006 C 
ATOM     25  C   UNL A   1      52.055  20.568  34.758  1.00  0.00     0.008 C 
ATOM     26  C   UNL A   1      49.905  20.589  33.506  1.00  0.00     0.012 C 
ATOM     27  C   UNL A   1      52.496  23.583  34.167  1.00  0.00    -0.025 C 
ATOM     28  C   UNL A   1      53.374  21.220  34.269  1.00  0.00     0.005 C 
ATOM     29  C   UNL A   1      52.962  24.036  32.744  1.00  0.00     0.012 C 
ATOM     30  C   UNL A   1      52.461  24.883  35.003  1.00  0.00     0.010 C 
ATOM     31  C   UNL A   1      53.482  22.613  34.877  1.00  0.00     0.003 C 
ATOM     32  C   UNL A   1      53.619  25.300  35.945  1.00  0.00     0.033 C 
ATOM     33  C   UNL A   1      54.881  23.189  35.309  1.00  0.00    -0.006 C 
ATOM     34  C   UNL A   1      54.551  24.199  36.445  1.00  0.00     0.120 C 
ATOM     35  C   UNL A   1      55.707  23.903  34.223  1.00  0.00     0.014 C 
ATOM     36  C   UNL A   1      55.794  22.079  35.876  1.00  0.00     0.014 C 
BRANCH  34  37
ATOM     37  O   UNL A   1      55.751  24.763  36.979  1.00  0.00    -0.393 OA
ATOM     38  H   UNL A   1      55.602  25.696  37.196  1.00  0.00     0.210 HD
ENDBRANCH  34  37
ENDBRANCH   5   8
ENDBRANCH   3   4
ENDBRANCH   2   3
ENDBRANCH   1   2
BRANCH   1  39
ATOM     39  N   UNL A   1      52.427  30.003  35.838  1.00  0.00    -0.352 N 
ATOM     40  C   UNL A   1      53.051  30.098  34.594  1.00  0.00     0.251 C 
ATOM     41  H   UNL A   1      52.924  30.369  36.605  1.00  0.00     0.163 HD
ATOM     42  O   UNL A   1      54.119  30.620  34.459  1.00  0.00    -0.269 OA
BRANCH  40  43
ATOM     43  C   UNL A   1      52.338  29.464  33.455  1.00  0.00     0.039 A 
ATOM     44  C   UNL A   1      52.611  28.128  33.162  1.00  0.00     0.014 A 
ATOM     45  C   UNL A   1      51.245  30.119  32.887  1.00  0.00     0.014 A 
ATOM     46  C   UNL A   1      51.712  27.409  32.373  1.00  0.00     0.010 A 
ATOM     47  C   UNL A   1      50.295  29.367  32.208  1.00  0.00     0.010 A 
ATOM     48  C   UNL A   1      50.512  28.002  31.943  1.00  0.00    -0.014 A 
BRANCH  48  49
ATOM     49  C   UNL A   1      49.481  27.218  31.206  1.00  0.00     0.031 A 
ATOM     50  C   UNL A   1      49.606  27.051  29.714  1.00  0.00     0.074 A 
ATOM     51  C   UNL A   1      48.403  26.724  31.850  1.00  0.00     0.049 A 
ATOM     52  N   UNL A   1      48.783  26.489  28.868  1.00  0.00    -0.248 NA
ATOM     53  C   UNL A   1      50.791  27.655  29.086  1.00  0.00     0.031 C 
ATOM     54  C   UNL A   1      48.110  26.894  33.276  1.00  0.00     0.029 A 
ATOM     55  N   UNL A   1      47.345  25.979  31.388  1.00  0.00    -0.354 N 
ATOM     56  C   UNL A   1      49.337  26.703  27.610  1.00  0.00     0.074 A 
ATOM     57  C   UNL A   1      50.499  27.541  27.803  1.00  0.00     0.031 C 
ATOM     58  C   UNL A   1      46.977  26.239  33.577  1.00  0.00     0.029 A 
ATOM     59  C   UNL A   1      46.439  25.632  32.364  1.00  0.00     0.049 A 
ATOM     60  H   UNL A   1      47.245  25.716  30.444  1.00  0.00     0.167 HD
ATOM     61  C   UNL A   1      48.951  26.204  26.409  1.00  0.00     0.034 A 
ATOM     62  C   UNL A   1      45.304  24.907  32.290  1.00  0.00     0.034 A 
ATOM     63  C   UNL A   1      47.811  25.339  26.242  1.00  0.00     0.049 A 
ATOM     64  C   UNL A   1      44.904  24.323  30.958  1.00  0.00     0.074 A 
ATOM     65  C   UNL A   1      47.351  24.722  25.092  1.00  0.00     0.029 A 
ATOM     66  N   UNL A   1      46.947  24.964  27.266  1.00  0.00    -0.354 N 
ATOM     67  N   UNL A   1      45.478  24.475  29.786  1.00  0.00    -0.248 NA
ATOM     68  C   UNL A   1      43.719  23.458  30.942  1.00  0.00     0.031 C 
ATOM     69  C   UNL A   1      46.183  24.019  25.409  1.00  0.00     0.029 A 
ATOM     70  C   UNL A   1      45.950  24.138  26.770  1.00  0.00     0.049 A 
ATOM     71  H   UNL A   1      47.031  25.244  28.205  1.00  0.00     0.167 HD
ATOM     72  C   UNL A   1      44.735  23.703  28.896  1.00  0.00     0.074 A 
ATOM     73  C   UNL A   1      43.686  23.074  29.673  1.00  0.00     0.031 C 
ATOM     74  C   UNL A   1      44.905  23.528  27.560  1.00  0.00     0.034 A 
BRANCH  61  75
ATOM     75  C   UNL A   1      49.777  26.601  25.205  1.00  0.00     0.023 A 
ATOM     76  C   UNL A   1      49.238  27.401  24.179  1.00  0.00     0.031 A 
ATOM     77  C   UNL A   1      51.079  26.102  25.028  1.00  0.00     0.131 A 
ATOM     78  C   UNL A   1      49.938  27.565  22.975  1.00  0.00     0.055 A 
ATOM     79  C   UNL A   1      51.816  26.364  23.869  1.00  0.00     0.041 A 
ATOM     80  F   UNL A   1      51.646  25.321  25.960  1.00  0.00    -0.206 F 
ATOM     81  C   UNL A   1      51.235  27.076  22.823  1.00  0.00     0.022 A 
BRANCH  78  82
ATOM     82  S   UNL A   1      49.042  28.237  21.547  1.00  0.00     0.124 S 
ATOM     83  O   UNL A   1      49.200  27.162  20.569  1.00  0.00    -0.237 OA
ATOM     84  O   UNL A   1      47.697  28.426  22.077  1.00  0.00    -0.237 OA
ATOM     85  O   UNL A   1      49.770  29.465  21.234  1.00  0.00    -0.744 OA
ENDBRANCH  78  82
ENDBRANCH  61  75
BRANCH  62  86
ATOM     86  C   UNL A   1      44.471  24.681  33.508  1.00  0.00     0.023 A 
ATOM     87  C   UNL A   1      43.588  25.665  33.983  1.00  0.00     0.031 A 
ATOM     88  C   UNL A   1      44.559  23.475  34.227  1.00  0.00     0.131 A 
ATOM     89  C   UNL A   1      42.853  25.441  35.159  1.00  0.00     0.055 A 
ATOM     90  C   UNL A   1      43.794  23.240  35.372  1.00  0.00     0.041 A 
ATOM     91  F   UNL A   1      45.378  22.497  33.811  1.00  0.00    -0.206 F 
ATOM     92  C   UNL A   1      42.942  24.230  35.850  1.00  0.00     0.022 A 
BRANCH  89  93
ATOM     93  S   UNL A   1      41.815  26.781  35.810  1.00  0.00     0.124 S 
ATOM     94  O   UNL A   1      40.954  26.064  36.743  1.00  0.00    -0.237 OA
ATOM     95  O   UNL A   1      42.807  27.671  36.403  1.00  0.00    -0.237 OA
ATOM     96  O   UNL A   1      41.147  27.302  34.618  1.00  0.00    -0.744 OA
ENDBRANCH  89  93
ENDBRANCH  62  86
BRANCH  74  97
ATOM     97  C   UNL A   1      43.952  22.587  26.866  1.00  0.00     0.023 A 
ATOM     98  C   UNL A   1      44.352  21.310  26.438  1.00  0.00     0.031 A 
ATOM     99  C   UNL A   1      42.621  22.979  26.632  1.00  0.00     0.131 A 
ATOM    100  C   UNL A   1      43.447  20.489  25.750  1.00  0.00     0.055 A 
ATOM    101  C   UNL A   1      41.708  22.133  26.001  1.00  0.00     0.041 A 
ATOM    102  F   UNL A   1      42.185  24.188  27.020  1.00  0.00    -0.206 F 
ATOM    103  C   UNL A   1      42.122  20.886  25.544  1.00  0.00     0.022 A 
BRANCH 100 104
ATOM    104  S   UNL A   1      44.047  18.930  25.046  1.00  0.00     0.124 S 
ATOM    105  O   UNL A   1      44.154  19.258  23.627  1.00  0.00    -0.237 OA
ATOM    106  O   UNL A   1      45.310  18.735  25.751  1.00  0.00    -0.237 OA
ATOM    107  O   UNL A   1      42.995  17.974  25.383  1.00  0.00    -0.744 OA
ENDBRANCH 100 104
ENDBRANCH  74  97
ENDBRANCH  48  49
ENDBRANCH  40  43
ENDBRANCH   1  39
TORSDOF 14
ENDMDL
MODEL 3
REMARK VINA RESULT:     -10.0      1.074      3.842
REMARK SMILES CC1(C)CC[C@@]2(C(=O)NCCCNC(=O)c3ccc(-c4c5nc(c(-c6cc(S(=O)(=O)[O-])ccc6F)c6ccc([nH]6)c(-c6cc(S(=O)(=O)[O-])ccc6F)c6nc(c(-c7cc(S(=O)(=O)[O-])ccc7F)c7ccc4[nH]7)C=C6)C=C5)cc3)CC[C@@]3(C)C(=CC[C@H]4[C@@]5(C)CC[C@H](O)C(C)(C)[C@@H]5CC[C@]43C)[C@@H]2C1
REMARK SMILES IDX 12 1 11 2 10 3 9 4 7 5 8 6 6 8 1 9 2 10 3 11 4 12 102 13
REMARK SMILES IDX 5 14 101 15 83 16 79 17 81 18 84 19 80 20 82 21 99 22 85 23
REMARK SMILES IDX 86 24 98 25 100 26 87 27 97 28 88 29 89 30 96 31 90 32 93 33
REMARK SMILES IDX 91 34 94 35 95 36 92 37 13 39 14 40 15 42 16 43 17 44 78 45
REMARK SMILES IDX 18 46 77 47 19 48 20 49 21 50 71 51 22 52 76 53 70 54 72 55
REMARK SMILES IDX 23 56 75 57 69 58 68 59 24 61 56 62 36 63 55 64 37 65 40 66
REMARK SMILES IDX 54 67 73 68 38 69 39 70 53 72 74 73 41 74 25 75 26 76 34 77
REMARK SMILES IDX 27 78 33 79 35 80 32 81 28 82 29 83 30 84 31 85 57 86 58 87
REMARK SMILES IDX 66 88 59 89 65 90 67 91 64 92 60 93 61 94 62 95 63 96 42 97
REMARK SMILES IDX 43 98 51 99 44 100 50 101 52 102 49 103 45 104 46 105 47 106
REMARK SMILES IDX 48 107
REMARK H PARENT 9 7 92 38 13 41 72 60 40 71
REMARK Flexibility Score: inf
ROOT
ATOM      1  C   UNL A   1      49.131  37.342  33.967  1.00  0.00     0.118 C 
ENDROOT
BRANCH   1   2
ATOM      2  C   UNL A   1      48.571  38.625  33.372  1.00  0.00     0.042 C 
BRANCH   2   3
ATOM      3  C   UNL A   1      47.376  38.562  32.446  1.00  0.00     0.117 C 
BRANCH   3   4
ATOM      4  N   UNL A   1      46.191  39.334  32.732  1.00  0.00    -0.356 N 
ATOM      5  C   UNL A   1      45.590  40.272  31.909  1.00  0.00     0.226 C 
ATOM      6  O   UNL A   1      46.247  41.001  31.168  1.00  0.00    -0.274 OA
ATOM      7  H   UNL A   1      45.764  39.177  33.605  1.00  0.00     0.163 HD
BRANCH   5   8
ATOM      8  C   UNL A   1      44.020  40.212  31.803  1.00  0.00     0.056 C 
ATOM      9  C   UNL A   1      42.396  42.607  34.676  1.00  0.00     0.011 C 
ATOM     10  C   UNL A   1      43.711  42.338  33.921  1.00  0.00    -0.035 C 
ATOM     11  C   UNL A   1      44.761  43.290  34.573  1.00  0.00     0.011 C 
ATOM     12  C   UNL A   1      44.123  40.886  34.236  1.00  0.00     0.007 C 
ATOM     13  C   UNL A   1      43.518  42.675  32.376  1.00  0.00     0.015 C 
ATOM     14  C   UNL A   1      43.558  39.888  33.242  1.00  0.00     0.018 C 
ATOM     15  C   UNL A   1      43.331  41.508  31.306  1.00  0.00     0.031 C 
ATOM     16  C   UNL A   1      43.805  41.718  29.810  1.00  0.00    -0.064 C 
ATOM     17  C   UNL A   1      43.532  39.051  30.910  1.00  0.00     0.018 C 
ATOM     18  C   UNL A   1      43.644  40.550  28.773  1.00  0.00    -0.006 C 
ATOM     19  C   UNL A   1      44.543  42.793  29.484  1.00  0.00    -0.027 C 
ATOM     20  C   UNL A   1      43.964  39.199  29.456  1.00  0.00     0.013 C 
ATOM     21  C   UNL A   1      42.138  40.507  28.363  1.00  0.00     0.017 C 
ATOM     22  C   UNL A   1      44.552  40.770  27.399  1.00  0.00    -0.020 C 
ATOM     23  C   UNL A   1      45.691  42.744  28.514  1.00  0.00     0.032 C 
ATOM     24  C   UNL A   1      45.939  41.431  27.731  1.00  0.00     0.006 C 
ATOM     25  C   UNL A   1      44.752  39.504  26.486  1.00  0.00     0.008 C 
ATOM     26  C   UNL A   1      43.810  41.806  26.455  1.00  0.00     0.012 C 
ATOM     27  C   UNL A   1      47.294  40.501  27.962  1.00  0.00    -0.025 C 
ATOM     28  C   UNL A   1      46.216  39.138  26.132  1.00  0.00     0.005 C 
ATOM     29  C   UNL A   1      48.394  41.283  27.174  1.00  0.00     0.012 C 
ATOM     30  C   UNL A   1      47.867  40.343  29.390  1.00  0.00     0.010 C 
ATOM     31  C   UNL A   1      47.025  39.069  27.422  1.00  0.00     0.003 C 
ATOM     32  C   UNL A   1      48.573  39.050  29.867  1.00  0.00     0.033 C 
ATOM     33  C   UNL A   1      48.171  38.004  27.587  1.00  0.00    -0.006 C 
ATOM     34  C   UNL A   1      48.253  37.757  29.121  1.00  0.00     0.120 C 
ATOM     35  C   UNL A   1      49.566  38.393  27.064  1.00  0.00     0.014 C 
ATOM     36  C   UNL A   1      47.810  36.675  26.886  1.00  0.00     0.014 C 
BRANCH  34  37
ATOM     37  O   UNL A   1      49.228  36.754  29.416  1.00  0.00    -0.393 OA
ATOM     38  H   UNL A   1      48.977  35.922  28.985  1.00  0.00     0.210 HD
ENDBRANCH  34  37
ENDBRANCH   5   8
ENDBRANCH   3   4
ENDBRANCH   2   3
ENDBRANCH   1   2
BRANCH   1  39
ATOM     39  N   UNL A   1      49.671  37.394  35.319  1.00  0.00    -0.352 N 
ATOM     40  C   UNL A   1      49.023  37.035  36.501  1.00  0.00     0.251 C 
ATOM     41  H   UNL A   1      50.596  37.717  35.408  1.00  0.00     0.163 HD
ATOM     42  O   UNL A   1      49.568  37.091  37.564  1.00  0.00    -0.269 OA
BRANCH  40  43
ATOM     43  C   UNL A   1      47.599  36.634  36.371  1.00  0.00     0.039 A 
ATOM     44  C   UNL A   1      46.638  37.634  36.224  1.00  0.00     0.014 A 
ATOM     45  C   UNL A   1      47.289  35.294  36.136  1.00  0.00     0.014 A 
ATOM     46  C   UNL A   1      45.377  37.296  35.728  1.00  0.00     0.010 A 
ATOM     47  C   UNL A   1      46.078  34.986  35.528  1.00  0.00     0.010 A 
ATOM     48  C   UNL A   1      45.106  35.981  35.313  1.00  0.00    -0.014 A 
BRANCH  48  49
ATOM     49  C   UNL A   1      43.812  35.624  34.667  1.00  0.00     0.031 A 
ATOM     50  C   UNL A   1      42.624  35.283  35.528  1.00  0.00     0.074 A 
ATOM     51  C   UNL A   1      43.717  35.531  33.324  1.00  0.00     0.049 A 
ATOM     52  N   UNL A   1      41.437  34.860  35.180  1.00  0.00    -0.248 NA
ATOM     53  C   UNL A   1      42.826  35.370  36.982  1.00  0.00     0.031 C 
ATOM     54  C   UNL A   1      44.814  35.743  32.375  1.00  0.00     0.029 A 
ATOM     55  N   UNL A   1      42.645  35.229  32.518  1.00  0.00    -0.354 N 
ATOM     56  C   UNL A   1      40.767  34.602  36.372  1.00  0.00     0.074 A 
ATOM     57  C   UNL A   1      41.721  34.807  37.439  1.00  0.00     0.031 C 
ATOM     58  C   UNL A   1      44.350  35.606  31.123  1.00  0.00     0.029 A 
ATOM     59  C   UNL A   1      42.933  35.260  31.172  1.00  0.00     0.049 A 
ATOM     60  H   UNL A   1      41.753  35.011  32.872  1.00  0.00     0.167 HD
ATOM     61  C   UNL A   1      39.464  34.279  36.568  1.00  0.00     0.034 A 
ATOM     62  C   UNL A   1      42.144  35.036  30.101  1.00  0.00     0.034 A 
ATOM     63  C   UNL A   1      38.519  34.117  35.493  1.00  0.00     0.049 A 
ATOM     64  C   UNL A   1      40.688  34.717  30.330  1.00  0.00     0.074 A 
ATOM     65  C   UNL A   1      37.164  33.849  35.563  1.00  0.00     0.029 A 
ATOM     66  N   UNL A   1      38.836  34.211  34.142  1.00  0.00    -0.354 N 
ATOM     67  N   UNL A   1      40.049  34.546  31.465  1.00  0.00    -0.248 NA
ATOM     68  C   UNL A   1      39.844  34.580  29.137  1.00  0.00     0.031 C 
ATOM     69  C   UNL A   1      36.673  33.729  34.258  1.00  0.00     0.029 A 
ATOM     70  C   UNL A   1      37.706  33.991  33.370  1.00  0.00     0.049 A 
ATOM     71  H   UNL A   1      39.732  34.405  33.785  1.00  0.00     0.167 HD
ATOM     72  C   UNL A   1      38.722  34.304  31.122  1.00  0.00     0.074 A 
ATOM     73  C   UNL A   1      38.651  34.371  29.676  1.00  0.00     0.031 C 
ATOM     74  C   UNL A   1      37.658  34.052  31.927  1.00  0.00     0.034 A 
BRANCH  61  75
ATOM     75  C   UNL A   1      39.017  34.083  38.000  1.00  0.00     0.023 A 
ATOM     76  C   UNL A   1      38.558  32.832  38.458  1.00  0.00     0.031 A 
ATOM     77  C   UNL A   1      38.954  35.167  38.891  1.00  0.00     0.131 A 
ATOM     78  C   UNL A   1      37.938  32.728  39.711  1.00  0.00     0.055 A 
ATOM     79  C   UNL A   1      38.436  35.030  40.183  1.00  0.00     0.041 A 
ATOM     80  F   UNL A   1      39.361  36.389  38.513  1.00  0.00    -0.206 F 
ATOM     81  C   UNL A   1      37.898  33.811  40.589  1.00  0.00     0.022 A 
BRANCH  78  82
ATOM     82  S   UNL A   1      36.999  31.219  40.080  1.00  0.00     0.124 S 
ATOM     83  O   UNL A   1      36.963  30.568  38.771  1.00  0.00    -0.237 OA
ATOM     84  O   UNL A   1      37.825  30.571  41.092  1.00  0.00    -0.237 OA
ATOM     85  O   UNL A   1      35.712  31.723  40.552  1.00  0.00    -0.744 OA
ENDBRANCH  78  82
ENDBRANCH  61  75
BRANCH  62  86
ATOM     86  C   UNL A   1      42.706  35.115  28.721  1.00  0.00     0.023 A 
ATOM     87  C   UNL A   1      43.445  34.054  28.170  1.00  0.00     0.031 A 
ATOM     88  C   UNL A   1      42.522  36.265  27.933  1.00  0.00     0.131 A 
ATOM     89  C   UNL A   1      44.001  34.178  26.886  1.00  0.00     0.055 A 
ATOM     90  C   UNL A   1      43.040  36.366  26.640  1.00  0.00     0.041 A 
ATOM     91  F   UNL A   1      41.814  37.303  28.406  1.00  0.00    -0.206 F 
ATOM     92  C   UNL A   1      43.794  35.322  26.113  1.00  0.00     0.022 A 
BRANCH  89  93
ATOM     93  S   UNL A   1      45.052  32.838  26.256  1.00  0.00     0.124 S 
ATOM     94  O   UNL A   1      44.453  32.578  24.953  1.00  0.00    -0.237 OA
ATOM     95  O   UNL A   1      46.369  33.467  26.245  1.00  0.00    -0.237 OA
ATOM     96  O   UNL A   1      44.880  31.777  27.247  1.00  0.00    -0.744 OA
ENDBRANCH  89  93
ENDBRANCH  62  86
BRANCH  74  97
ATOM     97  C   UNL A   1      36.319  33.868  31.256  1.00  0.00     0.023 A 
ATOM     98  C   UNL A   1      35.368  34.900  31.207  1.00  0.00     0.031 A 
ATOM     99  C   UNL A   1      35.995  32.638  30.656  1.00  0.00     0.131 A 
ATOM    100  C   UNL A   1      34.116  34.668  30.618  1.00  0.00     0.055 A 
ATOM    101  C   UNL A   1      34.771  32.432  30.019  1.00  0.00     0.041 A 
ATOM    102  F   UNL A   1      36.867  31.617  30.674  1.00  0.00    -0.206 F 
ATOM    103  C   UNL A   1      33.818  33.446  30.009  1.00  0.00     0.022 A 
BRANCH 100 104
ATOM    104  S   UNL A   1      32.845  35.956  30.739  1.00  0.00     0.124 S 
ATOM    105  O   UNL A   1      32.428  36.103  29.348  1.00  0.00    -0.237 OA
ATOM    106  O   UNL A   1      31.868  35.347  31.636  1.00  0.00    -0.237 OA
ATOM    107  O   UNL A   1      33.566  37.099  31.294  1.00  0.00    -0.744 OA
ENDBRANCH 100 104
ENDBRANCH  74  97
ENDBRANCH  48  49
ENDBRANCH  40  43
ENDBRANCH   1  39
TORSDOF 14
ENDMDL
