MODEL 1
REMARK VINA RESULT:     -11.3      0.000      0.000
REMARK SMILES CN(C)c1ccc(C(=O)N[C@@H](CO)C(=O)NCCCNC(=O)c2ccc(-c3c4nc(c(-c5cc(S(=O)(=O)[O-])ccc5F)c5ccc([nH]5)c(-c5cc(S(=O)(=O)[O-])ccc5F)c5nc(c(-c6cc(S(=O)(=O)[O-])ccc6F)c6ccc3[nH]6)C=C5)C=C4)cc2)cn1
REMARK SMILES IDX 18 1 17 2 16 3 14 4 15 5 11 7 10 8 8 9 9 10 7 12 4 13 5 14
REMARK SMILES IDX 87 15 6 16 86 17 2 18 1 19 3 20 12 21 13 22 19 24 20 25
REMARK SMILES IDX 21 26 22 28 23 29 24 30 85 31 25 32 84 33 26 34 27 35 28 36
REMARK SMILES IDX 78 37 29 38 83 39 77 40 79 41 30 42 82 43 76 44 75 45 31 47
REMARK SMILES IDX 63 48 43 49 62 50 44 51 47 52 61 53 80 54 45 55 46 56 60 58
REMARK SMILES IDX 81 59 48 60 32 61 33 62 41 63 34 64 40 65 42 66 39 67 35 68
REMARK SMILES IDX 36 69 37 70 38 71 64 72 65 73 73 74 66 75 72 76 74 77 71 78
REMARK SMILES IDX 67 79 68 80 69 81 70 82 49 83 50 84 58 85 51 86 57 87 59 88
REMARK SMILES IDX 56 89 52 90 53 91 54 92 55 93
REMARK H PARENT 16 6 10 11 13 23 20 27 79 46 47 57
REMARK Flexibility Score: inf
ROOT
ATOM      1  C   UNL A   1      31.617  29.068  26.420  1.00  0.00     0.042 C 
ENDROOT
BRANCH   1   2
ATOM      2  C   UNL A   1      31.867  27.587  26.187  1.00  0.00     0.117 C 
BRANCH   2   3
ATOM      3  N   UNL A   1      30.818  26.989  25.389  1.00  0.00    -0.354 N 
ATOM      4  C   UNL A   1      30.520  27.095  24.076  1.00  0.00     0.244 C 
ATOM      5  O   UNL A   1      29.608  26.371  23.655  1.00  0.00    -0.273 OA
ATOM      6  H   UNL A   1      30.214  26.398  25.893  1.00  0.00     0.163 HD
BRANCH   4   7
ATOM      7  C   UNL A   1      31.303  27.973  23.092  1.00  0.00     0.197 C 
BRANCH   7   8
ATOM      8  N   UNL A   1      32.007  27.288  22.006  1.00  0.00    -0.338 N 
ATOM      9  C   UNL A   1      32.845  26.197  21.984  1.00  0.00     0.253 C 
ATOM     10  O   UNL A   1      33.277  25.862  20.879  1.00  0.00    -0.269 OA
ATOM     11  H   UNL A   1      31.851  27.685  21.119  1.00  0.00     0.164 HD
BRANCH   9  12
ATOM     12  C   UNL A   1      33.239  25.390  23.174  1.00  0.00     0.058 A 
ATOM     13  C   UNL A   1      33.715  23.690  25.351  1.00  0.00     0.127 A 
ATOM     14  C   UNL A   1      34.308  24.943  25.295  1.00  0.00     0.048 A 
ATOM     15  N   UNL A   1      32.940  23.256  24.337  1.00  0.00    -0.239 NA
ATOM     16  C   UNL A   1      34.119  25.762  24.180  1.00  0.00     0.019 A 
ATOM     17  C   UNL A   1      32.697  24.113  23.300  1.00  0.00     0.127 A 
BRANCH  13  18
ATOM     18  N   UNL A   1      33.978  22.869  26.438  1.00  0.00    -0.363 N 
ATOM     19  C   UNL A   1      32.874  22.586  27.337  1.00  0.00     0.144 C 
ATOM     20  C   UNL A   1      35.058  21.916  26.291  1.00  0.00     0.144 C 
ENDBRANCH  13  18
ENDBRANCH   9  12
ENDBRANCH   7   8
BRANCH   7  21
ATOM     21  C   UNL A   1      30.473  29.165  22.581  1.00  0.00     0.191 C 
BRANCH  21  22
ATOM     22  O   UNL A   1      31.179  30.011  21.678  1.00  0.00    -0.394 OA
ATOM     23  H   UNL A   1      31.407  30.842  22.125  1.00  0.00     0.210 HD
ENDBRANCH  21  22
ENDBRANCH   7  21
ENDBRANCH   4   7
ENDBRANCH   2   3
ENDBRANCH   1   2
BRANCH   1  24
ATOM     24  C   UNL A   1      32.740  29.969  25.926  1.00  0.00     0.118 C 
BRANCH  24  25
ATOM     25  N   UNL A   1      32.574  31.357  26.336  1.00  0.00    -0.352 N 
ATOM     26  C   UNL A   1      33.275  32.087  27.270  1.00  0.00     0.251 C 
ATOM     27  H   UNL A   1      31.853  31.845  25.877  1.00  0.00     0.163 HD
ATOM     28  O   UNL A   1      32.866  33.180  27.623  1.00  0.00    -0.269 OA
BRANCH  26  29
ATOM     29  C   UNL A   1      34.507  31.515  27.856  1.00  0.00     0.039 A 
ATOM     30  C   UNL A   1      35.616  32.340  28.055  1.00  0.00     0.014 A 
ATOM     31  C   UNL A   1      34.550  30.172  28.238  1.00  0.00     0.014 A 
ATOM     32  C   UNL A   1      36.739  31.835  28.717  1.00  0.00     0.010 A 
ATOM     33  C   UNL A   1      35.624  29.704  28.986  1.00  0.00     0.010 A 
ATOM     34  C   UNL A   1      36.733  30.528  29.229  1.00  0.00    -0.014 A 
BRANCH  34  35
ATOM     35  C   UNL A   1      37.878  29.982  30.004  1.00  0.00     0.031 A 
ATOM     36  C   UNL A   1      38.126  30.476  31.405  1.00  0.00     0.074 A 
ATOM     37  C   UNL A   1      38.740  29.123  29.420  1.00  0.00     0.049 A 
ATOM     38  N   UNL A   1      39.140  30.248  32.197  1.00  0.00    -0.248 NA
ATOM     39  C   UNL A   1      37.114  31.382  31.976  1.00  0.00     0.031 C 
ATOM     40  C   UNL A   1      38.630  28.609  28.053  1.00  0.00     0.029 A 
ATOM     41  N   UNL A   1      39.892  28.545  29.895  1.00  0.00    -0.354 N 
ATOM     42  C   UNL A   1      38.908  31.007  33.339  1.00  0.00     0.074 A 
ATOM     43  C   UNL A   1      37.682  31.741  33.118  1.00  0.00     0.031 C 
ATOM     44  C   UNL A   1      39.660  27.783  27.807  1.00  0.00     0.029 A 
ATOM     45  C   UNL A   1      40.534  27.747  28.975  1.00  0.00     0.049 A 
ATOM     46  H   UNL A   1      40.226  28.686  30.810  1.00  0.00     0.167 HD
ATOM     47  C   UNL A   1      39.641  31.069  34.477  1.00  0.00     0.034 A 
ATOM     48  C   UNL A   1      41.705  27.082  29.054  1.00  0.00     0.034 A 
ATOM     49  C   UNL A   1      40.836  30.294  34.699  1.00  0.00     0.049 A 
ATOM     50  C   UNL A   1      42.495  27.161  30.340  1.00  0.00     0.074 A 
ATOM     51  C   UNL A   1      41.606  30.214  35.846  1.00  0.00     0.029 A 
ATOM     52  N   UNL A   1      41.433  29.468  33.757  1.00  0.00    -0.354 N 
ATOM     53  N   UNL A   1      42.224  27.834  31.435  1.00  0.00    -0.248 NA
ATOM     54  C   UNL A   1      43.740  26.383  30.405  1.00  0.00     0.031 C 
ATOM     55  C   UNL A   1      42.705  29.394  35.576  1.00  0.00     0.029 A 
ATOM     56  C   UNL A   1      42.579  28.898  34.289  1.00  0.00     0.049 A 
ATOM     57  H   UNL A   1      41.093  29.310  32.847  1.00  0.00     0.167 HD
ATOM     58  C   UNL A   1      43.246  27.527  32.330  1.00  0.00     0.074 A 
ATOM     59  C   UNL A   1      44.128  26.600  31.652  1.00  0.00     0.031 C 
ATOM     60  C   UNL A   1      43.440  27.967  33.599  1.00  0.00     0.034 A 
BRANCH  47  61
ATOM     61  C   UNL A   1      39.185  32.015  35.560  1.00  0.00     0.023 A 
ATOM     62  C   UNL A   1      39.625  33.348  35.616  1.00  0.00     0.031 A 
ATOM     63  C   UNL A   1      38.283  31.576  36.547  1.00  0.00     0.131 A 
ATOM     64  C   UNL A   1      39.209  34.179  36.667  1.00  0.00     0.055 A 
ATOM     65  C   UNL A   1      37.814  32.429  37.546  1.00  0.00     0.041 A 
ATOM     66  F   UNL A   1      37.845  30.307  36.556  1.00  0.00    -0.206 F 
ATOM     67  C   UNL A   1      38.284  33.737  37.617  1.00  0.00     0.022 A 
BRANCH  64  68
ATOM     68  S   UNL A   1      39.974  35.813  36.838  1.00  0.00     0.124 S 
ATOM     69  O   UNL A   1      41.377  35.461  37.039  1.00  0.00    -0.237 OA
ATOM     70  O   UNL A   1      39.653  36.448  35.565  1.00  0.00    -0.237 OA
ATOM     71  O   UNL A   1      39.308  36.385  38.006  1.00  0.00    -0.744 OA
ENDBRANCH  64  68
ENDBRANCH  47  61
BRANCH  48  72
ATOM     72  C   UNL A   1      42.227  26.304  27.892  1.00  0.00     0.023 A 
ATOM     73  C   UNL A   1      41.813  24.982  27.662  1.00  0.00     0.031 A 
ATOM     74  C   UNL A   1      43.205  26.843  27.038  1.00  0.00     0.131 A 
ATOM     75  C   UNL A   1      42.423  24.222  26.652  1.00  0.00     0.055 A 
ATOM     76  C   UNL A   1      43.762  26.103  25.992  1.00  0.00     0.041 A 
ATOM     77  F   UNL A   1      43.637  28.103  27.207  1.00  0.00    -0.206 F 
ATOM     78  C   UNL A   1      43.385  24.777  25.807  1.00  0.00     0.022 A 
BRANCH  75  79
ATOM     79  S   UNL A   1      42.029  22.454  26.541  1.00  0.00     0.124 S 
ATOM     80  O   UNL A   1      42.641  21.937  27.760  1.00  0.00    -0.237 OA
ATOM     81  O   UNL A   1      40.571  22.471  26.512  1.00  0.00    -0.237 OA
ATOM     82  O   UNL A   1      42.672  22.040  25.296  1.00  0.00    -0.744 OA
ENDBRANCH  75  79
ENDBRANCH  48  72
BRANCH  60  83
ATOM     83  C   UNL A   1      44.614  27.400  34.355  1.00  0.00     0.023 A 
ATOM     84  C   UNL A   1      44.516  26.213  35.100  1.00  0.00     0.031 A 
ATOM     85  C   UNL A   1      45.856  28.060  34.319  1.00  0.00     0.131 A 
ATOM     86  C   UNL A   1      45.627  25.748  35.819  1.00  0.00     0.055 A 
ATOM     87  C   UNL A   1      46.974  27.560  34.986  1.00  0.00     0.041 A 
ATOM     88  F   UNL A   1      46.004  29.199  33.622  1.00  0.00    -0.206 F 
ATOM     89  C   UNL A   1      46.859  26.404  35.752  1.00  0.00     0.022 A 
BRANCH  86  90
ATOM     90  S   UNL A   1      45.420  24.313  36.909  1.00  0.00     0.124 S 
ATOM     91  O   UNL A   1      44.511  24.832  37.925  1.00  0.00    -0.237 OA
ATOM     92  O   UNL A   1      44.862  23.312  36.006  1.00  0.00    -0.237 OA
ATOM     93  O   UNL A   1      46.778  24.038  37.373  1.00  0.00    -0.744 OA
ENDBRANCH  86  90
ENDBRANCH  60  83
ENDBRANCH  34  35
ENDBRANCH  26  29
ENDBRANCH  24  25
ENDBRANCH   1  24
TORSDOF 18
ENDMDL
MODEL 2
REMARK VINA RESULT:     -11.2      2.380      7.924
REMARK SMILES CN(C)c1ccc(C(=O)N[C@@H](CO)C(=O)NCCCNC(=O)c2ccc(-c3c4nc(c(-c5cc(S(=O)(=O)[O-])ccc5F)c5ccc([nH]5)c(-c5cc(S(=O)(=O)[O-])ccc5F)c5nc(c(-c6cc(S(=O)(=O)[O-])ccc6F)c6ccc3[nH]6)C=C5)C=C4)cc2)cn1
REMARK SMILES IDX 18 1 17 2 16 3 14 4 15 5 11 7 10 8 8 9 9 10 7 12 4 13 5 14
REMARK SMILES IDX 87 15 6 16 86 17 2 18 1 19 3 20 12 21 13 22 19 24 20 25
REMARK SMILES IDX 21 26 22 28 23 29 24 30 85 31 25 32 84 33 26 34 27 35 28 36
REMARK SMILES IDX 78 37 29 38 83 39 77 40 79 41 30 42 82 43 76 44 75 45 31 47
REMARK SMILES IDX 63 48 43 49 62 50 44 51 47 52 61 53 80 54 45 55 46 56 60 58
REMARK SMILES IDX 81 59 48 60 32 61 33 62 41 63 34 64 40 65 42 66 39 67 35 68
REMARK SMILES IDX 36 69 37 70 38 71 64 72 65 73 73 74 66 75 72 76 74 77 71 78
REMARK SMILES IDX 67 79 68 80 69 81 70 82 49 83 50 84 58 85 51 86 57 87 59 88
REMARK SMILES IDX 56 89 52 90 53 91 54 92 55 93
REMARK H PARENT 16 6 10 11 13 23 20 27 79 46 47 57
REMARK Flexibility Score: inf
ROOT
ATOM      1  C   UNL A   1      31.896  31.037  26.798  1.00  0.00     0.042 C 
ENDROOT
BRANCH   1   2
ATOM      2  C   UNL A   1      32.207  30.121  25.627  1.00  0.00     0.117 C 
BRANCH   2   3
ATOM      3  N   UNL A   1      31.106  30.063  24.689  1.00  0.00    -0.354 N 
ATOM      4  C   UNL A   1      30.558  29.030  24.013  1.00  0.00     0.244 C 
ATOM      5  O   UNL A   1      29.542  29.279  23.350  1.00  0.00    -0.273 OA
ATOM      6  H   UNL A   1      30.679  30.932  24.513  1.00  0.00     0.163 HD
BRANCH   4   7
ATOM      7  C   UNL A   1      31.063  27.585  24.107  1.00  0.00     0.197 C 
BRANCH   7   8
ATOM      8  N   UNL A   1      30.508  26.756  25.179  1.00  0.00    -0.338 N 
ATOM      9  C   UNL A   1      30.956  25.610  25.795  1.00  0.00     0.253 C 
ATOM     10  O   UNL A   1      30.239  25.154  26.687  1.00  0.00    -0.269 OA
ATOM     11  H   UNL A   1      29.647  27.082  25.527  1.00  0.00     0.164 HD
BRANCH   9  12
ATOM     12  C   UNL A   1      32.236  24.910  25.485  1.00  0.00     0.058 A 
ATOM     13  C   UNL A   1      34.458  23.344  24.804  1.00  0.00     0.127 A 
ATOM     14  C   UNL A   1      34.596  24.424  25.664  1.00  0.00     0.048 A 
ATOM     15  N   UNL A   1      33.263  23.063  24.248  1.00  0.00    -0.239 NA
ATOM     16  C   UNL A   1      33.500  25.240  25.952  1.00  0.00     0.019 A 
ATOM     17  C   UNL A   1      32.186  23.821  24.618  1.00  0.00     0.127 A 
BRANCH  13  18
ATOM     18  N   UNL A   1      35.580  22.594  24.479  1.00  0.00    -0.363 N 
ATOM     19  C   UNL A   1      36.376  23.048  23.354  1.00  0.00     0.144 C 
ATOM     20  C   UNL A   1      36.198  21.846  25.553  1.00  0.00     0.144 C 
ENDBRANCH  13  18
ENDBRANCH   9  12
ENDBRANCH   7   8
BRANCH   7  21
ATOM     21  C   UNL A   1      31.036  26.866  22.747  1.00  0.00     0.191 C 
BRANCH  21  22
ATOM     22  O   UNL A   1      30.995  27.749  21.629  1.00  0.00    -0.394 OA
ATOM     23  H   UNL A   1      31.218  27.259  20.822  1.00  0.00     0.210 HD
ENDBRANCH  21  22
ENDBRANCH   7  21
ENDBRANCH   4   7
ENDBRANCH   2   3
ENDBRANCH   1   2
BRANCH   1  24
ATOM     24  C   UNL A   1      33.084  31.866  27.267  1.00  0.00     0.118 C 
BRANCH  24  25
ATOM     25  N   UNL A   1      32.742  33.262  27.503  1.00  0.00    -0.352 N 
ATOM     26  C   UNL A   1      33.225  34.137  28.451  1.00  0.00     0.251 C 
ATOM     27  H   UNL A   1      32.064  33.635  26.895  1.00  0.00     0.163 HD
ATOM     28  O   UNL A   1      32.677  35.212  28.624  1.00  0.00    -0.269 OA
BRANCH  26  29
ATOM     29  C   UNL A   1      34.393  33.742  29.268  1.00  0.00     0.039 A 
ATOM     30  C   UNL A   1      34.204  32.896  30.363  1.00  0.00     0.014 A 
ATOM     31  C   UNL A   1      35.674  34.181  28.930  1.00  0.00     0.014 A 
ATOM     32  C   UNL A   1      35.315  32.423  31.067  1.00  0.00     0.010 A 
ATOM     33  C   UNL A   1      36.780  33.628  29.564  1.00  0.00     0.010 A 
ATOM     34  C   UNL A   1      36.614  32.747  30.644  1.00  0.00    -0.014 A 
BRANCH  34  35
ATOM     35  C   UNL A   1      37.820  32.202  31.320  1.00  0.00     0.031 A 
ATOM     36  C   UNL A   1      38.595  31.088  30.665  1.00  0.00     0.074 A 
ATOM     37  C   UNL A   1      38.159  32.638  32.551  1.00  0.00     0.049 A 
ATOM     38  N   UNL A   1      39.579  30.371  31.142  1.00  0.00    -0.248 NA
ATOM     39  C   UNL A   1      38.178  30.702  29.307  1.00  0.00     0.031 C 
ATOM     40  C   UNL A   1      37.458  33.680  33.305  1.00  0.00     0.029 A 
ATOM     41  N   UNL A   1      39.169  32.247  33.396  1.00  0.00    -0.354 N 
ATOM     42  C   UNL A   1      39.873  29.431  30.161  1.00  0.00     0.074 A 
ATOM     43  C   UNL A   1      38.931  29.635  29.083  1.00  0.00     0.031 C 
ATOM     44  C   UNL A   1      38.065  33.854  34.490  1.00  0.00     0.029 A 
ATOM     45  C   UNL A   1      39.166  32.903  34.607  1.00  0.00     0.049 A 
ATOM     46  H   UNL A   1      39.833  31.561  33.158  1.00  0.00     0.167 HD
ATOM     47  C   UNL A   1      40.854  28.496  30.152  1.00  0.00     0.034 A 
ATOM     48  C   UNL A   1      39.947  32.741  35.695  1.00  0.00     0.034 A 
ATOM     49  C   UNL A   1      41.814  28.338  31.216  1.00  0.00     0.049 A 
ATOM     50  C   UNL A   1      41.040  31.699  35.653  1.00  0.00     0.074 A 
ATOM     51  C   UNL A   1      42.901  27.484  31.271  1.00  0.00     0.029 A 
ATOM     52  N   UNL A   1      41.803  29.048  32.408  1.00  0.00    -0.354 N 
ATOM     53  N   UNL A   1      41.344  30.861  34.687  1.00  0.00    -0.248 NA
ATOM     54  C   UNL A   1      41.900  31.587  36.838  1.00  0.00     0.031 C 
ATOM     55  C   UNL A   1      43.506  27.628  32.523  1.00  0.00     0.029 A 
ATOM     56  C   UNL A   1      42.847  28.629  33.218  1.00  0.00     0.049 A 
ATOM     57  H   UNL A   1      41.150  29.747  32.644  1.00  0.00     0.167 HD
ATOM     58  C   UNL A   1      42.455  30.153  35.137  1.00  0.00     0.074 A 
ATOM     59  C   UNL A   1      42.773  30.670  36.451  1.00  0.00     0.031 C 
ATOM     60  C   UNL A   1      43.153  29.165  34.521  1.00  0.00     0.034 A 
BRANCH  47  61
ATOM     61  C   UNL A   1      40.928  27.562  28.970  1.00  0.00     0.023 A 
ATOM     62  C   UNL A   1      41.893  27.716  27.961  1.00  0.00     0.031 A 
ATOM     63  C   UNL A   1      40.022  26.492  28.859  1.00  0.00     0.131 A 
ATOM     64  C   UNL A   1      41.895  26.850  26.857  1.00  0.00     0.055 A 
ATOM     65  C   UNL A   1      40.076  25.589  27.797  1.00  0.00     0.041 A 
ATOM     66  F   UNL A   1      39.064  26.309  29.782  1.00  0.00    -0.206 F 
ATOM     67  C   UNL A   1      41.011  25.770  26.782  1.00  0.00     0.022 A 
BRANCH  64  68
ATOM     68  S   UNL A   1      42.999  27.217  25.467  1.00  0.00     0.124 S 
ATOM     69  O   UNL A   1      44.190  27.703  26.158  1.00  0.00    -0.237 OA
ATOM     70  O   UNL A   1      43.127  25.920  24.812  1.00  0.00    -0.237 OA
ATOM     71  O   UNL A   1      42.270  28.230  24.706  1.00  0.00    -0.744 OA
ENDBRANCH  64  68
ENDBRANCH  47  61
BRANCH  48  72
ATOM     72  C   UNL A   1      39.725  33.554  36.927  1.00  0.00     0.023 A 
ATOM     73  C   UNL A   1      39.065  33.014  38.042  1.00  0.00     0.031 A 
ATOM     74  C   UNL A   1      40.101  34.908  36.981  1.00  0.00     0.131 A 
ATOM     75  C   UNL A   1      38.739  33.836  39.132  1.00  0.00     0.055 A 
ATOM     76  C   UNL A   1      39.832  35.707  38.096  1.00  0.00     0.041 A 
ATOM     77  F   UNL A   1      40.739  35.479  35.947  1.00  0.00    -0.206 F 
ATOM     78  C   UNL A   1      39.129  35.175  39.172  1.00  0.00     0.022 A 
BRANCH  75  79
ATOM     79  S   UNL A   1      37.683  33.159  40.444  1.00  0.00     0.124 S 
ATOM     80  O   UNL A   1      38.620  32.311  41.170  1.00  0.00    -0.237 OA
ATOM     81  O   UNL A   1      37.245  34.369  41.131  1.00  0.00    -0.237 OA
ATOM     82  O   UNL A   1      36.639  32.449  39.707  1.00  0.00    -0.744 OA
ENDBRANCH  75  79
ENDBRANCH  48  72
BRANCH  60  83
ATOM     83  C   UNL A   1      44.366  28.629  35.237  1.00  0.00     0.023 A 
ATOM     84  C   UNL A   1      44.272  27.609  36.199  1.00  0.00     0.031 A 
ATOM     85  C   UNL A   1      45.641  29.146  34.941  1.00  0.00     0.131 A 
ATOM     86  C   UNL A   1      45.426  27.173  36.867  1.00  0.00     0.055 A 
ATOM     87  C   UNL A   1      46.792  28.666  35.564  1.00  0.00     0.041 A 
ATOM     88  F   UNL A   1      45.787  30.123  34.030  1.00  0.00    -0.206 F 
ATOM     89  C   UNL A   1      46.687  27.682  36.543  1.00  0.00     0.022 A 
BRANCH  86  90
ATOM     90  S   UNL A   1      45.250  25.983  38.224  1.00  0.00     0.124 S 
ATOM     91  O   UNL A   1      44.231  26.619  39.054  1.00  0.00    -0.237 OA
ATOM     92  O   UNL A   1      44.836  24.771  37.526  1.00  0.00    -0.237 OA
ATOM     93  O   UNL A   1      46.587  25.933  38.812  1.00  0.00    -0.744 OA
ENDBRANCH  86  90
ENDBRANCH  60  83
ENDBRANCH  34  35
ENDBRANCH  26  29
ENDBRANCH  24  25
ENDBRANCH   1  24
TORSDOF 18
ENDMDL
MODEL 3
REMARK VINA RESULT:     -11.2      1.551      7.762
REMARK SMILES CN(C)c1ccc(C(=O)N[C@@H](CO)C(=O)NCCCNC(=O)c2ccc(-c3c4nc(c(-c5cc(S(=O)(=O)[O-])ccc5F)c5ccc([nH]5)c(-c5cc(S(=O)(=O)[O-])ccc5F)c5nc(c(-c6cc(S(=O)(=O)[O-])ccc6F)c6ccc3[nH]6)C=C5)C=C4)cc2)cn1
REMARK SMILES IDX 18 1 17 2 16 3 14 4 15 5 11 7 10 8 8 9 9 10 7 12 4 13 5 14
REMARK SMILES IDX 87 15 6 16 86 17 2 18 1 19 3 20 12 21 13 22 19 24 20 25
REMARK SMILES IDX 21 26 22 28 23 29 24 30 85 31 25 32 84 33 26 34 27 35 28 36
REMARK SMILES IDX 78 37 29 38 83 39 77 40 79 41 30 42 82 43 76 44 75 45 31 47
REMARK SMILES IDX 63 48 43 49 62 50 44 51 47 52 61 53 80 54 45 55 46 56 60 58
REMARK SMILES IDX 81 59 48 60 32 61 33 62 41 63 34 64 40 65 42 66 39 67 35 68
REMARK SMILES IDX 36 69 37 70 38 71 64 72 65 73 73 74 66 75 72 76 74 77 71 78
REMARK SMILES IDX 67 79 68 80 69 81 70 82 49 83 50 84 58 85 51 86 57 87 59 88
REMARK SMILES IDX 56 89 52 90 53 91 54 92 55 93
REMARK H PARENT 16 6 10 11 13 23 20 27 79 46 47 57
REMARK Flexibility Score: inf
ROOT
ATOM      1  C   UNL A   1      32.201  28.070  26.648  1.00  0.00     0.042 C 
ENDROOT
BRANCH   1   2
ATOM      2  C   UNL A   1      32.010  26.830  25.789  1.00  0.00     0.117 C 
BRANCH   2   3
ATOM      3  N   UNL A   1      30.871  26.965  24.906  1.00  0.00    -0.354 N 
ATOM      4  C   UNL A   1      30.772  27.398  23.630  1.00  0.00     0.244 C 
ATOM      5  O   UNL A   1      29.658  27.301  23.098  1.00  0.00    -0.273 OA
ATOM      6  H   UNL A   1      30.014  26.692  25.307  1.00  0.00     0.163 HD
BRANCH   4   7
ATOM      7  C   UNL A   1      31.964  27.895  22.804  1.00  0.00     0.197 C 
BRANCH   7   8
ATOM      8  N   UNL A   1      32.344  27.094  21.638  1.00  0.00    -0.338 N 
ATOM      9  C   UNL A   1      32.766  25.793  21.502  1.00  0.00     0.253 C 
ATOM     10  O   UNL A   1      33.006  25.413  20.354  1.00  0.00    -0.269 OA
ATOM     11  H   UNL A   1      32.286  27.584  20.785  1.00  0.00     0.164 HD
BRANCH   9  12
ATOM     12  C   UNL A   1      32.924  24.818  22.619  1.00  0.00     0.058 A 
ATOM     13  C   UNL A   1      33.541  23.042  24.698  1.00  0.00     0.127 A 
ATOM     14  C   UNL A   1      32.323  22.956  24.038  1.00  0.00     0.048 A 
ATOM     15  N   UNL A   1      34.422  24.010  24.379  1.00  0.00    -0.239 NA
ATOM     16  C   UNL A   1      31.993  23.881  23.045  1.00  0.00     0.019 A 
ATOM     17  C   UNL A   1      34.115  24.846  23.342  1.00  0.00     0.127 A 
BRANCH  13  18
ATOM     18  N   UNL A   1      33.812  22.154  25.729  1.00  0.00    -0.363 N 
ATOM     19  C   UNL A   1      34.164  20.796  25.357  1.00  0.00     0.144 C 
ATOM     20  C   UNL A   1      34.305  22.720  26.966  1.00  0.00     0.144 C 
ENDBRANCH  13  18
ENDBRANCH   9  12
ENDBRANCH   7   8
BRANCH   7  21
ATOM     21  C   UNL A   1      31.859  29.393  22.467  1.00  0.00     0.191 C 
BRANCH  21  22
ATOM     22  O   UNL A   1      30.865  29.695  21.492  1.00  0.00    -0.394 OA
ATOM     23  H   UNL A   1      29.985  29.511  21.860  1.00  0.00     0.210 HD
ENDBRANCH  21  22
ENDBRANCH   7  21
ENDBRANCH   4   7
ENDBRANCH   2   3
ENDBRANCH   1   2
BRANCH   1  24
ATOM     24  C   UNL A   1      33.115  29.117  26.026  1.00  0.00     0.118 C 
BRANCH  24  25
ATOM     25  N   UNL A   1      32.733  30.478  26.374  1.00  0.00    -0.352 N 
ATOM     26  C   UNL A   1      33.344  31.372  27.226  1.00  0.00     0.251 C 
ATOM     27  H   UNL A   1      31.916  30.809  25.934  1.00  0.00     0.163 HD
ATOM     28  O   UNL A   1      32.770  32.399  27.546  1.00  0.00    -0.269 OA
BRANCH  26  29
ATOM     29  C   UNL A   1      34.684  31.053  27.766  1.00  0.00     0.039 A 
ATOM     30  C   UNL A   1      35.667  32.044  27.783  1.00  0.00     0.014 A 
ATOM     31  C   UNL A   1      34.953  29.784  28.283  1.00  0.00     0.014 A 
ATOM     32  C   UNL A   1      36.894  31.785  28.400  1.00  0.00     0.010 A 
ATOM     33  C   UNL A   1      36.132  29.564  28.986  1.00  0.00     0.010 A 
ATOM     34  C   UNL A   1      37.118  30.559  29.047  1.00  0.00    -0.014 A 
BRANCH  34  35
ATOM     35  C   UNL A   1      38.381  30.276  29.779  1.00  0.00     0.031 A 
ATOM     36  C   UNL A   1      39.361  29.286  29.206  1.00  0.00     0.074 A 
ATOM     37  C   UNL A   1      38.599  30.831  30.989  1.00  0.00     0.049 A 
ATOM     38  N   UNL A   1      40.441  28.783  29.745  1.00  0.00    -0.248 NA
ATOM     39  C   UNL A   1      39.062  28.759  27.864  1.00  0.00     0.031 C 
ATOM     40  C   UNL A   1      37.700  31.769  31.667  1.00  0.00     0.029 A 
ATOM     41  N   UNL A   1      39.635  30.672  31.877  1.00  0.00    -0.354 N 
ATOM     42  C   UNL A   1      40.929  27.860  28.826  1.00  0.00     0.074 A 
ATOM     43  C   UNL A   1      39.999  27.834  27.719  1.00  0.00     0.031 C 
ATOM     44  C   UNL A   1      38.230  32.112  32.852  1.00  0.00     0.029 A 
ATOM     45  C   UNL A   1      39.478  31.382  33.047  1.00  0.00     0.049 A 
ATOM     46  H   UNL A   1      40.417  30.105  31.693  1.00  0.00     0.167 HD
ATOM     47  C   UNL A   1      42.060  27.117  28.893  1.00  0.00     0.034 A 
ATOM     48  C   UNL A   1      40.240  31.420  34.159  1.00  0.00     0.034 A 
ATOM     49  C   UNL A   1      42.999  27.190  29.983  1.00  0.00     0.049 A 
ATOM     50  C   UNL A   1      41.502  30.589  34.200  1.00  0.00     0.074 A 
ATOM     51  C   UNL A   1      44.218  26.548  30.112  1.00  0.00     0.029 A 
ATOM     52  N   UNL A   1      42.824  27.949  31.133  1.00  0.00    -0.354 N 
ATOM     53  N   UNL A   1      41.980  29.770  33.291  1.00  0.00    -0.248 NA
ATOM     54  C   UNL A   1      42.331  30.697  35.408  1.00  0.00     0.031 C 
ATOM     55  C   UNL A   1      44.748  26.865  31.365  1.00  0.00     0.029 A 
ATOM     56  C   UNL A   1      43.900  27.768  31.987  1.00  0.00     0.049 A 
ATOM     57  H   UNL A   1      42.051  28.531  31.313  1.00  0.00     0.167 HD
ATOM     58  C   UNL A   1      43.184  29.297  33.806  1.00  0.00     0.074 A 
ATOM     59  C   UNL A   1      43.365  29.932  35.094  1.00  0.00     0.031 C 
ATOM     60  C   UNL A   1      44.066  28.419  33.263  1.00  0.00     0.034 A 
BRANCH  47  61
ATOM     61  C   UNL A   1      42.335  26.150  27.768  1.00  0.00     0.023 A 
ATOM     62  C   UNL A   1      41.815  24.845  27.766  1.00  0.00     0.031 A 
ATOM     63  C   UNL A   1      43.126  26.547  26.674  1.00  0.00     0.131 A 
ATOM     64  C   UNL A   1      42.135  23.966  26.720  1.00  0.00     0.055 A 
ATOM     65  C   UNL A   1      43.379  25.692  25.601  1.00  0.00     0.041 A 
ATOM     66  F   UNL A   1      43.668  27.774  26.633  1.00  0.00    -0.206 F 
ATOM     67  C   UNL A   1      42.891  24.389  25.623  1.00  0.00     0.022 A 
BRANCH  64  68
ATOM     68  S   UNL A   1      41.640  22.228  26.864  1.00  0.00     0.124 S 
ATOM     69  O   UNL A   1      40.227  22.353  27.210  1.00  0.00    -0.237 OA
ATOM     70  O   UNL A   1      41.926  21.706  25.532  1.00  0.00    -0.237 OA
ATOM     71  O   UNL A   1      42.495  21.714  27.932  1.00  0.00    -0.744 OA
ENDBRANCH  64  68
ENDBRANCH  47  61
BRANCH  48  72
ATOM     72  C   UNL A   1      39.839  32.245  35.337  1.00  0.00     0.023 A 
ATOM     73  C   UNL A   1      39.054  31.702  36.367  1.00  0.00     0.031 A 
ATOM     74  C   UNL A   1      40.170  33.609  35.415  1.00  0.00     0.131 A 
ATOM     75  C   UNL A   1      38.568  32.531  37.390  1.00  0.00     0.055 A 
ATOM     76  C   UNL A   1      39.738  34.416  36.470  1.00  0.00     0.041 A 
ATOM     77  F   UNL A   1      40.922  34.182  34.461  1.00  0.00    -0.206 F 
ATOM     78  C   UNL A   1      38.915  33.881  37.456  1.00  0.00     0.022 A 
BRANCH  75  79
ATOM     79  S   UNL A   1      37.368  31.844  38.566  1.00  0.00     0.124 S 
ATOM     80  O   UNL A   1      37.166  30.502  38.033  1.00  0.00    -0.237 OA
ATOM     81  O   UNL A   1      38.098  31.933  39.826  1.00  0.00    -0.237 OA
ATOM     82  O   UNL A   1      36.222  32.743  38.446  1.00  0.00    -0.744 OA
ENDBRANCH  75  79
ENDBRANCH  48  72
BRANCH  60  83
ATOM     83  C   UNL A   1      45.332  28.147  34.034  1.00  0.00     0.023 A 
ATOM     84  C   UNL A   1      45.412  27.130  35.000  1.00  0.00     0.031 A 
ATOM     85  C   UNL A   1      46.483  28.920  33.789  1.00  0.00     0.131 A 
ATOM     86  C   UNL A   1      46.601  26.944  35.720  1.00  0.00     0.055 A 
ATOM     87  C   UNL A   1      47.680  28.691  34.464  1.00  0.00     0.041 A 
ATOM     88  F   UNL A   1      46.461  29.906  32.877  1.00  0.00    -0.206 F 
ATOM     89  C   UNL A   1      47.741  27.705  35.445  1.00  0.00     0.022 A 
BRANCH  86  90
ATOM     90  S   UNL A   1      46.618  25.742  37.078  1.00  0.00     0.124 S 
ATOM     91  O   UNL A   1      47.514  26.381  38.037  1.00  0.00    -0.237 OA
ATOM     92  O   UNL A   1      45.212  25.683  37.462  1.00  0.00    -0.237 OA
ATOM     93  O   UNL A   1      47.141  24.528  36.455  1.00  0.00    -0.744 OA
ENDBRANCH  86  90
ENDBRANCH  60  83
ENDBRANCH  34  35
ENDBRANCH  26  29
ENDBRANCH  24  25
ENDBRANCH   1  24
TORSDOF 18
ENDMDL
