MODEL 1
REMARK VINA RESULT:     -12.0      0.000      0.000
REMARK SMILES O=C(NCCCNC(=O)[C@H](c1ccccc1)N1C(=O)/C(=C\c2ccc(Br)cc2)SC1=S)c1ccc(-c2c3nc(c(-c4cc(S(=O)(=O)[O-])ccc4F)c4ccc([nH]4)c(-c4cc(S(=O)(=O)[O-])ccc4F)c4nc(c(-c5cc(S(=O)(=O)[O-])ccc5F)c5ccc2[nH]5)C=C4)C=C3)cc1
REMARK SMILES IDX 4 1 3 2 1 3 2 4 32 6 33 7 94 8 34 9 93 10 35 11 36 12 37 13
REMARK SMILES IDX 87 14 38 15 92 16 86 17 88 18 39 19 91 20 85 21 84 22 40 24
REMARK SMILES IDX 72 25 52 26 71 27 53 28 56 29 70 30 89 31 54 32 55 33 69 35
REMARK SMILES IDX 90 36 57 37 41 38 42 39 50 40 43 41 49 42 51 43 48 44 44 45
REMARK SMILES IDX 45 46 46 47 47 48 73 49 74 50 82 51 75 52 81 53 83 54 80 55
REMARK SMILES IDX 76 56 77 57 78 58 79 59 58 60 59 61 67 62 60 63 66 64 68 65
REMARK SMILES IDX 65 66 61 67 62 68 63 69 64 70 5 71 6 72 7 73 8 74 9 76 10 77
REMARK SMILES IDX 17 78 18 79 30 80 19 81 20 82 29 83 31 84 21 85 22 86 23 87
REMARK SMILES IDX 28 88 24 89 27 90 25 91 26 92 11 93 12 94 16 95 13 96 15 97
REMARK SMILES IDX 14 98
REMARK H PARENT 3 5 88 23 56 34 7 75
REMARK Flexibility Score: inf
ROOT
ATOM      1  C   UNL A   1      34.030  28.716  25.943  1.00  0.00     0.118 C 
ENDROOT
BRANCH   1   2
ATOM      2  N   UNL A   1      33.741  30.055  26.442  1.00  0.00    -0.352 N 
ATOM      3  O   UNL A   1      33.839  31.821  27.835  1.00  0.00    -0.269 OA
ATOM      4  C   UNL A   1      34.365  30.791  27.423  1.00  0.00     0.251 C 
ATOM      5  H   UNL A   1      32.980  30.504  26.008  1.00  0.00     0.163 HD
BRANCH   4   6
ATOM      6  C   UNL A   1      35.651  30.333  27.991  1.00  0.00     0.039 A 
ATOM      7  C   UNL A   1      35.683  29.658  29.211  1.00  0.00     0.014 A 
ATOM      8  C   UNL A   1      36.839  30.550  27.288  1.00  0.00     0.014 A 
ATOM      9  C   UNL A   1      36.895  29.373  29.816  1.00  0.00     0.010 A 
ATOM     10  C   UNL A   1      38.057  30.136  27.837  1.00  0.00     0.010 A 
ATOM     11  C   UNL A   1      38.095  29.562  29.116  1.00  0.00    -0.014 A 
BRANCH  11  12
ATOM     12  C   UNL A   1      39.350  29.027  29.702  1.00  0.00     0.031 A 
ATOM     13  C   UNL A   1      39.981  29.659  30.908  1.00  0.00     0.074 A 
ATOM     14  C   UNL A   1      39.901  27.940  29.123  1.00  0.00     0.049 A 
ATOM     15  N   UNL A   1      41.090  29.330  31.518  1.00  0.00    -0.248 NA
ATOM     16  C   UNL A   1      39.289  30.812  31.503  1.00  0.00     0.031 C 
ATOM     17  C   UNL A   1      39.364  27.255  27.940  1.00  0.00     0.029 A 
ATOM     18  N   UNL A   1      41.014  27.209  29.444  1.00  0.00    -0.354 N 
ATOM     19  C   UNL A   1      41.249  30.251  32.548  1.00  0.00     0.074 A 
ATOM     20  C   UNL A   1      40.124  31.160  32.474  1.00  0.00     0.031 C 
ATOM     21  C   UNL A   1      40.121  26.186  27.664  1.00  0.00     0.029 A 
ATOM     22  C   UNL A   1      41.249  26.161  28.582  1.00  0.00     0.049 A 
ATOM     23  H   UNL A   1      41.589  27.413  30.216  1.00  0.00     0.167 HD
ATOM     24  C   UNL A   1      42.248  30.324  33.460  1.00  0.00     0.034 A 
ATOM     25  C   UNL A   1      42.285  25.306  28.503  1.00  0.00     0.034 A 
ATOM     26  C   UNL A   1      43.345  29.387  33.523  1.00  0.00     0.049 A 
ATOM     27  C   UNL A   1      43.397  25.443  29.503  1.00  0.00     0.074 A 
ATOM     28  C   UNL A   1      44.363  29.316  34.458  1.00  0.00     0.029 A 
ATOM     29  N   UNL A   1      43.582  28.375  32.601  1.00  0.00    -0.354 N 
ATOM     30  N   UNL A   1      43.506  26.293  30.498  1.00  0.00    -0.248 NA
ATOM     31  C   UNL A   1      44.527  24.519  29.367  1.00  0.00     0.031 C 
ATOM     32  C   UNL A   1      45.251  28.309  34.062  1.00  0.00     0.029 A 
ATOM     33  C   UNL A   1      44.754  27.707  32.918  1.00  0.00     0.049 A 
ATOM     34  H   UNL A   1      43.000  28.161  31.836  1.00  0.00     0.167 HD
ATOM     35  C   UNL A   1      44.719  26.002  31.110  1.00  0.00     0.074 A 
ATOM     36  C   UNL A   1      45.289  24.880  30.389  1.00  0.00     0.031 C 
ATOM     37  C   UNL A   1      45.315  26.609  32.166  1.00  0.00     0.034 A 
BRANCH  24  38
ATOM     38  C   UNL A   1      42.237  31.477  34.432  1.00  0.00     0.023 A 
ATOM     39  C   UNL A   1      41.363  31.525  35.530  1.00  0.00     0.031 A 
ATOM     40  C   UNL A   1      43.140  32.543  34.261  1.00  0.00     0.131 A 
ATOM     41  C   UNL A   1      41.379  32.634  36.391  1.00  0.00     0.055 A 
ATOM     42  C   UNL A   1      43.195  33.614  35.155  1.00  0.00     0.041 A 
ATOM     43  F   UNL A   1      43.984  32.561  33.218  1.00  0.00    -0.206 F 
ATOM     44  C   UNL A   1      42.305  33.668  36.224  1.00  0.00     0.022 A 
BRANCH  41  45
ATOM     45  S   UNL A   1      40.108  32.757  37.678  1.00  0.00     0.124 S 
ATOM     46  O   UNL A   1      40.891  32.530  38.892  1.00  0.00    -0.237 OA
ATOM     47  O   UNL A   1      39.599  34.111  37.492  1.00  0.00    -0.237 OA
ATOM     48  O   UNL A   1      39.172  31.687  37.342  1.00  0.00    -0.744 OA
ENDBRANCH  41  45
ENDBRANCH  24  38
BRANCH  25  49
ATOM     49  C   UNL A   1      42.354  24.312  27.396  1.00  0.00     0.023 A 
ATOM     50  C   UNL A   1      41.622  23.117  27.442  1.00  0.00     0.031 A 
ATOM     51  C   UNL A   1      43.183  24.534  26.279  1.00  0.00     0.131 A 
ATOM     52  C   UNL A   1      41.759  22.175  26.410  1.00  0.00     0.055 A 
ATOM     53  C   UNL A   1      43.271  23.622  25.229  1.00  0.00     0.041 A 
ATOM     54  F   UNL A   1      43.906  25.663  26.184  1.00  0.00    -0.206 F 
ATOM     55  C   UNL A   1      42.567  22.426  25.298  1.00  0.00     0.022 A 
BRANCH  52  56
ATOM     56  S   UNL A   1      40.940  20.567  26.591  1.00  0.00     0.124 S 
ATOM     57  O   UNL A   1      40.891  20.417  28.041  1.00  0.00    -0.237 OA
ATOM     58  O   UNL A   1      39.662  20.804  25.926  1.00  0.00    -0.237 OA
ATOM     59  O   UNL A   1      41.841  19.647  25.898  1.00  0.00    -0.744 OA
ENDBRANCH  52  56
ENDBRANCH  25  49
BRANCH  37  60
ATOM     60  C   UNL A   1      46.643  26.050  32.599  1.00  0.00     0.023 A 
ATOM     61  C   UNL A   1      46.724  25.034  33.566  1.00  0.00     0.031 A 
ATOM     62  C   UNL A   1      47.838  26.554  32.056  1.00  0.00     0.131 A 
ATOM     63  C   UNL A   1      47.979  24.586  33.999  1.00  0.00     0.055 A 
ATOM     64  C   UNL A   1      49.082  26.064  32.451  1.00  0.00     0.041 A 
ATOM     65  F   UNL A   1      47.812  27.527  31.133  1.00  0.00    -0.206 F 
ATOM     66  C   UNL A   1      49.158  25.081  33.436  1.00  0.00     0.022 A 
BRANCH  63  67
ATOM     67  S   UNL A   1      48.054  23.392  35.362  1.00  0.00     0.124 S 
ATOM     68  O   UNL A   1      46.809  23.667  36.072  1.00  0.00    -0.237 OA
ATOM     69  O   UNL A   1      48.117  22.115  34.658  1.00  0.00    -0.237 OA
ATOM     70  O   UNL A   1      49.272  23.765  36.078  1.00  0.00    -0.744 OA
ENDBRANCH  63  67
ENDBRANCH  37  60
ENDBRANCH  11  12
ENDBRANCH   4   6
ENDBRANCH   1   2
BRANCH   1  71
ATOM     71  C   UNL A   1      33.378  27.631  26.779  1.00  0.00     0.042 C 
BRANCH  71  72
ATOM     72  C   UNL A   1      31.947  27.953  27.148  1.00  0.00     0.117 C 
BRANCH  72  73
ATOM     73  N   UNL A   1      31.038  26.844  26.935  1.00  0.00    -0.354 N 
ATOM     74  C   UNL A   1      30.540  26.351  25.761  1.00  0.00     0.247 C 
ATOM     75  H   UNL A   1      30.737  26.380  27.750  1.00  0.00     0.163 HD
ATOM     76  O   UNL A   1      30.103  25.196  25.779  1.00  0.00    -0.272 OA
BRANCH  74  77
ATOM     77  C   UNL A   1      30.633  27.158  24.425  1.00  0.00     0.211 C 
BRANCH  77  78
ATOM     78  N   UNL A   1      31.722  26.587  23.583  1.00  0.00    -0.276 N 
ATOM     79  C   UNL A   1      31.835  25.255  23.263  1.00  0.00     0.267 C 
ATOM     80  C   UNL A   1      32.553  27.399  22.819  1.00  0.00     0.149 C 
ATOM     81  O   UNL A   1      30.936  24.423  23.310  1.00  0.00    -0.268 OA
ATOM     82  C   UNL A   1      33.171  24.970  22.664  1.00  0.00     0.081 C 
ATOM     83  S   UNL A   1      33.800  26.437  22.030  1.00  0.00    -0.054 SA
ATOM     84  S   UNL A   1      32.497  29.053  22.580  1.00  0.00    -0.052 S 
ATOM     85  C   UNL A   1      33.872  23.826  22.673  1.00  0.00     0.029 C 
BRANCH  85  86
ATOM     86  C   UNL A   1      33.485  22.587  23.354  1.00  0.00    -0.024 A 
ATOM     87  C   UNL A   1      32.630  21.693  22.696  1.00  0.00     0.009 A 
ATOM     88  C   UNL A   1      33.939  22.274  24.639  1.00  0.00     0.009 A 
ATOM     89  C   UNL A   1      32.289  20.473  23.288  1.00  0.00     0.016 A 
ATOM     90  C   UNL A   1      33.615  21.049  25.225  1.00  0.00     0.016 A 
ATOM     91  C   UNL A   1      32.800  20.149  24.542  1.00  0.00     0.018 A 
ATOM     92  Br  UNL A   1      32.397  18.476  25.322  1.00  0.00    -0.051 Br
ENDBRANCH  85  86
ENDBRANCH  77  78
BRANCH  77  93
ATOM     93  C   UNL A   1      29.182  27.349  23.948  1.00  0.00    -0.016 A 
ATOM     94  C   UNL A   1      28.084  26.553  24.311  1.00  0.00     0.006 A 
ATOM     95  C   UNL A   1      28.894  28.551  23.264  1.00  0.00     0.006 A 
ATOM     96  C   UNL A   1      26.769  26.937  24.027  1.00  0.00     0.000 A 
ATOM     97  C   UNL A   1      27.581  28.939  22.980  1.00  0.00     0.000 A 
ATOM     98  C   UNL A   1      26.517  28.135  23.369  1.00  0.00     0.000 A 
ENDBRANCH  77  93
ENDBRANCH  74  77
ENDBRANCH  72  73
ENDBRANCH  71  72
ENDBRANCH   1  71
TORSDOF 16
ENDMDL
MODEL 2
REMARK VINA RESULT:     -11.6      4.911      8.150
REMARK SMILES O=C(NCCCNC(=O)[C@H](c1ccccc1)N1C(=O)/C(=C\c2ccc(Br)cc2)SC1=S)c1ccc(-c2c3nc(c(-c4cc(S(=O)(=O)[O-])ccc4F)c4ccc([nH]4)c(-c4cc(S(=O)(=O)[O-])ccc4F)c4nc(c(-c5cc(S(=O)(=O)[O-])ccc5F)c5ccc2[nH]5)C=C4)C=C3)cc1
REMARK SMILES IDX 4 1 3 2 1 3 2 4 32 6 33 7 94 8 34 9 93 10 35 11 36 12 37 13
REMARK SMILES IDX 87 14 38 15 92 16 86 17 88 18 39 19 91 20 85 21 84 22 40 24
REMARK SMILES IDX 72 25 52 26 71 27 53 28 56 29 70 30 89 31 54 32 55 33 69 35
REMARK SMILES IDX 90 36 57 37 41 38 42 39 50 40 43 41 49 42 51 43 48 44 44 45
REMARK SMILES IDX 45 46 46 47 47 48 73 49 74 50 82 51 75 52 81 53 83 54 80 55
REMARK SMILES IDX 76 56 77 57 78 58 79 59 58 60 59 61 67 62 60 63 66 64 68 65
REMARK SMILES IDX 65 66 61 67 62 68 63 69 64 70 5 71 6 72 7 73 8 74 9 76 10 77
REMARK SMILES IDX 17 78 18 79 30 80 19 81 20 82 29 83 31 84 21 85 22 86 23 87
REMARK SMILES IDX 28 88 24 89 27 90 25 91 26 92 11 93 12 94 16 95 13 96 15 97
REMARK SMILES IDX 14 98
REMARK H PARENT 3 5 88 23 56 34 7 75
REMARK Flexibility Score: inf
ROOT
ATOM      1  C   UNL A   1      36.996  22.233  25.782  1.00  0.00     0.118 C 
ENDROOT
BRANCH   1   2
ATOM      2  N   UNL A   1      38.044  21.242  25.997  1.00  0.00    -0.352 N 
ATOM      3  O   UNL A   1      40.135  20.452  26.265  1.00  0.00    -0.269 OA
ATOM      4  C   UNL A   1      39.368  21.409  26.330  1.00  0.00     0.251 C 
ATOM      5  H   UNL A   1      37.758  20.306  25.889  1.00  0.00     0.163 HD
BRANCH   4   6
ATOM      6  C   UNL A   1      39.869  22.737  26.743  1.00  0.00     0.039 A 
ATOM      7  C   UNL A   1      40.840  22.847  27.739  1.00  0.00     0.014 A 
ATOM      8  C   UNL A   1      39.390  23.889  26.112  1.00  0.00     0.014 A 
ATOM      9  C   UNL A   1      41.190  24.092  28.234  1.00  0.00     0.010 A 
ATOM     10  C   UNL A   1      39.848  25.146  26.519  1.00  0.00     0.010 A 
ATOM     11  C   UNL A   1      40.737  25.257  27.598  1.00  0.00    -0.014 A 
BRANCH  11  12
ATOM     12  C   UNL A   1      41.319  26.560  28.007  1.00  0.00     0.031 A 
ATOM     13  C   UNL A   1      40.496  27.594  28.719  1.00  0.00     0.074 A 
ATOM     14  C   UNL A   1      42.621  26.783  27.732  1.00  0.00     0.049 A 
ATOM     15  N   UNL A   1      40.848  28.791  29.113  1.00  0.00    -0.248 NA
ATOM     16  C   UNL A   1      39.098  27.251  29.020  1.00  0.00     0.031 C 
ATOM     17  C   UNL A   1      43.505  25.838  27.037  1.00  0.00     0.029 A 
ATOM     18  N   UNL A   1      43.435  27.849  28.006  1.00  0.00    -0.354 N 
ATOM     19  C   UNL A   1      39.712  29.358  29.679  1.00  0.00     0.074 A 
ATOM     20  C   UNL A   1      38.654  28.374  29.569  1.00  0.00     0.031 C 
ATOM     21  C   UNL A   1      44.742  26.349  26.978  1.00  0.00     0.029 A 
ATOM     22  C   UNL A   1      44.721  27.692  27.539  1.00  0.00     0.049 A 
ATOM     23  H   UNL A   1      43.131  28.650  28.490  1.00  0.00     0.167 HD
ATOM     24  C   UNL A   1      39.574  30.587  30.232  1.00  0.00     0.034 A 
ATOM     25  C   UNL A   1      45.757  28.550  27.514  1.00  0.00     0.034 A 
ATOM     26  C   UNL A   1      40.656  31.537  30.349  1.00  0.00     0.049 A 
ATOM     27  C   UNL A   1      45.558  29.920  28.096  1.00  0.00     0.074 A 
ATOM     28  C   UNL A   1      40.650  32.774  30.969  1.00  0.00     0.029 A 
ATOM     29  N   UNL A   1      41.927  31.367  29.816  1.00  0.00    -0.354 N 
ATOM     30  N   UNL A   1      44.487  30.421  28.668  1.00  0.00    -0.248 NA
ATOM     31  C   UNL A   1      46.694  30.843  28.021  1.00  0.00     0.031 C 
ATOM     32  C   UNL A   1      41.892  33.380  30.749  1.00  0.00     0.029 A 
ATOM     33  C   UNL A   1      42.697  32.495  30.049  1.00  0.00     0.049 A 
ATOM     34  H   UNL A   1      42.237  30.560  29.343  1.00  0.00     0.167 HD
ATOM     35  C   UNL A   1      44.825  31.721  29.025  1.00  0.00     0.074 A 
ATOM     36  C   UNL A   1      46.207  31.914  28.630  1.00  0.00     0.031 C 
ATOM     37  C   UNL A   1      44.063  32.673  29.619  1.00  0.00     0.034 A 
BRANCH  24  38
ATOM     38  C   UNL A   1      38.204  31.002  30.707  1.00  0.00     0.023 A 
ATOM     39  C   UNL A   1      37.253  31.573  29.845  1.00  0.00     0.031 A 
ATOM     40  C   UNL A   1      37.841  30.803  32.051  1.00  0.00     0.131 A 
ATOM     41  C   UNL A   1      36.000  31.963  30.345  1.00  0.00     0.055 A 
ATOM     42  C   UNL A   1      36.572  31.135  32.530  1.00  0.00     0.041 A 
ATOM     43  F   UNL A   1      38.716  30.282  32.924  1.00  0.00    -0.206 F 
ATOM     44  C   UNL A   1      35.645  31.727  31.676  1.00  0.00     0.022 A 
BRANCH  41  45
ATOM     45  S   UNL A   1      34.872  32.873  29.255  1.00  0.00     0.124 S 
ATOM     46  O   UNL A   1      34.093  33.650  30.217  1.00  0.00    -0.237 OA
ATOM     47  O   UNL A   1      35.789  33.634  28.414  1.00  0.00    -0.237 OA
ATOM     48  O   UNL A   1      34.128  31.818  28.571  1.00  0.00    -0.744 OA
ENDBRANCH  41  45
ENDBRANCH  24  38
BRANCH  25  49
ATOM     49  C   UNL A   1      47.033  28.167  26.848  1.00  0.00     0.023 A 
ATOM     50  C   UNL A   1      47.142  28.125  25.451  1.00  0.00     0.031 A 
ATOM     51  C   UNL A   1      48.163  27.809  27.609  1.00  0.00     0.131 A 
ATOM     52  C   UNL A   1      48.341  27.699  24.858  1.00  0.00     0.055 A 
ATOM     53  C   UNL A   1      49.370  27.444  27.015  1.00  0.00     0.041 A 
ATOM     54  F   UNL A   1      48.113  27.834  28.951  1.00  0.00    -0.206 F 
ATOM     55  C   UNL A   1      49.459  27.373  25.630  1.00  0.00     0.022 A 
BRANCH  52  56
ATOM     56  S   UNL A   1      48.388  27.481  23.058  1.00  0.00     0.124 S 
ATOM     57  O   UNL A   1      48.306  26.031  22.930  1.00  0.00    -0.237 OA
ATOM     58  O   UNL A   1      47.210  28.232  22.635  1.00  0.00    -0.237 OA
ATOM     59  O   UNL A   1      49.671  28.070  22.678  1.00  0.00    -0.744 OA
ENDBRANCH  52  56
ENDBRANCH  25  49
BRANCH  37  60
ATOM     60  C   UNL A   1      44.729  33.997  29.880  1.00  0.00     0.023 A 
ATOM     61  C   UNL A   1      44.601  35.066  28.977  1.00  0.00     0.031 A 
ATOM     62  C   UNL A   1      45.516  34.183  31.029  1.00  0.00     0.131 A 
ATOM     63  C   UNL A   1      45.292  36.262  29.213  1.00  0.00     0.055 A 
ATOM     64  C   UNL A   1      46.156  35.395  31.287  1.00  0.00     0.041 A 
ATOM     65  F   UNL A   1      45.671  33.190  31.919  1.00  0.00    -0.206 F 
ATOM     66  C   UNL A   1      46.055  36.440  30.371  1.00  0.00     0.022 A 
BRANCH  63  67
ATOM     67  S   UNL A   1      45.238  37.563  27.951  1.00  0.00     0.124 S 
ATOM     68  O   UNL A   1      44.129  37.122  27.111  1.00  0.00    -0.237 OA
ATOM     69  O   UNL A   1      44.997  38.762  28.747  1.00  0.00    -0.237 OA
ATOM     70  O   UNL A   1      46.557  37.489  27.327  1.00  0.00    -0.744 OA
ENDBRANCH  63  67
ENDBRANCH  37  60
ENDBRANCH  11  12
ENDBRANCH   4   6
ENDBRANCH   1   2
BRANCH   1  71
ATOM     71  C   UNL A   1      36.680  22.433  24.311  1.00  0.00     0.042 C 
BRANCH  71  72
ATOM     72  C   UNL A   1      35.942  23.724  24.038  1.00  0.00     0.117 C 
BRANCH  72  73
ATOM     73  N   UNL A   1      35.002  23.624  22.938  1.00  0.00    -0.354 N 
ATOM     74  C   UNL A   1      33.776  23.021  22.906  1.00  0.00     0.247 C 
ATOM     75  H   UNL A   1      35.286  24.051  22.097  1.00  0.00     0.163 HD
ATOM     76  O   UNL A   1      32.999  23.378  22.013  1.00  0.00    -0.272 OA
BRANCH  74  77
ATOM     77  C   UNL A   1      33.321  22.019  24.017  1.00  0.00     0.211 C 
BRANCH  77  78
ATOM     78  N   UNL A   1      32.644  22.774  25.109  1.00  0.00    -0.276 N 
ATOM     79  C   UNL A   1      31.618  23.668  24.911  1.00  0.00     0.267 C 
ATOM     80  C   UNL A   1      32.805  22.424  26.445  1.00  0.00     0.149 C 
ATOM     81  O   UNL A   1      30.896  23.730  23.922  1.00  0.00    -0.268 OA
ATOM     82  C   UNL A   1      31.363  24.458  26.150  1.00  0.00     0.081 C 
ATOM     83  S   UNL A   1      31.969  23.570  27.489  1.00  0.00    -0.054 SA
ATOM     84  S   UNL A   1      33.630  21.132  27.113  1.00  0.00    -0.052 S 
ATOM     85  C   UNL A   1      30.857  25.695  26.272  1.00  0.00     0.029 C 
BRANCH  85  86
ATOM     86  C   UNL A   1      30.493  26.586  25.166  1.00  0.00    -0.024 A 
ATOM     87  C   UNL A   1      29.236  26.438  24.565  1.00  0.00     0.009 A 
ATOM     88  C   UNL A   1      31.362  27.574  24.692  1.00  0.00     0.009 A 
ATOM     89  C   UNL A   1      28.829  27.310  23.551  1.00  0.00     0.016 A 
ATOM     90  C   UNL A   1      30.952  28.457  23.692  1.00  0.00     0.016 A 
ATOM     91  C   UNL A   1      29.683  28.328  23.133  1.00  0.00     0.018 A 
ATOM     92  Br  UNL A   1      29.116  29.550  21.807  1.00  0.00    -0.051 Br
ENDBRANCH  85  86
ENDBRANCH  77  78
BRANCH  77  93
ATOM     93  C   UNL A   1      32.695  20.825  23.276  1.00  0.00    -0.016 A 
ATOM     94  C   UNL A   1      32.130  20.858  21.990  1.00  0.00     0.006 A 
ATOM     95  C   UNL A   1      32.901  19.548  23.844  1.00  0.00     0.006 A 
ATOM     96  C   UNL A   1      31.804  19.685  21.299  1.00  0.00     0.000 A 
ATOM     97  C   UNL A   1      32.579  18.375  23.156  1.00  0.00     0.000 A 
ATOM     98  C   UNL A   1      32.037  18.444  21.878  1.00  0.00     0.000 A 
ENDBRANCH  77  93
ENDBRANCH  74  77
ENDBRANCH  72  73
ENDBRANCH  71  72
ENDBRANCH   1  71
TORSDOF 16
ENDMDL
MODEL 3
REMARK VINA RESULT:     -11.6      6.686     12.018
REMARK SMILES O=C(NCCCNC(=O)[C@H](c1ccccc1)N1C(=O)/C(=C\c2ccc(Br)cc2)SC1=S)c1ccc(-c2c3nc(c(-c4cc(S(=O)(=O)[O-])ccc4F)c4ccc([nH]4)c(-c4cc(S(=O)(=O)[O-])ccc4F)c4nc(c(-c5cc(S(=O)(=O)[O-])ccc5F)c5ccc2[nH]5)C=C4)C=C3)cc1
REMARK SMILES IDX 4 1 3 2 1 3 2 4 32 6 33 7 94 8 34 9 93 10 35 11 36 12 37 13
REMARK SMILES IDX 87 14 38 15 92 16 86 17 88 18 39 19 91 20 85 21 84 22 40 24
REMARK SMILES IDX 72 25 52 26 71 27 53 28 56 29 70 30 89 31 54 32 55 33 69 35
REMARK SMILES IDX 90 36 57 37 41 38 42 39 50 40 43 41 49 42 51 43 48 44 44 45
REMARK SMILES IDX 45 46 46 47 47 48 73 49 74 50 82 51 75 52 81 53 83 54 80 55
REMARK SMILES IDX 76 56 77 57 78 58 79 59 58 60 59 61 67 62 60 63 66 64 68 65
REMARK SMILES IDX 65 66 61 67 62 68 63 69 64 70 5 71 6 72 7 73 8 74 9 76 10 77
REMARK SMILES IDX 17 78 18 79 30 80 19 81 20 82 29 83 31 84 21 85 22 86 23 87
REMARK SMILES IDX 28 88 24 89 27 90 25 91 26 92 11 93 12 94 16 95 13 96 15 97
REMARK SMILES IDX 14 98
REMARK H PARENT 3 5 88 23 56 34 7 75
REMARK Flexibility Score: inf
ROOT
ATOM      1  C   UNL A   1      46.324  30.869  26.778  1.00  0.00     0.118 C 
ENDROOT
BRANCH   1   2
ATOM      2  N   UNL A   1      45.665  31.775  25.844  1.00  0.00    -0.352 N 
ATOM      3  O   UNL A   1      44.018  33.060  25.007  1.00  0.00    -0.269 OA
ATOM      4  C   UNL A   1      44.516  32.516  25.989  1.00  0.00     0.251 C 
ATOM      5  H   UNL A   1      46.114  31.872  24.974  1.00  0.00     0.163 HD
BRANCH   4   6
ATOM      6  C   UNL A   1      43.873  32.639  27.315  1.00  0.00     0.039 A 
ATOM      7  C   UNL A   1      43.456  31.502  28.005  1.00  0.00     0.014 A 
ATOM      8  C   UNL A   1      43.708  33.901  27.894  1.00  0.00     0.014 A 
ATOM      9  C   UNL A   1      42.713  31.627  29.167  1.00  0.00     0.010 A 
ATOM     10  C   UNL A   1      43.080  34.018  29.138  1.00  0.00     0.010 A 
ATOM     11  C   UNL A   1      42.559  32.881  29.774  1.00  0.00    -0.014 A 
BRANCH  11  12
ATOM     12  C   UNL A   1      41.965  32.944  31.133  1.00  0.00     0.031 A 
ATOM     13  C   UNL A   1      40.495  33.175  31.333  1.00  0.00     0.074 A 
ATOM     14  C   UNL A   1      42.787  32.770  32.189  1.00  0.00     0.049 A 
ATOM     15  N   UNL A   1      39.829  33.286  32.453  1.00  0.00    -0.248 NA
ATOM     16  C   UNL A   1      39.664  33.307  30.127  1.00  0.00     0.031 C 
ATOM     17  C   UNL A   1      44.235  32.544  32.097  1.00  0.00     0.029 A 
ATOM     18  N   UNL A   1      42.538  32.741  33.534  1.00  0.00    -0.354 N 
ATOM     19  C   UNL A   1      38.509  33.534  32.093  1.00  0.00     0.074 A 
ATOM     20  C   UNL A   1      38.470  33.565  30.645  1.00  0.00     0.031 C 
ATOM     21  C   UNL A   1      44.734  32.359  33.325  1.00  0.00     0.029 A 
ATOM     22  C   UNL A   1      43.668  32.549  34.297  1.00  0.00     0.049 A 
ATOM     23  H   UNL A   1      41.639  32.847  33.920  1.00  0.00     0.167 HD
ATOM     24  C   UNL A   1      37.439  33.721  32.903  1.00  0.00     0.034 A 
ATOM     25  C   UNL A   1      43.843  32.575  35.631  1.00  0.00     0.034 A 
ATOM     26  C   UNL A   1      37.507  33.660  34.344  1.00  0.00     0.049 A 
ATOM     27  C   UNL A   1      42.643  32.829  36.499  1.00  0.00     0.074 A 
ATOM     28  C   UNL A   1      36.471  33.747  35.257  1.00  0.00     0.029 A 
ATOM     29  N   UNL A   1      38.675  33.521  35.082  1.00  0.00    -0.354 N 
ATOM     30  N   UNL A   1      41.394  33.016  36.138  1.00  0.00    -0.248 NA
ATOM     31  C   UNL A   1      42.873  32.887  37.945  1.00  0.00     0.031 C 
ATOM     32  C   UNL A   1      37.020  33.733  36.545  1.00  0.00     0.029 A 
ATOM     33  C   UNL A   1      38.392  33.570  36.437  1.00  0.00     0.049 A 
ATOM     34  H   UNL A   1      39.574  33.401  34.697  1.00  0.00     0.167 HD
ATOM     35  C   UNL A   1      40.688  33.211  37.318  1.00  0.00     0.074 A 
ATOM     36  C   UNL A   1      41.645  33.089  38.401  1.00  0.00     0.031 C 
ATOM     37  C   UNL A   1      39.369  33.474  37.495  1.00  0.00     0.034 A 
BRANCH  24  38
ATOM     38  C   UNL A   1      36.116  34.060  32.263  1.00  0.00     0.023 A 
ATOM     39  C   UNL A   1      35.521  35.326  32.396  1.00  0.00     0.031 A 
ATOM     40  C   UNL A   1      35.449  33.096  31.486  1.00  0.00     0.131 A 
ATOM     41  C   UNL A   1      34.276  35.580  31.798  1.00  0.00     0.055 A 
ATOM     42  C   UNL A   1      34.241  33.373  30.842  1.00  0.00     0.041 A 
ATOM     43  F   UNL A   1      35.960  31.864  31.342  1.00  0.00    -0.206 F 
ATOM     44  C   UNL A   1      33.644  34.620  31.004  1.00  0.00     0.022 A 
BRANCH  41  45
ATOM     45  S   UNL A   1      33.445  37.152  32.153  1.00  0.00     0.124 S 
ATOM     46  O   UNL A   1      32.347  36.720  33.016  1.00  0.00    -0.237 OA
ATOM     47  O   UNL A   1      34.497  37.928  32.800  1.00  0.00    -0.237 OA
ATOM     48  O   UNL A   1      33.038  37.631  30.834  1.00  0.00    -0.744 OA
ENDBRANCH  41  45
ENDBRANCH  24  38
BRANCH  25  49
ATOM     49  C   UNL A   1      45.207  32.440  36.213  1.00  0.00     0.023 A 
ATOM     50  C   UNL A   1      46.021  33.560  36.433  1.00  0.00     0.031 A 
ATOM     51  C   UNL A   1      45.729  31.172  36.535  1.00  0.00     0.131 A 
ATOM     52  C   UNL A   1      47.325  33.390  36.924  1.00  0.00     0.055 A 
ATOM     53  C   UNL A   1      47.004  31.013  37.078  1.00  0.00     0.041 A 
ATOM     54  F   UNL A   1      44.992  30.066  36.346  1.00  0.00    -0.206 F 
ATOM     55  C   UNL A   1      47.816  32.126  37.261  1.00  0.00     0.022 A 
BRANCH  52  56
ATOM     56  S   UNL A   1      48.410  34.839  37.023  1.00  0.00     0.124 S 
ATOM     57  O   UNL A   1      49.695  34.279  36.620  1.00  0.00    -0.237 OA
ATOM     58  O   UNL A   1      47.780  35.751  36.072  1.00  0.00    -0.237 OA
ATOM     59  O   UNL A   1      48.315  35.240  38.425  1.00  0.00    -0.744 OA
ENDBRANCH  52  56
ENDBRANCH  25  49
BRANCH  37  60
ATOM     60  C   UNL A   1      38.902  33.632  38.917  1.00  0.00     0.023 A 
ATOM     61  C   UNL A   1      38.477  32.524  39.669  1.00  0.00     0.031 A 
ATOM     62  C   UNL A   1      38.860  34.902  39.516  1.00  0.00     0.131 A 
ATOM     63  C   UNL A   1      37.980  32.714  40.967  1.00  0.00     0.055 A 
ATOM     64  C   UNL A   1      38.417  35.078  40.826  1.00  0.00     0.041 A 
ATOM     65  F   UNL A   1      39.252  35.991  38.836  1.00  0.00    -0.206 F 
ATOM     66  C   UNL A   1      37.964  33.981  41.556  1.00  0.00     0.022 A 
BRANCH  63  67
ATOM     67  S   UNL A   1      37.289  31.290  41.852  1.00  0.00     0.124 S 
ATOM     68  O   UNL A   1      37.750  31.531  43.216  1.00  0.00    -0.237 OA
ATOM     69  O   UNL A   1      35.856  31.446  41.627  1.00  0.00    -0.237 OA
ATOM     70  O   UNL A   1      37.899  30.142  41.185  1.00  0.00    -0.744 OA
ENDBRANCH  63  67
ENDBRANCH  37  60
ENDBRANCH  11  12
ENDBRANCH   4   6
ENDBRANCH   1   2
BRANCH   1  71
ATOM     71  C   UNL A   1      46.527  29.482  26.196  1.00  0.00     0.042 C 
BRANCH  71  72
ATOM     72  C   UNL A   1      45.755  28.414  26.937  1.00  0.00     0.117 C 
BRANCH  72  73
ATOM     73  N   UNL A   1      44.388  28.269  26.474  1.00  0.00    -0.354 N 
ATOM     74  C   UNL A   1      43.311  27.734  27.122  1.00  0.00     0.247 C 
ATOM     75  H   UNL A   1      44.211  28.604  25.564  1.00  0.00     0.163 HD
ATOM     76  O   UNL A   1      42.191  28.052  26.707  1.00  0.00    -0.272 OA
BRANCH  74  77
ATOM     77  C   UNL A   1      43.475  26.860  28.409  1.00  0.00     0.211 C 
BRANCH  77  78
ATOM     78  N   UNL A   1      42.932  27.606  29.579  1.00  0.00    -0.276 N 
ATOM     79  C   UNL A   1      41.592  27.735  29.860  1.00  0.00     0.267 C 
ATOM     80  C   UNL A   1      43.746  27.993  30.638  1.00  0.00     0.149 C 
ATOM     81  O   UNL A   1      40.693  27.018  29.435  1.00  0.00    -0.268 OA
ATOM     82  C   UNL A   1      41.374  28.768  30.913  1.00  0.00     0.081 C 
ATOM     83  S   UNL A   1      42.832  28.947  31.803  1.00  0.00    -0.054 SA
ATOM     84  S   UNL A   1      45.364  27.670  30.908  1.00  0.00    -0.052 S 
ATOM     85  C   UNL A   1      40.298  29.542  31.125  1.00  0.00     0.029 C 
BRANCH  85  86
ATOM     86  C   UNL A   1      39.091  29.579  30.295  1.00  0.00    -0.024 A 
ATOM     87  C   UNL A   1      37.877  29.150  30.848  1.00  0.00     0.009 A 
ATOM     88  C   UNL A   1      39.115  30.025  28.970  1.00  0.00     0.009 A 
ATOM     89  C   UNL A   1      36.693  29.230  30.108  1.00  0.00     0.016 A 
ATOM     90  C   UNL A   1      37.932  30.122  28.234  1.00  0.00     0.016 A 
ATOM     91  C   UNL A   1      36.725  29.734  28.811  1.00  0.00     0.018 A 
ATOM     92  Br  UNL A   1      35.121  29.906  27.825  1.00  0.00    -0.051 Br
ENDBRANCH  85  86
ENDBRANCH  77  78
BRANCH  77  93
ATOM     93  C   UNL A   1      43.038  25.439  28.011  1.00  0.00    -0.016 A 
ATOM     94  C   UNL A   1      42.790  24.989  26.704  1.00  0.00     0.006 A 
ATOM     95  C   UNL A   1      43.101  24.452  29.019  1.00  0.00     0.006 A 
ATOM     96  C   UNL A   1      42.632  23.630  26.410  1.00  0.00     0.000 A 
ATOM     97  C   UNL A   1      42.947  23.093  28.729  1.00  0.00     0.000 A 
ATOM     98  C   UNL A   1      42.720  22.681  27.422  1.00  0.00     0.000 A 
ENDBRANCH  77  93
ENDBRANCH  74  77
ENDBRANCH  72  73
ENDBRANCH  71  72
ENDBRANCH   1  71
TORSDOF 16
ENDMDL
