MODEL 1
REMARK VINA RESULT:     -11.3      0.000      0.000
REMARK SMILES O=C(NCCCNC(=O)[C@H](CO)NC(=O)[C@H](CS)NC(=O)c1ccc(F)cc1)c1ccc(-c2c3nc(c(-c4cc(S(=O)(=O)[O-])ccc4F)c4ccc([nH]4)c(-c4cc(S(=O)(=O)[O-])ccc4F)c4nc(c(-c5cc(S(=O)(=O)[O-])ccc5F)c5ccc2[nH]5)C=C4)C=C3)cc1
REMARK SMILES IDX 5 1 4 2 3 3 1 4 2 5 29 7 30 8 91 9 31 10 90 11 32 12 33 13
REMARK SMILES IDX 34 14 84 15 35 16 89 17 83 18 85 19 36 20 88 21 82 22 81 23
REMARK SMILES IDX 37 25 69 26 49 27 68 28 50 29 53 30 67 31 86 32 51 33 52 34
REMARK SMILES IDX 66 36 87 37 54 38 38 39 39 40 47 41 40 42 46 43 48 44 45 45
REMARK SMILES IDX 41 46 42 47 43 48 44 49 70 50 71 51 79 52 72 53 78 54 80 55
REMARK SMILES IDX 77 56 73 57 74 58 75 59 76 60 55 61 56 62 64 63 57 64 63 65
REMARK SMILES IDX 65 66 62 67 58 68 59 69 60 70 61 71 6 72 7 73 8 74 9 76
REMARK SMILES IDX 10 77 13 78 14 79 15 81 16 82 19 83 20 84 21 86 22 87 23 88
REMARK SMILES IDX 28 89 24 90 27 91 25 92 26 93 17 94 18 95 11 97 12 98
REMARK H PARENT 3 6 85 24 53 35 7 75 13 80 19 85 18 96 12 99
REMARK Flexibility Score: inf
ROOT
ATOM      1  C   UNL A   1      31.251  32.065  26.821  1.00  0.00     0.042 C 
ENDROOT
BRANCH   1   2
ATOM      2  C   UNL A   1      32.615  32.602  27.248  1.00  0.00     0.118 C 
BRANCH   2   3
ATOM      3  N   UNL A   1      32.557  34.008  27.639  1.00  0.00    -0.352 N 
ATOM      4  O   UNL A   1      32.814  35.788  28.987  1.00  0.00    -0.269 OA
ATOM      5  C   UNL A   1      33.199  34.671  28.655  1.00  0.00     0.251 C 
ATOM      6  H   UNL A   1      31.963  34.568  27.087  1.00  0.00     0.163 HD
BRANCH   5   7
ATOM      7  C   UNL A   1      34.351  34.044  29.335  1.00  0.00     0.039 A 
ATOM      8  C   UNL A   1      34.144  33.016  30.257  1.00  0.00     0.014 A 
ATOM      9  C   UNL A   1      35.650  34.450  29.015  1.00  0.00     0.014 A 
ATOM     10  C   UNL A   1      35.218  32.498  30.965  1.00  0.00     0.010 A 
ATOM     11  C   UNL A   1      36.739  33.853  29.658  1.00  0.00     0.010 A 
ATOM     12  C   UNL A   1      36.530  32.886  30.652  1.00  0.00    -0.014 A 
BRANCH  12  13
ATOM     13  C   UNL A   1      37.658  32.195  31.322  1.00  0.00     0.031 A 
ATOM     14  C   UNL A   1      38.399  31.078  30.644  1.00  0.00     0.074 A 
ATOM     15  C   UNL A   1      38.040  32.629  32.541  1.00  0.00     0.049 A 
ATOM     16  N   UNL A   1      39.406  30.373  31.091  1.00  0.00    -0.248 NA
ATOM     17  C   UNL A   1      37.952  30.695  29.296  1.00  0.00     0.031 C 
ATOM     18  C   UNL A   1      37.397  33.720  33.282  1.00  0.00     0.029 A 
ATOM     19  N   UNL A   1      39.069  32.239  33.358  1.00  0.00    -0.354 N 
ATOM     20  C   UNL A   1      39.710  29.461  30.089  1.00  0.00     0.074 A 
ATOM     21  C   UNL A   1      38.760  29.680  29.019  1.00  0.00     0.031 C 
ATOM     22  C   UNL A   1      38.084  33.953  34.408  1.00  0.00     0.029 A 
ATOM     23  C   UNL A   1      39.160  32.977  34.516  1.00  0.00     0.049 A 
ATOM     24  H   UNL A   1      39.682  31.502  33.138  1.00  0.00     0.167 HD
ATOM     25  C   UNL A   1      40.697  28.533  30.068  1.00  0.00     0.034 A 
ATOM     26  C   UNL A   1      39.999  32.868  35.563  1.00  0.00     0.034 A 
ATOM     27  C   UNL A   1      41.641  28.339  31.143  1.00  0.00     0.049 A 
ATOM     28  C   UNL A   1      41.042  31.788  35.540  1.00  0.00     0.074 A 
ATOM     29  C   UNL A   1      42.688  27.437  31.212  1.00  0.00     0.029 A 
ATOM     30  N   UNL A   1      41.652  29.052  32.334  1.00  0.00    -0.354 N 
ATOM     31  N   UNL A   1      41.294  30.913  34.595  1.00  0.00    -0.248 NA
ATOM     32  C   UNL A   1      41.902  31.671  36.722  1.00  0.00     0.031 C 
ATOM     33  C   UNL A   1      43.287  27.558  32.469  1.00  0.00     0.029 A 
ATOM     34  C   UNL A   1      42.665  28.587  33.156  1.00  0.00     0.049 A 
ATOM     35  H   UNL A   1      41.030  29.781  32.561  1.00  0.00     0.167 HD
ATOM     36  C   UNL A   1      42.353  30.146  35.065  1.00  0.00     0.074 A 
ATOM     37  C   UNL A   1      42.699  30.670  36.372  1.00  0.00     0.031 C 
ATOM     38  C   UNL A   1      42.985  29.107  34.465  1.00  0.00     0.034 A 
BRANCH  25  39
ATOM     39  C   UNL A   1      40.794  27.627  28.866  1.00  0.00     0.023 A 
ATOM     40  C   UNL A   1      41.744  27.838  27.853  1.00  0.00     0.031 A 
ATOM     41  C   UNL A   1      39.951  26.505  28.760  1.00  0.00     0.131 A 
ATOM     42  C   UNL A   1      41.809  26.956  26.763  1.00  0.00     0.055 A 
ATOM     43  C   UNL A   1      40.060  25.600  27.704  1.00  0.00     0.041 A 
ATOM     44  F   UNL A   1      39.014  26.268  29.691  1.00  0.00    -0.206 F 
ATOM     45  C   UNL A   1      40.990  25.825  26.695  1.00  0.00     0.022 A 
BRANCH  42  46
ATOM     46  S   UNL A   1      42.936  27.339  25.394  1.00  0.00     0.124 S 
ATOM     47  O   UNL A   1      43.028  26.046  24.720  1.00  0.00    -0.237 OA
ATOM     48  O   UNL A   1      42.221  28.386  24.676  1.00  0.00    -0.237 OA
ATOM     49  O   UNL A   1      44.159  27.770  26.068  1.00  0.00    -0.744 OA
ENDBRANCH  42  46
ENDBRANCH  25  39
BRANCH  26  50
ATOM     50  C   UNL A   1      39.850  33.784  36.727  1.00  0.00     0.023 A 
ATOM     51  C   UNL A   1      39.398  33.313  37.967  1.00  0.00     0.031 A 
ATOM     52  C   UNL A   1      40.191  35.146  36.618  1.00  0.00     0.131 A 
ATOM     53  C   UNL A   1      39.284  34.200  39.048  1.00  0.00     0.055 A 
ATOM     54  C   UNL A   1      40.118  36.014  37.708  1.00  0.00     0.041 A 
ATOM     55  F   UNL A   1      40.640  35.642  35.453  1.00  0.00    -0.206 F 
ATOM     56  C   UNL A   1      39.657  35.542  38.931  1.00  0.00     0.022 A 
BRANCH  53  57
ATOM     57  S   UNL A   1      38.613  33.581  40.616  1.00  0.00     0.124 S 
ATOM     58  O   UNL A   1      39.139  32.221  40.647  1.00  0.00    -0.237 OA
ATOM     59  O   UNL A   1      39.184  34.514  41.582  1.00  0.00    -0.237 OA
ATOM     60  O   UNL A   1      37.166  33.688  40.432  1.00  0.00    -0.744 OA
ENDBRANCH  53  57
ENDBRANCH  26  50
BRANCH  38  61
ATOM     61  C   UNL A   1      44.133  28.479  35.205  1.00  0.00     0.023 A 
ATOM     62  C   UNL A   1      43.928  27.473  36.163  1.00  0.00     0.031 A 
ATOM     63  C   UNL A   1      45.455  28.863  34.914  1.00  0.00     0.131 A 
ATOM     64  C   UNL A   1      45.028  26.900  36.818  1.00  0.00     0.055 A 
ATOM     65  C   UNL A   1      46.547  28.256  35.533  1.00  0.00     0.041 A 
ATOM     66  F   UNL A   1      45.702  29.821  34.006  1.00  0.00    -0.206 F 
ATOM     67  C   UNL A   1      46.337  27.272  36.495  1.00  0.00     0.022 A 
BRANCH  64  68
ATOM     68  S   UNL A   1      44.728  25.684  38.128  1.00  0.00     0.124 S 
ATOM     69  O   UNL A   1      46.087  25.327  38.526  1.00  0.00    -0.237 OA
ATOM     70  O   UNL A   1      43.961  26.452  39.103  1.00  0.00    -0.237 OA
ATOM     71  O   UNL A   1      43.981  24.626  37.450  1.00  0.00    -0.744 OA
ENDBRANCH  64  68
ENDBRANCH  38  61
ENDBRANCH  12  13
ENDBRANCH   5   7
ENDBRANCH   2   3
ENDBRANCH   1   2
BRANCH   1  72
ATOM     72  C   UNL A   1      31.330  31.154  25.602  1.00  0.00     0.117 C 
BRANCH  72  73
ATOM     73  N   UNL A   1      30.178  31.313  24.735  1.00  0.00    -0.354 N 
ATOM     74  C   UNL A   1      29.621  30.507  23.798  1.00  0.00     0.244 C 
ATOM     75  H   UNL A   1      29.710  32.172  24.849  1.00  0.00     0.163 HD
ATOM     76  O   UNL A   1      28.544  30.890  23.320  1.00  0.00    -0.273 OA
BRANCH  74  77
ATOM     77  C   UNL A   1      30.156  29.109  23.415  1.00  0.00     0.197 C 
BRANCH  77  78
ATOM     78  N   UNL A   1      29.188  28.011  23.326  1.00  0.00    -0.340 N 
ATOM     79  C   UNL A   1      29.263  26.716  23.742  1.00  0.00     0.244 C 
ATOM     80  H   UNL A   1      28.338  28.252  22.891  1.00  0.00     0.164 HD
ATOM     81  O   UNL A   1      28.212  26.077  23.791  1.00  0.00    -0.273 OA
BRANCH  79  82
ATOM     82  C   UNL A   1      30.622  26.059  24.004  1.00  0.00     0.181 C 
BRANCH  82  83
ATOM     83  N   UNL A   1      30.546  25.241  25.214  1.00  0.00    -0.339 N 
ATOM     84  C   UNL A   1      31.264  25.354  26.379  1.00  0.00     0.251 C 
ATOM     85  H   UNL A   1      29.890  24.508  25.190  1.00  0.00     0.164 HD
ATOM     86  O   UNL A   1      31.235  24.483  27.234  1.00  0.00    -0.269 OA
BRANCH  84  87
ATOM     87  C   UNL A   1      32.108  26.547  26.591  1.00  0.00     0.040 A 
ATOM     88  C   UNL A   1      33.387  26.623  26.026  1.00  0.00     0.017 A 
ATOM     89  C   UNL A   1      31.605  27.606  27.353  1.00  0.00     0.017 A 
ATOM     90  C   UNL A   1      34.196  27.725  26.299  1.00  0.00     0.040 A 
ATOM     91  C   UNL A   1      32.414  28.713  27.611  1.00  0.00     0.040 A 
ATOM     92  C   UNL A   1      33.707  28.754  27.099  1.00  0.00     0.123 A 
ATOM     93  F   UNL A   1      34.495  29.800  27.378  1.00  0.00    -0.207 F 
ENDBRANCH  84  87
ENDBRANCH  82  83
BRANCH  82  94
ATOM     94  C   UNL A   1      30.954  25.228  22.754  1.00  0.00     0.101 C 
BRANCH  94  95
ATOM     95  S   UNL A   1      32.259  25.996  21.736  1.00  0.00    -0.177 SA
ATOM     96  H   UNL A   1      33.273  25.107  21.551  1.00  0.00     0.102 HD
ENDBRANCH  94  95
ENDBRANCH  82  94
ENDBRANCH  79  82
ENDBRANCH  77  78
BRANCH  77  97
ATOM     97  C   UNL A   1      30.977  29.238  22.124  1.00  0.00     0.191 C 
BRANCH  97  98
ATOM     98  O   UNL A   1      30.380  30.157  21.212  1.00  0.00    -0.394 OA
ATOM     99  H   UNL A   1      29.480  29.863  20.999  1.00  0.00     0.210 HD
ENDBRANCH  97  98
ENDBRANCH  77  97
ENDBRANCH  74  77
ENDBRANCH  72  73
ENDBRANCH   1  72
TORSDOF 21
ENDMDL
MODEL 2
REMARK VINA RESULT:     -11.2      0.554      7.682
REMARK SMILES O=C(NCCCNC(=O)[C@H](CO)NC(=O)[C@H](CS)NC(=O)c1ccc(F)cc1)c1ccc(-c2c3nc(c(-c4cc(S(=O)(=O)[O-])ccc4F)c4ccc([nH]4)c(-c4cc(S(=O)(=O)[O-])ccc4F)c4nc(c(-c5cc(S(=O)(=O)[O-])ccc5F)c5ccc2[nH]5)C=C4)C=C3)cc1
REMARK SMILES IDX 5 1 4 2 3 3 1 4 2 5 29 7 30 8 91 9 31 10 90 11 32 12 33 13
REMARK SMILES IDX 34 14 84 15 35 16 89 17 83 18 85 19 36 20 88 21 82 22 81 23
REMARK SMILES IDX 37 25 69 26 49 27 68 28 50 29 53 30 67 31 86 32 51 33 52 34
REMARK SMILES IDX 66 36 87 37 54 38 38 39 39 40 47 41 40 42 46 43 48 44 45 45
REMARK SMILES IDX 41 46 42 47 43 48 44 49 70 50 71 51 79 52 72 53 78 54 80 55
REMARK SMILES IDX 77 56 73 57 74 58 75 59 76 60 55 61 56 62 64 63 57 64 63 65
REMARK SMILES IDX 65 66 62 67 58 68 59 69 60 70 61 71 6 72 7 73 8 74 9 76
REMARK SMILES IDX 10 77 13 78 14 79 15 81 16 82 19 83 20 84 21 86 22 87 23 88
REMARK SMILES IDX 28 89 24 90 27 91 25 92 26 93 17 94 18 95 11 97 12 98
REMARK H PARENT 3 6 85 24 53 35 7 75 13 80 19 85 18 96 12 99
REMARK Flexibility Score: inf
ROOT
ATOM      1  C   UNL A   1      31.312  31.942  26.783  1.00  0.00     0.042 C 
ENDROOT
BRANCH   1   2
ATOM      2  C   UNL A   1      32.663  32.501  27.224  1.00  0.00     0.118 C 
BRANCH   2   3
ATOM      3  N   UNL A   1      32.574  33.899  27.636  1.00  0.00    -0.352 N 
ATOM      4  O   UNL A   1      32.802  35.666  29.006  1.00  0.00    -0.269 OA
ATOM      5  C   UNL A   1      33.211  34.563  28.654  1.00  0.00     0.251 C 
ATOM      6  H   UNL A   1      31.961  34.451  27.098  1.00  0.00     0.163 HD
BRANCH   5   7
ATOM      7  C   UNL A   1      34.384  33.955  29.313  1.00  0.00     0.039 A 
ATOM      8  C   UNL A   1      34.215  32.885  30.193  1.00  0.00     0.014 A 
ATOM      9  C   UNL A   1      35.667  34.425  29.015  1.00  0.00     0.014 A 
ATOM     10  C   UNL A   1      35.307  32.382  30.885  1.00  0.00     0.010 A 
ATOM     11  C   UNL A   1      36.778  33.846  29.638  1.00  0.00     0.010 A 
ATOM     12  C   UNL A   1      36.604  32.833  30.593  1.00  0.00    -0.014 A 
BRANCH  12  13
ATOM     13  C   UNL A   1      37.757  32.161  31.239  1.00  0.00     0.031 A 
ATOM     14  C   UNL A   1      38.174  32.508  32.640  1.00  0.00     0.074 A 
ATOM     15  C   UNL A   1      38.395  31.188  30.556  1.00  0.00     0.049 A 
ATOM     16  N   UNL A   1      39.156  32.013  33.349  1.00  0.00    -0.248 NA
ATOM     17  C   UNL A   1      37.397  33.545  33.336  1.00  0.00     0.031 C 
ATOM     18  C   UNL A   1      38.059  30.762  29.193  1.00  0.00     0.029 A 
ATOM     19  N   UNL A   1      39.429  30.362  30.912  1.00  0.00    -0.354 N 
ATOM     20  C   UNL A   1      39.123  32.680  34.567  1.00  0.00     0.074 A 
ATOM     21  C   UNL A   1      38.041  33.638  34.492  1.00  0.00     0.031 C 
ATOM     22  C   UNL A   1      38.824  29.715  28.857  1.00  0.00     0.029 A 
ATOM     23  C   UNL A   1      39.763  29.450  29.939  1.00  0.00     0.049 A 
ATOM     24  H   UNL A   1      39.888  30.417  31.781  1.00  0.00     0.167 HD
ATOM     25  C   UNL A   1      39.922  32.499  35.646  1.00  0.00     0.034 A 
ATOM     26  C   UNL A   1      40.733  28.517  29.904  1.00  0.00     0.034 A 
ATOM     27  C   UNL A   1      40.990  31.529  35.702  1.00  0.00     0.049 A 
ATOM     28  C   UNL A   1      41.645  28.383  31.090  1.00  0.00     0.074 A 
ATOM     29  C   UNL A   1      41.846  31.256  36.754  1.00  0.00     0.029 A 
ATOM     30  N   UNL A   1      41.350  30.677  34.666  1.00  0.00    -0.354 N 
ATOM     31  N   UNL A   1      41.618  29.046  32.222  1.00  0.00    -0.248 NA
ATOM     32  C   UNL A   1      42.721  27.391  30.991  1.00  0.00     0.031 C 
ATOM     33  C   UNL A   1      42.764  30.290  36.332  1.00  0.00     0.029 A 
ATOM     34  C   UNL A   1      42.436  29.904  35.043  1.00  0.00     0.049 A 
ATOM     35  H   UNL A   1      40.900  30.631  33.791  1.00  0.00     0.167 HD
ATOM     36  C   UNL A   1      42.668  28.541  32.979  1.00  0.00     0.074 A 
ATOM     37  C   UNL A   1      43.302  27.511  32.178  1.00  0.00     0.031 C 
ATOM     38  C   UNL A   1      43.068  28.895  34.226  1.00  0.00     0.034 A 
BRANCH  25  39
ATOM     39  C   UNL A   1      39.706  33.386  36.846  1.00  0.00     0.023 A 
ATOM     40  C   UNL A   1      39.047  32.927  37.998  1.00  0.00     0.031 A 
ATOM     41  C   UNL A   1      40.213  34.698  36.851  1.00  0.00     0.131 A 
ATOM     42  C   UNL A   1      38.886  33.784  39.098  1.00  0.00     0.055 A 
ATOM     43  C   UNL A   1      40.102  35.526  37.970  1.00  0.00     0.041 A 
ATOM     44  F   UNL A   1      40.835  35.193  35.770  1.00  0.00    -0.206 F 
ATOM     45  C   UNL A   1      39.431  35.071  39.100  1.00  0.00     0.022 A 
BRANCH  42  46
ATOM     46  S   UNL A   1      37.897  33.220  40.510  1.00  0.00     0.124 S 
ATOM     47  O   UNL A   1      38.593  31.991  40.883  1.00  0.00    -0.237 OA
ATOM     48  O   UNL A   1      38.015  34.331  41.446  1.00  0.00    -0.237 OA
ATOM     49  O   UNL A   1      36.565  33.025  39.939  1.00  0.00    -0.744 OA
ENDBRANCH  42  46
ENDBRANCH  25  39
BRANCH  26  50
ATOM     50  C   UNL A   1      40.907  27.676  28.688  1.00  0.00     0.023 A 
ATOM     51  C   UNL A   1      41.933  27.933  27.769  1.00  0.00     0.031 A 
ATOM     52  C   UNL A   1      40.059  26.578  28.447  1.00  0.00     0.131 A 
ATOM     53  C   UNL A   1      42.078  27.111  26.641  1.00  0.00     0.055 A 
ATOM     54  C   UNL A   1      40.236  25.737  27.348  1.00  0.00     0.041 A 
ATOM     55  F   UNL A   1      39.069  26.284  29.306  1.00  0.00    -0.206 F 
ATOM     56  C   UNL A   1      41.248  26.006  26.434  1.00  0.00     0.022 A 
BRANCH  53  57
ATOM     57  S   UNL A   1      43.360  27.520  25.423  1.00  0.00     0.124 S 
ATOM     58  O   UNL A   1      42.558  27.890  24.262  1.00  0.00    -0.237 OA
ATOM     59  O   UNL A   1      44.074  28.607  26.086  1.00  0.00    -0.237 OA
ATOM     60  O   UNL A   1      44.113  26.274  25.291  1.00  0.00    -0.744 OA
ENDBRANCH  53  57
ENDBRANCH  26  50
BRANCH  38  61
ATOM     61  C   UNL A   1      44.232  28.146  34.815  1.00  0.00     0.023 A 
ATOM     62  C   UNL A   1      44.048  26.961  35.545  1.00  0.00     0.031 A 
ATOM     63  C   UNL A   1      45.545  28.604  34.602  1.00  0.00     0.131 A 
ATOM     64  C   UNL A   1      45.163  26.283  36.062  1.00  0.00     0.055 A 
ATOM     65  C   UNL A   1      46.651  27.900  35.077  1.00  0.00     0.041 A 
ATOM     66  F   UNL A   1      45.771  29.732  33.910  1.00  0.00    -0.206 F 
ATOM     67  C   UNL A   1      46.463  26.735  35.816  1.00  0.00     0.022 A 
BRANCH  64  68
ATOM     68  S   UNL A   1      44.891  24.818  37.094  1.00  0.00     0.124 S 
ATOM     69  O   UNL A   1      45.176  23.733  36.160  1.00  0.00    -0.237 OA
ATOM     70  O   UNL A   1      45.861  25.004  38.169  1.00  0.00    -0.237 OA
ATOM     71  O   UNL A   1      43.491  24.938  37.498  1.00  0.00    -0.744 OA
ENDBRANCH  64  68
ENDBRANCH  38  61
ENDBRANCH  12  13
ENDBRANCH   5   7
ENDBRANCH   2   3
ENDBRANCH   1   2
BRANCH   1  72
ATOM     72  C   UNL A   1      31.423  30.999  25.592  1.00  0.00     0.117 C 
BRANCH  72  73
ATOM     73  N   UNL A   1      30.311  31.156  24.674  1.00  0.00    -0.354 N 
ATOM     74  C   UNL A   1      29.741  30.316  23.775  1.00  0.00     0.244 C 
ATOM     75  H   UNL A   1      29.888  32.045  24.710  1.00  0.00     0.163 HD
ATOM     76  O   UNL A   1      28.704  30.721  23.233  1.00  0.00    -0.273 OA
BRANCH  74  77
ATOM     77  C   UNL A   1      30.209  28.868  23.511  1.00  0.00     0.197 C 
BRANCH  77  78
ATOM     78  N   UNL A   1      29.180  27.827  23.411  1.00  0.00    -0.340 N 
ATOM     79  C   UNL A   1      29.192  26.518  23.786  1.00  0.00     0.244 C 
ATOM     80  H   UNL A   1      28.335  28.128  23.004  1.00  0.00     0.164 HD
ATOM     81  O   UNL A   1      28.109  25.936  23.840  1.00  0.00    -0.273 OA
BRANCH  79  82
ATOM     82  C   UNL A   1      30.518  25.780  23.995  1.00  0.00     0.181 C 
BRANCH  82  83
ATOM     83  N   UNL A   1      30.441  24.967  25.210  1.00  0.00    -0.339 N 
ATOM     84  C   UNL A   1      31.162  25.082  26.372  1.00  0.00     0.251 C 
ATOM     85  H   UNL A   1      29.781  24.237  25.190  1.00  0.00     0.164 HD
ATOM     86  O   UNL A   1      31.130  24.216  27.232  1.00  0.00    -0.269 OA
BRANCH  84  87
ATOM     87  C   UNL A   1      32.012  26.273  26.578  1.00  0.00     0.040 A 
ATOM     88  C   UNL A   1      33.316  26.311  26.070  1.00  0.00     0.017 A 
ATOM     89  C   UNL A   1      31.489  27.366  27.275  1.00  0.00     0.017 A 
ATOM     90  C   UNL A   1      34.127  27.413  26.338  1.00  0.00     0.040 A 
ATOM     91  C   UNL A   1      32.301  28.472  27.529  1.00  0.00     0.040 A 
ATOM     92  C   UNL A   1      33.616  28.477  27.075  1.00  0.00     0.123 A 
ATOM     93  F   UNL A   1      34.406  29.524  27.351  1.00  0.00    -0.207 F 
ENDBRANCH  84  87
ENDBRANCH  82  83
BRANCH  82  94
ATOM     94  C   UNL A   1      30.750  24.931  22.735  1.00  0.00     0.101 C 
BRANCH  94  95
ATOM     95  S   UNL A   1      32.455  24.283  22.639  1.00  0.00    -0.177 SA
ATOM     96  H   UNL A   1      32.418  22.928  22.519  1.00  0.00     0.102 HD
ENDBRANCH  94  95
ENDBRANCH  82  94
ENDBRANCH  79  82
ENDBRANCH  77  78
BRANCH  77  97
ATOM     97  C   UNL A   1      31.126  28.869  22.279  1.00  0.00     0.191 C 
BRANCH  97  98
ATOM     98  O   UNL A   1      31.089  30.122  21.599  1.00  0.00    -0.394 OA
ATOM     99  H   UNL A   1      31.077  30.843  22.248  1.00  0.00     0.210 HD
ENDBRANCH  97  98
ENDBRANCH  77  97
ENDBRANCH  74  77
ENDBRANCH  72  73
ENDBRANCH   1  72
TORSDOF 21
ENDMDL
MODEL 3
REMARK VINA RESULT:     -11.0      1.383      1.846
REMARK SMILES O=C(NCCCNC(=O)[C@H](CO)NC(=O)[C@H](CS)NC(=O)c1ccc(F)cc1)c1ccc(-c2c3nc(c(-c4cc(S(=O)(=O)[O-])ccc4F)c4ccc([nH]4)c(-c4cc(S(=O)(=O)[O-])ccc4F)c4nc(c(-c5cc(S(=O)(=O)[O-])ccc5F)c5ccc2[nH]5)C=C4)C=C3)cc1
REMARK SMILES IDX 5 1 4 2 3 3 1 4 2 5 29 7 30 8 91 9 31 10 90 11 32 12 33 13
REMARK SMILES IDX 34 14 84 15 35 16 89 17 83 18 85 19 36 20 88 21 82 22 81 23
REMARK SMILES IDX 37 25 69 26 49 27 68 28 50 29 53 30 67 31 86 32 51 33 52 34
REMARK SMILES IDX 66 36 87 37 54 38 38 39 39 40 47 41 40 42 46 43 48 44 45 45
REMARK SMILES IDX 41 46 42 47 43 48 44 49 70 50 71 51 79 52 72 53 78 54 80 55
REMARK SMILES IDX 77 56 73 57 74 58 75 59 76 60 55 61 56 62 64 63 57 64 63 65
REMARK SMILES IDX 65 66 62 67 58 68 59 69 60 70 61 71 6 72 7 73 8 74 9 76
REMARK SMILES IDX 10 77 13 78 14 79 15 81 16 82 19 83 20 84 21 86 22 87 23 88
REMARK SMILES IDX 28 89 24 90 27 91 25 92 26 93 17 94 18 95 11 97 12 98
REMARK H PARENT 3 6 85 24 53 35 7 75 13 80 19 85 18 96 12 99
REMARK Flexibility Score: inf
ROOT
ATOM      1  C   UNL A   1      31.096  32.300  26.638  1.00  0.00     0.042 C 
ENDROOT
BRANCH   1   2
ATOM      2  C   UNL A   1      32.506  32.616  27.132  1.00  0.00     0.118 C 
BRANCH   2   3
ATOM      3  N   UNL A   1      32.667  34.028  27.473  1.00  0.00    -0.352 N 
ATOM      4  O   UNL A   1      33.255  35.792  28.735  1.00  0.00    -0.269 OA
ATOM      5  C   UNL A   1      33.461  34.623  28.421  1.00  0.00     0.251 C 
ATOM      6  H   UNL A   1      32.120  34.648  26.939  1.00  0.00     0.163 HD
BRANCH   5   7
ATOM      7  C   UNL A   1      34.558  33.862  29.052  1.00  0.00     0.039 A 
ATOM      8  C   UNL A   1      35.884  34.238  28.835  1.00  0.00     0.014 A 
ATOM      9  C   UNL A   1      34.261  32.793  29.903  1.00  0.00     0.014 A 
ATOM     10  C   UNL A   1      36.914  33.463  29.347  1.00  0.00     0.010 A 
ATOM     11  C   UNL A   1      35.301  32.075  30.502  1.00  0.00     0.010 A 
ATOM     12  C   UNL A   1      36.636  32.393  30.212  1.00  0.00    -0.014 A 
BRANCH  12  13
ATOM     13  C   UNL A   1      37.767  31.688  30.863  1.00  0.00     0.031 A 
ATOM     14  C   UNL A   1      38.576  30.664  30.119  1.00  0.00     0.074 A 
ATOM     15  C   UNL A   1      38.088  32.026  32.129  1.00  0.00     0.049 A 
ATOM     16  N   UNL A   1      39.595  29.960  30.542  1.00  0.00    -0.248 NA
ATOM     17  C   UNL A   1      38.194  30.386  28.726  1.00  0.00     0.031 C 
ATOM     18  C   UNL A   1      37.375  33.022  32.937  1.00  0.00     0.029 A 
ATOM     19  N   UNL A   1      39.101  31.604  32.949  1.00  0.00    -0.354 N 
ATOM     20  C   UNL A   1      39.971  29.152  29.477  1.00  0.00     0.074 A 
ATOM     21  C   UNL A   1      39.052  29.430  28.394  1.00  0.00     0.031 C 
ATOM     22  C   UNL A   1      38.011  33.179  34.105  1.00  0.00     0.029 A 
ATOM     23  C   UNL A   1      39.122  32.238  34.169  1.00  0.00     0.049 A 
ATOM     24  H   UNL A   1      39.752  30.912  32.689  1.00  0.00     0.167 HD
ATOM     25  C   UNL A   1      40.995  28.267  29.413  1.00  0.00     0.034 A 
ATOM     26  C   UNL A   1      39.927  32.069  35.235  1.00  0.00     0.034 A 
ATOM     27  C   UNL A   1      41.907  28.014  30.503  1.00  0.00     0.049 A 
ATOM     28  C   UNL A   1      41.013  31.035  35.158  1.00  0.00     0.074 A 
ATOM     29  C   UNL A   1      42.987  27.149  30.534  1.00  0.00     0.029 A 
ATOM     30  N   UNL A   1      41.847  28.618  31.751  1.00  0.00    -0.354 N 
ATOM     31  N   UNL A   1      41.334  30.256  34.151  1.00  0.00    -0.248 NA
ATOM     32  C   UNL A   1      41.834  30.845  36.359  1.00  0.00     0.031 C 
ATOM     33  C   UNL A   1      43.536  27.180  31.819  1.00  0.00     0.029 A 
ATOM     34  C   UNL A   1      42.848  28.120  32.569  1.00  0.00     0.049 A 
ATOM     35  H   UNL A   1      41.188  29.301  32.017  1.00  0.00     0.167 HD
ATOM     36  C   UNL A   1      42.405  29.491  34.593  1.00  0.00     0.074 A 
ATOM     37  C   UNL A   1      42.683  29.909  35.954  1.00  0.00     0.031 C 
ATOM     38  C   UNL A   1      43.099  28.533  33.930  1.00  0.00     0.034 A 
BRANCH  25  39
ATOM     39  C   UNL A   1      41.171  27.476  28.141  1.00  0.00     0.023 A 
ATOM     40  C   UNL A   1      40.818  26.118  28.058  1.00  0.00     0.031 A 
ATOM     41  C   UNL A   1      41.654  28.107  26.981  1.00  0.00     0.131 A 
ATOM     42  C   UNL A   1      40.982  25.429  26.847  1.00  0.00     0.055 A 
ATOM     43  C   UNL A   1      41.758  27.431  25.764  1.00  0.00     0.041 A 
ATOM     44  F   UNL A   1      42.022  29.398  27.010  1.00  0.00    -0.206 F 
ATOM     45  C   UNL A   1      41.426  26.083  25.694  1.00  0.00     0.022 A 
BRANCH  42  46
ATOM     46  S   UNL A   1      40.668  23.643  26.808  1.00  0.00     0.124 S 
ATOM     47  O   UNL A   1      40.951  23.265  28.191  1.00  0.00    -0.237 OA
ATOM     48  O   UNL A   1      39.270  23.575  26.399  1.00  0.00    -0.237 OA
ATOM     49  O   UNL A   1      41.629  23.147  25.825  1.00  0.00    -0.744 OA
ENDBRANCH  42  46
ENDBRANCH  25  39
BRANCH  26  50
ATOM     50  C   UNL A   1      39.699  32.871  36.467  1.00  0.00     0.023 A 
ATOM     51  C   UNL A   1      38.807  32.441  37.459  1.00  0.00     0.031 A 
ATOM     52  C   UNL A   1      40.402  34.072  36.682  1.00  0.00     0.131 A 
ATOM     53  C   UNL A   1      38.627  33.214  38.616  1.00  0.00     0.055 A 
ATOM     54  C   UNL A   1      40.253  34.814  37.855  1.00  0.00     0.041 A 
ATOM     55  F   UNL A   1      41.277  34.520  35.767  1.00  0.00    -0.206 F 
ATOM     56  C   UNL A   1      39.357  34.387  38.828  1.00  0.00     0.022 A 
BRANCH  53  57
ATOM     57  S   UNL A   1      37.401  32.677  39.841  1.00  0.00     0.124 S 
ATOM     58  O   UNL A   1      37.446  33.772  40.804  1.00  0.00    -0.237 OA
ATOM     59  O   UNL A   1      36.189  32.577  39.035  1.00  0.00    -0.237 OA
ATOM     60  O   UNL A   1      37.935  31.403  40.319  1.00  0.00    -0.744 OA
ENDBRANCH  53  57
ENDBRANCH  26  50
BRANCH  38  61
ATOM     61  C   UNL A   1      44.246  27.885  34.657  1.00  0.00     0.023 A 
ATOM     62  C   UNL A   1      44.096  26.653  35.314  1.00  0.00     0.031 A 
ATOM     63  C   UNL A   1      45.516  28.490  34.652  1.00  0.00     0.131 A 
ATOM     64  C   UNL A   1      45.195  26.074  35.965  1.00  0.00     0.055 A 
ATOM     65  C   UNL A   1      46.616  27.886  35.259  1.00  0.00     0.041 A 
ATOM     66  F   UNL A   1      45.708  29.668  34.038  1.00  0.00    -0.206 F 
ATOM     67  C   UNL A   1      46.458  26.673  35.925  1.00  0.00     0.022 A 
BRANCH  64  68
ATOM     68  S   UNL A   1      44.948  24.540  36.898  1.00  0.00     0.124 S 
ATOM     69  O   UNL A   1      44.063  23.788  36.014  1.00  0.00    -0.237 OA
ATOM     70  O   UNL A   1      46.308  24.025  37.027  1.00  0.00    -0.237 OA
ATOM     71  O   UNL A   1      44.339  24.993  38.147  1.00  0.00    -0.744 OA
ENDBRANCH  64  68
ENDBRANCH  38  61
ENDBRANCH  12  13
ENDBRANCH   5   7
ENDBRANCH   2   3
ENDBRANCH   1   2
BRANCH   1  72
ATOM     72  C   UNL A   1      31.086  31.328  25.465  1.00  0.00     0.117 C 
BRANCH  72  73
ATOM     73  N   UNL A   1      29.919  31.511  24.623  1.00  0.00    -0.354 N 
ATOM     74  C   UNL A   1      29.358  30.742  23.658  1.00  0.00     0.244 C 
ATOM     75  H   UNL A   1      29.441  32.358  24.785  1.00  0.00     0.163 HD
ATOM     76  O   UNL A   1      28.269  31.133  23.215  1.00  0.00    -0.273 OA
BRANCH  74  77
ATOM     77  C   UNL A   1      29.905  29.371  23.202  1.00  0.00     0.197 C 
BRANCH  77  78
ATOM     78  N   UNL A   1      28.993  28.224  23.253  1.00  0.00    -0.340 N 
ATOM     79  C   UNL A   1      29.156  26.975  23.771  1.00  0.00     0.244 C 
ATOM     80  H   UNL A   1      28.113  28.385  22.844  1.00  0.00     0.164 HD
ATOM     81  O   UNL A   1      28.144  26.292  23.926  1.00  0.00    -0.273 OA
BRANCH  79  82
ATOM     82  C   UNL A   1      30.559  26.410  24.017  1.00  0.00     0.181 C 
BRANCH  82  83
ATOM     83  N   UNL A   1      30.525  25.491  25.155  1.00  0.00    -0.339 N 
ATOM     84  C   UNL A   1      31.276  25.513  26.305  1.00  0.00     0.251 C 
ATOM     85  H   UNL A   1      29.875  24.756  25.087  1.00  0.00     0.164 HD
ATOM     86  O   UNL A   1      31.280  24.573  27.083  1.00  0.00    -0.269 OA
BRANCH  84  87
ATOM     87  C   UNL A   1      32.116  26.693  26.594  1.00  0.00     0.040 A 
ATOM     88  C   UNL A   1      31.611  27.755  27.354  1.00  0.00     0.017 A 
ATOM     89  C   UNL A   1      33.428  26.726  26.111  1.00  0.00     0.017 A 
ATOM     90  C   UNL A   1      32.393  28.891  27.554  1.00  0.00     0.040 A 
ATOM     91  C   UNL A   1      34.211  27.861  26.327  1.00  0.00     0.040 A 
ATOM     92  C   UNL A   1      33.681  28.939  27.029  1.00  0.00     0.123 A 
ATOM     93  F   UNL A   1      34.421  30.042  27.203  1.00  0.00    -0.207 F 
ENDBRANCH  84  87
ENDBRANCH  82  83
BRANCH  82  94
ATOM     94  C   UNL A   1      30.985  25.714  22.715  1.00  0.00     0.101 C 
BRANCH  94  95
ATOM     95  S   UNL A   1      32.693  26.139  22.227  1.00  0.00    -0.177 SA
ATOM     96  H   UNL A   1      33.364  26.626  23.306  1.00  0.00     0.102 HD
ENDBRANCH  94  95
ENDBRANCH  82  94
ENDBRANCH  79  82
ENDBRANCH  77  78
BRANCH  77  97
ATOM     97  C   UNL A   1      30.523  29.533  21.806  1.00  0.00     0.191 C 
BRANCH  97  98
ATOM     98  O   UNL A   1      31.924  29.795  21.879  1.00  0.00    -0.394 OA
ATOM     99  H   UNL A   1      32.388  29.254  21.221  1.00  0.00     0.210 HD
ENDBRANCH  97  98
ENDBRANCH  77  97
ENDBRANCH  74  77
ENDBRANCH  72  73
ENDBRANCH   1  72
TORSDOF 21
ENDMDL
