MODEL 1
REMARK VINA RESULT:     -12.9      0.000      0.000
REMARK SMILES O=C(CCC(=O)Nc1scc2c1c(=O)oc1ccccc12)NCCCNC(=O)c1ccc(-c2c3nc(c(-c4cc(S(=O)(=O)[O-])ccc4F)c4ccc([nH]4)c(-c4cc(S(=O)(=O)[O-])ccc4F)c4nc(c(-c5cc(S(=O)(=O)[O-])ccc5F)c5ccc2[nH]5)C=C4)C=C3)cc1
REMARK SMILES IDX 24 1 23 2 22 3 1 4 2 5 3 7 4 8 5 9 6 10 7 11 8 13 9 14 12 15
REMARK SMILES IDX 10 16 11 17 13 18 21 19 14 20 15 21 16 22 20 23 17 24 19 25
REMARK SMILES IDX 18 26 25 27 26 28 27 29 28 31 29 32 30 33 91 34 31 35 90 36
REMARK SMILES IDX 32 37 33 38 34 39 84 40 35 41 89 42 83 43 85 44 36 45 88 46
REMARK SMILES IDX 82 47 81 48 37 50 69 51 49 52 68 53 50 54 53 55 67 56 86 57
REMARK SMILES IDX 51 58 52 59 66 61 87 62 54 63 38 64 39 65 47 66 40 67 46 68
REMARK SMILES IDX 48 69 45 70 41 71 42 72 43 73 44 74 70 75 71 76 79 77 72 78
REMARK SMILES IDX 78 79 80 80 77 81 73 82 74 83 75 84 76 85 55 86 56 87 64 88
REMARK SMILES IDX 57 89 63 90 65 91 62 92 58 93 59 94 60 95 61 96
REMARK H PARENT 22 6 7 12 26 30 85 49 53 60
REMARK Flexibility Score: inf
ROOT
ATOM      1  C   UNL A   1      31.796  29.331  27.177  1.00  0.00     0.042 C 
ENDROOT
BRANCH   1   2
ATOM      2  C   UNL A   1      31.431  28.214  26.220  1.00  0.00     0.117 C 
BRANCH   2   3
ATOM      3  N   UNL A   1      31.255  26.888  26.790  1.00  0.00    -0.356 N 
ATOM      4  O   UNL A   1      29.588  25.935  25.476  1.00  0.00    -0.275 OA
ATOM      5  C   UNL A   1      30.599  25.858  26.132  1.00  0.00     0.220 C 
ATOM      6  H   UNL A   1      31.621  26.713  27.686  1.00  0.00     0.163 HD
BRANCH   5   7
ATOM      7  C   UNL A   1      31.388  24.570  26.147  1.00  0.00     0.110 C 
BRANCH   7   8
ATOM      8  C   UNL A   1      32.203  24.498  24.855  1.00  0.00     0.110 C 
BRANCH   8   9
ATOM      9  C   UNL A   1      33.643  24.848  25.116  1.00  0.00     0.225 C 
ATOM     10  O   UNL A   1      33.955  26.044  25.196  1.00  0.00    -0.275 OA
ATOM     11  N   UNL A   1      34.621  23.935  25.323  1.00  0.00    -0.317 N 
ATOM     12  H   UNL A   1      35.436  24.354  25.681  1.00  0.00     0.170 HD
BRANCH  11  13
ATOM     13  C   UNL A   1      34.782  22.574  25.168  1.00  0.00     0.110 A 
ATOM     14  S   UNL A   1      36.481  22.256  25.283  1.00  0.00    -0.125 S 
ATOM     15  C   UNL A   1      34.101  21.404  24.892  1.00  0.00     0.103 A 
ATOM     16  C   UNL A   1      36.288  20.573  25.096  1.00  0.00     0.076 A 
ATOM     17  C   UNL A   1      34.966  20.244  24.965  1.00  0.00     0.013 A 
ATOM     18  C   UNL A   1      32.784  21.040  24.358  1.00  0.00     0.347 A 
ATOM     19  C   UNL A   1      34.389  18.929  24.699  1.00  0.00     0.026 A 
ATOM     20  O   UNL A   1      32.466  21.208  23.187  1.00  0.00    -0.246 OA
ATOM     21  O   UNL A   1      32.219  20.001  25.089  1.00  0.00    -0.422 OA
ATOM     22  C   UNL A   1      32.973  18.866  24.740  1.00  0.00     0.139 A 
ATOM     23  C   UNL A   1      35.103  17.807  24.295  1.00  0.00     0.012 A 
ATOM     24  C   UNL A   1      32.278  17.716  24.385  1.00  0.00     0.048 A 
ATOM     25  C   UNL A   1      34.406  16.647  23.934  1.00  0.00     0.001 A 
ATOM     26  C   UNL A   1      33.005  16.603  23.974  1.00  0.00     0.004 A 
ENDBRANCH  11  13
ENDBRANCH   8   9
ENDBRANCH   7   8
ENDBRANCH   5   7
ENDBRANCH   2   3
ENDBRANCH   1   2
BRANCH   1  27
ATOM     27  C   UNL A   1      33.172  29.915  26.878  1.00  0.00     0.118 C 
BRANCH  27  28
ATOM     28  N   UNL A   1      33.462  31.071  27.711  1.00  0.00    -0.352 N 
ATOM     29  C   UNL A   1      34.558  31.545  28.364  1.00  0.00     0.251 C 
ATOM     30  H   UNL A   1      32.675  31.650  27.832  1.00  0.00     0.163 HD
ATOM     31  O   UNL A   1      34.395  32.600  28.987  1.00  0.00    -0.269 OA
BRANCH  29  32
ATOM     32  C   UNL A   1      35.892  30.901  28.385  1.00  0.00     0.039 A 
ATOM     33  C   UNL A   1      36.155  29.577  28.025  1.00  0.00     0.014 A 
ATOM     34  C   UNL A   1      36.937  31.689  28.906  1.00  0.00     0.014 A 
ATOM     35  C   UNL A   1      37.426  29.043  28.226  1.00  0.00     0.010 A 
ATOM     36  C   UNL A   1      38.202  31.158  29.109  1.00  0.00     0.010 A 
ATOM     37  C   UNL A   1      38.434  29.821  28.807  1.00  0.00    -0.014 A 
BRANCH  37  38
ATOM     38  C   UNL A   1      39.733  29.201  29.055  1.00  0.00     0.031 A 
ATOM     39  C   UNL A   1      40.027  28.852  30.474  1.00  0.00     0.074 A 
ATOM     40  C   UNL A   1      40.581  28.855  28.065  1.00  0.00     0.049 A 
ATOM     41  N   UNL A   1      40.967  29.314  31.234  1.00  0.00    -0.248 NA
ATOM     42  C   UNL A   1      39.092  27.953  31.165  1.00  0.00     0.031 C 
ATOM     43  C   UNL A   1      40.332  28.829  26.621  1.00  0.00     0.029 A 
ATOM     44  N   UNL A   1      41.835  28.337  28.168  1.00  0.00    -0.354 N 
ATOM     45  C   UNL A   1      40.844  28.657  32.462  1.00  0.00     0.074 A 
ATOM     46  C   UNL A   1      39.603  27.927  32.397  1.00  0.00     0.031 C 
ATOM     47  C   UNL A   1      41.299  28.100  26.018  1.00  0.00     0.029 A 
ATOM     48  C   UNL A   1      42.301  27.738  27.007  1.00  0.00     0.049 A 
ATOM     49  H   UNL A   1      42.366  28.383  28.995  1.00  0.00     0.167 HD
ATOM     50  C   UNL A   1      41.846  28.650  33.389  1.00  0.00     0.034 A 
ATOM     51  C   UNL A   1      43.378  26.922  26.893  1.00  0.00     0.034 A 
ATOM     52  C   UNL A   1      42.851  29.629  33.077  1.00  0.00     0.049 A 
ATOM     53  C   UNL A   1      44.253  27.141  28.073  1.00  0.00     0.074 A 
ATOM     54  C   UNL A   1      42.872  31.007  33.009  1.00  0.00     0.029 A 
ATOM     55  N   UNL A   1      43.988  29.202  32.437  1.00  0.00    -0.354 N 
ATOM     56  N   UNL A   1      44.937  28.231  28.280  1.00  0.00    -0.248 NA
ATOM     57  C   UNL A   1      44.008  26.324  29.252  1.00  0.00     0.031 C 
ATOM     58  C   UNL A   1      43.741  31.304  31.922  1.00  0.00     0.029 A 
ATOM     59  C   UNL A   1      44.243  30.097  31.431  1.00  0.00     0.049 A 
ATOM     60  H   UNL A   1      44.520  28.404  32.658  1.00  0.00     0.167 HD
ATOM     61  C   UNL A   1      44.802  28.470  29.639  1.00  0.00     0.074 A 
ATOM     62  C   UNL A   1      44.312  27.212  30.201  1.00  0.00     0.031 C 
ATOM     63  C   UNL A   1      44.814  29.739  30.147  1.00  0.00     0.034 A 
BRANCH  50  64
ATOM     64  C   UNL A   1      42.073  27.581  34.432  1.00  0.00     0.023 A 
ATOM     65  C   UNL A   1      42.861  26.440  34.200  1.00  0.00     0.031 A 
ATOM     66  C   UNL A   1      41.688  27.797  35.774  1.00  0.00     0.131 A 
ATOM     67  C   UNL A   1      43.241  25.585  35.245  1.00  0.00     0.055 A 
ATOM     68  C   UNL A   1      42.118  26.979  36.826  1.00  0.00     0.041 A 
ATOM     69  F   UNL A   1      40.927  28.849  36.117  1.00  0.00    -0.206 F 
ATOM     70  C   UNL A   1      42.904  25.866  36.565  1.00  0.00     0.022 A 
BRANCH  67  71
ATOM     71  S   UNL A   1      44.206  24.088  34.901  1.00  0.00     0.124 S 
ATOM     72  O   UNL A   1      43.159  23.121  34.591  1.00  0.00    -0.237 OA
ATOM     73  O   UNL A   1      45.027  24.517  33.771  1.00  0.00    -0.237 OA
ATOM     74  O   UNL A   1      44.936  23.862  36.144  1.00  0.00    -0.744 OA
ENDBRANCH  67  71
ENDBRANCH  50  64
BRANCH  51  75
ATOM     75  C   UNL A   1      43.409  25.658  26.117  1.00  0.00     0.023 A 
ATOM     76  C   UNL A   1      42.548  24.603  26.475  1.00  0.00     0.031 A 
ATOM     77  C   UNL A   1      44.461  25.359  25.237  1.00  0.00     0.131 A 
ATOM     78  C   UNL A   1      42.771  23.304  26.007  1.00  0.00     0.055 A 
ATOM     79  C   UNL A   1      44.674  24.060  24.753  1.00  0.00     0.041 A 
ATOM     80  F   UNL A   1      45.344  26.305  24.882  1.00  0.00    -0.206 F 
ATOM     81  C   UNL A   1      43.833  23.021  25.149  1.00  0.00     0.022 A 
BRANCH  78  82
ATOM     82  S   UNL A   1      41.723  21.941  26.584  1.00  0.00     0.124 S 
ATOM     83  O   UNL A   1      42.069  20.867  25.656  1.00  0.00    -0.237 OA
ATOM     84  O   UNL A   1      42.192  21.767  27.954  1.00  0.00    -0.237 OA
ATOM     85  O   UNL A   1      40.369  22.467  26.438  1.00  0.00    -0.744 OA
ENDBRANCH  78  82
ENDBRANCH  51  75
BRANCH  63  86
ATOM     86  C   UNL A   1      45.174  30.899  29.243  1.00  0.00     0.023 A 
ATOM     87  C   UNL A   1      46.455  31.461  29.392  1.00  0.00     0.031 A 
ATOM     88  C   UNL A   1      44.243  31.611  28.463  1.00  0.00     0.131 A 
ATOM     89  C   UNL A   1      46.753  32.706  28.824  1.00  0.00     0.055 A 
ATOM     90  C   UNL A   1      44.568  32.818  27.835  1.00  0.00     0.041 A 
ATOM     91  F   UNL A   1      42.968  31.220  28.358  1.00  0.00    -0.206 F 
ATOM     92  C   UNL A   1      45.822  33.382  28.031  1.00  0.00     0.022 A 
BRANCH  89  93
ATOM     93  S   UNL A   1      48.291  33.562  29.251  1.00  0.00     0.124 S 
ATOM     94  O   UNL A   1      47.995  34.077  30.585  1.00  0.00    -0.237 OA
ATOM     95  O   UNL A   1      49.273  32.480  29.202  1.00  0.00    -0.237 OA
ATOM     96  O   UNL A   1      48.436  34.573  28.209  1.00  0.00    -0.744 OA
ENDBRANCH  89  93
ENDBRANCH  63  86
ENDBRANCH  37  38
ENDBRANCH  29  32
ENDBRANCH  27  28
ENDBRANCH   1  27
TORSDOF 16
ENDMDL
MODEL 2
REMARK VINA RESULT:     -12.8      1.662      2.391
REMARK SMILES O=C(CCC(=O)Nc1scc2c1c(=O)oc1ccccc12)NCCCNC(=O)c1ccc(-c2c3nc(c(-c4cc(S(=O)(=O)[O-])ccc4F)c4ccc([nH]4)c(-c4cc(S(=O)(=O)[O-])ccc4F)c4nc(c(-c5cc(S(=O)(=O)[O-])ccc5F)c5ccc2[nH]5)C=C4)C=C3)cc1
REMARK SMILES IDX 24 1 23 2 22 3 1 4 2 5 3 7 4 8 5 9 6 10 7 11 8 13 9 14 12 15
REMARK SMILES IDX 10 16 11 17 13 18 21 19 14 20 15 21 16 22 20 23 17 24 19 25
REMARK SMILES IDX 18 26 25 27 26 28 27 29 28 31 29 32 30 33 91 34 31 35 90 36
REMARK SMILES IDX 32 37 33 38 34 39 84 40 35 41 89 42 83 43 85 44 36 45 88 46
REMARK SMILES IDX 82 47 81 48 37 50 69 51 49 52 68 53 50 54 53 55 67 56 86 57
REMARK SMILES IDX 51 58 52 59 66 61 87 62 54 63 38 64 39 65 47 66 40 67 46 68
REMARK SMILES IDX 48 69 45 70 41 71 42 72 43 73 44 74 70 75 71 76 79 77 72 78
REMARK SMILES IDX 78 79 80 80 77 81 73 82 74 83 75 84 76 85 55 86 56 87 64 88
REMARK SMILES IDX 57 89 63 90 65 91 62 92 58 93 59 94 60 95 61 96
REMARK H PARENT 22 6 7 12 26 30 85 49 53 60
REMARK Flexibility Score: inf
ROOT
ATOM      1  C   UNL A   1      31.778  29.694  26.875  1.00  0.00     0.042 C 
ENDROOT
BRANCH   1   2
ATOM      2  C   UNL A   1      31.480  30.520  25.638  1.00  0.00     0.117 C 
BRANCH   2   3
ATOM      3  N   UNL A   1      31.151  29.793  24.423  1.00  0.00    -0.356 N 
ATOM      4  O   UNL A   1      33.224  29.207  23.548  1.00  0.00    -0.275 OA
ATOM      5  C   UNL A   1      32.056  28.984  23.752  1.00  0.00     0.220 C 
ATOM      6  H   UNL A   1      30.240  29.878  24.060  1.00  0.00     0.163 HD
BRANCH   5   7
ATOM      7  C   UNL A   1      31.481  27.627  23.422  1.00  0.00     0.110 C 
BRANCH   7   8
ATOM      8  C   UNL A   1      30.653  27.158  24.619  1.00  0.00     0.110 C 
BRANCH   8   9
ATOM      9  C   UNL A   1      29.722  26.047  24.218  1.00  0.00     0.225 C 
ATOM     10  O   UNL A   1      28.547  26.329  23.949  1.00  0.00    -0.275 OA
ATOM     11  N   UNL A   1      30.098  24.754  24.080  1.00  0.00    -0.317 N 
ATOM     12  H   UNL A   1      29.410  24.226  23.613  1.00  0.00     0.170 HD
BRANCH  11  13
ATOM     13  C   UNL A   1      31.186  23.977  24.416  1.00  0.00     0.110 A 
ATOM     14  S   UNL A   1      30.680  22.944  25.713  1.00  0.00    -0.125 S 
ATOM     15  C   UNL A   1      32.527  23.774  24.147  1.00  0.00     0.103 A 
ATOM     16  C   UNL A   1      32.189  22.157  25.818  1.00  0.00     0.076 A 
ATOM     17  C   UNL A   1      33.061  22.646  24.883  1.00  0.00     0.013 A 
ATOM     18  C   UNL A   1      33.598  24.507  23.466  1.00  0.00     0.347 A 
ATOM     19  C   UNL A   1      34.469  22.302  24.702  1.00  0.00     0.026 A 
ATOM     20  O   UNL A   1      34.099  25.531  23.914  1.00  0.00    -0.246 OA
ATOM     21  O   UNL A   1      34.351  23.659  22.662  1.00  0.00    -0.422 OA
ATOM     22  C   UNL A   1      35.095  22.878  23.566  1.00  0.00     0.139 A 
ATOM     23  C   UNL A   1      35.242  21.584  25.606  1.00  0.00     0.012 A 
ATOM     24  C   UNL A   1      36.458  22.745  23.333  1.00  0.00     0.048 A 
ATOM     25  C   UNL A   1      36.617  21.450  25.376  1.00  0.00     0.001 A 
ATOM     26  C   UNL A   1      37.221  22.030  24.251  1.00  0.00     0.004 A 
ENDBRANCH  11  13
ENDBRANCH   8   9
ENDBRANCH   7   8
ENDBRANCH   5   7
ENDBRANCH   2   3
ENDBRANCH   1   2
BRANCH   1  27
ATOM     27  C   UNL A   1      33.254  29.738  27.251  1.00  0.00     0.118 C 
BRANCH  27  28
ATOM     28  N   UNL A   1      33.636  31.030  27.795  1.00  0.00    -0.352 N 
ATOM     29  C   UNL A   1      34.795  31.597  28.230  1.00  0.00     0.251 C 
ATOM     30  H   UNL A   1      32.870  31.646  27.867  1.00  0.00     0.163 HD
ATOM     31  O   UNL A   1      34.705  32.760  28.633  1.00  0.00    -0.269 OA
BRANCH  29  32
ATOM     32  C   UNL A   1      36.119  30.930  28.258  1.00  0.00     0.039 A 
ATOM     33  C   UNL A   1      36.386  29.644  27.786  1.00  0.00     0.014 A 
ATOM     34  C   UNL A   1      37.142  31.647  28.909  1.00  0.00     0.014 A 
ATOM     35  C   UNL A   1      37.637  29.071  28.000  1.00  0.00     0.010 A 
ATOM     36  C   UNL A   1      38.389  31.077  29.126  1.00  0.00     0.010 A 
ATOM     37  C   UNL A   1      38.621  29.772  28.707  1.00  0.00    -0.014 A 
BRANCH  37  38
ATOM     38  C   UNL A   1      39.898  29.109  28.962  1.00  0.00     0.031 A 
ATOM     39  C   UNL A   1      40.177  28.761  30.384  1.00  0.00     0.074 A 
ATOM     40  C   UNL A   1      40.734  28.726  27.976  1.00  0.00     0.049 A 
ATOM     41  N   UNL A   1      41.131  29.196  31.142  1.00  0.00    -0.248 NA
ATOM     42  C   UNL A   1      39.211  27.901  31.080  1.00  0.00     0.031 C 
ATOM     43  C   UNL A   1      40.486  28.698  26.532  1.00  0.00     0.029 A 
ATOM     44  N   UNL A   1      41.969  28.165  28.085  1.00  0.00    -0.354 N 
ATOM     45  C   UNL A   1      40.984  28.553  32.375  1.00  0.00     0.074 A 
ATOM     46  C   UNL A   1      39.718  27.866  32.313  1.00  0.00     0.031 C 
ATOM     47  C   UNL A   1      41.428  27.931  25.936  1.00  0.00     0.029 A 
ATOM     48  C   UNL A   1      42.415  27.542  26.929  1.00  0.00     0.049 A 
ATOM     49  H   UNL A   1      42.500  28.199  28.912  1.00  0.00     0.167 HD
ATOM     50  C   UNL A   1      41.984  28.519  33.303  1.00  0.00     0.034 A 
ATOM     51  C   UNL A   1      43.464  26.688  26.823  1.00  0.00     0.034 A 
ATOM     52  C   UNL A   1      43.022  29.459  32.986  1.00  0.00     0.049 A 
ATOM     53  C   UNL A   1      44.344  26.886  28.003  1.00  0.00     0.074 A 
ATOM     54  C   UNL A   1      43.092  30.835  32.907  1.00  0.00     0.029 A 
ATOM     55  N   UNL A   1      44.146  28.987  32.351  1.00  0.00    -0.354 N 
ATOM     56  N   UNL A   1      45.065  27.953  28.203  1.00  0.00    -0.248 NA
ATOM     57  C   UNL A   1      44.069  26.086  29.188  1.00  0.00     0.031 C 
ATOM     58  C   UNL A   1      43.972  31.093  31.820  1.00  0.00     0.029 A 
ATOM     59  C   UNL A   1      44.432  29.866  31.338  1.00  0.00     0.049 A 
ATOM     60  H   UNL A   1      44.649  28.174  32.579  1.00  0.00     0.167 HD
ATOM     61  C   UNL A   1      44.937  28.207  29.560  1.00  0.00     0.074 A 
ATOM     62  C   UNL A   1      44.402  26.971  30.130  1.00  0.00     0.031 C 
ATOM     63  C   UNL A   1      44.993  29.479  30.058  1.00  0.00     0.034 A 
BRANCH  50  64
ATOM     64  C   UNL A   1      42.173  27.450  34.355  1.00  0.00     0.023 A 
ATOM     65  C   UNL A   1      42.881  26.259  34.119  1.00  0.00     0.031 A 
ATOM     66  C   UNL A   1      41.837  27.706  35.704  1.00  0.00     0.131 A 
ATOM     67  C   UNL A   1      43.235  25.395  35.165  1.00  0.00     0.055 A 
ATOM     68  C   UNL A   1      42.244  26.875  36.755  1.00  0.00     0.041 A 
ATOM     69  F   UNL A   1      41.152  28.807  36.051  1.00  0.00    -0.206 F 
ATOM     70  C   UNL A   1      42.952  25.712  36.489  1.00  0.00     0.022 A 
BRANCH  67  71
ATOM     71  S   UNL A   1      44.097  23.837  34.817  1.00  0.00     0.124 S 
ATOM     72  O   UNL A   1      45.061  24.249  33.803  1.00  0.00    -0.237 OA
ATOM     73  O   UNL A   1      44.656  23.508  36.126  1.00  0.00    -0.237 OA
ATOM     74  O   UNL A   1      43.029  22.953  34.361  1.00  0.00    -0.744 OA
ENDBRANCH  67  71
ENDBRANCH  50  64
BRANCH  51  75
ATOM     75  C   UNL A   1      43.452  25.418  26.057  1.00  0.00     0.023 A 
ATOM     76  C   UNL A   1      42.532  24.409  26.402  1.00  0.00     0.031 A 
ATOM     77  C   UNL A   1      44.508  25.061  25.204  1.00  0.00     0.131 A 
ATOM     78  C   UNL A   1      42.703  23.096  25.948  1.00  0.00     0.055 A 
ATOM     79  C   UNL A   1      44.669  23.750  24.735  1.00  0.00     0.041 A 
ATOM     80  F   UNL A   1      45.444  25.961  24.863  1.00  0.00    -0.206 F 
ATOM     81  C   UNL A   1      43.770  22.756  25.117  1.00  0.00     0.022 A 
BRANCH  78  82
ATOM     82  S   UNL A   1      41.577  21.790  26.510  1.00  0.00     0.124 S 
ATOM     83  O   UNL A   1      42.041  20.631  25.751  1.00  0.00    -0.237 OA
ATOM     84  O   UNL A   1      41.852  21.758  27.942  1.00  0.00    -0.237 OA
ATOM     85  O   UNL A   1      40.259  22.288  26.127  1.00  0.00    -0.744 OA
ENDBRANCH  78  82
ENDBRANCH  51  75
BRANCH  63  86
ATOM     86  C   UNL A   1      45.394  30.618  29.146  1.00  0.00     0.023 A 
ATOM     87  C   UNL A   1      46.701  31.122  29.277  1.00  0.00     0.031 A 
ATOM     88  C   UNL A   1      44.487  31.370  28.374  1.00  0.00     0.131 A 
ATOM     89  C   UNL A   1      47.048  32.350  28.701  1.00  0.00     0.055 A 
ATOM     90  C   UNL A   1      44.859  32.558  27.738  1.00  0.00     0.041 A 
ATOM     91  F   UNL A   1      43.194  31.036  28.286  1.00  0.00    -0.206 F 
ATOM     92  C   UNL A   1      46.139  33.065  27.917  1.00  0.00     0.022 A 
BRANCH  89  93
ATOM     93  S   UNL A   1      48.629  33.136  29.108  1.00  0.00     0.124 S 
ATOM     94  O   UNL A   1      49.439  31.997  29.528  1.00  0.00    -0.237 OA
ATOM     95  O   UNL A   1      49.012  33.740  27.833  1.00  0.00    -0.237 OA
ATOM     96  O   UNL A   1      48.291  34.086  30.163  1.00  0.00    -0.744 OA
ENDBRANCH  89  93
ENDBRANCH  63  86
ENDBRANCH  37  38
ENDBRANCH  29  32
ENDBRANCH  27  28
ENDBRANCH   1  27
TORSDOF 16
ENDMDL
MODEL 3
REMARK VINA RESULT:     -12.5      3.534      8.412
REMARK SMILES O=C(CCC(=O)Nc1scc2c1c(=O)oc1ccccc12)NCCCNC(=O)c1ccc(-c2c3nc(c(-c4cc(S(=O)(=O)[O-])ccc4F)c4ccc([nH]4)c(-c4cc(S(=O)(=O)[O-])ccc4F)c4nc(c(-c5cc(S(=O)(=O)[O-])ccc5F)c5ccc2[nH]5)C=C4)C=C3)cc1
REMARK SMILES IDX 24 1 23 2 22 3 1 4 2 5 3 7 4 8 5 9 6 10 7 11 8 13 9 14 12 15
REMARK SMILES IDX 10 16 11 17 13 18 21 19 14 20 15 21 16 22 20 23 17 24 19 25
REMARK SMILES IDX 18 26 25 27 26 28 27 29 28 31 29 32 30 33 91 34 31 35 90 36
REMARK SMILES IDX 32 37 33 38 34 39 84 40 35 41 89 42 83 43 85 44 36 45 88 46
REMARK SMILES IDX 82 47 81 48 37 50 69 51 49 52 68 53 50 54 53 55 67 56 86 57
REMARK SMILES IDX 51 58 52 59 66 61 87 62 54 63 38 64 39 65 47 66 40 67 46 68
REMARK SMILES IDX 48 69 45 70 41 71 42 72 43 73 44 74 70 75 71 76 79 77 72 78
REMARK SMILES IDX 78 79 80 80 77 81 73 82 74 83 75 84 76 85 55 86 56 87 64 88
REMARK SMILES IDX 57 89 63 90 65 91 62 92 58 93 59 94 60 95 61 96
REMARK H PARENT 22 6 7 12 26 30 85 49 53 60
REMARK Flexibility Score: inf
ROOT
ATOM      1  C   UNL A   1      35.774  21.310  25.719  1.00  0.00     0.042 C 
ENDROOT
BRANCH   1   2
ATOM      2  C   UNL A   1      34.410  20.991  25.136  1.00  0.00     0.117 C 
BRANCH   2   3
ATOM      3  N   UNL A   1      33.518  22.114  24.893  1.00  0.00    -0.356 N 
ATOM      4  O   UNL A   1      31.411  21.267  25.397  1.00  0.00    -0.275 OA
ATOM      5  C   UNL A   1      32.216  22.166  25.367  1.00  0.00     0.220 C 
ATOM      6  H   UNL A   1      33.856  22.874  24.367  1.00  0.00     0.163 HD
BRANCH   5   7
ATOM      7  C   UNL A   1      31.906  23.475  26.056  1.00  0.00     0.110 C 
BRANCH   7   8
ATOM      8  C   UNL A   1      32.032  24.596  25.023  1.00  0.00     0.110 C 
BRANCH   8   9
ATOM      9  C   UNL A   1      33.273  25.409  25.272  1.00  0.00     0.225 C 
ATOM     10  O   UNL A   1      34.303  24.821  25.628  1.00  0.00    -0.275 OA
ATOM     11  N   UNL A   1      33.355  26.747  25.082  1.00  0.00    -0.317 N 
ATOM     12  H   UNL A   1      34.289  27.057  25.095  1.00  0.00     0.170 HD
BRANCH  11  13
ATOM     13  C   UNL A   1      32.480  27.793  24.876  1.00  0.00     0.110 A 
ATOM     14  S   UNL A   1      32.848  28.994  26.069  1.00  0.00    -0.125 S 
ATOM     15  C   UNL A   1      31.394  28.195  24.121  1.00  0.00     0.103 A 
ATOM     16  C   UNL A   1      31.662  30.078  25.500  1.00  0.00     0.076 A 
ATOM     17  C   UNL A   1      31.006  29.560  24.417  1.00  0.00     0.013 A 
ATOM     18  C   UNL A   1      30.412  27.551  23.243  1.00  0.00     0.347 A 
ATOM     19  C   UNL A   1      29.871  30.130  23.695  1.00  0.00     0.026 A 
ATOM     20  O   UNL A   1      29.534  26.804  23.655  1.00  0.00    -0.246 OA
ATOM     21  O   UNL A   1      30.202  28.303  22.093  1.00  0.00    -0.422 OA
ATOM     22  C   UNL A   1      29.475  29.427  22.529  1.00  0.00     0.139 A 
ATOM     23  C   UNL A   1      29.100  31.200  24.132  1.00  0.00     0.012 A 
ATOM     24  C   UNL A   1      28.338  29.776  21.811  1.00  0.00     0.048 A 
ATOM     25  C   UNL A   1      27.951  31.554  23.413  1.00  0.00     0.001 A 
ATOM     26  C   UNL A   1      27.570  30.845  22.265  1.00  0.00     0.004 A 
ENDBRANCH  11  13
ENDBRANCH   8   9
ENDBRANCH   7   8
ENDBRANCH   5   7
ENDBRANCH   2   3
ENDBRANCH   1   2
BRANCH   1  27
ATOM     27  C   UNL A   1      36.886  21.163  24.687  1.00  0.00     0.118 C 
BRANCH  27  28
ATOM     28  N   UNL A   1      37.757  20.039  24.987  1.00  0.00    -0.352 N 
ATOM     29  C   UNL A   1      38.953  19.879  25.618  1.00  0.00     0.251 C 
ATOM     30  H   UNL A   1      37.394  19.187  24.654  1.00  0.00     0.163 HD
ATOM     31  O   UNL A   1      39.380  18.722  25.671  1.00  0.00    -0.269 OA
BRANCH  29  32
ATOM     32  C   UNL A   1      39.758  20.967  26.222  1.00  0.00     0.039 A 
ATOM     33  C   UNL A   1      40.774  20.793  27.165  1.00  0.00     0.014 A 
ATOM     34  C   UNL A   1      39.372  22.274  25.866  1.00  0.00     0.014 A 
ATOM     35  C   UNL A   1      41.359  21.904  27.769  1.00  0.00     0.010 A 
ATOM     36  C   UNL A   1      39.951  23.382  26.469  1.00  0.00     0.010 A 
ATOM     37  C   UNL A   1      40.916  23.193  27.451  1.00  0.00    -0.014 A 
BRANCH  37  38
ATOM     38  C   UNL A   1      41.515  24.325  28.154  1.00  0.00     0.031 A 
ATOM     39  C   UNL A   1      40.690  25.565  28.213  1.00  0.00     0.074 A 
ATOM     40  C   UNL A   1      42.689  24.240  28.811  1.00  0.00     0.049 A 
ATOM     41  N   UNL A   1      40.955  26.728  27.712  1.00  0.00    -0.248 NA
ATOM     42  C   UNL A   1      39.354  25.469  28.816  1.00  0.00     0.031 C 
ATOM     43  C   UNL A   1      43.473  23.042  29.125  1.00  0.00     0.029 A 
ATOM     44  N   UNL A   1      43.379  25.230  29.442  1.00  0.00    -0.354 N 
ATOM     45  C   UNL A   1      39.891  27.563  28.061  1.00  0.00     0.074 A 
ATOM     46  C   UNL A   1      38.884  26.703  28.631  1.00  0.00     0.031 C 
ATOM     47  C   UNL A   1      44.380  23.345  30.081  1.00  0.00     0.029 A 
ATOM     48  C   UNL A   1      44.338  24.776  30.335  1.00  0.00     0.049 A 
ATOM     49  H   UNL A   1      43.212  26.185  29.279  1.00  0.00     0.167 HD
ATOM     50  C   UNL A   1      39.975  28.923  27.984  1.00  0.00     0.034 A 
ATOM     51  C   UNL A   1      44.976  25.509  31.281  1.00  0.00     0.034 A 
ATOM     52  C   UNL A   1      41.127  29.332  27.228  1.00  0.00     0.049 A 
ATOM     53  C   UNL A   1      44.856  26.943  30.914  1.00  0.00     0.074 A 
ATOM     54  C   UNL A   1      41.520  29.195  25.913  1.00  0.00     0.029 A 
ATOM     55  N   UNL A   1      42.252  29.705  27.922  1.00  0.00    -0.354 N 
ATOM     56  N   UNL A   1      45.463  27.488  29.897  1.00  0.00    -0.248 NA
ATOM     57  C   UNL A   1      43.699  27.671  31.414  1.00  0.00     0.031 C 
ATOM     58  C   UNL A   1      42.929  29.009  25.971  1.00  0.00     0.029 A 
ATOM     59  C   UNL A   1      43.319  29.101  27.309  1.00  0.00     0.049 A 
ATOM     60  H   UNL A   1      42.286  30.294  28.709  1.00  0.00     0.167 HD
ATOM     61  C   UNL A   1      44.517  28.341  29.348  1.00  0.00     0.074 A 
ATOM     62  C   UNL A   1      43.493  28.491  30.381  1.00  0.00     0.031 C 
ATOM     63  C   UNL A   1      44.493  28.616  28.009  1.00  0.00     0.034 A 
BRANCH  50  64
ATOM     64  C   UNL A   1      39.180  29.904  28.816  1.00  0.00     0.023 A 
ATOM     65  C   UNL A   1      38.010  30.528  28.352  1.00  0.00     0.031 A 
ATOM     66  C   UNL A   1      39.456  30.061  30.193  1.00  0.00     0.131 A 
ATOM     67  C   UNL A   1      37.172  31.251  29.214  1.00  0.00     0.055 A 
ATOM     68  C   UNL A   1      38.588  30.729  31.066  1.00  0.00     0.041 A 
ATOM     69  F   UNL A   1      40.550  29.517  30.749  1.00  0.00    -0.206 F 
ATOM     70  C   UNL A   1      37.434  31.326  30.578  1.00  0.00     0.022 A 
BRANCH  67  71
ATOM     71  S   UNL A   1      35.702  32.096  28.571  1.00  0.00     0.124 S 
ATOM     72  O   UNL A   1      36.279  33.307  27.998  1.00  0.00    -0.237 OA
ATOM     73  O   UNL A   1      35.195  31.120  27.610  1.00  0.00    -0.237 OA
ATOM     74  O   UNL A   1      34.872  32.284  29.757  1.00  0.00    -0.744 OA
ENDBRANCH  67  71
ENDBRANCH  50  64
BRANCH  51  75
ATOM     75  C   UNL A   1      45.211  25.074  32.679  1.00  0.00     0.023 A 
ATOM     76  C   UNL A   1      44.123  24.976  33.567  1.00  0.00     0.031 A 
ATOM     77  C   UNL A   1      46.500  25.045  33.236  1.00  0.00     0.131 A 
ATOM     78  C   UNL A   1      44.328  24.904  34.950  1.00  0.00     0.055 A 
ATOM     79  C   UNL A   1      46.705  24.954  34.620  1.00  0.00     0.041 A 
ATOM     80  F   UNL A   1      47.583  25.172  32.455  1.00  0.00    -0.206 F 
ATOM     81  C   UNL A   1      45.615  24.896  35.485  1.00  0.00     0.022 A 
BRANCH  78  82
ATOM     82  S   UNL A   1      42.908  24.906  36.077  1.00  0.00     0.124 S 
ATOM     83  O   UNL A   1      42.431  26.284  35.975  1.00  0.00    -0.237 OA
ATOM     84  O   UNL A   1      42.048  23.895  35.473  1.00  0.00    -0.237 OA
ATOM     85  O   UNL A   1      43.495  24.553  37.366  1.00  0.00    -0.744 OA
ENDBRANCH  78  82
ENDBRANCH  51  75
BRANCH  63  86
ATOM     86  C   UNL A   1      45.630  28.139  27.130  1.00  0.00     0.023 A 
ATOM     87  C   UNL A   1      45.490  26.880  26.519  1.00  0.00     0.031 A 
ATOM     88  C   UNL A   1      46.904  28.737  27.094  1.00  0.00     0.131 A 
ATOM     89  C   UNL A   1      46.599  26.241  25.951  1.00  0.00     0.055 A 
ATOM     90  C   UNL A   1      47.993  28.129  26.460  1.00  0.00     0.041 A 
ATOM     91  F   UNL A   1      47.165  29.876  27.746  1.00  0.00    -0.206 F 
ATOM     92  C   UNL A   1      47.848  26.865  25.903  1.00  0.00     0.022 A 
BRANCH  89  93
ATOM     93  S   UNL A   1      46.489  24.511  25.427  1.00  0.00     0.124 S 
ATOM     94  O   UNL A   1      47.172  24.537  24.137  1.00  0.00    -0.237 OA
ATOM     95  O   UNL A   1      47.201  23.815  26.497  1.00  0.00    -0.237 OA
ATOM     96  O   UNL A   1      45.054  24.249  25.369  1.00  0.00    -0.744 OA
ENDBRANCH  89  93
ENDBRANCH  63  86
ENDBRANCH  37  38
ENDBRANCH  29  32
ENDBRANCH  27  28
ENDBRANCH   1  27
TORSDOF 16
ENDMDL
