MODEL 1
REMARK VINA RESULT:     -11.8      0.000      0.000
REMARK SMILES CC(C)[C@@H]1CCCN1C(=O)N1CCO[C@H](CC(=O)NCCCNC(=O)c2ccc(-c3c4nc(c(-c5cc(S(=O)(=O)[O-])ccc5F)c5ccc([nH]5)c(-c5cc(S(=O)(=O)[O-])ccc5F)c5nc(c(-c6cc(S(=O)(=O)[O-])ccc6F)c6ccc3[nH]6)C=C5)C=C4)cc2)C1
REMARK SMILES IDX 20 1 19 2 17 3 18 4 16 6 15 7 11 8 12 9 89 10 13 11 14 12
REMARK SMILES IDX 9 13 10 14 8 15 4 16 5 17 6 18 7 19 2 20 1 21 3 22 21 23
REMARK SMILES IDX 22 24 23 25 24 26 25 28 26 29 27 30 88 31 28 32 87 33 29 34
REMARK SMILES IDX 30 35 31 36 81 37 32 38 86 39 80 40 82 41 33 42 85 43 79 44
REMARK SMILES IDX 78 45 34 47 66 48 46 49 65 50 47 51 50 52 64 53 83 54 48 55
REMARK SMILES IDX 49 56 63 58 84 59 51 60 35 61 36 62 44 63 37 64 43 65 45 66
REMARK SMILES IDX 42 67 38 68 39 69 40 70 41 71 67 72 68 73 76 74 69 75 75 76
REMARK SMILES IDX 77 77 74 78 70 79 71 80 72 81 73 82 52 83 53 84 61 85 54 86
REMARK SMILES IDX 60 87 62 88 59 89 55 90 56 91 57 92 58 93
REMARK H PARENT 19 5 23 27 82 46 50 57
REMARK Flexibility Score: inf
ROOT
ATOM      1  C   UNL A   1      31.723  29.724  24.936  1.00  0.00     0.117 C 
ENDROOT
BRANCH   1   2
ATOM      2  N   UNL A   1      30.757  29.803  23.866  1.00  0.00    -0.356 N 
ATOM      3  C   UNL A   1      30.702  29.036  22.735  1.00  0.00     0.222 C 
ATOM      4  O   UNL A   1      29.751  29.179  21.965  1.00  0.00    -0.275 OA
ATOM      5  H   UNL A   1      30.056  30.488  23.963  1.00  0.00     0.163 HD
BRANCH   3   6
ATOM      6  C   UNL A   1      31.737  27.962  22.501  1.00  0.00     0.133 C 
BRANCH   6   7
ATOM      7  C   UNL A   1      31.237  26.540  22.218  1.00  0.00     0.147 C 
ATOM      8  N   UNL A   1      32.877  25.427  23.656  1.00  0.00    -0.320 N 
ATOM      9  C   UNL A   1      33.420  24.669  22.536  1.00  0.00     0.150 C 
ATOM     10  C   UNL A   1      31.452  25.668  23.460  1.00  0.00     0.154 C 
ATOM     11  C   UNL A   1      32.898  25.073  21.145  1.00  0.00     0.182 C 
ATOM     12  O   UNL A   1      31.755  25.925  21.038  1.00  0.00    -0.374 OA
BRANCH   8  13
ATOM     13  C   UNL A   1      33.216  24.963  24.912  1.00  0.00     0.320 C 
ATOM     14  O   UNL A   1      33.171  25.724  25.881  1.00  0.00    -0.248 OA
BRANCH  13  15
ATOM     15  N   UNL A   1      33.652  23.661  25.030  1.00  0.00    -0.321 N 
ATOM     16  C   UNL A   1      34.963  23.047  25.320  1.00  0.00     0.089 C 
ATOM     17  C   UNL A   1      34.724  21.555  25.038  1.00  0.00     0.027 C 
ATOM     18  C   UNL A   1      33.297  21.348  25.490  1.00  0.00     0.024 C 
ATOM     19  C   UNL A   1      32.614  22.638  25.068  1.00  0.00     0.122 C 
BRANCH  16  20
ATOM     20  C   UNL A   1      36.212  23.552  24.590  1.00  0.00     0.005 C 
ATOM     21  C   UNL A   1      37.401  23.681  25.558  1.00  0.00     0.009 C 
ATOM     22  C   UNL A   1      36.629  22.763  23.352  1.00  0.00     0.009 C 
ENDBRANCH  16  20
ENDBRANCH  13  15
ENDBRANCH   8  13
ENDBRANCH   6   7
ENDBRANCH   3   6
ENDBRANCH   1   2
BRANCH   1  23
ATOM     23  C   UNL A   1      31.406  30.596  26.133  1.00  0.00     0.042 C 
BRANCH  23  24
ATOM     24  C   UNL A   1      32.646  30.909  26.948  1.00  0.00     0.118 C 
BRANCH  24  25
ATOM     25  N   UNL A   1      32.831  32.345  27.168  1.00  0.00    -0.352 N 
ATOM     26  C   UNL A   1      33.846  33.047  27.786  1.00  0.00     0.251 C 
ATOM     27  H   UNL A   1      32.104  32.907  26.815  1.00  0.00     0.163 HD
ATOM     28  O   UNL A   1      33.698  34.238  28.021  1.00  0.00    -0.269 OA
BRANCH  26  29
ATOM     29  C   UNL A   1      35.086  32.348  28.193  1.00  0.00     0.039 A 
ATOM     30  C   UNL A   1      36.294  33.046  28.255  1.00  0.00     0.014 A 
ATOM     31  C   UNL A   1      35.045  31.005  28.556  1.00  0.00     0.014 A 
ATOM     32  C   UNL A   1      37.425  32.417  28.786  1.00  0.00     0.010 A 
ATOM     33  C   UNL A   1      36.110  30.446  29.242  1.00  0.00     0.010 A 
ATOM     34  C   UNL A   1      37.325  31.133  29.346  1.00  0.00    -0.014 A 
BRANCH  34  35
ATOM     35  C   UNL A   1      38.475  30.468  30.017  1.00  0.00     0.031 A 
ATOM     36  C   UNL A   1      38.821  30.833  31.441  1.00  0.00     0.074 A 
ATOM     37  C   UNL A   1      39.250  29.610  29.322  1.00  0.00     0.049 A 
ATOM     38  N   UNL A   1      39.837  30.452  32.170  1.00  0.00    -0.248 NA
ATOM     39  C   UNL A   1      37.937  31.799  32.116  1.00  0.00     0.031 C 
ATOM     40  C   UNL A   1      39.060  29.245  27.914  1.00  0.00     0.029 A 
ATOM     41  N   UNL A   1      40.354  28.889  29.698  1.00  0.00    -0.354 N 
ATOM     42  C   UNL A   1      39.730  31.156  33.366  1.00  0.00     0.074 A 
ATOM     43  C   UNL A   1      38.604  32.050  33.231  1.00  0.00     0.031 C 
ATOM     44  C   UNL A   1      39.982  28.333  27.565  1.00  0.00     0.029 A 
ATOM     45  C   UNL A   1      40.864  28.090  28.699  1.00  0.00     0.049 A 
ATOM     46  H   UNL A   1      40.748  28.939  30.599  1.00  0.00     0.167 HD
ATOM     47  C   UNL A   1      40.478  31.039  34.490  1.00  0.00     0.034 A 
ATOM     48  C   UNL A   1      41.925  27.258  28.699  1.00  0.00     0.034 A 
ATOM     49  C   UNL A   1      41.565  30.103  34.618  1.00  0.00     0.049 A 
ATOM     50  C   UNL A   1      42.723  27.122  29.971  1.00  0.00     0.074 A 
ATOM     51  C   UNL A   1      42.340  29.830  35.730  1.00  0.00     0.029 A 
ATOM     52  N   UNL A   1      42.029  29.283  33.596  1.00  0.00    -0.354 N 
ATOM     53  N   UNL A   1      42.559  27.740  31.120  1.00  0.00    -0.248 NA
ATOM     54  C   UNL A   1      43.837  26.168  29.955  1.00  0.00     0.031 C 
ATOM     55  C   UNL A   1      43.319  28.902  35.361  1.00  0.00     0.029 A 
ATOM     56  C   UNL A   1      43.101  28.529  34.044  1.00  0.00     0.049 A 
ATOM     57  H   UNL A   1      41.652  29.245  32.688  1.00  0.00     0.167 HD
ATOM     58  C   UNL A   1      43.534  27.225  31.970  1.00  0.00     0.074 A 
ATOM     59  C   UNL A   1      44.258  26.227  31.208  1.00  0.00     0.031 C 
ATOM     60  C   UNL A   1      43.813  27.547  33.260  1.00  0.00     0.034 A 
BRANCH  47  61
ATOM     61  C   UNL A   1      40.150  31.948  35.653  1.00  0.00     0.023 A 
ATOM     62  C   UNL A   1      39.138  31.636  36.579  1.00  0.00     0.031 A 
ATOM     63  C   UNL A   1      40.848  33.156  35.828  1.00  0.00     0.131 A 
ATOM     64  C   UNL A   1      38.802  32.551  37.587  1.00  0.00     0.055 A 
ATOM     65  C   UNL A   1      40.568  34.023  36.888  1.00  0.00     0.041 A 
ATOM     66  F   UNL A   1      41.808  33.523  34.965  1.00  0.00    -0.206 F 
ATOM     67  C   UNL A   1      39.529  33.729  37.766  1.00  0.00     0.022 A 
BRANCH  64  68
ATOM     68  S   UNL A   1      37.310  32.246  38.573  1.00  0.00     0.124 S 
ATOM     69  O   UNL A   1      36.330  33.090  37.893  1.00  0.00    -0.237 OA
ATOM     70  O   UNL A   1      37.124  30.807  38.428  1.00  0.00    -0.237 OA
ATOM     71  O   UNL A   1      37.686  32.695  39.912  1.00  0.00    -0.744 OA
ENDBRANCH  64  68
ENDBRANCH  47  61
BRANCH  48  72
ATOM     72  C   UNL A   1      42.300  26.494  27.471  1.00  0.00     0.023 A 
ATOM     73  C   UNL A   1      41.977  25.134  27.336  1.00  0.00     0.031 A 
ATOM     74  C   UNL A   1      43.033  27.099  26.434  1.00  0.00     0.131 A 
ATOM     75  C   UNL A   1      42.435  24.411  26.223  1.00  0.00     0.055 A 
ATOM     76  C   UNL A   1      43.432  26.390  25.299  1.00  0.00     0.041 A 
ATOM     77  F   UNL A   1      43.367  28.397  26.505  1.00  0.00    -0.206 F 
ATOM     78  C   UNL A   1      43.147  25.033  25.195  1.00  0.00     0.022 A 
BRANCH  75  79
ATOM     79  S   UNL A   1      42.178  22.614  26.188  1.00  0.00     0.124 S 
ATOM     80  O   UNL A   1      42.869  22.192  27.401  1.00  0.00    -0.237 OA
ATOM     81  O   UNL A   1      40.723  22.517  26.212  1.00  0.00    -0.237 OA
ATOM     82  O   UNL A   1      42.808  22.204  24.935  1.00  0.00    -0.744 OA
ENDBRANCH  75  79
ENDBRANCH  48  72
BRANCH  60  83
ATOM     83  C   UNL A   1      44.926  26.778  33.926  1.00  0.00     0.023 A 
ATOM     84  C   UNL A   1      44.718  25.494  34.460  1.00  0.00     0.031 A 
ATOM     85  C   UNL A   1      46.207  27.347  34.048  1.00  0.00     0.131 A 
ATOM     86  C   UNL A   1      45.751  24.855  35.158  1.00  0.00     0.055 A 
ATOM     87  C   UNL A   1      47.253  26.671  34.676  1.00  0.00     0.041 A 
ATOM     88  F   UNL A   1      46.461  28.570  33.558  1.00  0.00    -0.206 F 
ATOM     89  C   UNL A   1      47.023  25.425  35.252  1.00  0.00     0.022 A 
BRANCH  86  90
ATOM     90  S   UNL A   1      45.371  23.323  36.050  1.00  0.00     0.124 S 
ATOM     91  O   UNL A   1      46.500  22.472  35.684  1.00  0.00    -0.237 OA
ATOM     92  O   UNL A   1      45.334  23.770  37.439  1.00  0.00    -0.237 OA
ATOM     93  O   UNL A   1      44.082  22.914  35.495  1.00  0.00    -0.744 OA
ENDBRANCH  86  90
ENDBRANCH  60  83
ENDBRANCH  34  35
ENDBRANCH  26  29
ENDBRANCH  24  25
ENDBRANCH  23  24
ENDBRANCH   1  23
TORSDOF 17
ENDMDL
MODEL 2
REMARK VINA RESULT:     -11.7      2.299      8.176
REMARK SMILES CC(C)[C@@H]1CCCN1C(=O)N1CCO[C@H](CC(=O)NCCCNC(=O)c2ccc(-c3c4nc(c(-c5cc(S(=O)(=O)[O-])ccc5F)c5ccc([nH]5)c(-c5cc(S(=O)(=O)[O-])ccc5F)c5nc(c(-c6cc(S(=O)(=O)[O-])ccc6F)c6ccc3[nH]6)C=C5)C=C4)cc2)C1
REMARK SMILES IDX 20 1 19 2 17 3 18 4 16 6 15 7 11 8 12 9 89 10 13 11 14 12
REMARK SMILES IDX 9 13 10 14 8 15 4 16 5 17 6 18 7 19 2 20 1 21 3 22 21 23
REMARK SMILES IDX 22 24 23 25 24 26 25 28 26 29 27 30 88 31 28 32 87 33 29 34
REMARK SMILES IDX 30 35 31 36 81 37 32 38 86 39 80 40 82 41 33 42 85 43 79 44
REMARK SMILES IDX 78 45 34 47 66 48 46 49 65 50 47 51 50 52 64 53 83 54 48 55
REMARK SMILES IDX 49 56 63 58 84 59 51 60 35 61 36 62 44 63 37 64 43 65 45 66
REMARK SMILES IDX 42 67 38 68 39 69 40 70 41 71 67 72 68 73 76 74 69 75 75 76
REMARK SMILES IDX 77 77 74 78 70 79 71 80 72 81 73 82 52 83 53 84 61 85 54 86
REMARK SMILES IDX 60 87 62 88 59 89 55 90 56 91 57 92 58 93
REMARK H PARENT 19 5 23 27 82 46 50 57
REMARK Flexibility Score: inf
ROOT
ATOM      1  C   UNL A   1      31.812  30.228  26.969  1.00  0.00     0.117 C 
ENDROOT
BRANCH   1   2
ATOM      2  N   UNL A   1      33.062  29.524  26.811  1.00  0.00    -0.356 N 
ATOM      3  C   UNL A   1      33.247  28.246  26.362  1.00  0.00     0.222 C 
ATOM      4  O   UNL A   1      34.396  27.831  26.204  1.00  0.00    -0.275 OA
ATOM      5  H   UNL A   1      33.875  30.023  27.054  1.00  0.00     0.163 HD
BRANCH   3   6
ATOM      6  C   UNL A   1      32.056  27.405  25.969  1.00  0.00     0.133 C 
BRANCH   6   7
ATOM      7  C   UNL A   1      31.500  27.577  24.550  1.00  0.00     0.147 C 
ATOM      8  N   UNL A   1      33.226  26.223  23.461  1.00  0.00    -0.320 N 
ATOM      9  C   UNL A   1      33.657  27.345  22.637  1.00  0.00     0.150 C 
ATOM     10  C   UNL A   1      31.795  26.316  23.731  1.00  0.00     0.154 C 
ATOM     11  C   UNL A   1      33.032  28.708  22.990  1.00  0.00     0.182 C 
ATOM     12  O   UNL A   1      31.905  28.763  23.867  1.00  0.00    -0.374 OA
BRANCH   8  13
ATOM     13  C   UNL A   1      33.655  24.978  23.047  1.00  0.00     0.320 C 
ATOM     14  O   UNL A   1      33.597  24.675  21.853  1.00  0.00    -0.248 OA
BRANCH  13  15
ATOM     15  N   UNL A   1      34.090  24.086  24.003  1.00  0.00    -0.321 N 
ATOM     16  C   UNL A   1      33.947  22.627  24.175  1.00  0.00     0.089 C 
ATOM     17  C   UNL A   1      34.476  22.387  25.599  1.00  0.00     0.027 C 
ATOM     18  C   UNL A   1      35.594  23.397  25.721  1.00  0.00     0.024 C 
ATOM     19  C   UNL A   1      35.049  24.602  24.973  1.00  0.00     0.122 C 
BRANCH  16  20
ATOM     20  C   UNL A   1      32.574  21.973  23.981  1.00  0.00     0.005 C 
ATOM     21  C   UNL A   1      31.474  22.785  24.687  1.00  0.00     0.009 C 
ATOM     22  C   UNL A   1      32.168  21.685  22.539  1.00  0.00     0.009 C 
ENDBRANCH  16  20
ENDBRANCH  13  15
ENDBRANCH   8  13
ENDBRANCH   6   7
ENDBRANCH   3   6
ENDBRANCH   1   2
BRANCH   1  23
ATOM     23  C   UNL A   1      31.878  31.705  26.639  1.00  0.00     0.042 C 
BRANCH  23  24
ATOM     24  C   UNL A   1      32.991  32.404  27.397  1.00  0.00     0.118 C 
BRANCH  24  25
ATOM     25  N   UNL A   1      32.701  33.816  27.654  1.00  0.00    -0.352 N 
ATOM     26  C   UNL A   1      33.185  34.685  28.611  1.00  0.00     0.251 C 
ATOM     27  H   UNL A   1      32.045  34.215  27.037  1.00  0.00     0.163 HD
ATOM     28  O   UNL A   1      32.656  35.778  28.754  1.00  0.00    -0.269 OA
BRANCH  26  29
ATOM     29  C   UNL A   1      34.310  34.272  29.480  1.00  0.00     0.039 A 
ATOM     30  C   UNL A   1      34.057  33.614  30.686  1.00  0.00     0.014 A 
ATOM     31  C   UNL A   1      35.624  34.501  29.081  1.00  0.00     0.014 A 
ATOM     32  C   UNL A   1      35.126  33.094  31.423  1.00  0.00     0.010 A 
ATOM     33  C   UNL A   1      36.660  33.835  29.714  1.00  0.00     0.010 A 
ATOM     34  C   UNL A   1      36.432  33.143  30.908  1.00  0.00    -0.014 A 
BRANCH  34  35
ATOM     35  C   UNL A   1      37.585  32.509  31.606  1.00  0.00     0.031 A 
ATOM     36  C   UNL A   1      38.336  31.384  30.935  1.00  0.00     0.074 A 
ATOM     37  C   UNL A   1      37.893  32.885  32.864  1.00  0.00     0.049 A 
ATOM     38  N   UNL A   1      39.296  30.632  31.407  1.00  0.00    -0.248 NA
ATOM     39  C   UNL A   1      37.915  31.019  29.571  1.00  0.00     0.031 C 
ATOM     40  C   UNL A   1      37.183  33.904  33.643  1.00  0.00     0.029 A 
ATOM     41  N   UNL A   1      38.880  32.456  33.714  1.00  0.00    -0.354 N 
ATOM     42  C   UNL A   1      39.562  29.691  30.415  1.00  0.00     0.074 A 
ATOM     43  C   UNL A   1      38.606  29.912  29.356  1.00  0.00     0.031 C 
ATOM     44  C   UNL A   1      37.789  34.056  34.832  1.00  0.00     0.029 A 
ATOM     45  C   UNL A   1      38.893  33.108  34.927  1.00  0.00     0.049 A 
ATOM     46  H   UNL A   1      39.521  31.746  33.479  1.00  0.00     0.167 HD
ATOM     47  C   UNL A   1      40.541  28.756  30.375  1.00  0.00     0.034 A 
ATOM     48  C   UNL A   1      39.701  32.955  35.995  1.00  0.00     0.034 A 
ATOM     49  C   UNL A   1      41.515  28.589  31.423  1.00  0.00     0.049 A 
ATOM     50  C   UNL A   1      40.802  31.928  35.913  1.00  0.00     0.074 A 
ATOM     51  C   UNL A   1      42.605  27.737  31.459  1.00  0.00     0.029 A 
ATOM     52  N   UNL A   1      41.519  29.293  32.621  1.00  0.00    -0.354 N 
ATOM     53  N   UNL A   1      41.089  31.099  34.934  1.00  0.00    -0.248 NA
ATOM     54  C   UNL A   1      41.699  31.825  37.069  1.00  0.00     0.031 C 
ATOM     55  C   UNL A   1      43.220  27.872  32.707  1.00  0.00     0.029 A 
ATOM     56  C   UNL A   1      42.570  28.870  33.416  1.00  0.00     0.049 A 
ATOM     57  H   UNL A   1      40.868  29.989  32.868  1.00  0.00     0.167 HD
ATOM     58  C   UNL A   1      42.216  30.397  35.348  1.00  0.00     0.074 A 
ATOM     59  C   UNL A   1      42.572  30.923  36.651  1.00  0.00     0.031 C 
ATOM     60  C   UNL A   1      42.897  29.405  34.717  1.00  0.00     0.034 A 
BRANCH  47  61
ATOM     61  C   UNL A   1      40.595  27.844  29.170  1.00  0.00     0.023 A 
ATOM     62  C   UNL A   1      41.536  28.026  28.140  1.00  0.00     0.031 A 
ATOM     63  C   UNL A   1      39.677  26.786  29.039  1.00  0.00     0.131 A 
ATOM     64  C   UNL A   1      41.490  27.217  26.995  1.00  0.00     0.055 A 
ATOM     65  C   UNL A   1      39.694  25.928  27.936  1.00  0.00     0.041 A 
ATOM     66  F   UNL A   1      38.739  26.575  29.974  1.00  0.00    -0.206 F 
ATOM     67  C   UNL A   1      40.595  26.150  26.899  1.00  0.00     0.022 A 
BRANCH  64  68
ATOM     68  S   UNL A   1      42.523  27.666  25.574  1.00  0.00     0.124 S 
ATOM     69  O   UNL A   1      42.404  26.476  24.735  1.00  0.00    -0.237 OA
ATOM     70  O   UNL A   1      41.867  28.868  25.073  1.00  0.00    -0.237 OA
ATOM     71  O   UNL A   1      43.845  27.876  26.163  1.00  0.00    -0.744 OA
ENDBRANCH  64  68
ENDBRANCH  47  61
BRANCH  48  72
ATOM     72  C   UNL A   1      39.509  33.780  37.225  1.00  0.00     0.023 A 
ATOM     73  C   UNL A   1      38.831  33.269  38.343  1.00  0.00     0.031 A 
ATOM     74  C   UNL A   1      39.957  35.113  37.283  1.00  0.00     0.131 A 
ATOM     75  C   UNL A   1      38.568  34.099  39.446  1.00  0.00     0.055 A 
ATOM     76  C   UNL A   1      39.748  35.915  38.408  1.00  0.00     0.041 A 
ATOM     77  F   UNL A   1      40.616  35.655  36.248  1.00  0.00    -0.206 F 
ATOM     78  C   UNL A   1      39.035  35.414  39.492  1.00  0.00     0.022 A 
BRANCH  75  79
ATOM     79  S   UNL A   1      37.509  33.466  40.777  1.00  0.00     0.124 S 
ATOM     80  O   UNL A   1      37.191  34.687  41.508  1.00  0.00    -0.237 OA
ATOM     81  O   UNL A   1      36.412  32.862  40.029  1.00  0.00    -0.237 OA
ATOM     82  O   UNL A   1      38.374  32.523  41.481  1.00  0.00    -0.744 OA
ENDBRANCH  75  79
ENDBRANCH  48  72
BRANCH  60  83
ATOM     83  C   UNL A   1      44.114  28.861  35.423  1.00  0.00     0.023 A 
ATOM     84  C   UNL A   1      44.023  27.793  36.332  1.00  0.00     0.031 A 
ATOM     85  C   UNL A   1      45.379  29.434  35.199  1.00  0.00     0.131 A 
ATOM     86  C   UNL A   1      45.159  27.382  37.041  1.00  0.00     0.055 A 
ATOM     87  C   UNL A   1      46.521  28.968  35.850  1.00  0.00     0.041 A 
ATOM     88  F   UNL A   1      45.524  30.457  34.342  1.00  0.00    -0.206 F 
ATOM     89  C   UNL A   1      46.412  27.948  36.791  1.00  0.00     0.022 A 
BRANCH  86  90
ATOM     90  S   UNL A   1      44.953  26.183  38.384  1.00  0.00     0.124 S 
ATOM     91  O   UNL A   1      46.301  25.637  38.512  1.00  0.00    -0.237 OA
ATOM     92  O   UNL A   1      44.500  27.024  39.488  1.00  0.00    -0.237 OA
ATOM     93  O   UNL A   1      43.953  25.252  37.863  1.00  0.00    -0.744 OA
ENDBRANCH  86  90
ENDBRANCH  60  83
ENDBRANCH  34  35
ENDBRANCH  26  29
ENDBRANCH  24  25
ENDBRANCH  23  24
ENDBRANCH   1  23
TORSDOF 17
ENDMDL
MODEL 3
REMARK VINA RESULT:     -11.7      4.792     10.405
REMARK SMILES CC(C)[C@@H]1CCCN1C(=O)N1CCO[C@H](CC(=O)NCCCNC(=O)c2ccc(-c3c4nc(c(-c5cc(S(=O)(=O)[O-])ccc5F)c5ccc([nH]5)c(-c5cc(S(=O)(=O)[O-])ccc5F)c5nc(c(-c6cc(S(=O)(=O)[O-])ccc6F)c6ccc3[nH]6)C=C5)C=C4)cc2)C1
REMARK SMILES IDX 20 1 19 2 17 3 18 4 16 6 15 7 11 8 12 9 89 10 13 11 14 12
REMARK SMILES IDX 9 13 10 14 8 15 4 16 5 17 6 18 7 19 2 20 1 21 3 22 21 23
REMARK SMILES IDX 22 24 23 25 24 26 25 28 26 29 27 30 88 31 28 32 87 33 29 34
REMARK SMILES IDX 30 35 31 36 81 37 32 38 86 39 80 40 82 41 33 42 85 43 79 44
REMARK SMILES IDX 78 45 34 47 66 48 46 49 65 50 47 51 50 52 64 53 83 54 48 55
REMARK SMILES IDX 49 56 63 58 84 59 51 60 35 61 36 62 44 63 37 64 43 65 45 66
REMARK SMILES IDX 42 67 38 68 39 69 40 70 41 71 67 72 68 73 76 74 69 75 75 76
REMARK SMILES IDX 77 77 74 78 70 79 71 80 72 81 73 82 52 83 53 84 61 85 54 86
REMARK SMILES IDX 60 87 62 88 59 89 55 90 56 91 57 92 58 93
REMARK H PARENT 19 5 23 27 82 46 50 57
REMARK Flexibility Score: inf
ROOT
ATOM      1  C   UNL A   1      35.007  22.561  23.645  1.00  0.00     0.117 C 
ENDROOT
BRANCH   1   2
ATOM      2  N   UNL A   1      34.969  23.935  24.086  1.00  0.00    -0.356 N 
ATOM      3  C   UNL A   1      34.249  24.457  25.125  1.00  0.00     0.222 C 
ATOM      4  O   UNL A   1      34.405  25.643  25.421  1.00  0.00    -0.275 OA
ATOM      5  H   UNL A   1      35.527  24.569  23.580  1.00  0.00     0.163 HD
BRANCH   3   6
ATOM      6  C   UNL A   1      33.364  23.559  25.955  1.00  0.00     0.133 C 
BRANCH   6   7
ATOM      7  C   UNL A   1      32.082  23.024  25.303  1.00  0.00     0.147 C 
ATOM      8  N   UNL A   1      30.754  25.038  25.719  1.00  0.00    -0.320 N 
ATOM      9  C   UNL A   1      29.783  24.296  26.513  1.00  0.00     0.150 C 
ATOM     10  C   UNL A   1      31.308  24.186  24.673  1.00  0.00     0.154 C 
ATOM     11  C   UNL A   1      30.164  22.839  26.836  1.00  0.00     0.182 C 
ATOM     12  O   UNL A   1      31.250  22.222  26.143  1.00  0.00    -0.374 OA
BRANCH   8  13
ATOM     13  C   UNL A   1      30.345  26.286  25.291  1.00  0.00     0.320 C 
ATOM     14  O   UNL A   1      29.311  26.399  24.628  1.00  0.00    -0.248 OA
BRANCH  13  15
ATOM     15  N   UNL A   1      31.148  27.369  25.576  1.00  0.00    -0.321 N 
ATOM     16  C   UNL A   1      31.519  28.587  24.829  1.00  0.00     0.089 C 
ATOM     17  C   UNL A   1      32.642  29.196  25.684  1.00  0.00     0.027 C 
ATOM     18  C   UNL A   1      32.209  28.870  27.095  1.00  0.00     0.024 C 
ATOM     19  C   UNL A   1      31.606  27.482  26.955  1.00  0.00     0.122 C 
BRANCH  16  20
ATOM     20  C   UNL A   1      31.947  28.472  23.361  1.00  0.00     0.005 C 
ATOM     21  C   UNL A   1      30.932  29.167  22.437  1.00  0.00     0.009 C 
ATOM     22  C   UNL A   1      33.360  28.947  23.037  1.00  0.00     0.009 C 
ENDBRANCH  16  20
ENDBRANCH  13  15
ENDBRANCH   8  13
ENDBRANCH   6   7
ENDBRANCH   3   6
ENDBRANCH   1   2
BRANCH   1  23
ATOM     23  C   UNL A   1      35.784  21.632  24.554  1.00  0.00     0.042 C 
BRANCH  23  24
ATOM     24  C   UNL A   1      37.208  22.111  24.766  1.00  0.00     0.118 C 
BRANCH  24  25
ATOM     25  N   UNL A   1      38.082  21.066  25.305  1.00  0.00    -0.352 N 
ATOM     26  C   UNL A   1      39.232  21.144  26.063  1.00  0.00     0.251 C 
ATOM     27  H   UNL A   1      37.799  20.148  25.087  1.00  0.00     0.163 HD
ATOM     28  O   UNL A   1      39.904  20.138  26.242  1.00  0.00    -0.269 OA
BRANCH  26  29
ATOM     29  C   UNL A   1      39.664  22.447  26.618  1.00  0.00     0.039 A 
ATOM     30  C   UNL A   1      40.703  22.500  27.550  1.00  0.00     0.014 A 
ATOM     31  C   UNL A   1      39.065  23.626  26.184  1.00  0.00     0.014 A 
ATOM     32  C   UNL A   1      41.204  23.743  27.951  1.00  0.00     0.010 A 
ATOM     33  C   UNL A   1      39.675  24.841  26.441  1.00  0.00     0.010 A 
ATOM     34  C   UNL A   1      40.738  24.923  27.348  1.00  0.00    -0.014 A 
BRANCH  34  35
ATOM     35  C   UNL A   1      41.315  26.258  27.665  1.00  0.00     0.031 A 
ATOM     36  C   UNL A   1      42.695  26.612  27.163  1.00  0.00     0.074 A 
ATOM     37  C   UNL A   1      40.640  27.105  28.468  1.00  0.00     0.049 A 
ATOM     38  N   UNL A   1      43.420  27.672  27.411  1.00  0.00    -0.248 NA
ATOM     39  C   UNL A   1      43.373  25.617  26.314  1.00  0.00     0.031 C 
ATOM     40  C   UNL A   1      39.334  26.835  29.080  1.00  0.00     0.029 A 
ATOM     41  N   UNL A   1      40.953  28.363  28.914  1.00  0.00    -0.354 N 
ATOM     42  C   UNL A   1      44.641  27.452  26.781  1.00  0.00     0.074 A 
ATOM     43  C   UNL A   1      44.592  26.124  26.216  1.00  0.00     0.031 C 
ATOM     44  C   UNL A   1      38.939  27.913  29.775  1.00  0.00     0.029 A 
ATOM     45  C   UNL A   1      39.982  28.929  29.711  1.00  0.00     0.049 A 
ATOM     46  H   UNL A   1      41.794  28.820  28.686  1.00  0.00     0.167 HD
ATOM     47  C   UNL A   1      45.693  28.295  26.651  1.00  0.00     0.034 A 
ATOM     48  C   UNL A   1      39.941  30.130  30.323  1.00  0.00     0.034 A 
ATOM     49  C   UNL A   1      45.698  29.635  27.181  1.00  0.00     0.049 A 
ATOM     50  C   UNL A   1      41.112  31.063  30.137  1.00  0.00     0.074 A 
ATOM     51  C   UNL A   1      46.667  30.613  27.041  1.00  0.00     0.029 A 
ATOM     52  N   UNL A   1      44.682  30.186  27.952  1.00  0.00    -0.354 N 
ATOM     53  N   UNL A   1      42.228  30.867  29.471  1.00  0.00    -0.248 NA
ATOM     54  C   UNL A   1      41.012  32.383  30.769  1.00  0.00     0.031 C 
ATOM     55  C   UNL A   1      46.270  31.726  27.788  1.00  0.00     0.029 A 
ATOM     56  C   UNL A   1      45.016  31.478  28.322  1.00  0.00     0.049 A 
ATOM     57  H   UNL A   1      43.848  29.725  28.198  1.00  0.00     0.167 HD
ATOM     58  C   UNL A   1      42.950  32.051  29.584  1.00  0.00     0.074 A 
ATOM     59  C   UNL A   1      42.127  32.962  30.354  1.00  0.00     0.031 C 
ATOM     60  C   UNL A   1      44.181  32.362  29.100  1.00  0.00     0.034 A 
BRANCH  47  61
ATOM     61  C   UNL A   1      46.916  27.789  25.921  1.00  0.00     0.023 A 
ATOM     62  C   UNL A   1      47.145  28.077  24.563  1.00  0.00     0.031 A 
ATOM     63  C   UNL A   1      47.861  26.989  26.589  1.00  0.00     0.131 A 
ATOM     64  C   UNL A   1      48.243  27.509  23.900  1.00  0.00     0.055 A 
ATOM     65  C   UNL A   1      49.000  26.499  25.944  1.00  0.00     0.041 A 
ATOM     66  F   UNL A   1      47.688  26.658  27.877  1.00  0.00    -0.206 F 
ATOM     67  C   UNL A   1      49.188  26.746  24.587  1.00  0.00     0.022 A 
BRANCH  64  68
ATOM     68  S   UNL A   1      48.341  27.666  22.095  1.00  0.00     0.124 S 
ATOM     69  O   UNL A   1      48.566  26.280  21.691  1.00  0.00    -0.237 OA
ATOM     70  O   UNL A   1      47.039  28.226  21.755  1.00  0.00    -0.237 OA
ATOM     71  O   UNL A   1      49.479  28.560  21.890  1.00  0.00    -0.744 OA
ENDBRANCH  64  68
ENDBRANCH  47  61
BRANCH  48  72
ATOM     72  C   UNL A   1      38.770  30.523  31.162  1.00  0.00     0.023 A 
ATOM     73  C   UNL A   1      37.638  31.126  30.590  1.00  0.00     0.031 A 
ATOM     74  C   UNL A   1      38.786  30.350  32.558  1.00  0.00     0.131 A 
ATOM     75  C   UNL A   1      36.596  31.586  31.413  1.00  0.00     0.055 A 
ATOM     76  C   UNL A   1      37.719  30.752  33.365  1.00  0.00     0.041 A 
ATOM     77  F   UNL A   1      39.838  29.776  33.160  1.00  0.00    -0.206 F 
ATOM     78  C   UNL A   1      36.622  31.390  32.795  1.00  0.00     0.022 A 
BRANCH  75  79
ATOM     79  S   UNL A   1      35.252  32.545  30.658  1.00  0.00     0.124 S 
ATOM     80  O   UNL A   1      34.209  32.442  31.673  1.00  0.00    -0.237 OA
ATOM     81  O   UNL A   1      35.869  33.858  30.503  1.00  0.00    -0.237 OA
ATOM     82  O   UNL A   1      34.985  31.833  29.411  1.00  0.00    -0.744 OA
ENDBRANCH  75  79
ENDBRANCH  48  72
BRANCH  60  83
ATOM     83  C   UNL A   1      44.682  33.760  29.367  1.00  0.00     0.023 A 
ATOM     84  C   UNL A   1      44.444  34.813  28.467  1.00  0.00     0.031 A 
ATOM     85  C   UNL A   1      45.428  34.036  30.528  1.00  0.00     0.131 A 
ATOM     86  C   UNL A   1      45.010  36.072  28.703  1.00  0.00     0.055 A 
ATOM     87  C   UNL A   1      45.923  35.312  30.795  1.00  0.00     0.041 A 
ATOM     88  F   UNL A   1      45.687  33.068  31.420  1.00  0.00    -0.206 F 
ATOM     89  C   UNL A   1      45.731  36.335  29.870  1.00  0.00     0.022 A 
BRANCH  86  90
ATOM     90  S   UNL A   1      44.897  37.328  27.400  1.00  0.00     0.124 S 
ATOM     91  O   UNL A   1      45.980  36.932  26.504  1.00  0.00    -0.237 OA
ATOM     92  O   UNL A   1      43.544  37.130  26.891  1.00  0.00    -0.237 OA
ATOM     93  O   UNL A   1      45.113  38.585  28.116  1.00  0.00    -0.744 OA
ENDBRANCH  86  90
ENDBRANCH  60  83
ENDBRANCH  34  35
ENDBRANCH  26  29
ENDBRANCH  24  25
ENDBRANCH  23  24
ENDBRANCH   1  23
TORSDOF 17
ENDMDL
