MODEL 1
REMARK VINA RESULT:     -12.4      0.000      0.000
REMARK SMILES O=C(NCCCNC(=O)c1nn2cc(Br)cnc2c1Br)c1ccc(-c2c3nc(c(-c4cc(S(=O)(=O)[O-])ccc4F)c4ccc([nH]4)c(-c4cc(S(=O)(=O)[O-])ccc4F)c4nc(c(-c5cc(S(=O)(=O)[O-])ccc5F)c5ccc2[nH]5)C=C4)C=C3)cc1
REMARK SMILES IDX 1 1 2 2 3 3 21 5 22 6 83 7 23 8 82 9 24 10 25 11 26 12 76 13
REMARK SMILES IDX 27 14 81 15 75 16 77 17 28 18 80 19 74 20 73 21 29 23 61 24
REMARK SMILES IDX 41 25 60 26 42 27 45 28 59 29 78 30 43 31 44 32 58 34 79 35
REMARK SMILES IDX 46 36 30 37 31 38 39 39 32 40 38 41 40 42 37 43 33 44 34 45
REMARK SMILES IDX 35 46 36 47 62 48 63 49 71 50 64 51 70 52 72 53 69 54 65 55
REMARK SMILES IDX 66 56 67 57 68 58 47 59 48 60 56 61 49 62 55 63 57 64 54 65
REMARK SMILES IDX 50 66 51 67 52 68 53 69 4 70 5 71 6 72 7 73 8 74 9 76 10 77
REMARK SMILES IDX 11 78 19 79 12 80 18 81 20 82 13 83 17 84 14 85 16 86 15 87
REMARK H PARENT 3 4 77 22 45 33 7 75
REMARK Flexibility Score: inf
ROOT
ATOM      1  O   UNL A   1      34.884  32.480  30.759  1.00  0.00    -0.269 OA
ATOM      2  C   UNL A   1      35.209  31.816  29.770  1.00  0.00     0.251 C 
ATOM      3  N   UNL A   1      34.278  31.740  28.769  1.00  0.00    -0.352 N 
ATOM      4  H   UNL A   1      33.399  32.090  29.040  1.00  0.00     0.163 HD
ENDROOT
BRANCH   2   5
ATOM      5  C   UNL A   1      36.521  31.114  29.776  1.00  0.00     0.039 A 
ATOM      6  C   UNL A   1      37.772  31.728  29.824  1.00  0.00     0.014 A 
ATOM      7  C   UNL A   1      36.465  29.706  29.729  1.00  0.00     0.014 A 
ATOM      8  C   UNL A   1      38.937  30.964  29.749  1.00  0.00     0.010 A 
ATOM      9  C   UNL A   1      37.624  28.937  29.672  1.00  0.00     0.010 A 
ATOM     10  C   UNL A   1      38.865  29.569  29.662  1.00  0.00    -0.014 A 
BRANCH  10  11
ATOM     11  C   UNL A   1      40.103  28.801  29.819  1.00  0.00     0.031 A 
ATOM     12  C   UNL A   1      40.510  28.603  31.240  1.00  0.00     0.074 A 
ATOM     13  C   UNL A   1      40.753  28.157  28.827  1.00  0.00     0.049 A 
ATOM     14  N   UNL A   1      41.591  28.997  31.829  1.00  0.00    -0.248 NA
ATOM     15  C   UNL A   1      39.527  27.989  32.151  1.00  0.00     0.031 C 
ATOM     16  C   UNL A   1      40.329  28.018  27.434  1.00  0.00     0.029 A 
ATOM     17  N   UNL A   1      41.887  27.393  28.881  1.00  0.00    -0.354 N 
ATOM     18  C   UNL A   1      41.533  28.473  33.117  1.00  0.00     0.074 A 
ATOM     19  C   UNL A   1      40.180  28.028  33.313  1.00  0.00     0.031 C 
ATOM     20  C   UNL A   1      41.070  27.058  26.836  1.00  0.00     0.029 A 
ATOM     21  C   UNL A   1      42.092  26.591  27.759  1.00  0.00     0.049 A 
ATOM     22  H   UNL A   1      42.505  27.407  29.648  1.00  0.00     0.167 HD
ATOM     23  C   UNL A   1      42.660  28.212  33.833  1.00  0.00     0.034 A 
ATOM     24  C   UNL A   1      42.997  25.582  27.617  1.00  0.00     0.034 A 
ATOM     25  C   UNL A   1      43.786  28.974  33.352  1.00  0.00     0.049 A 
ATOM     26  C   UNL A   1      44.076  25.836  28.601  1.00  0.00     0.074 A 
ATOM     27  C   UNL A   1      44.027  30.320  33.144  1.00  0.00     0.029 A 
ATOM     28  N   UNL A   1      44.773  28.316  32.657  1.00  0.00    -0.354 N 
ATOM     29  N   UNL A   1      44.878  26.866  28.556  1.00  0.00    -0.248 NA
ATOM     30  C   UNL A   1      44.004  25.159  29.886  1.00  0.00     0.031 C 
ATOM     31  C   UNL A   1      44.795  30.374  31.945  1.00  0.00     0.029 A 
ATOM     32  C   UNL A   1      45.033  29.062  31.535  1.00  0.00     0.049 A 
ATOM     33  H   UNL A   1      45.209  27.472  32.915  1.00  0.00     0.167 HD
ATOM     34  C   UNL A   1      45.079  27.217  29.880  1.00  0.00     0.074 A 
ATOM     35  C   UNL A   1      44.596  26.075  30.654  1.00  0.00     0.031 C 
ATOM     36  C   UNL A   1      45.363  28.501  30.240  1.00  0.00     0.034 A 
BRANCH  23  37
ATOM     37  C   UNL A   1      42.822  26.992  34.715  1.00  0.00     0.023 A 
ATOM     38  C   UNL A   1      43.561  25.905  34.210  1.00  0.00     0.031 A 
ATOM     39  C   UNL A   1      42.053  26.727  35.874  1.00  0.00     0.131 A 
ATOM     40  C   UNL A   1      43.452  24.628  34.790  1.00  0.00     0.055 A 
ATOM     41  C   UNL A   1      42.006  25.474  36.488  1.00  0.00     0.041 A 
ATOM     42  F   UNL A   1      41.229  27.631  36.417  1.00  0.00    -0.206 F 
ATOM     43  C   UNL A   1      42.684  24.407  35.930  1.00  0.00     0.022 A 
BRANCH  40  44
ATOM     44  S   UNL A   1      44.203  23.222  33.930  1.00  0.00     0.124 S 
ATOM     45  O   UNL A   1      45.508  23.764  33.572  1.00  0.00    -0.237 OA
ATOM     46  O   UNL A   1      44.194  22.195  34.966  1.00  0.00    -0.237 OA
ATOM     47  O   UNL A   1      43.293  22.985  32.811  1.00  0.00    -0.744 OA
ENDBRANCH  40  44
ENDBRANCH  23  37
BRANCH  24  48
ATOM     48  C   UNL A   1      42.850  24.281  26.892  1.00  0.00     0.023 A 
ATOM     49  C   UNL A   1      43.822  23.819  25.973  1.00  0.00     0.031 A 
ATOM     50  C   UNL A   1      41.872  23.341  27.286  1.00  0.00     0.131 A 
ATOM     51  C   UNL A   1      43.796  22.483  25.506  1.00  0.00     0.055 A 
ATOM     52  C   UNL A   1      41.844  22.026  26.813  1.00  0.00     0.041 A 
ATOM     53  F   UNL A   1      40.955  23.634  28.218  1.00  0.00    -0.206 F 
ATOM     54  C   UNL A   1      42.815  21.585  25.929  1.00  0.00     0.022 A 
BRANCH  51  55
ATOM     55  S   UNL A   1      45.126  21.838  24.435  1.00  0.00     0.124 S 
ATOM     56  O   UNL A   1      44.536  20.604  23.926  1.00  0.00    -0.237 OA
ATOM     57  O   UNL A   1      45.311  22.915  23.470  1.00  0.00    -0.237 OA
ATOM     58  O   UNL A   1      46.243  21.651  25.362  1.00  0.00    -0.744 OA
ENDBRANCH  51  55
ENDBRANCH  24  48
BRANCH  36  59
ATOM     59  C   UNL A   1      45.844  29.476  29.192  1.00  0.00     0.023 A 
ATOM     60  C   UNL A   1      45.012  30.229  28.335  1.00  0.00     0.031 A 
ATOM     61  C   UNL A   1      47.220  29.767  29.197  1.00  0.00     0.131 A 
ATOM     62  C   UNL A   1      45.573  31.242  27.529  1.00  0.00     0.055 A 
ATOM     63  C   UNL A   1      47.767  30.779  28.413  1.00  0.00     0.041 A 
ATOM     64  F   UNL A   1      48.052  29.101  30.016  1.00  0.00    -0.206 F 
ATOM     65  C   UNL A   1      46.944  31.521  27.576  1.00  0.00     0.022 A 
BRANCH  62  66
ATOM     66  S   UNL A   1      44.520  32.255  26.439  1.00  0.00     0.124 S 
ATOM     67  O   UNL A   1      44.053  33.319  27.321  1.00  0.00    -0.237 OA
ATOM     68  O   UNL A   1      45.441  32.656  25.378  1.00  0.00    -0.237 OA
ATOM     69  O   UNL A   1      43.476  31.324  26.005  1.00  0.00    -0.744 OA
ENDBRANCH  62  66
ENDBRANCH  36  59
ENDBRANCH  10  11
ENDBRANCH   2   5
BRANCH   3  70
ATOM     70  C   UNL A   1      34.290  31.263  27.399  1.00  0.00     0.118 C 
BRANCH  70  71
ATOM     71  C   UNL A   1      33.668  29.887  27.170  1.00  0.00     0.042 C 
BRANCH  71  72
ATOM     72  C   UNL A   1      32.598  29.834  26.084  1.00  0.00     0.118 C 
BRANCH  72  73
ATOM     73  N   UNL A   1      33.146  29.773  24.738  1.00  0.00    -0.351 N 
ATOM     74  C   UNL A   1      33.401  28.677  23.938  1.00  0.00     0.273 C 
ATOM     75  H   UNL A   1      33.366  30.644  24.336  1.00  0.00     0.163 HD
ATOM     76  O   UNL A   1      33.909  28.863  22.837  1.00  0.00    -0.267 OA
BRANCH  74  77
ATOM     77  C   UNL A   1      33.073  27.342  24.442  1.00  0.00     0.167 A 
ATOM     78  N   UNL A   1      34.004  26.593  25.064  1.00  0.00    -0.160 NA
ATOM     79  C   UNL A   1      31.852  26.641  24.350  1.00  0.00     0.095 A 
ATOM     80  N   UNL A   1      33.353  25.469  25.448  1.00  0.00    -0.219 N 
ATOM     81  C   UNL A   1      32.015  25.470  25.048  1.00  0.00     0.170 A 
ATOM     82  Br  UNL A   1      30.301  27.213  23.465  1.00  0.00    -0.044 Br
ATOM     83  C   UNL A   1      33.882  24.392  26.150  1.00  0.00     0.132 A 
ATOM     84  N   UNL A   1      31.160  24.449  25.364  1.00  0.00    -0.235 NA
ATOM     85  C   UNL A   1      33.099  23.362  26.493  1.00  0.00     0.054 A 
ATOM     86  C   UNL A   1      31.671  23.481  26.068  1.00  0.00     0.131 A 
ATOM     87  Br  UNL A   1      33.663  21.854  27.400  1.00  0.00    -0.047 Br
ENDBRANCH  74  77
ENDBRANCH  72  73
ENDBRANCH  71  72
ENDBRANCH  70  71
ENDBRANCH   3  70
TORSDOF 13
ENDMDL
MODEL 2
REMARK VINA RESULT:     -12.3      3.450      5.931
REMARK SMILES O=C(NCCCNC(=O)c1nn2cc(Br)cnc2c1Br)c1ccc(-c2c3nc(c(-c4cc(S(=O)(=O)[O-])ccc4F)c4ccc([nH]4)c(-c4cc(S(=O)(=O)[O-])ccc4F)c4nc(c(-c5cc(S(=O)(=O)[O-])ccc5F)c5ccc2[nH]5)C=C4)C=C3)cc1
REMARK SMILES IDX 1 1 2 2 3 3 21 5 22 6 83 7 23 8 82 9 24 10 25 11 26 12 76 13
REMARK SMILES IDX 27 14 81 15 75 16 77 17 28 18 80 19 74 20 73 21 29 23 61 24
REMARK SMILES IDX 41 25 60 26 42 27 45 28 59 29 78 30 43 31 44 32 58 34 79 35
REMARK SMILES IDX 46 36 30 37 31 38 39 39 32 40 38 41 40 42 37 43 33 44 34 45
REMARK SMILES IDX 35 46 36 47 62 48 63 49 71 50 64 51 70 52 72 53 69 54 65 55
REMARK SMILES IDX 66 56 67 57 68 58 47 59 48 60 56 61 49 62 55 63 57 64 54 65
REMARK SMILES IDX 50 66 51 67 52 68 53 69 4 70 5 71 6 72 7 73 8 74 9 76 10 77
REMARK SMILES IDX 11 78 19 79 12 80 18 81 20 82 13 83 17 84 14 85 16 86 15 87
REMARK H PARENT 3 4 77 22 45 33 7 75
REMARK Flexibility Score: inf
ROOT
ATOM      1  O   UNL A   1      34.955  31.992  27.453  1.00  0.00    -0.269 OA
ATOM      2  C   UNL A   1      35.365  31.935  28.616  1.00  0.00     0.251 C 
ATOM      3  N   UNL A   1      34.718  32.737  29.518  1.00  0.00    -0.352 N 
ATOM      4  H   UNL A   1      34.114  33.384  29.086  1.00  0.00     0.163 HD
ENDROOT
BRANCH   2   5
ATOM      5  C   UNL A   1      36.542  31.077  28.921  1.00  0.00     0.039 A 
ATOM      6  C   UNL A   1      36.535  29.684  28.994  1.00  0.00     0.014 A 
ATOM      7  C   UNL A   1      37.754  31.756  29.153  1.00  0.00     0.014 A 
ATOM      8  C   UNL A   1      37.689  28.991  29.363  1.00  0.00     0.010 A 
ATOM      9  C   UNL A   1      38.913  31.069  29.504  1.00  0.00     0.010 A 
ATOM     10  C   UNL A   1      38.876  29.683  29.629  1.00  0.00    -0.014 A 
BRANCH  10  11
ATOM     11  C   UNL A   1      40.109  28.906  29.783  1.00  0.00     0.031 A 
ATOM     12  C   UNL A   1      40.519  28.707  31.203  1.00  0.00     0.074 A 
ATOM     13  C   UNL A   1      40.751  28.256  28.790  1.00  0.00     0.049 A 
ATOM     14  N   UNL A   1      41.605  29.094  31.788  1.00  0.00    -0.248 NA
ATOM     15  C   UNL A   1      39.534  28.102  32.118  1.00  0.00     0.031 C 
ATOM     16  C   UNL A   1      40.322  28.118  27.398  1.00  0.00     0.029 A 
ATOM     17  N   UNL A   1      41.880  27.484  28.842  1.00  0.00    -0.354 N 
ATOM     18  C   UNL A   1      41.546  28.572  33.078  1.00  0.00     0.074 A 
ATOM     19  C   UNL A   1      40.191  28.137  33.277  1.00  0.00     0.031 C 
ATOM     20  C   UNL A   1      41.054  27.152  26.800  1.00  0.00     0.029 A 
ATOM     21  C   UNL A   1      42.076  26.679  27.720  1.00  0.00     0.049 A 
ATOM     22  H   UNL A   1      42.500  27.495  29.607  1.00  0.00     0.167 HD
ATOM     23  C   UNL A   1      42.674  28.304  33.790  1.00  0.00     0.034 A 
ATOM     24  C   UNL A   1      42.972  25.663  27.577  1.00  0.00     0.034 A 
ATOM     25  C   UNL A   1      43.803  29.057  33.305  1.00  0.00     0.049 A 
ATOM     26  C   UNL A   1      44.057  25.910  28.558  1.00  0.00     0.074 A 
ATOM     27  C   UNL A   1      44.054  30.401  33.094  1.00  0.00     0.029 A 
ATOM     28  N   UNL A   1      44.783  28.391  32.607  1.00  0.00    -0.354 N 
ATOM     29  N   UNL A   1      44.866  26.934  28.509  1.00  0.00    -0.248 NA
ATOM     30  C   UNL A   1      43.983  25.236  29.844  1.00  0.00     0.031 C 
ATOM     31  C   UNL A   1      44.819  30.447  31.892  1.00  0.00     0.029 A 
ATOM     32  C   UNL A   1      45.046  29.133  31.484  1.00  0.00     0.049 A 
ATOM     33  H   UNL A   1      45.214  27.544  32.865  1.00  0.00     0.167 HD
ATOM     34  C   UNL A   1      45.073  27.285  29.832  1.00  0.00     0.074 A 
ATOM     35  C   UNL A   1      44.584  26.148  30.608  1.00  0.00     0.031 C 
ATOM     36  C   UNL A   1      45.368  28.568  30.189  1.00  0.00     0.034 A 
BRANCH  23  37
ATOM     37  C   UNL A   1      42.829  27.084  34.673  1.00  0.00     0.023 A 
ATOM     38  C   UNL A   1      43.571  25.996  34.173  1.00  0.00     0.031 A 
ATOM     39  C   UNL A   1      42.052  26.819  35.827  1.00  0.00     0.131 A 
ATOM     40  C   UNL A   1      43.458  24.719  34.753  1.00  0.00     0.055 A 
ATOM     41  C   UNL A   1      42.001  25.567  36.441  1.00  0.00     0.041 A 
ATOM     42  F   UNL A   1      41.225  27.724  36.364  1.00  0.00    -0.206 F 
ATOM     43  C   UNL A   1      42.681  24.499  35.888  1.00  0.00     0.022 A 
BRANCH  40  44
ATOM     44  S   UNL A   1      44.214  23.313  33.898  1.00  0.00     0.124 S 
ATOM     45  O   UNL A   1      45.445  23.908  33.393  1.00  0.00    -0.237 OA
ATOM     46  O   UNL A   1      44.361  22.346  34.980  1.00  0.00    -0.237 OA
ATOM     47  O   UNL A   1      43.223  22.963  32.882  1.00  0.00    -0.744 OA
ENDBRANCH  40  44
ENDBRANCH  23  37
BRANCH  24  48
ATOM     48  C   UNL A   1      42.814  24.362  26.854  1.00  0.00     0.023 A 
ATOM     49  C   UNL A   1      43.800  23.872  25.965  1.00  0.00     0.031 A 
ATOM     50  C   UNL A   1      41.802  23.449  27.225  1.00  0.00     0.131 A 
ATOM     51  C   UNL A   1      43.754  22.534  25.503  1.00  0.00     0.055 A 
ATOM     52  C   UNL A   1      41.755  22.132  26.757  1.00  0.00     0.041 A 
ATOM     53  F   UNL A   1      40.867  23.769  28.129  1.00  0.00    -0.206 F 
ATOM     54  C   UNL A   1      42.739  21.663  25.903  1.00  0.00     0.022 A 
BRANCH  51  55
ATOM     55  S   UNL A   1      45.096  21.851  24.474  1.00  0.00     0.124 S 
ATOM     56  O   UNL A   1      46.146  21.615  25.459  1.00  0.00    -0.237 OA
ATOM     57  O   UNL A   1      44.480  20.667  23.887  1.00  0.00    -0.237 OA
ATOM     58  O   UNL A   1      45.373  22.929  23.523  1.00  0.00    -0.744 OA
ENDBRANCH  51  55
ENDBRANCH  24  48
BRANCH  36  59
ATOM     59  C   UNL A   1      45.853  29.538  29.138  1.00  0.00     0.023 A 
ATOM     60  C   UNL A   1      45.027  30.377  28.358  1.00  0.00     0.031 A 
ATOM     61  C   UNL A   1      47.245  29.727  29.060  1.00  0.00     0.131 A 
ATOM     62  C   UNL A   1      45.611  31.371  27.545  1.00  0.00     0.055 A 
ATOM     63  C   UNL A   1      47.815  30.720  28.269  1.00  0.00     0.041 A 
ATOM     64  F   UNL A   1      48.075  28.977  29.804  1.00  0.00    -0.206 F 
ATOM     65  C   UNL A   1      46.999  31.547  27.508  1.00  0.00     0.022 A 
BRANCH  62  66
ATOM     66  S   UNL A   1      44.569  32.492  26.554  1.00  0.00     0.124 S 
ATOM     67  O   UNL A   1      45.540  33.213  25.737  1.00  0.00    -0.237 OA
ATOM     68  O   UNL A   1      43.685  31.573  25.842  1.00  0.00    -0.237 OA
ATOM     69  O   UNL A   1      43.893  33.314  27.560  1.00  0.00    -0.744 OA
ENDBRANCH  62  66
ENDBRANCH  36  59
ENDBRANCH  10  11
ENDBRANCH   2   5
BRANCH   3  70
ATOM     70  C   UNL A   1      34.718  32.851  30.964  1.00  0.00     0.118 C 
BRANCH  70  71
ATOM     71  C   UNL A   1      34.421  34.243  31.519  1.00  0.00     0.042 C 
BRANCH  71  72
ATOM     72  C   UNL A   1      35.483  34.804  32.460  1.00  0.00     0.118 C 
BRANCH  72  73
ATOM     73  N   UNL A   1      36.814  34.838  31.871  1.00  0.00    -0.351 N 
ATOM     74  C   UNL A   1      38.029  34.472  32.416  1.00  0.00     0.273 C 
ATOM     75  H   UNL A   1      36.853  35.172  30.947  1.00  0.00     0.163 HD
ATOM     76  O   UNL A   1      39.041  34.626  31.741  1.00  0.00    -0.267 OA
BRANCH  74  77
ATOM     77  C   UNL A   1      38.060  33.933  33.777  1.00  0.00     0.167 A 
ATOM     78  N   UNL A   1      38.402  34.716  34.819  1.00  0.00    -0.160 NA
ATOM     79  C   UNL A   1      37.799  32.616  34.209  1.00  0.00     0.095 A 
ATOM     80  N   UNL A   1      38.264  33.927  35.911  1.00  0.00    -0.219 N 
ATOM     81  C   UNL A   1      37.871  32.629  35.580  1.00  0.00     0.170 A 
ATOM     82  Br  UNL A   1      37.409  31.140  33.120  1.00  0.00    -0.044 Br
ATOM     83  C   UNL A   1      38.481  34.286  37.237  1.00  0.00     0.132 A 
ATOM     84  N   UNL A   1      37.634  31.674  36.533  1.00  0.00    -0.235 NA
ATOM     85  C   UNL A   1      38.266  33.400  38.218  1.00  0.00     0.054 A 
ATOM     86  C   UNL A   1      37.793  32.056  37.767  1.00  0.00     0.131 A 
ATOM     87  Br  UNL A   1      38.533  33.722  40.017  1.00  0.00    -0.047 Br
ENDBRANCH  74  77
ENDBRANCH  72  73
ENDBRANCH  71  72
ENDBRANCH  70  71
ENDBRANCH   3  70
TORSDOF 13
ENDMDL
MODEL 3
REMARK VINA RESULT:     -12.3      4.991     11.344
REMARK SMILES O=C(NCCCNC(=O)c1nn2cc(Br)cnc2c1Br)c1ccc(-c2c3nc(c(-c4cc(S(=O)(=O)[O-])ccc4F)c4ccc([nH]4)c(-c4cc(S(=O)(=O)[O-])ccc4F)c4nc(c(-c5cc(S(=O)(=O)[O-])ccc5F)c5ccc2[nH]5)C=C4)C=C3)cc1
REMARK SMILES IDX 1 1 2 2 3 3 21 5 22 6 83 7 23 8 82 9 24 10 25 11 26 12 76 13
REMARK SMILES IDX 27 14 81 15 75 16 77 17 28 18 80 19 74 20 73 21 29 23 61 24
REMARK SMILES IDX 41 25 60 26 42 27 45 28 59 29 78 30 43 31 44 32 58 34 79 35
REMARK SMILES IDX 46 36 30 37 31 38 39 39 32 40 38 41 40 42 37 43 33 44 34 45
REMARK SMILES IDX 35 46 36 47 62 48 63 49 71 50 64 51 70 52 72 53 69 54 65 55
REMARK SMILES IDX 66 56 67 57 68 58 47 59 48 60 56 61 49 62 55 63 57 64 54 65
REMARK SMILES IDX 50 66 51 67 52 68 53 69 4 70 5 71 6 72 7 73 8 74 9 76 10 77
REMARK SMILES IDX 11 78 19 79 12 80 18 81 20 82 13 83 17 84 14 85 16 86 15 87
REMARK H PARENT 3 4 77 22 45 33 7 75
REMARK Flexibility Score: inf
ROOT
ATOM      1  O   UNL A   1      40.013  21.918  27.427  1.00  0.00    -0.269 OA
ATOM      2  C   UNL A   1      40.893  22.668  26.993  1.00  0.00     0.251 C 
ATOM      3  N   UNL A   1      41.856  22.075  26.222  1.00  0.00    -0.352 N 
ATOM      4  H   UNL A   1      41.814  21.092  26.251  1.00  0.00     0.163 HD
ENDROOT
BRANCH   2   5
ATOM      5  C   UNL A   1      40.874  24.102  27.391  1.00  0.00     0.039 A 
ATOM      6  C   UNL A   1      40.012  25.075  26.886  1.00  0.00     0.014 A 
ATOM      7  C   UNL A   1      41.820  24.482  28.363  1.00  0.00     0.014 A 
ATOM      8  C   UNL A   1      40.140  26.406  27.282  1.00  0.00     0.010 A 
ATOM      9  C   UNL A   1      41.942  25.806  28.776  1.00  0.00     0.010 A 
ATOM     10  C   UNL A   1      41.112  26.775  28.220  1.00  0.00    -0.014 A 
BRANCH  10  11
ATOM     11  C   UNL A   1      41.057  28.131  28.776  1.00  0.00     0.031 A 
ATOM     12  C   UNL A   1      42.149  29.022  28.291  1.00  0.00     0.074 A 
ATOM     13  C   UNL A   1      40.041  28.632  29.510  1.00  0.00     0.049 A 
ATOM     14  N   UNL A   1      43.071  29.611  28.980  1.00  0.00    -0.248 NA
ATOM     15  C   UNL A   1      42.302  29.181  26.833  1.00  0.00     0.031 C 
ATOM     16  C   UNL A   1      38.772  27.978  29.832  1.00  0.00     0.029 A 
ATOM     17  N   UNL A   1      39.885  29.884  30.039  1.00  0.00    -0.354 N 
ATOM     18  C   UNL A   1      43.772  30.403  28.074  1.00  0.00     0.074 A 
ATOM     19  C   UNL A   1      43.380  29.963  26.763  1.00  0.00     0.031 C 
ATOM     20  C   UNL A   1      37.905  28.899  30.309  1.00  0.00     0.029 A 
ATOM     21  C   UNL A   1      38.582  30.180  30.436  1.00  0.00     0.049 A 
ATOM     22  H   UNL A   1      40.630  30.522  30.131  1.00  0.00     0.167 HD
ATOM     23  C   UNL A   1      44.426  31.529  28.469  1.00  0.00     0.034 A 
ATOM     24  C   UNL A   1      38.080  31.397  30.790  1.00  0.00     0.034 A 
ATOM     25  C   UNL A   1      44.727  31.504  29.879  1.00  0.00     0.049 A 
ATOM     26  C   UNL A   1      39.233  32.223  31.222  1.00  0.00     0.074 A 
ATOM     27  C   UNL A   1      45.391  30.623  30.712  1.00  0.00     0.029 A 
ATOM     28  N   UNL A   1      44.009  32.326  30.716  1.00  0.00    -0.354 N 
ATOM     29  N   UNL A   1      39.963  31.966  32.273  1.00  0.00    -0.248 NA
ATOM     30  C   UNL A   1      39.839  33.115  30.246  1.00  0.00     0.031 C 
ATOM     31  C   UNL A   1      44.641  30.628  31.924  1.00  0.00     0.029 A 
ATOM     32  C   UNL A   1      43.611  31.558  31.782  1.00  0.00     0.049 A 
ATOM     33  H   UNL A   1      43.819  33.282  30.578  1.00  0.00     0.167 HD
ATOM     34  C   UNL A   1      41.252  32.309  31.902  1.00  0.00     0.074 A 
ATOM     35  C   UNL A   1      41.099  33.098  30.682  1.00  0.00     0.031 C 
ATOM     36  C   UNL A   1      42.338  31.699  32.458  1.00  0.00     0.034 A 
BRANCH  23  37
ATOM     37  C   UNL A   1      44.451  32.805  27.655  1.00  0.00     0.023 A 
ATOM     38  C   UNL A   1      43.700  33.902  28.121  1.00  0.00     0.031 A 
ATOM     39  C   UNL A   1      44.916  32.902  26.321  1.00  0.00     0.131 A 
ATOM     40  C   UNL A   1      43.376  34.970  27.265  1.00  0.00     0.055 A 
ATOM     41  C   UNL A   1      44.652  33.998  25.499  1.00  0.00     0.041 A 
ATOM     42  F   UNL A   1      45.563  31.903  25.707  1.00  0.00    -0.206 F 
ATOM     43  C   UNL A   1      43.852  35.028  25.958  1.00  0.00     0.022 A 
BRANCH  40  44
ATOM     44  S   UNL A   1      42.182  36.204  27.839  1.00  0.00     0.124 S 
ATOM     45  O   UNL A   1      40.948  35.428  27.857  1.00  0.00    -0.237 OA
ATOM     46  O   UNL A   1      42.731  36.573  29.139  1.00  0.00    -0.237 OA
ATOM     47  O   UNL A   1      42.254  37.245  26.816  1.00  0.00    -0.744 OA
ENDBRANCH  40  44
ENDBRANCH  23  37
BRANCH  24  48
ATOM     48  C   UNL A   1      36.727  31.973  30.516  1.00  0.00     0.023 A 
ATOM     49  C   UNL A   1      35.981  32.647  31.513  1.00  0.00     0.031 A 
ATOM     50  C   UNL A   1      36.249  32.098  29.193  1.00  0.00     0.131 A 
ATOM     51  C   UNL A   1      34.837  33.406  31.169  1.00  0.00     0.055 A 
ATOM     52  C   UNL A   1      35.112  32.840  28.859  1.00  0.00     0.041 A 
ATOM     53  F   UNL A   1      36.920  31.581  28.154  1.00  0.00    -0.206 F 
ATOM     54  C   UNL A   1      34.406  33.509  29.845  1.00  0.00     0.022 A 
BRANCH  51  55
ATOM     55  S   UNL A   1      33.955  34.394  32.423  1.00  0.00     0.124 S 
ATOM     56  O   UNL A   1      33.475  33.365  33.340  1.00  0.00    -0.237 OA
ATOM     57  O   UNL A   1      34.999  35.277  32.929  1.00  0.00    -0.237 OA
ATOM     58  O   UNL A   1      32.910  35.066  31.650  1.00  0.00    -0.744 OA
ENDBRANCH  51  55
ENDBRANCH  24  48
BRANCH  36  59
ATOM     59  C   UNL A   1      42.177  30.929  33.747  1.00  0.00     0.023 A 
ATOM     60  C   UNL A   1      41.914  29.545  33.844  1.00  0.00     0.031 A 
ATOM     61  C   UNL A   1      42.480  31.627  34.930  1.00  0.00     0.131 A 
ATOM     62  C   UNL A   1      41.972  28.910  35.103  1.00  0.00     0.055 A 
ATOM     63  C   UNL A   1      42.553  30.992  36.168  1.00  0.00     0.041 A 
ATOM     64  F   UNL A   1      42.769  32.939  34.891  1.00  0.00    -0.206 F 
ATOM     65  C   UNL A   1      42.300  29.630  36.258  1.00  0.00     0.022 A 
BRANCH  62  66
ATOM     66  S   UNL A   1      41.672  27.118  35.256  1.00  0.00     0.124 S 
ATOM     67  O   UNL A   1      42.967  26.534  34.925  1.00  0.00    -0.237 OA
ATOM     68  O   UNL A   1      41.236  26.978  36.643  1.00  0.00    -0.237 OA
ATOM     69  O   UNL A   1      40.620  26.859  34.269  1.00  0.00    -0.744 OA
ENDBRANCH  62  66
ENDBRANCH  36  59
ENDBRANCH  10  11
ENDBRANCH   2   5
BRANCH   3  70
ATOM     70  C   UNL A   1      42.924  22.564  25.370  1.00  0.00     0.118 C 
BRANCH  70  71
ATOM     71  C   UNL A   1      44.069  21.586  25.116  1.00  0.00     0.042 C 
BRANCH  71  72
ATOM     72  C   UNL A   1      45.393  21.955  25.779  1.00  0.00     0.118 C 
BRANCH  72  73
ATOM     73  N   UNL A   1      45.231  22.556  27.094  1.00  0.00    -0.351 N 
ATOM     74  C   UNL A   1      45.665  23.780  27.564  1.00  0.00     0.273 C 
ATOM     75  H   UNL A   1      44.738  22.009  27.746  1.00  0.00     0.163 HD
ATOM     76  O   UNL A   1      45.446  24.066  28.736  1.00  0.00    -0.267 OA
BRANCH  74  77
ATOM     77  C   UNL A   1      46.379  24.675  26.651  1.00  0.00     0.167 A 
ATOM     78  N   UNL A   1      47.726  24.688  26.614  1.00  0.00    -0.160 NA
ATOM     79  C   UNL A   1      45.848  25.624  25.753  1.00  0.00     0.095 A 
ATOM     80  N   UNL A   1      48.043  25.567  25.634  1.00  0.00    -0.219 N 
ATOM     81  C   UNL A   1      46.911  26.149  25.060  1.00  0.00     0.170 A 
ATOM     82  Br  UNL A   1      44.039  26.065  25.535  1.00  0.00    -0.044 Br
ATOM     83  C   UNL A   1      49.316  25.912  25.197  1.00  0.00     0.132 A 
ATOM     84  N   UNL A   1      46.996  27.038  24.022  1.00  0.00    -0.235 NA
ATOM     85  C   UNL A   1      49.470  26.775  24.184  1.00  0.00     0.054 A 
ATOM     86  C   UNL A   1      48.199  27.300  23.600  1.00  0.00     0.131 A 
ATOM     87  Br  UNL A   1      51.094  27.347  23.513  1.00  0.00    -0.047 Br
ENDBRANCH  74  77
ENDBRANCH  72  73
ENDBRANCH  71  72
ENDBRANCH  70  71
ENDBRANCH   3  70
TORSDOF 13
ENDMDL
