MODEL 1
REMARK VINA RESULT:     -11.0      0.000      0.000
REMARK SMILES C[C@@H](c1ccccc1)[C@@H]1[NH2+][C@@H](C(=O)NCCCNC(=O)c2ccc(-c3c4nc(c(-c5cc(S(=O)(=O)[O-])ccc5F)c5ccc([nH]5)c(-c5cc(S(=O)(=O)[O-])ccc5F)c5nc(c(-c6cc(S(=O)(=O)[O-])ccc6F)c6ccc3[nH]6)C=C5)C=C4)cc2)CS1
REMARK SMILES IDX 16 1 15 2 14 3 12 4 13 5 11 7 9 8 10 9 85 10 84 13 2 14 1 15
REMARK SMILES IDX 3 16 4 17 8 18 5 19 7 20 6 21 17 22 18 23 19 24 20 26 21 27
REMARK SMILES IDX 22 28 83 29 23 30 82 31 24 32 25 33 26 34 76 35 27 36 81 37
REMARK SMILES IDX 75 38 77 39 28 40 80 41 74 42 73 43 29 45 61 46 41 47 60 48
REMARK SMILES IDX 42 49 45 50 59 51 78 52 43 53 44 54 58 56 79 57 46 58 30 59
REMARK SMILES IDX 31 60 39 61 32 62 38 63 40 64 37 65 33 66 34 67 35 68 36 69
REMARK SMILES IDX 62 70 63 71 71 72 64 73 70 74 72 75 69 76 65 77 66 78 67 79
REMARK SMILES IDX 68 80 47 81 48 82 56 83 49 84 55 85 57 86 54 87 50 88 51 89
REMARK SMILES IDX 52 90 53 91
REMARK H PARENT 14 6 10 11 10 12 18 25 77 44 45 55
REMARK Flexibility Score: inf
ROOT
ATOM      1  C   UNL A   1      32.852  34.686  28.860  1.00  0.00     0.042 C 
ENDROOT
BRANCH   1   2
ATOM      2  C   UNL A   1      33.353  35.995  29.468  1.00  0.00     0.118 C 
BRANCH   2   3
ATOM      3  N   UNL A   1      32.530  36.458  30.569  1.00  0.00    -0.351 N 
ATOM      4  C   UNL A   1      32.703  36.304  31.914  1.00  0.00     0.279 C 
ATOM      5  O   UNL A   1      31.874  36.850  32.647  1.00  0.00    -0.268 OA
ATOM      6  H   UNL A   1      31.726  36.960  30.306  1.00  0.00     0.163 HD
BRANCH   4   7
ATOM      7  C   UNL A   1      33.927  35.544  32.476  1.00  0.00     0.283 C 
ATOM      8  C   UNL A   1      35.897  34.325  31.832  1.00  0.00     0.249 C 
ATOM      9  N   UNL A   1      35.012  35.441  31.459  1.00  0.00    -0.324 N 
ATOM     10  S   UNL A   1      34.725  32.994  32.234  1.00  0.00    -0.092 SA
ATOM     11  H   UNL A   1      34.607  35.267  30.540  1.00  0.00     0.347 HD
ATOM     12  H   UNL A   1      35.543  36.311  31.426  1.00  0.00     0.347 HD
ATOM     13  C   UNL A   1      33.524  34.139  32.957  1.00  0.00     0.151 C 
BRANCH   8  14
ATOM     14  C   UNL A   1      36.904  34.615  32.996  1.00  0.00     0.085 C 
ATOM     15  C   UNL A   1      36.666  33.693  34.211  1.00  0.00     0.020 C 
BRANCH  14  16
ATOM     16  C   UNL A   1      38.359  34.553  32.527  1.00  0.00    -0.038 A 
ATOM     17  C   UNL A   1      38.632  34.437  31.154  1.00  0.00     0.004 A 
ATOM     18  C   UNL A   1      39.448  34.607  33.412  1.00  0.00     0.004 A 
ATOM     19  C   UNL A   1      39.943  34.370  30.681  1.00  0.00     0.000 A 
ATOM     20  C   UNL A   1      40.761  34.562  32.936  1.00  0.00     0.000 A 
ATOM     21  C   UNL A   1      41.009  34.438  31.572  1.00  0.00     0.000 A 
ENDBRANCH  14  16
ENDBRANCH   8  14
ENDBRANCH   4   7
ENDBRANCH   2   3
ENDBRANCH   1   2
BRANCH   1  22
ATOM     22  C   UNL A   1      33.950  33.703  28.453  1.00  0.00     0.118 C 
BRANCH  22  23
ATOM     23  N   UNL A   1      33.444  32.570  27.697  1.00  0.00    -0.352 N 
ATOM     24  C   UNL A   1      34.015  31.357  27.407  1.00  0.00     0.251 C 
ATOM     25  H   UNL A   1      32.539  32.693  27.330  1.00  0.00     0.163 HD
ATOM     26  O   UNL A   1      33.443  30.625  26.596  1.00  0.00    -0.269 OA
BRANCH  24  27
ATOM     27  C   UNL A   1      35.293  30.919  28.020  1.00  0.00     0.039 A 
ATOM     28  C   UNL A   1      35.306  29.712  28.726  1.00  0.00     0.014 A 
ATOM     29  C   UNL A   1      36.454  31.699  27.974  1.00  0.00     0.014 A 
ATOM     30  C   UNL A   1      36.480  29.267  29.340  1.00  0.00     0.010 A 
ATOM     31  C   UNL A   1      37.644  31.223  28.533  1.00  0.00     0.010 A 
ATOM     32  C   UNL A   1      37.671  30.004  29.227  1.00  0.00    -0.014 A 
BRANCH  32  33
ATOM     33  C   UNL A   1      38.931  29.496  29.834  1.00  0.00     0.031 A 
ATOM     34  C   UNL A   1      39.384  29.982  31.187  1.00  0.00     0.074 A 
ATOM     35  C   UNL A   1      39.674  28.594  29.161  1.00  0.00     0.049 A 
ATOM     36  N   UNL A   1      40.444  29.640  31.877  1.00  0.00    -0.248 NA
ATOM     37  C   UNL A   1      38.546  30.998  31.840  1.00  0.00     0.031 C 
ATOM     38  C   UNL A   1      39.362  28.072  27.828  1.00  0.00     0.029 A 
ATOM     39  N   UNL A   1      40.837  27.950  29.503  1.00  0.00    -0.354 N 
ATOM     40  C   UNL A   1      40.398  30.393  33.046  1.00  0.00     0.074 A 
ATOM     41  C   UNL A   1      39.240  31.256  32.939  1.00  0.00     0.031 C 
ATOM     42  C   UNL A   1      40.288  27.163  27.484  1.00  0.00     0.029 A 
ATOM     43  C   UNL A   1      41.279  27.061  28.550  1.00  0.00     0.049 A 
ATOM     44  H   UNL A   1      41.311  28.110  30.351  1.00  0.00     0.167 HD
ATOM     45  C   UNL A   1      41.227  30.350  34.120  1.00  0.00     0.034 A 
ATOM     46  C   UNL A   1      42.357  26.253  28.536  1.00  0.00     0.034 A 
ATOM     47  C   UNL A   1      42.379  29.486  34.218  1.00  0.00     0.049 A 
ATOM     48  C   UNL A   1      43.273  26.241  29.735  1.00  0.00     0.074 A 
ATOM     49  C   UNL A   1      43.275  29.354  35.266  1.00  0.00     0.029 A 
ATOM     50  N   UNL A   1      42.798  28.603  33.231  1.00  0.00    -0.354 N 
ATOM     51  N   UNL A   1      43.190  26.933  30.848  1.00  0.00    -0.248 NA
ATOM     52  C   UNL A   1      44.418  25.324  29.681  1.00  0.00     0.031 C 
ATOM     53  C   UNL A   1      44.262  28.434  34.893  1.00  0.00     0.029 A 
ATOM     54  C   UNL A   1      43.946  27.939  33.639  1.00  0.00     0.049 A 
ATOM     55  H   UNL A   1      42.346  28.469  32.367  1.00  0.00     0.167 HD
ATOM     56  C   UNL A   1      44.255  26.507  31.638  1.00  0.00     0.074 A 
ATOM     57  C   UNL A   1      44.946  25.481  30.884  1.00  0.00     0.031 C 
ATOM     58  C   UNL A   1      44.631  26.924  32.874  1.00  0.00     0.034 A 
BRANCH  45  59
ATOM     59  C   UNL A   1      40.918  31.279  35.271  1.00  0.00     0.023 A 
ATOM     60  C   UNL A   1      39.783  31.092  36.079  1.00  0.00     0.031 A 
ATOM     61  C   UNL A   1      41.761  32.366  35.561  1.00  0.00     0.131 A 
ATOM     62  C   UNL A   1      39.485  32.014  37.094  1.00  0.00     0.055 A 
ATOM     63  C   UNL A   1      41.499  33.238  36.621  1.00  0.00     0.041 A 
ATOM     64  F   UNL A   1      42.849  32.607  34.814  1.00  0.00    -0.206 F 
ATOM     65  C   UNL A   1      40.348  33.071  37.388  1.00  0.00     0.022 A 
BRANCH  62  66
ATOM     66  S   UNL A   1      37.890  31.881  37.948  1.00  0.00     0.124 S 
ATOM     67  O   UNL A   1      37.472  30.530  37.579  1.00  0.00    -0.237 OA
ATOM     68  O   UNL A   1      38.264  32.074  39.346  1.00  0.00    -0.237 OA
ATOM     69  O   UNL A   1      37.095  32.956  37.361  1.00  0.00    -0.744 OA
ENDBRANCH  62  66
ENDBRANCH  45  59
BRANCH  46  70
ATOM     70  C   UNL A   1      42.644  25.378  27.362  1.00  0.00     0.023 A 
ATOM     71  C   UNL A   1      42.119  24.078  27.286  1.00  0.00     0.031 A 
ATOM     72  C   UNL A   1      43.507  25.801  26.336  1.00  0.00     0.131 A 
ATOM     73  C   UNL A   1      42.512  23.223  26.246  1.00  0.00     0.055 A 
ATOM     74  C   UNL A   1      43.848  24.967  25.270  1.00  0.00     0.041 A 
ATOM     75  F   UNL A   1      44.032  27.037  26.355  1.00  0.00    -0.206 F 
ATOM     76  C   UNL A   1      43.364  23.664  25.230  1.00  0.00     0.022 A 
BRANCH  73  77
ATOM     77  S   UNL A   1      41.984  21.489  26.302  1.00  0.00     0.124 S 
ATOM     78  O   UNL A   1      42.813  20.891  25.262  1.00  0.00    -0.237 OA
ATOM     79  O   UNL A   1      42.309  21.119  27.675  1.00  0.00    -0.237 OA
ATOM     80  O   UNL A   1      40.555  21.560  25.999  1.00  0.00    -0.744 OA
ENDBRANCH  73  77
ENDBRANCH  46  70
BRANCH  58  81
ATOM     81  C   UNL A   1      45.819  26.228  33.493  1.00  0.00     0.023 A 
ATOM     82  C   UNL A   1      47.137  26.616  33.196  1.00  0.00     0.031 A 
ATOM     83  C   UNL A   1      45.630  25.131  34.351  1.00  0.00     0.131 A 
ATOM     84  C   UNL A   1      48.215  25.865  33.689  1.00  0.00     0.055 A 
ATOM     85  C   UNL A   1      46.707  24.426  34.890  1.00  0.00     0.041 A 
ATOM     86  F   UNL A   1      44.393  24.716  34.669  1.00  0.00    -0.206 F 
ATOM     87  C   UNL A   1      48.008  24.781  34.546  1.00  0.00     0.022 A 
BRANCH  84  88
ATOM     88  S   UNL A   1      49.887  26.252  33.097  1.00  0.00     0.124 S 
ATOM     89  O   UNL A   1      50.687  25.221  33.751  1.00  0.00    -0.237 OA
ATOM     90  O   UNL A   1      49.741  26.123  31.651  1.00  0.00    -0.237 OA
ATOM     91  O   UNL A   1      50.114  27.613  33.579  1.00  0.00    -0.744 OA
ENDBRANCH  84  88
ENDBRANCH  58  81
ENDBRANCH  32  33
ENDBRANCH  24  27
ENDBRANCH  22  23
ENDBRANCH   1  22
TORSDOF 15
ENDMDL
MODEL 2
REMARK VINA RESULT:     -10.7      4.618      7.535
REMARK SMILES C[C@@H](c1ccccc1)[C@@H]1[NH2+][C@@H](C(=O)NCCCNC(=O)c2ccc(-c3c4nc(c(-c5cc(S(=O)(=O)[O-])ccc5F)c5ccc([nH]5)c(-c5cc(S(=O)(=O)[O-])ccc5F)c5nc(c(-c6cc(S(=O)(=O)[O-])ccc6F)c6ccc3[nH]6)C=C5)C=C4)cc2)CS1
REMARK SMILES IDX 16 1 15 2 14 3 12 4 13 5 11 7 9 8 10 9 85 10 84 13 2 14 1 15
REMARK SMILES IDX 3 16 4 17 8 18 5 19 7 20 6 21 17 22 18 23 19 24 20 26 21 27
REMARK SMILES IDX 22 28 83 29 23 30 82 31 24 32 25 33 26 34 76 35 27 36 81 37
REMARK SMILES IDX 75 38 77 39 28 40 80 41 74 42 73 43 29 45 61 46 41 47 60 48
REMARK SMILES IDX 42 49 45 50 59 51 78 52 43 53 44 54 58 56 79 57 46 58 30 59
REMARK SMILES IDX 31 60 39 61 32 62 38 63 40 64 37 65 33 66 34 67 35 68 36 69
REMARK SMILES IDX 62 70 63 71 71 72 64 73 70 74 72 75 69 76 65 77 66 78 67 79
REMARK SMILES IDX 68 80 47 81 48 82 56 83 49 84 55 85 57 86 54 87 50 88 51 89
REMARK SMILES IDX 52 90 53 91
REMARK H PARENT 14 6 10 11 10 12 18 25 77 44 45 55
REMARK Flexibility Score: inf
ROOT
ATOM      1  C   UNL A   1      31.731  28.037  26.480  1.00  0.00     0.042 C 
ENDROOT
BRANCH   1   2
ATOM      2  C   UNL A   1      31.470  26.736  25.722  1.00  0.00     0.118 C 
BRANCH   2   3
ATOM      3  N   UNL A   1      30.555  25.852  26.417  1.00  0.00    -0.351 N 
ATOM      4  C   UNL A   1      30.585  24.494  26.551  1.00  0.00     0.279 C 
ATOM      5  O   UNL A   1      29.704  23.985  27.249  1.00  0.00    -0.268 OA
ATOM      6  H   UNL A   1      29.798  26.299  26.860  1.00  0.00     0.163 HD
BRANCH   4   7
ATOM      7  C   UNL A   1      31.719  23.657  25.914  1.00  0.00     0.283 C 
ATOM      8  C   UNL A   1      32.753  21.486  25.931  1.00  0.00     0.249 C 
ATOM      9  N   UNL A   1      31.471  22.197  26.078  1.00  0.00    -0.324 N 
ATOM     10  S   UNL A   1      33.883  22.468  26.964  1.00  0.00    -0.092 SA
ATOM     11  H   UNL A   1      31.081  22.016  27.002  1.00  0.00     0.347 HD
ATOM     12  H   UNL A   1      30.810  21.874  25.373  1.00  0.00     0.347 HD
ATOM     13  C   UNL A   1      33.081  24.030  26.525  1.00  0.00     0.151 C 
BRANCH   8  14
ATOM     14  C   UNL A   1      33.270  21.316  24.462  1.00  0.00     0.085 C 
ATOM     15  C   UNL A   1      34.630  22.014  24.244  1.00  0.00     0.020 C 
BRANCH  14  16
ATOM     16  C   UNL A   1      33.325  19.847  24.039  1.00  0.00    -0.038 A 
ATOM     17  C   UNL A   1      34.279  18.999  24.626  1.00  0.00     0.004 A 
ATOM     18  C   UNL A   1      32.458  19.297  23.082  1.00  0.00     0.004 A 
ATOM     19  C   UNL A   1      34.370  17.654  24.266  1.00  0.00     0.000 A 
ATOM     20  C   UNL A   1      32.534  17.945  22.736  1.00  0.00     0.000 A 
ATOM     21  C   UNL A   1      33.493  17.125  23.324  1.00  0.00     0.000 A 
ENDBRANCH  14  16
ENDBRANCH   8  14
ENDBRANCH   4   7
ENDBRANCH   2   3
ENDBRANCH   1   2
BRANCH   1  22
ATOM     22  C   UNL A   1      32.717  28.990  25.802  1.00  0.00     0.118 C 
BRANCH  22  23
ATOM     23  N   UNL A   1      32.420  30.389  26.058  1.00  0.00    -0.352 N 
ATOM     24  C   UNL A   1      33.014  31.294  26.899  1.00  0.00     0.251 C 
ATOM     25  H   UNL A   1      31.664  30.748  25.540  1.00  0.00     0.163 HD
ATOM     26  O   UNL A   1      32.462  32.385  27.062  1.00  0.00    -0.269 OA
BRANCH  24  27
ATOM     27  C   UNL A   1      34.272  30.991  27.624  1.00  0.00     0.039 A 
ATOM     28  C   UNL A   1      34.394  29.740  28.238  1.00  0.00     0.014 A 
ATOM     29  C   UNL A   1      35.299  31.930  27.770  1.00  0.00     0.014 A 
ATOM     30  C   UNL A   1      35.551  29.415  28.951  1.00  0.00     0.010 A 
ATOM     31  C   UNL A   1      36.482  31.581  28.429  1.00  0.00     0.010 A 
ATOM     32  C   UNL A   1      36.621  30.321  29.031  1.00  0.00    -0.014 A 
BRANCH  32  33
ATOM     33  C   UNL A   1      37.873  29.946  29.744  1.00  0.00     0.031 A 
ATOM     34  C   UNL A   1      38.166  30.486  31.120  1.00  0.00     0.074 A 
ATOM     35  C   UNL A   1      38.753  29.118  29.145  1.00  0.00     0.049 A 
ATOM     36  N   UNL A   1      39.196  30.257  31.896  1.00  0.00    -0.248 NA
ATOM     37  C   UNL A   1      37.183  31.418  31.690  1.00  0.00     0.031 C 
ATOM     38  C   UNL A   1      38.601  28.557  27.801  1.00  0.00     0.029 A 
ATOM     39  N   UNL A   1      39.943  28.597  29.588  1.00  0.00    -0.354 N 
ATOM     40  C   UNL A   1      38.983  31.011  33.047  1.00  0.00     0.074 A 
ATOM     41  C   UNL A   1      37.758  31.753  32.835  1.00  0.00     0.031 C 
ATOM     42  C   UNL A   1      39.637  27.742  27.545  1.00  0.00     0.029 A 
ATOM     43  C   UNL A   1      40.545  27.748  28.687  1.00  0.00     0.049 A 
ATOM     44  H   UNL A   1      40.330  28.809  30.468  1.00  0.00     0.167 HD
ATOM     45  C   UNL A   1      39.723  31.059  34.183  1.00  0.00     0.034 A 
ATOM     46  C   UNL A   1      41.696  27.052  28.771  1.00  0.00     0.034 A 
ATOM     47  C   UNL A   1      40.944  30.316  34.385  1.00  0.00     0.049 A 
ATOM     48  C   UNL A   1      42.510  27.142  30.038  1.00  0.00     0.074 A 
ATOM     49  C   UNL A   1      41.762  30.282  35.502  1.00  0.00     0.029 A 
ATOM     50  N   UNL A   1      41.526  29.471  33.447  1.00  0.00    -0.354 N 
ATOM     51  N   UNL A   1      42.270  27.830  31.130  1.00  0.00    -0.248 NA
ATOM     52  C   UNL A   1      43.741  26.342  30.089  1.00  0.00     0.031 C 
ATOM     53  C   UNL A   1      42.862  29.463  35.222  1.00  0.00     0.029 A 
ATOM     54  C   UNL A   1      42.698  28.928  33.955  1.00  0.00     0.049 A 
ATOM     55  H   UNL A   1      41.159  29.286  32.553  1.00  0.00     0.167 HD
ATOM     56  C   UNL A   1      43.305  27.519  32.007  1.00  0.00     0.074 A 
ATOM     57  C   UNL A   1      44.152  26.561  31.327  1.00  0.00     0.031 C 
ATOM     58  C   UNL A   1      43.538  27.981  33.263  1.00  0.00     0.034 A 
BRANCH  45  59
ATOM     59  C   UNL A   1      39.234  31.962  35.292  1.00  0.00     0.023 A 
ATOM     60  C   UNL A   1      39.665  33.295  35.395  1.00  0.00     0.031 A 
ATOM     61  C   UNL A   1      38.334  31.484  36.261  1.00  0.00     0.131 A 
ATOM     62  C   UNL A   1      39.250  34.085  36.478  1.00  0.00     0.055 A 
ATOM     63  C   UNL A   1      37.865  32.299  37.294  1.00  0.00     0.041 A 
ATOM     64  F   UNL A   1      37.901  30.214  36.225  1.00  0.00    -0.206 F 
ATOM     65  C   UNL A   1      38.333  33.604  37.414  1.00  0.00     0.022 A 
BRANCH  62  66
ATOM     66  S   UNL A   1      40.018  35.712  36.713  1.00  0.00     0.124 S 
ATOM     67  O   UNL A   1      39.360  36.173  37.933  1.00  0.00    -0.237 OA
ATOM     68  O   UNL A   1      41.434  35.378  36.838  1.00  0.00    -0.237 OA
ATOM     69  O   UNL A   1      39.654  36.441  35.501  1.00  0.00    -0.744 OA
ENDBRANCH  62  66
ENDBRANCH  45  59
BRANCH  46  70
ATOM     70  C   UNL A   1      42.160  26.201  27.637  1.00  0.00     0.023 A 
ATOM     71  C   UNL A   1      41.761  24.860  27.531  1.00  0.00     0.031 A 
ATOM     72  C   UNL A   1      43.069  26.695  26.684  1.00  0.00     0.131 A 
ATOM     73  C   UNL A   1      42.317  24.038  26.539  1.00  0.00     0.055 A 
ATOM     74  C   UNL A   1      43.575  25.890  25.662  1.00  0.00     0.041 A 
ATOM     75  F   UNL A   1      43.480  27.972  26.734  1.00  0.00    -0.206 F 
ATOM     76  C   UNL A   1      43.213  24.548  25.596  1.00  0.00     0.022 A 
BRANCH  73  77
ATOM     77  S   UNL A   1      41.942  22.264  26.570  1.00  0.00     0.124 S 
ATOM     78  O   UNL A   1      42.631  21.792  25.375  1.00  0.00    -0.237 OA
ATOM     79  O   UNL A   1      42.516  21.856  27.847  1.00  0.00    -0.237 OA
ATOM     80  O   UNL A   1      40.481  22.226  26.505  1.00  0.00    -0.744 OA
ENDBRANCH  73  77
ENDBRANCH  46  70
BRANCH  58  81
ATOM     81  C   UNL A   1      44.736  27.412  33.984  1.00  0.00     0.023 A 
ATOM     82  C   UNL A   1      44.648  26.231  34.742  1.00  0.00     0.031 A 
ATOM     83  C   UNL A   1      45.969  28.087  33.953  1.00  0.00     0.131 A 
ATOM     84  C   UNL A   1      45.747  25.803  35.501  1.00  0.00     0.055 A 
ATOM     85  C   UNL A   1      47.079  27.621  34.660  1.00  0.00     0.041 A 
ATOM     86  F   UNL A   1      46.112  29.220  33.247  1.00  0.00    -0.206 F 
ATOM     87  C   UNL A   1      46.967  26.483  35.454  1.00  0.00     0.022 A 
BRANCH  84  88
ATOM     88  S   UNL A   1      45.525  24.413  36.647  1.00  0.00     0.124 S 
ATOM     89  O   UNL A   1      46.836  24.328  37.281  1.00  0.00    -0.237 OA
ATOM     90  O   UNL A   1      44.435  24.883  37.495  1.00  0.00    -0.237 OA
ATOM     91  O   UNL A   1      45.188  23.295  35.767  1.00  0.00    -0.744 OA
ENDBRANCH  84  88
ENDBRANCH  58  81
ENDBRANCH  32  33
ENDBRANCH  24  27
ENDBRANCH  22  23
ENDBRANCH   1  22
TORSDOF 15
ENDMDL
MODEL 3
REMARK VINA RESULT:     -10.6      5.543     11.363
REMARK SMILES C[C@@H](c1ccccc1)[C@@H]1[NH2+][C@@H](C(=O)NCCCNC(=O)c2ccc(-c3c4nc(c(-c5cc(S(=O)(=O)[O-])ccc5F)c5ccc([nH]5)c(-c5cc(S(=O)(=O)[O-])ccc5F)c5nc(c(-c6cc(S(=O)(=O)[O-])ccc6F)c6ccc3[nH]6)C=C5)C=C4)cc2)CS1
REMARK SMILES IDX 16 1 15 2 14 3 12 4 13 5 11 7 9 8 10 9 85 10 84 13 2 14 1 15
REMARK SMILES IDX 3 16 4 17 8 18 5 19 7 20 6 21 17 22 18 23 19 24 20 26 21 27
REMARK SMILES IDX 22 28 83 29 23 30 82 31 24 32 25 33 26 34 76 35 27 36 81 37
REMARK SMILES IDX 75 38 77 39 28 40 80 41 74 42 73 43 29 45 61 46 41 47 60 48
REMARK SMILES IDX 42 49 45 50 59 51 78 52 43 53 44 54 58 56 79 57 46 58 30 59
REMARK SMILES IDX 31 60 39 61 32 62 38 63 40 64 37 65 33 66 34 67 35 68 36 69
REMARK SMILES IDX 62 70 63 71 71 72 64 73 70 74 72 75 69 76 65 77 66 78 67 79
REMARK SMILES IDX 68 80 47 81 48 82 56 83 49 84 55 85 57 86 54 87 50 88 51 89
REMARK SMILES IDX 52 90 53 91
REMARK H PARENT 14 6 10 11 10 12 18 25 77 44 45 55
REMARK Flexibility Score: inf
ROOT
ATOM      1  C   UNL A   1      35.494  21.254  25.626  1.00  0.00     0.042 C 
ENDROOT
BRANCH   1   2
ATOM      2  C   UNL A   1      34.731  22.562  25.828  1.00  0.00     0.118 C 
BRANCH   2   3
ATOM      3  N   UNL A   1      33.329  22.458  25.472  1.00  0.00    -0.351 N 
ATOM      4  C   UNL A   1      32.542  23.318  24.761  1.00  0.00     0.279 C 
ATOM      5  O   UNL A   1      31.380  22.962  24.551  1.00  0.00    -0.268 OA
ATOM      6  H   UNL A   1      32.877  21.645  25.791  1.00  0.00     0.163 HD
BRANCH   4   7
ATOM      7  C   UNL A   1      33.119  24.636  24.191  1.00  0.00     0.283 C 
ATOM      8  C   UNL A   1      32.498  26.763  23.257  1.00  0.00     0.249 C 
ATOM      9  N   UNL A   1      32.107  25.729  24.231  1.00  0.00    -0.324 N 
ATOM     10  S   UNL A   1      32.917  25.791  21.778  1.00  0.00    -0.092 SA
ATOM     11  H   UNL A   1      31.189  25.358  23.987  1.00  0.00     0.347 HD
ATOM     12  H   UNL A   1      32.062  26.130  25.167  1.00  0.00     0.347 HD
ATOM     13  C   UNL A   1      33.619  24.435  22.751  1.00  0.00     0.151 C 
BRANCH   8  14
ATOM     14  C   UNL A   1      33.661  27.712  23.705  1.00  0.00     0.085 C 
ATOM     15  C   UNL A   1      34.155  28.607  22.548  1.00  0.00     0.020 C 
BRANCH  14  16
ATOM     16  C   UNL A   1      33.282  28.547  24.930  1.00  0.00    -0.038 A 
ATOM     17  C   UNL A   1      34.063  28.449  26.094  1.00  0.00     0.004 A 
ATOM     18  C   UNL A   1      32.181  29.417  24.949  1.00  0.00     0.004 A 
ATOM     19  C   UNL A   1      33.752  29.186  27.238  1.00  0.00     0.000 A 
ATOM     20  C   UNL A   1      31.882  30.172  26.086  1.00  0.00     0.000 A 
ATOM     21  C   UNL A   1      32.663  30.053  27.232  1.00  0.00     0.000 A 
ENDBRANCH  14  16
ENDBRANCH   8  14
ENDBRANCH   4   7
ENDBRANCH   2   3
ENDBRANCH   1   2
BRANCH   1  22
ATOM     22  C   UNL A   1      36.826  21.393  24.888  1.00  0.00     0.118 C 
BRANCH  22  23
ATOM     23  N   UNL A   1      37.806  20.399  25.293  1.00  0.00    -0.352 N 
ATOM     24  C   UNL A   1      39.072  20.540  25.799  1.00  0.00     0.251 C 
ATOM     25  H   UNL A   1      37.510  19.466  25.186  1.00  0.00     0.163 HD
ATOM     26  O   UNL A   1      39.772  19.529  25.904  1.00  0.00    -0.269 OA
BRANCH  24  27
ATOM     27  C   UNL A   1      39.621  21.859  26.196  1.00  0.00     0.039 A 
ATOM     28  C   UNL A   1      40.840  21.886  26.883  1.00  0.00     0.014 A 
ATOM     29  C   UNL A   1      38.935  23.057  25.971  1.00  0.00     0.014 A 
ATOM     30  C   UNL A   1      41.389  23.102  27.298  1.00  0.00     0.010 A 
ATOM     31  C   UNL A   1      39.515  24.278  26.330  1.00  0.00     0.010 A 
ATOM     32  C   UNL A   1      40.746  24.316  27.002  1.00  0.00    -0.014 A 
BRANCH  32  33
ATOM     33  C   UNL A   1      41.364  25.611  27.397  1.00  0.00     0.031 A 
ATOM     34  C   UNL A   1      42.741  25.986  26.911  1.00  0.00     0.074 A 
ATOM     35  C   UNL A   1      40.683  26.452  28.202  1.00  0.00     0.049 A 
ATOM     36  N   UNL A   1      43.430  27.076  27.141  1.00  0.00    -0.248 NA
ATOM     37  C   UNL A   1      43.440  25.000  26.075  1.00  0.00     0.031 C 
ATOM     38  C   UNL A   1      39.358  26.189  28.767  1.00  0.00     0.029 A 
ATOM     39  N   UNL A   1      41.002  27.699  28.678  1.00  0.00    -0.354 N 
ATOM     40  C   UNL A   1      44.640  26.910  26.473  1.00  0.00     0.074 A 
ATOM     41  C   UNL A   1      44.612  25.587  25.887  1.00  0.00     0.031 C 
ATOM     42  C   UNL A   1      38.964  27.255  29.481  1.00  0.00     0.029 A 
ATOM     43  C   UNL A   1      40.018  28.264  29.456  1.00  0.00     0.049 A 
ATOM     44  H   UNL A   1      41.857  28.148  28.481  1.00  0.00     0.167 HD
ATOM     45  C   UNL A   1      45.666  27.788  26.339  1.00  0.00     0.034 A 
ATOM     46  C   UNL A   1      39.968  29.458  30.078  1.00  0.00     0.034 A 
ATOM     47  C   UNL A   1      45.685  29.107  26.927  1.00  0.00     0.049 A 
ATOM     48  C   UNL A   1      41.132  30.406  29.928  1.00  0.00     0.074 A 
ATOM     49  C   UNL A   1      46.668  30.079  26.841  1.00  0.00     0.029 A 
ATOM     50  N   UNL A   1      44.672  29.641  27.714  1.00  0.00    -0.354 N 
ATOM     51  N   UNL A   1      42.251  30.245  29.260  1.00  0.00    -0.248 NA
ATOM     52  C   UNL A   1      41.016  31.705  30.603  1.00  0.00     0.031 C 
ATOM     53  C   UNL A   1      46.274  31.176  27.615  1.00  0.00     0.029 A 
ATOM     54  C   UNL A   1      45.015  30.919  28.131  1.00  0.00     0.049 A 
ATOM     55  H   UNL A   1      43.833  29.179  27.942  1.00  0.00     0.167 HD
ATOM     56  C   UNL A   1      42.954  31.438  29.409  1.00  0.00     0.074 A 
ATOM     57  C   UNL A   1      42.121  32.314  30.205  1.00  0.00     0.031 C 
ATOM     58  C   UNL A   1      44.179  31.780  28.933  1.00  0.00     0.034 A 
BRANCH  45  59
ATOM     59  C   UNL A   1      46.862  27.340  25.530  1.00  0.00     0.023 A 
ATOM     60  C   UNL A   1      47.081  27.811  24.225  1.00  0.00     0.031 A 
ATOM     61  C   UNL A   1      47.786  26.426  26.065  1.00  0.00     0.131 A 
ATOM     62  C   UNL A   1      48.159  27.319  23.473  1.00  0.00     0.055 A 
ATOM     63  C   UNL A   1      48.900  25.997  25.339  1.00  0.00     0.041 A 
ATOM     64  F   UNL A   1      47.620  25.926  27.299  1.00  0.00    -0.206 F 
ATOM     65  C   UNL A   1      49.086  26.435  24.030  1.00  0.00     0.022 A 
BRANCH  62  66
ATOM     66  S   UNL A   1      48.268  27.760  21.717  1.00  0.00     0.124 S 
ATOM     67  O   UNL A   1      49.369  28.720  21.724  1.00  0.00    -0.237 OA
ATOM     68  O   UNL A   1      48.546  26.474  21.085  1.00  0.00    -0.237 OA
ATOM     69  O   UNL A   1      46.955  28.328  21.424  1.00  0.00    -0.744 OA
ENDBRANCH  62  66
ENDBRANCH  45  59
BRANCH  46  70
ATOM     70  C   UNL A   1      38.782  29.846  30.896  1.00  0.00     0.023 A 
ATOM     71  C   UNL A   1      37.770  30.657  30.360  1.00  0.00     0.031 A 
ATOM     72  C   UNL A   1      38.682  29.475  32.248  1.00  0.00     0.131 A 
ATOM     73  C   UNL A   1      36.735  31.125  31.184  1.00  0.00     0.055 A 
ATOM     74  C   UNL A   1      37.619  29.894  33.050  1.00  0.00     0.041 A 
ATOM     75  F   UNL A   1      39.619  28.695  32.811  1.00  0.00    -0.206 F 
ATOM     76  C   UNL A   1      36.647  30.739  32.524  1.00  0.00     0.022 A 
BRANCH  73  77
ATOM     77  S   UNL A   1      35.571  32.341  30.509  1.00  0.00     0.124 S 
ATOM     78  O   UNL A   1      36.400  33.538  30.435  1.00  0.00    -0.237 OA
ATOM     79  O   UNL A   1      35.205  31.733  29.235  1.00  0.00    -0.237 OA
ATOM     80  O   UNL A   1      34.505  32.380  31.509  1.00  0.00    -0.744 OA
ENDBRANCH  73  77
ENDBRANCH  46  70
BRANCH  58  81
ATOM     81  C   UNL A   1      44.655  33.181  29.231  1.00  0.00     0.023 A 
ATOM     82  C   UNL A   1      44.475  34.232  28.315  1.00  0.00     0.031 A 
ATOM     83  C   UNL A   1      45.344  33.457  30.425  1.00  0.00     0.131 A 
ATOM     84  C   UNL A   1      45.043  35.489  28.570  1.00  0.00     0.055 A 
ATOM     85  C   UNL A   1      45.852  34.727  30.704  1.00  0.00     0.041 A 
ATOM     86  F   UNL A   1      45.546  32.492  31.337  1.00  0.00    -0.206 F 
ATOM     87  C   UNL A   1      45.719  35.747  29.766  1.00  0.00     0.022 A 
BRANCH  84  88
ATOM     88  S   UNL A   1      44.991  36.749  27.265  1.00  0.00     0.124 S 
ATOM     89  O   UNL A   1      43.585  36.726  26.876  1.00  0.00    -0.237 OA
ATOM     90  O   UNL A   1      45.438  37.945  27.971  1.00  0.00    -0.237 OA
ATOM     91  O   UNL A   1      45.921  36.238  26.259  1.00  0.00    -0.744 OA
ENDBRANCH  84  88
ENDBRANCH  58  81
ENDBRANCH  32  33
ENDBRANCH  24  27
ENDBRANCH  22  23
ENDBRANCH   1  22
TORSDOF 15
ENDMDL
