MODEL 1
REMARK VINA RESULT:     -11.9      0.000      0.000
REMARK SMILES CCN(C(=O)c1ccccc1C(=O)NCCCNC(=O)c1ccc(-c2c3nc(c(-c4cc(S(=O)(=O)[O-])ccc4F)c4ccc([nH]4)c(-c4cc(S(=O)(=O)[O-])ccc4F)c4nc(c(-c5cc(S(=O)(=O)[O-])ccc5F)c5ccc2[nH]5)C=C4)C=C3)cc1)[C@H](CCO)c1ccccc1
REMARK SMILES IDX 12 1 13 2 14 3 11 5 6 6 7 7 8 8 10 9 9 10 4 11 5 12 3 13
REMARK SMILES IDX 2 14 1 15 84 16 88 17 89 18 93 19 90 20 92 21 91 22 85 23
REMARK SMILES IDX 86 24 87 25 15 27 16 28 17 29 18 30 19 31 20 33 21 34 22 35
REMARK SMILES IDX 83 36 23 37 82 38 24 39 25 40 26 41 76 42 27 43 81 44 75 45
REMARK SMILES IDX 77 46 28 47 80 48 74 49 73 50 29 52 61 53 41 54 60 55 42 56
REMARK SMILES IDX 45 57 59 58 78 59 43 60 44 61 58 63 79 64 46 65 30 66 31 67
REMARK SMILES IDX 39 68 32 69 38 70 40 71 37 72 33 73 34 74 35 75 36 76 62 77
REMARK SMILES IDX 63 78 71 79 64 80 70 81 72 82 69 83 65 84 66 85 67 86 68 87
REMARK SMILES IDX 47 88 48 89 56 90 49 91 55 92 57 93 54 94 50 95 51 96 52 97
REMARK SMILES IDX 53 98
REMARK H PARENT 14 4 87 26 18 32 77 51 45 62
REMARK Flexibility Score: inf
ROOT
ATOM      1  C   UNL A   1      35.186  22.218  25.981  1.00  0.00     0.252 C 
ATOM      2  O   UNL A   1      34.753  22.788  26.994  1.00  0.00    -0.269 OA
ATOM      3  N   UNL A   1      36.549  22.327  25.815  1.00  0.00    -0.352 N 
ATOM      4  H   UNL A   1      36.961  22.987  26.417  1.00  0.00     0.163 HD
ENDROOT
BRANCH   1   5
ATOM      5  C   UNL A   1      34.149  21.616  25.064  1.00  0.00     0.052 A 
ATOM      6  C   UNL A   1      33.464  22.121  23.941  1.00  0.00     0.052 A 
ATOM      7  C   UNL A   1      32.613  21.246  23.195  1.00  0.00     0.014 A 
ATOM      8  C   UNL A   1      32.506  19.888  23.459  1.00  0.00     0.001 A 
ATOM      9  C   UNL A   1      34.007  20.215  25.303  1.00  0.00     0.014 A 
ATOM     10  C   UNL A   1      33.225  19.363  24.509  1.00  0.00     0.001 A 
BRANCH   6  11
ATOM     11  C   UNL A   1      33.608  23.432  23.232  1.00  0.00     0.255 C 
ATOM     12  O   UNL A   1      34.601  23.602  22.524  1.00  0.00    -0.269 OA
BRANCH  11  13
ATOM     13  N   UNL A   1      32.781  24.503  23.546  1.00  0.00    -0.332 N 
BRANCH  13  14
ATOM     14  C   UNL A   1      31.973  24.912  22.381  1.00  0.00     0.117 C 
ATOM     15  C   UNL A   1      32.144  26.354  21.926  1.00  0.00     0.027 C 
ENDBRANCH  13  14
BRANCH  13  16
ATOM     16  C   UNL A   1      32.262  24.637  24.979  1.00  0.00     0.118 C 
BRANCH  16  17
ATOM     17  C   UNL A   1      32.402  26.113  25.574  1.00  0.00    -0.025 A 
ATOM     18  C   UNL A   1      31.354  27.031  25.619  1.00  0.00     0.006 A 
ATOM     19  C   UNL A   1      33.596  26.626  26.121  1.00  0.00     0.006 A 
ATOM     20  C   UNL A   1      31.541  28.396  25.928  1.00  0.00     0.000 A 
ATOM     21  C   UNL A   1      33.809  27.990  26.407  1.00  0.00     0.000 A 
ATOM     22  C   UNL A   1      32.784  28.895  26.260  1.00  0.00     0.000 A 
ENDBRANCH  16  17
BRANCH  16  23
ATOM     23  C   UNL A   1      30.850  23.935  25.222  1.00  0.00     0.058 C 
BRANCH  23  24
ATOM     24  C   UNL A   1      30.452  23.363  26.597  1.00  0.00     0.158 C 
BRANCH  24  25
ATOM     25  O   UNL A   1      29.770  22.111  26.531  1.00  0.00    -0.396 OA
ATOM     26  H   UNL A   1      29.071  22.159  25.860  1.00  0.00     0.210 HD
ENDBRANCH  24  25
ENDBRANCH  23  24
ENDBRANCH  16  23
ENDBRANCH  13  16
ENDBRANCH  11  13
ENDBRANCH   6  11
ENDBRANCH   1   5
BRANCH   3  27
ATOM     27  C   UNL A   1      37.501  21.675  24.941  1.00  0.00     0.118 C 
BRANCH  27  28
ATOM     28  C   UNL A   1      38.802  21.165  25.594  1.00  0.00     0.042 C 
BRANCH  28  29
ATOM     29  C   UNL A   1      39.168  19.654  25.628  1.00  0.00     0.118 C 
BRANCH  29  30
ATOM     30  N   UNL A   1      40.461  19.165  26.130  1.00  0.00    -0.352 N 
ATOM     31  C   UNL A   1      41.603  19.683  26.720  1.00  0.00     0.251 C 
ATOM     32  H   UNL A   1      40.538  18.190  26.013  1.00  0.00     0.163 HD
ATOM     33  O   UNL A   1      42.464  18.887  27.100  1.00  0.00    -0.269 OA
BRANCH  31  34
ATOM     34  C   UNL A   1      41.899  21.131  26.786  1.00  0.00     0.039 A 
ATOM     35  C   UNL A   1      42.226  21.847  25.612  1.00  0.00     0.014 A 
ATOM     36  C   UNL A   1      41.785  21.806  27.986  1.00  0.00     0.014 A 
ATOM     37  C   UNL A   1      42.317  23.249  25.634  1.00  0.00     0.010 A 
ATOM     38  C   UNL A   1      41.779  23.192  27.992  1.00  0.00     0.010 A 
ATOM     39  C   UNL A   1      42.060  23.931  26.826  1.00  0.00    -0.014 A 
BRANCH  39  40
ATOM     40  C   UNL A   1      42.243  25.394  27.010  1.00  0.00     0.031 A 
ATOM     41  C   UNL A   1      43.582  25.951  26.608  1.00  0.00     0.074 A 
ATOM     42  C   UNL A   1      41.350  26.158  27.664  1.00  0.00     0.049 A 
ATOM     43  N   UNL A   1      44.196  27.028  27.014  1.00  0.00    -0.248 NA
ATOM     44  C   UNL A   1      44.380  25.099  25.710  1.00  0.00     0.031 C 
ATOM     45  C   UNL A   1      40.020  25.740  28.106  1.00  0.00     0.029 A 
ATOM     46  N   UNL A   1      41.454  27.455  28.103  1.00  0.00    -0.354 N 
ATOM     47  C   UNL A   1      45.481  26.935  26.489  1.00  0.00     0.074 A 
ATOM     48  C   UNL A   1      45.573  25.656  25.819  1.00  0.00     0.031 C 
ATOM     49  C   UNL A   1      39.431  26.766  28.749  1.00  0.00     0.029 A 
ATOM     50  C   UNL A   1      40.360  27.892  28.815  1.00  0.00     0.049 A 
ATOM     51  H   UNL A   1      42.240  28.021  27.924  1.00  0.00     0.167 HD
ATOM     52  C   UNL A   1      46.481  27.847  26.534  1.00  0.00     0.034 A 
ATOM     53  C   UNL A   1      40.156  29.058  29.461  1.00  0.00     0.034 A 
ATOM     54  C   UNL A   1      46.323  29.146  27.134  1.00  0.00     0.049 A 
ATOM     55  C   UNL A   1      41.269  30.086  29.470  1.00  0.00     0.074 A 
ATOM     56  C   UNL A   1      47.225  30.192  27.178  1.00  0.00     0.029 A 
ATOM     57  N   UNL A   1      45.171  29.581  27.776  1.00  0.00    -0.354 N 
ATOM     58  N   UNL A   1      42.481  30.002  28.966  1.00  0.00    -0.248 NA
ATOM     59  C   UNL A   1      40.985  31.367  30.131  1.00  0.00     0.031 C 
ATOM     60  C   UNL A   1      46.635  31.243  27.888  1.00  0.00     0.029 A 
ATOM     61  C   UNL A   1      45.340  30.880  28.223  1.00  0.00     0.049 A 
ATOM     62  H   UNL A   1      44.354  29.045  27.895  1.00  0.00     0.167 HD
ATOM     63  C   UNL A   1      43.082  31.236  29.209  1.00  0.00     0.074 A 
ATOM     64  C   UNL A   1      42.099  32.045  29.898  1.00  0.00     0.031 C 
ATOM     65  C   UNL A   1      44.329  31.669  28.890  1.00  0.00     0.034 A 
BRANCH  52  66
ATOM     66  C   UNL A   1      47.805  27.455  25.925  1.00  0.00     0.023 A 
ATOM     67  C   UNL A   1      48.089  27.687  24.567  1.00  0.00     0.031 A 
ATOM     68  C   UNL A   1      48.769  26.771  26.686  1.00  0.00     0.131 A 
ATOM     69  C   UNL A   1      49.238  27.134  23.987  1.00  0.00     0.055 A 
ATOM     70  C   UNL A   1      49.966  26.320  26.125  1.00  0.00     0.041 A 
ATOM     71  F   UNL A   1      48.550  26.499  27.982  1.00  0.00    -0.206 F 
ATOM     72  C   UNL A   1      50.195  26.480  24.762  1.00  0.00     0.022 A 
BRANCH  69  73
ATOM     73  S   UNL A   1      49.359  27.117  22.177  1.00  0.00     0.124 S 
ATOM     74  O   UNL A   1      48.751  28.401  21.832  1.00  0.00    -0.237 OA
ATOM     75  O   UNL A   1      50.795  27.011  21.955  1.00  0.00    -0.237 OA
ATOM     76  O   UNL A   1      48.577  25.942  21.793  1.00  0.00    -0.744 OA
ENDBRANCH  69  73
ENDBRANCH  52  66
BRANCH  53  77
ATOM     77  C   UNL A   1      38.864  29.339  30.155  1.00  0.00     0.023 A 
ATOM     78  C   UNL A   1      37.904  30.177  29.561  1.00  0.00     0.031 A 
ATOM     79  C   UNL A   1      38.590  28.836  31.438  1.00  0.00     0.131 A 
ATOM     80  C   UNL A   1      36.747  30.537  30.272  1.00  0.00     0.055 A 
ATOM     81  C   UNL A   1      37.410  29.150  32.117  1.00  0.00     0.041 A 
ATOM     82  F   UNL A   1      39.468  28.028  32.054  1.00  0.00    -0.206 F 
ATOM     83  C   UNL A   1      36.487  30.018  31.541  1.00  0.00     0.022 A 
BRANCH  80  84
ATOM     84  S   UNL A   1      35.635  31.775  29.549  1.00  0.00     0.124 S 
ATOM     85  O   UNL A   1      34.972  31.000  28.504  1.00  0.00    -0.237 OA
ATOM     86  O   UNL A   1      34.810  32.146  30.693  1.00  0.00    -0.237 OA
ATOM     87  O   UNL A   1      36.544  32.814  29.074  1.00  0.00    -0.744 OA
ENDBRANCH  80  84
ENDBRANCH  53  77
BRANCH  65  88
ATOM     88  C   UNL A   1      44.670  33.103  29.209  1.00  0.00     0.023 A 
ATOM     89  C   UNL A   1      44.403  34.150  28.313  1.00  0.00     0.031 A 
ATOM     90  C   UNL A   1      45.251  33.422  30.451  1.00  0.00     0.131 A 
ATOM     91  C   UNL A   1      44.758  35.464  28.652  1.00  0.00     0.055 A 
ATOM     92  C   UNL A   1      45.544  34.739  30.808  1.00  0.00     0.041 A 
ATOM     93  F   UNL A   1      45.527  32.459  31.345  1.00  0.00    -0.206 F 
ATOM     94  C   UNL A   1      45.308  35.767  29.902  1.00  0.00     0.022 A 
BRANCH  91  95
ATOM     95  S   UNL A   1      44.568  36.767  27.406  1.00  0.00     0.124 S 
ATOM     96  O   UNL A   1      45.876  36.759  26.757  1.00  0.00    -0.237 OA
ATOM     97  O   UNL A   1      43.455  36.271  26.603  1.00  0.00    -0.237 OA
ATOM     98  O   UNL A   1      44.276  37.960  28.198  1.00  0.00    -0.744 OA
ENDBRANCH  91  95
ENDBRANCH  65  88
ENDBRANCH  39  40
ENDBRANCH  31  34
ENDBRANCH  29  30
ENDBRANCH  28  29
ENDBRANCH  27  28
ENDBRANCH   3  27
TORSDOF 21
ENDMDL
MODEL 2
REMARK VINA RESULT:     -11.8      5.672      9.156
REMARK SMILES CCN(C(=O)c1ccccc1C(=O)NCCCNC(=O)c1ccc(-c2c3nc(c(-c4cc(S(=O)(=O)[O-])ccc4F)c4ccc([nH]4)c(-c4cc(S(=O)(=O)[O-])ccc4F)c4nc(c(-c5cc(S(=O)(=O)[O-])ccc5F)c5ccc2[nH]5)C=C4)C=C3)cc1)[C@H](CCO)c1ccccc1
REMARK SMILES IDX 12 1 13 2 14 3 11 5 6 6 7 7 8 8 10 9 9 10 4 11 5 12 3 13
REMARK SMILES IDX 2 14 1 15 84 16 88 17 89 18 93 19 90 20 92 21 91 22 85 23
REMARK SMILES IDX 86 24 87 25 15 27 16 28 17 29 18 30 19 31 20 33 21 34 22 35
REMARK SMILES IDX 83 36 23 37 82 38 24 39 25 40 26 41 76 42 27 43 81 44 75 45
REMARK SMILES IDX 77 46 28 47 80 48 74 49 73 50 29 52 61 53 41 54 60 55 42 56
REMARK SMILES IDX 45 57 59 58 78 59 43 60 44 61 58 63 79 64 46 65 30 66 31 67
REMARK SMILES IDX 39 68 32 69 38 70 40 71 37 72 33 73 34 74 35 75 36 76 62 77
REMARK SMILES IDX 63 78 71 79 64 80 70 81 72 82 69 83 65 84 66 85 67 86 68 87
REMARK SMILES IDX 47 88 48 89 56 90 49 91 55 92 57 93 54 94 50 95 51 96 52 97
REMARK SMILES IDX 53 98
REMARK H PARENT 14 4 87 26 18 32 77 51 45 62
REMARK Flexibility Score: inf
ROOT
ATOM      1  C   UNL A   1      33.030  28.619  24.600  1.00  0.00     0.252 C 
ATOM      2  O   UNL A   1      33.927  28.608  23.743  1.00  0.00    -0.269 OA
ATOM      3  N   UNL A   1      33.459  28.984  25.857  1.00  0.00    -0.352 N 
ATOM      4  H   UNL A   1      34.438  29.010  25.940  1.00  0.00     0.163 HD
ENDROOT
BRANCH   1   5
ATOM      5  C   UNL A   1      31.676  28.127  24.150  1.00  0.00     0.052 A 
ATOM      6  C   UNL A   1      30.953  26.949  24.422  1.00  0.00     0.052 A 
ATOM      7  C   UNL A   1      29.615  26.826  23.933  1.00  0.00     0.014 A 
ATOM      8  C   UNL A   1      28.947  27.857  23.287  1.00  0.00     0.001 A 
ATOM      9  C   UNL A   1      30.953  29.161  23.479  1.00  0.00     0.014 A 
ATOM     10  C   UNL A   1      29.614  29.043  23.077  1.00  0.00     0.001 A 
BRANCH   6  11
ATOM     11  C   UNL A   1      31.278  25.807  25.335  1.00  0.00     0.255 C 
ATOM     12  O   UNL A   1      31.108  25.966  26.543  1.00  0.00    -0.269 OA
BRANCH  11  13
ATOM     13  N   UNL A   1      31.968  24.696  24.865  1.00  0.00    -0.332 N 
BRANCH  13  14
ATOM     14  C   UNL A   1      31.105  23.500  24.849  1.00  0.00     0.117 C 
ATOM     15  C   UNL A   1      31.362  22.478  25.947  1.00  0.00     0.027 C 
ENDBRANCH  13  14
BRANCH  13  16
ATOM     16  C   UNL A   1      33.085  24.904  23.841  1.00  0.00     0.118 C 
BRANCH  16  17
ATOM     17  C   UNL A   1      34.451  24.171  24.228  1.00  0.00    -0.025 A 
ATOM     18  C   UNL A   1      35.028  24.230  25.496  1.00  0.00     0.006 A 
ATOM     19  C   UNL A   1      35.199  23.386  23.327  1.00  0.00     0.006 A 
ATOM     20  C   UNL A   1      36.339  23.780  25.765  1.00  0.00     0.000 A 
ATOM     21  C   UNL A   1      36.519  22.954  23.568  1.00  0.00     0.000 A 
ATOM     22  C   UNL A   1      37.115  23.198  24.784  1.00  0.00     0.000 A 
ENDBRANCH  16  17
BRANCH  16  23
ATOM     23  C   UNL A   1      32.615  24.715  22.327  1.00  0.00     0.058 C 
BRANCH  23  24
ATOM     24  C   UNL A   1      32.750  25.846  21.287  1.00  0.00     0.158 C 
BRANCH  24  25
ATOM     25  O   UNL A   1      31.504  26.409  20.877  1.00  0.00    -0.396 OA
ATOM     26  H   UNL A   1      30.775  25.902  21.268  1.00  0.00     0.210 HD
ENDBRANCH  24  25
ENDBRANCH  23  24
ENDBRANCH  16  23
ENDBRANCH  13  16
ENDBRANCH  11  13
ENDBRANCH   6  11
ENDBRANCH   1   5
BRANCH   3  27
ATOM     27  C   UNL A   1      32.771  29.337  27.081  1.00  0.00     0.118 C 
BRANCH  27  28
ATOM     28  C   UNL A   1      32.138  30.743  27.138  1.00  0.00     0.042 C 
BRANCH  28  29
ATOM     29  C   UNL A   1      32.975  32.033  26.909  1.00  0.00     0.118 C 
BRANCH  29  30
ATOM     30  N   UNL A   1      32.656  33.309  27.568  1.00  0.00    -0.352 N 
ATOM     31  C   UNL A   1      33.225  34.161  28.500  1.00  0.00     0.251 C 
ATOM     32  H   UNL A   1      31.790  33.658  27.256  1.00  0.00     0.163 HD
ATOM     33  O   UNL A   1      32.658  35.233  28.720  1.00  0.00    -0.269 OA
BRANCH  31  34
ATOM     34  C   UNL A   1      34.386  33.790  29.340  1.00  0.00     0.039 A 
ATOM     35  C   UNL A   1      34.251  32.809  30.349  1.00  0.00     0.014 A 
ATOM     36  C   UNL A   1      35.625  34.347  29.093  1.00  0.00     0.014 A 
ATOM     37  C   UNL A   1      35.385  32.313  31.016  1.00  0.00     0.010 A 
ATOM     38  C   UNL A   1      36.752  33.793  29.677  1.00  0.00     0.010 A 
ATOM     39  C   UNL A   1      36.649  32.785  30.656  1.00  0.00    -0.014 A 
BRANCH  39  40
ATOM     40  C   UNL A   1      37.907  32.434  31.365  1.00  0.00     0.031 A 
ATOM     41  C   UNL A   1      38.736  31.341  30.746  1.00  0.00     0.074 A 
ATOM     42  C   UNL A   1      38.211  32.918  32.583  1.00  0.00     0.049 A 
ATOM     43  N   UNL A   1      39.603  30.536  31.293  1.00  0.00    -0.248 NA
ATOM     44  C   UNL A   1      38.445  31.051  29.331  1.00  0.00     0.031 C 
ATOM     45  C   UNL A   1      37.490  33.975  33.292  1.00  0.00     0.029 A 
ATOM     46  N   UNL A   1      39.202  32.545  33.458  1.00  0.00    -0.354 N 
ATOM     47  C   UNL A   1      39.894  29.593  30.313  1.00  0.00     0.074 A 
ATOM     48  C   UNL A   1      39.040  29.880  29.181  1.00  0.00     0.031 C 
ATOM     49  C   UNL A   1      38.070  34.168  34.493  1.00  0.00     0.029 A 
ATOM     50  C   UNL A   1      39.163  33.212  34.661  1.00  0.00     0.049 A 
ATOM     51  H   UNL A   1      39.878  31.863  33.244  1.00  0.00     0.167 HD
ATOM     52  C   UNL A   1      40.812  28.597  30.343  1.00  0.00     0.034 A 
ATOM     53  C   UNL A   1      39.912  33.044  35.770  1.00  0.00     0.034 A 
ATOM     54  C   UNL A   1      41.705  28.395  31.454  1.00  0.00     0.049 A 
ATOM     55  C   UNL A   1      40.963  31.952  35.776  1.00  0.00     0.074 A 
ATOM     56  C   UNL A   1      42.733  27.480  31.580  1.00  0.00     0.029 A 
ATOM     57  N   UNL A   1      41.688  29.145  32.623  1.00  0.00    -0.354 N 
ATOM     58  N   UNL A   1      41.244  31.066  34.846  1.00  0.00    -0.248 NA
ATOM     59  C   UNL A   1      41.800  31.843  36.978  1.00  0.00     0.031 C 
ATOM     60  C   UNL A   1      43.305  27.644  32.846  1.00  0.00     0.029 A 
ATOM     61  C   UNL A   1      42.684  28.710  33.479  1.00  0.00     0.049 A 
ATOM     62  H   UNL A   1      41.059  29.878  32.815  1.00  0.00     0.167 HD
ATOM     63  C   UNL A   1      42.320  30.328  35.335  1.00  0.00     0.074 A 
ATOM     64  C   UNL A   1      42.639  30.876  36.636  1.00  0.00     0.031 C 
ATOM     65  C   UNL A   1      42.991  29.294  34.764  1.00  0.00     0.034 A 
BRANCH  52  66
ATOM     66  C   UNL A   1      40.874  27.674  29.149  1.00  0.00     0.023 A 
ATOM     67  C   UNL A   1      41.836  27.844  28.137  1.00  0.00     0.031 A 
ATOM     68  C   UNL A   1      39.915  26.661  28.978  1.00  0.00     0.131 A 
ATOM     69  C   UNL A   1      41.742  27.104  26.951  1.00  0.00     0.055 A 
ATOM     70  C   UNL A   1      39.898  25.850  27.841  1.00  0.00     0.041 A 
ATOM     71  F   UNL A   1      38.958  26.462  29.896  1.00  0.00    -0.206 F 
ATOM     72  C   UNL A   1      40.800  26.085  26.808  1.00  0.00     0.022 A 
BRANCH  69  73
ATOM     73  S   UNL A   1      42.745  27.629  25.534  1.00  0.00     0.124 S 
ATOM     74  O   UNL A   1      44.026  27.920  26.175  1.00  0.00    -0.237 OA
ATOM     75  O   UNL A   1      42.716  26.456  24.671  1.00  0.00    -0.237 OA
ATOM     76  O   UNL A   1      42.030  28.800  25.025  1.00  0.00    -0.744 OA
ENDBRANCH  69  73
ENDBRANCH  52  66
BRANCH  53  77
ATOM     77  C   UNL A   1      39.718  33.911  36.970  1.00  0.00     0.023 A 
ATOM     78  C   UNL A   1      39.116  33.396  38.131  1.00  0.00     0.031 A 
ATOM     79  C   UNL A   1      40.065  35.272  36.962  1.00  0.00     0.131 A 
ATOM     80  C   UNL A   1      38.823  34.247  39.209  1.00  0.00     0.055 A 
ATOM     81  C   UNL A   1      39.826  36.102  38.061  1.00  0.00     0.041 A 
ATOM     82  F   UNL A   1      40.646  35.820  35.882  1.00  0.00    -0.206 F 
ATOM     83  C   UNL A   1      39.186  35.594  39.187  1.00  0.00     0.022 A 
BRANCH  80  84
ATOM     84  S   UNL A   1      37.868  33.584  40.603  1.00  0.00     0.124 S 
ATOM     85  O   UNL A   1      38.754  32.530  41.091  1.00  0.00    -0.237 OA
ATOM     86  O   UNL A   1      37.732  34.755  41.461  1.00  0.00    -0.237 OA
ATOM     87  O   UNL A   1      36.632  33.121  39.980  1.00  0.00    -0.744 OA
ENDBRANCH  80  84
ENDBRANCH  53  77
BRANCH  65  88
ATOM     88  C   UNL A   1      44.184  28.745  35.507  1.00  0.00     0.023 A 
ATOM     89  C   UNL A   1      45.481  29.244  35.307  1.00  0.00     0.031 A 
ATOM     90  C   UNL A   1      44.005  27.718  36.452  1.00  0.00     0.131 A 
ATOM     91  C   UNL A   1      46.558  28.684  36.010  1.00  0.00     0.055 A 
ATOM     92  C   UNL A   1      45.072  27.209  37.195  1.00  0.00     0.041 A 
ATOM     93  F   UNL A   1      42.786  27.204  36.683  1.00  0.00    -0.206 F 
ATOM     94  C   UNL A   1      46.359  27.684  36.967  1.00  0.00     0.022 A 
BRANCH  91  95
ATOM     95  S   UNL A   1      48.240  29.223  35.600  1.00  0.00     0.124 S 
ATOM     96  O   UNL A   1      47.988  30.340  34.694  1.00  0.00    -0.237 OA
ATOM     97  O   UNL A   1      48.783  29.574  36.908  1.00  0.00    -0.237 OA
ATOM     98  O   UNL A   1      48.837  28.043  34.978  1.00  0.00    -0.744 OA
ENDBRANCH  91  95
ENDBRANCH  65  88
ENDBRANCH  39  40
ENDBRANCH  31  34
ENDBRANCH  29  30
ENDBRANCH  28  29
ENDBRANCH  27  28
ENDBRANCH   3  27
TORSDOF 21
ENDMDL
MODEL 3
REMARK VINA RESULT:     -11.8      1.291      1.474
REMARK SMILES CCN(C(=O)c1ccccc1C(=O)NCCCNC(=O)c1ccc(-c2c3nc(c(-c4cc(S(=O)(=O)[O-])ccc4F)c4ccc([nH]4)c(-c4cc(S(=O)(=O)[O-])ccc4F)c4nc(c(-c5cc(S(=O)(=O)[O-])ccc5F)c5ccc2[nH]5)C=C4)C=C3)cc1)[C@H](CCO)c1ccccc1
REMARK SMILES IDX 12 1 13 2 14 3 11 5 6 6 7 7 8 8 10 9 9 10 4 11 5 12 3 13
REMARK SMILES IDX 2 14 1 15 84 16 88 17 89 18 93 19 90 20 92 21 91 22 85 23
REMARK SMILES IDX 86 24 87 25 15 27 16 28 17 29 18 30 19 31 20 33 21 34 22 35
REMARK SMILES IDX 83 36 23 37 82 38 24 39 25 40 26 41 76 42 27 43 81 44 75 45
REMARK SMILES IDX 77 46 28 47 80 48 74 49 73 50 29 52 61 53 41 54 60 55 42 56
REMARK SMILES IDX 45 57 59 58 78 59 43 60 44 61 58 63 79 64 46 65 30 66 31 67
REMARK SMILES IDX 39 68 32 69 38 70 40 71 37 72 33 73 34 74 35 75 36 76 62 77
REMARK SMILES IDX 63 78 71 79 64 80 70 81 72 82 69 83 65 84 66 85 67 86 68 87
REMARK SMILES IDX 47 88 48 89 56 90 49 91 55 92 57 93 54 94 50 95 51 96 52 97
REMARK SMILES IDX 53 98
REMARK H PARENT 14 4 87 26 18 32 77 51 45 62
REMARK Flexibility Score: inf
ROOT
ATOM      1  C   UNL A   1      35.172  22.336  26.043  1.00  0.00     0.252 C 
ATOM      2  O   UNL A   1      34.755  22.915  27.057  1.00  0.00    -0.269 OA
ATOM      3  N   UNL A   1      36.532  22.446  25.853  1.00  0.00    -0.352 N 
ATOM      4  H   UNL A   1      36.953  23.112  26.441  1.00  0.00     0.163 HD
ENDROOT
BRANCH   1   5
ATOM      5  C   UNL A   1      34.122  21.723  25.149  1.00  0.00     0.052 A 
ATOM      6  C   UNL A   1      33.366  22.238  24.078  1.00  0.00     0.052 A 
ATOM      7  C   UNL A   1      32.520  21.354  23.336  1.00  0.00     0.014 A 
ATOM      8  C   UNL A   1      32.483  19.984  23.551  1.00  0.00     0.001 A 
ATOM      9  C   UNL A   1      34.050  20.308  25.339  1.00  0.00     0.014 A 
ATOM     10  C   UNL A   1      33.271  19.452  24.547  1.00  0.00     0.001 A 
BRANCH   6  11
ATOM     11  C   UNL A   1      33.420  23.579  23.415  1.00  0.00     0.255 C 
ATOM     12  O   UNL A   1      34.384  23.829  22.692  1.00  0.00    -0.269 OA
BRANCH  11  13
ATOM     13  N   UNL A   1      32.544  24.591  23.787  1.00  0.00    -0.332 N 
BRANCH  13  14
ATOM     14  C   UNL A   1      31.561  24.864  22.723  1.00  0.00     0.117 C 
ATOM     15  C   UNL A   1      31.546  26.285  22.177  1.00  0.00     0.027 C 
ENDBRANCH  13  14
BRANCH  13  16
ATOM     16  C   UNL A   1      32.203  24.760  25.269  1.00  0.00     0.118 C 
BRANCH  16  17
ATOM     17  C   UNL A   1      32.446  26.241  25.816  1.00  0.00    -0.025 A 
ATOM     18  C   UNL A   1      31.425  27.170  26.014  1.00  0.00     0.006 A 
ATOM     19  C   UNL A   1      33.715  26.748  26.163  1.00  0.00     0.006 A 
ATOM     20  C   UNL A   1      31.669  28.537  26.273  1.00  0.00     0.000 A 
ATOM     21  C   UNL A   1      33.981  28.113  26.395  1.00  0.00     0.000 A 
ATOM     22  C   UNL A   1      32.953  29.026  26.400  1.00  0.00     0.000 A 
ENDBRANCH  16  17
BRANCH  16  23
ATOM     23  C   UNL A   1      30.813  24.097  25.690  1.00  0.00     0.058 C 
BRANCH  23  24
ATOM     24  C   UNL A   1      30.741  22.927  26.691  1.00  0.00     0.158 C 
BRANCH  24  25
ATOM     25  O   UNL A   1      29.567  22.125  26.564  1.00  0.00    -0.396 OA
ATOM     26  H   UNL A   1      28.787  22.700  26.507  1.00  0.00     0.210 HD
ENDBRANCH  24  25
ENDBRANCH  23  24
ENDBRANCH  16  23
ENDBRANCH  13  16
ENDBRANCH  11  13
ENDBRANCH   6  11
ENDBRANCH   1   5
BRANCH   3  27
ATOM     27  C   UNL A   1      37.471  21.787  24.970  1.00  0.00     0.118 C 
BRANCH  27  28
ATOM     28  C   UNL A   1      38.775  21.269  25.610  1.00  0.00     0.042 C 
BRANCH  28  29
ATOM     29  C   UNL A   1      39.087  19.750  25.727  1.00  0.00     0.118 C 
BRANCH  29  30
ATOM     30  N   UNL A   1      40.402  19.243  26.149  1.00  0.00    -0.352 N 
ATOM     31  C   UNL A   1      41.577  19.742  26.689  1.00  0.00     0.251 C 
ATOM     32  H   UNL A   1      40.466  18.271  26.008  1.00  0.00     0.163 HD
ATOM     33  O   UNL A   1      42.452  18.934  27.005  1.00  0.00    -0.269 OA
BRANCH  31  34
ATOM     34  C   UNL A   1      41.885  21.187  26.769  1.00  0.00     0.039 A 
ATOM     35  C   UNL A   1      42.256  21.904  25.609  1.00  0.00     0.014 A 
ATOM     36  C   UNL A   1      41.740  21.860  27.967  1.00  0.00     0.014 A 
ATOM     37  C   UNL A   1      42.361  23.305  25.639  1.00  0.00     0.010 A 
ATOM     38  C   UNL A   1      41.747  23.245  27.979  1.00  0.00     0.010 A 
ATOM     39  C   UNL A   1      42.074  23.985  26.825  1.00  0.00    -0.014 A 
BRANCH  39  40
ATOM     40  C   UNL A   1      42.265  25.445  27.019  1.00  0.00     0.031 A 
ATOM     41  C   UNL A   1      43.605  25.999  26.615  1.00  0.00     0.074 A 
ATOM     42  C   UNL A   1      41.380  26.209  27.685  1.00  0.00     0.049 A 
ATOM     43  N   UNL A   1      44.227  27.070  27.025  1.00  0.00    -0.248 NA
ATOM     44  C   UNL A   1      44.392  25.150  25.704  1.00  0.00     0.031 C 
ATOM     45  C   UNL A   1      40.051  25.794  28.132  1.00  0.00     0.029 A 
ATOM     46  N   UNL A   1      41.494  27.502  28.135  1.00  0.00    -0.354 N 
ATOM     47  C   UNL A   1      45.508  26.974  26.491  1.00  0.00     0.074 A 
ATOM     48  C   UNL A   1      45.589  25.700  25.810  1.00  0.00     0.031 C 
ATOM     49  C   UNL A   1      39.471  26.817  28.788  1.00  0.00     0.029 A 
ATOM     50  C   UNL A   1      40.407  27.938  28.857  1.00  0.00     0.049 A 
ATOM     51  H   UNL A   1      42.282  28.065  27.956  1.00  0.00     0.167 HD
ATOM     52  C   UNL A   1      46.513  27.880  26.538  1.00  0.00     0.034 A 
ATOM     53  C   UNL A   1      40.213  29.100  29.515  1.00  0.00     0.034 A 
ATOM     54  C   UNL A   1      46.366  29.175  27.150  1.00  0.00     0.049 A 
ATOM     55  C   UNL A   1      41.332  30.122  29.525  1.00  0.00     0.074 A 
ATOM     56  C   UNL A   1      47.273  30.216  27.197  1.00  0.00     0.029 A 
ATOM     57  N   UNL A   1      45.220  29.611  27.803  1.00  0.00    -0.354 N 
ATOM     58  N   UNL A   1      42.539  30.036  29.013  1.00  0.00    -0.248 NA
ATOM     59  C   UNL A   1      41.058  31.399  30.198  1.00  0.00     0.031 C 
ATOM     60  C   UNL A   1      46.694  31.264  27.919  1.00  0.00     0.029 A 
ATOM     61  C   UNL A   1      45.398  30.905  28.260  1.00  0.00     0.049 A 
ATOM     62  H   UNL A   1      44.401  29.078  27.922  1.00  0.00     0.167 HD
ATOM     63  C   UNL A   1      43.149  31.265  29.262  1.00  0.00     0.074 A 
ATOM     64  C   UNL A   1      42.174  32.073  29.964  1.00  0.00     0.031 C 
ATOM     65  C   UNL A   1      44.397  31.693  28.939  1.00  0.00     0.034 A 
BRANCH  52  66
ATOM     66  C   UNL A   1      47.832  27.486  25.917  1.00  0.00     0.023 A 
ATOM     67  C   UNL A   1      48.121  27.758  24.568  1.00  0.00     0.031 A 
ATOM     68  C   UNL A   1      48.782  26.762  26.656  1.00  0.00     0.131 A 
ATOM     69  C   UNL A   1      49.261  27.205  23.970  1.00  0.00     0.055 A 
ATOM     70  C   UNL A   1      49.972  26.310  26.082  1.00  0.00     0.041 A 
ATOM     71  F   UNL A   1      48.557  26.451  27.942  1.00  0.00    -0.206 F 
ATOM     72  C   UNL A   1      50.206  26.510  24.724  1.00  0.00     0.022 A 
BRANCH  69  73
ATOM     73  S   UNL A   1      49.384  27.246  22.161  1.00  0.00     0.124 S 
ATOM     74  O   UNL A   1      48.720  28.511  21.852  1.00  0.00    -0.237 OA
ATOM     75  O   UNL A   1      50.823  27.211  21.939  1.00  0.00    -0.237 OA
ATOM     76  O   UNL A   1      48.656  26.049  21.742  1.00  0.00    -0.744 OA
ENDBRANCH  69  73
ENDBRANCH  52  66
BRANCH  53  77
ATOM     77  C   UNL A   1      38.927  29.382  30.219  1.00  0.00     0.023 A 
ATOM     78  C   UNL A   1      37.967  30.229  29.638  1.00  0.00     0.031 A 
ATOM     79  C   UNL A   1      38.659  28.871  31.500  1.00  0.00     0.131 A 
ATOM     80  C   UNL A   1      36.817  30.589  30.358  1.00  0.00     0.055 A 
ATOM     81  C   UNL A   1      37.484  29.185  32.189  1.00  0.00     0.041 A 
ATOM     82  F   UNL A   1      39.537  28.054  32.104  1.00  0.00    -0.206 F 
ATOM     83  C   UNL A   1      36.563  30.062  31.625  1.00  0.00     0.022 A 
BRANCH  80  84
ATOM     84  S   UNL A   1      35.706  31.838  29.652  1.00  0.00     0.124 S 
ATOM     85  O   UNL A   1      35.072  31.089  28.570  1.00  0.00    -0.237 OA
ATOM     86  O   UNL A   1      34.855  32.164  30.790  1.00  0.00    -0.237 OA
ATOM     87  O   UNL A   1      36.613  32.900  29.228  1.00  0.00    -0.744 OA
ENDBRANCH  80  84
ENDBRANCH  53  77
BRANCH  65  88
ATOM     88  C   UNL A   1      44.747  33.123  29.268  1.00  0.00     0.023 A 
ATOM     89  C   UNL A   1      45.377  33.479  30.472  1.00  0.00     0.031 A 
ATOM     90  C   UNL A   1      44.464  34.142  28.339  1.00  0.00     0.131 A 
ATOM     91  C   UNL A   1      45.663  34.826  30.736  1.00  0.00     0.055 A 
ATOM     92  C   UNL A   1      44.809  35.472  28.581  1.00  0.00     0.041 A 
ATOM     93  F   UNL A   1      43.864  33.857  27.173  1.00  0.00    -0.206 F 
ATOM     94  C   UNL A   1      45.402  35.822  29.790  1.00  0.00     0.022 A 
BRANCH  91  95
ATOM     95  S   UNL A   1      46.309  35.275  32.369  1.00  0.00     0.124 S 
ATOM     96  O   UNL A   1      45.084  35.551  33.114  1.00  0.00    -0.237 OA
ATOM     97  O   UNL A   1      47.035  34.071  32.760  1.00  0.00    -0.237 OA
ATOM     98  O   UNL A   1      47.147  36.442  32.098  1.00  0.00    -0.744 OA
ENDBRANCH  91  95
ENDBRANCH  65  88
ENDBRANCH  39  40
ENDBRANCH  31  34
ENDBRANCH  29  30
ENDBRANCH  28  29
ENDBRANCH  27  28
ENDBRANCH   3  27
TORSDOF 21
ENDMDL
