MODEL 1
REMARK VINA RESULT:     -12.4      0.000      0.000
REMARK SMILES CS(=O)(=O)c1ccc(C2=NN(c3ccc(C(=O)NCCCNC(=O)c4ccc(-c5c6nc(c(-c7cc(S(=O)(=O)[O-])ccc7F)c7ccc([nH]7)c(-c7cc(S(=O)(=O)[O-])ccc7F)c7nc(c(-c8cc(S(=O)(=O)[O-])ccc8F)c8ccc5[nH]8)C=C7)C=C6)cc4)cc3)[C@H](c3cccs3)C2)cc1
REMARK SMILES IDX 20 1 19 2 18 3 16 4 17 5 15 7 12 8 13 9 89 10 14 11 88 12
REMARK SMILES IDX 11 13 9 14 10 15 96 16 90 17 8 18 5 19 6 20 98 21 7 22 97 23
REMARK SMILES IDX 2 24 1 25 3 26 4 27 91 28 92 29 95 30 93 31 94 32 21 33
REMARK SMILES IDX 22 34 23 35 24 37 25 38 26 39 87 40 27 41 86 42 28 43 29 44
REMARK SMILES IDX 30 45 80 46 31 47 85 48 79 49 81 50 32 51 84 52 78 53 77 54
REMARK SMILES IDX 33 56 65 57 45 58 64 59 46 60 49 61 63 62 82 63 47 64 48 65
REMARK SMILES IDX 62 67 83 68 50 69 34 70 35 71 43 72 36 73 42 74 44 75 41 76
REMARK SMILES IDX 37 77 38 78 39 79 40 80 66 81 67 82 75 83 68 84 74 85 76 86
REMARK SMILES IDX 73 87 69 88 70 89 71 90 72 91 51 92 52 93 60 94 53 95 59 96
REMARK SMILES IDX 61 97 58 98 54 99 55 100 56 101 57 102
REMARK H PARENT 18 6 22 36 81 55 49 66
REMARK Flexibility Score: inf
ROOT
ATOM      1  C   UNL A   1      37.864  20.165  24.936  1.00  0.00     0.042 C 
ENDROOT
BRANCH   1   2
ATOM      2  C   UNL A   1      36.643  21.082  24.980  1.00  0.00     0.118 C 
BRANCH   2   3
ATOM      3  N   UNL A   1      35.588  20.521  25.808  1.00  0.00    -0.352 N 
ATOM      4  C   UNL A   1      34.451  21.079  26.335  1.00  0.00     0.251 C 
ATOM      5  O   UNL A   1      33.661  20.341  26.924  1.00  0.00    -0.269 OA
ATOM      6  H   UNL A   1      35.711  19.570  26.030  1.00  0.00     0.163 HD
BRANCH   4   7
ATOM      7  C   UNL A   1      34.114  22.518  26.164  1.00  0.00     0.039 A 
ATOM      8  C   UNL A   1      33.312  25.196  25.788  1.00  0.00     0.060 A 
ATOM      9  C   UNL A   1      32.419  24.254  26.304  1.00  0.00     0.029 A 
ATOM     10  C   UNL A   1      34.625  24.798  25.533  1.00  0.00     0.029 A 
ATOM     11  C   UNL A   1      32.811  22.923  26.484  1.00  0.00     0.016 A 
ATOM     12  C   UNL A   1      35.030  23.481  25.744  1.00  0.00     0.016 A 
BRANCH   8  13
ATOM     13  N   UNL A   1      32.940  26.509  25.570  1.00  0.00    -0.257 N 
ATOM     14  C   UNL A   1      32.710  28.532  26.135  1.00  0.00     0.071 C 
ATOM     15  N   UNL A   1      33.403  27.471  26.395  1.00  0.00    -0.176 NA
ATOM     16  C   UNL A   1      31.597  28.373  25.138  1.00  0.00     0.091 C 
ATOM     17  C   UNL A   1      31.832  26.916  24.700  1.00  0.00     0.154 C 
BRANCH  14  18
ATOM     18  C   UNL A   1      33.013  29.818  26.765  1.00  0.00    -0.002 A 
ATOM     19  C   UNL A   1      33.545  32.320  27.841  1.00  0.00     0.067 A 
ATOM     20  C   UNL A   1      32.352  32.114  27.147  1.00  0.00     0.021 A 
ATOM     21  C   UNL A   1      34.475  31.280  27.991  1.00  0.00     0.021 A 
ATOM     22  C   UNL A   1      32.093  30.860  26.596  1.00  0.00     0.011 A 
ATOM     23  C   UNL A   1      34.203  30.017  27.461  1.00  0.00     0.011 A 
BRANCH  19  24
ATOM     24  S   UNL A   1      33.957  33.902  28.538  1.00  0.00     0.175 S 
ATOM     25  C   UNL A   1      35.032  33.607  29.914  1.00  0.00     0.163 C 
ATOM     26  O   UNL A   1      32.725  34.453  29.068  1.00  0.00    -0.224 OA
ATOM     27  O   UNL A   1      34.715  34.607  27.520  1.00  0.00    -0.224 OA
ENDBRANCH  19  24
ENDBRANCH  14  18
BRANCH  17  28
ATOM     28  C   UNL A   1      32.049  26.674  23.212  1.00  0.00     0.030 A 
ATOM     29  C   UNL A   1      31.185  26.001  22.361  1.00  0.00     0.017 A 
ATOM     30  S   UNL A   1      33.460  27.162  22.365  1.00  0.00    -0.147 S 
ATOM     31  C   UNL A   1      31.685  25.882  21.033  1.00  0.00     0.012 A 
ATOM     32  C   UNL A   1      32.906  26.497  20.893  1.00  0.00     0.065 A 
ENDBRANCH  17  28
ENDBRANCH   8  13
ENDBRANCH   4   7
ENDBRANCH   2   3
ENDBRANCH   1   2
BRANCH   1  33
ATOM     33  C   UNL A   1      38.962  20.572  25.912  1.00  0.00     0.118 C 
BRANCH  33  34
ATOM     34  N   UNL A   1      39.992  19.551  26.025  1.00  0.00    -0.352 N 
ATOM     35  C   UNL A   1      41.353  19.677  26.134  1.00  0.00     0.251 C 
ATOM     36  H   UNL A   1      39.659  18.624  26.022  1.00  0.00     0.163 HD
ATOM     37  O   UNL A   1      42.058  18.686  25.957  1.00  0.00    -0.269 OA
BRANCH  35  38
ATOM     38  C   UNL A   1      41.971  20.986  26.446  1.00  0.00     0.039 A 
ATOM     39  C   UNL A   1      42.280  21.849  25.391  1.00  0.00     0.014 A 
ATOM     40  C   UNL A   1      42.284  21.350  27.758  1.00  0.00     0.014 A 
ATOM     41  C   UNL A   1      42.850  23.096  25.658  1.00  0.00     0.010 A 
ATOM     42  C   UNL A   1      42.778  22.624  28.029  1.00  0.00     0.010 A 
ATOM     43  C   UNL A   1      43.070  23.510  26.982  1.00  0.00    -0.014 A 
BRANCH  43  44
ATOM     44  C   UNL A   1      43.594  24.869  27.280  1.00  0.00     0.031 A 
ATOM     45  C   UNL A   1      42.679  25.941  27.806  1.00  0.00     0.074 A 
ATOM     46  C   UNL A   1      44.889  25.146  27.027  1.00  0.00     0.049 A 
ATOM     47  N   UNL A   1      42.944  27.194  28.079  1.00  0.00    -0.248 NA
ATOM     48  C   UNL A   1      41.275  25.564  28.027  1.00  0.00     0.031 C 
ATOM     49  C   UNL A   1      45.861  24.197  26.477  1.00  0.00     0.029 A 
ATOM     50  N   UNL A   1      45.612  26.300  27.193  1.00  0.00    -0.354 N 
ATOM     51  C   UNL A   1      41.742  27.756  28.497  1.00  0.00     0.074 A 
ATOM     52  C   UNL A   1      40.736  26.721  28.379  1.00  0.00     0.031 C 
ATOM     53  C   UNL A   1      47.057  24.799  26.382  1.00  0.00     0.029 A 
ATOM     54  C   UNL A   1      46.929  26.187  26.812  1.00  0.00     0.049 A 
ATOM     55  H   UNL A   1      45.225  27.131  27.550  1.00  0.00     0.167 HD
ATOM     56  C   UNL A   1      41.505  29.010  28.957  1.00  0.00     0.034 A 
ATOM     57  C   UNL A   1      47.920  27.101  26.795  1.00  0.00     0.034 A 
ATOM     58  C   UNL A   1      42.524  30.027  29.069  1.00  0.00     0.049 A 
ATOM     59  C   UNL A   1      47.625  28.498  27.280  1.00  0.00     0.074 A 
ATOM     60  C   UNL A   1      42.407  31.313  29.568  1.00  0.00     0.029 A 
ATOM     61  N   UNL A   1      43.845  29.880  28.662  1.00  0.00    -0.354 N 
ATOM     62  N   UNL A   1      46.495  28.997  27.725  1.00  0.00    -0.248 NA
ATOM     63  C   UNL A   1      48.741  29.451  27.270  1.00  0.00     0.031 C 
ATOM     64  C   UNL A   1      43.631  31.966  29.392  1.00  0.00     0.029 A 
ATOM     65  C   UNL A   1      44.541  31.063  28.865  1.00  0.00     0.049 A 
ATOM     66  H   UNL A   1      44.231  29.057  28.284  1.00  0.00     0.167 HD
ATOM     67  C   UNL A   1      46.775  30.314  28.078  1.00  0.00     0.074 A 
ATOM     68  C   UNL A   1      48.183  30.522  27.811  1.00  0.00     0.031 C 
ATOM     69  C   UNL A   1      45.945  31.265  28.580  1.00  0.00     0.034 A 
BRANCH  56  70
ATOM     70  C   UNL A   1      40.085  29.356  29.344  1.00  0.00     0.023 A 
ATOM     71  C   UNL A   1      39.673  29.397  30.688  1.00  0.00     0.031 A 
ATOM     72  C   UNL A   1      39.122  29.627  28.356  1.00  0.00     0.131 A 
ATOM     73  C   UNL A   1      38.324  29.624  31.003  1.00  0.00     0.055 A 
ATOM     74  C   UNL A   1      37.800  29.938  28.680  1.00  0.00     0.041 A 
ATOM     75  F   UNL A   1      39.447  29.581  27.054  1.00  0.00    -0.206 F 
ATOM     76  C   UNL A   1      37.390  29.923  30.010  1.00  0.00     0.022 A 
BRANCH  73  77
ATOM     77  S   UNL A   1      37.781  29.374  32.716  1.00  0.00     0.124 S 
ATOM     78  O   UNL A   1      37.650  27.920  32.774  1.00  0.00    -0.237 OA
ATOM     79  O   UNL A   1      38.880  29.948  33.483  1.00  0.00    -0.237 OA
ATOM     80  O   UNL A   1      36.520  30.109  32.786  1.00  0.00    -0.744 OA
ENDBRANCH  73  77
ENDBRANCH  56  70
BRANCH  57  81
ATOM     81  C   UNL A   1      49.277  26.735  26.296  1.00  0.00     0.023 A 
ATOM     82  C   UNL A   1      49.733  27.179  25.044  1.00  0.00     0.031 A 
ATOM     83  C   UNL A   1      50.125  25.902  27.047  1.00  0.00     0.131 A 
ATOM     84  C   UNL A   1      50.977  26.748  24.560  1.00  0.00     0.055 A 
ATOM     85  C   UNL A   1      51.387  25.524  26.588  1.00  0.00     0.041 A 
ATOM     86  F   UNL A   1      49.741  25.451  28.253  1.00  0.00    -0.206 F 
ATOM     87  C   UNL A   1      51.815  25.936  25.329  1.00  0.00     0.022 A 
BRANCH  84  88
ATOM     88  S   UNL A   1      51.450  27.189  22.865  1.00  0.00     0.124 S 
ATOM     89  O   UNL A   1      52.564  26.282  22.621  1.00  0.00    -0.237 OA
ATOM     90  O   UNL A   1      50.222  26.911  22.127  1.00  0.00    -0.237 OA
ATOM     91  O   UNL A   1      51.805  28.603  22.968  1.00  0.00    -0.744 OA
ENDBRANCH  84  88
ENDBRANCH  57  81
BRANCH  69  92
ATOM     92  C   UNL A   1      46.558  32.604  28.913  1.00  0.00     0.023 A 
ATOM     93  C   UNL A   1      46.553  33.671  27.997  1.00  0.00     0.031 A 
ATOM     94  C   UNL A   1      47.178  32.808  30.160  1.00  0.00     0.131 A 
ATOM     95  C   UNL A   1      47.211  34.869  28.315  1.00  0.00     0.055 A 
ATOM     96  C   UNL A   1      47.768  34.026  30.497  1.00  0.00     0.041 A 
ATOM     97  F   UNL A   1      47.218  31.824  31.072  1.00  0.00    -0.206 F 
ATOM     98  C   UNL A   1      47.802  35.060  29.566  1.00  0.00     0.022 A 
BRANCH  95  99
ATOM     99  S   UNL A   1      47.385  36.135  27.027  1.00  0.00     0.124 S 
ATOM    100  O   UNL A   1      46.478  35.643  25.995  1.00  0.00    -0.237 OA
ATOM    101  O   UNL A   1      46.962  37.347  27.722  1.00  0.00    -0.237 OA
ATOM    102  O   UNL A   1      48.804  36.081  26.683  1.00  0.00    -0.744 OA
ENDBRANCH  95  99
ENDBRANCH  69  92
ENDBRANCH  43  44
ENDBRANCH  35  38
ENDBRANCH  33  34
ENDBRANCH   1  33
TORSDOF 17
ENDMDL
MODEL 2
REMARK VINA RESULT:     -12.0      4.675     10.658
REMARK SMILES CS(=O)(=O)c1ccc(C2=NN(c3ccc(C(=O)NCCCNC(=O)c4ccc(-c5c6nc(c(-c7cc(S(=O)(=O)[O-])ccc7F)c7ccc([nH]7)c(-c7cc(S(=O)(=O)[O-])ccc7F)c7nc(c(-c8cc(S(=O)(=O)[O-])ccc8F)c8ccc5[nH]8)C=C7)C=C6)cc4)cc3)[C@H](c3cccs3)C2)cc1
REMARK SMILES IDX 20 1 19 2 18 3 16 4 17 5 15 7 12 8 13 9 89 10 14 11 88 12
REMARK SMILES IDX 11 13 9 14 10 15 96 16 90 17 8 18 5 19 6 20 98 21 7 22 97 23
REMARK SMILES IDX 2 24 1 25 3 26 4 27 91 28 92 29 95 30 93 31 94 32 21 33
REMARK SMILES IDX 22 34 23 35 24 37 25 38 26 39 87 40 27 41 86 42 28 43 29 44
REMARK SMILES IDX 30 45 80 46 31 47 85 48 79 49 81 50 32 51 84 52 78 53 77 54
REMARK SMILES IDX 33 56 65 57 45 58 64 59 46 60 49 61 63 62 82 63 47 64 48 65
REMARK SMILES IDX 62 67 83 68 50 69 34 70 35 71 43 72 36 73 42 74 44 75 41 76
REMARK SMILES IDX 37 77 38 78 39 79 40 80 66 81 67 82 75 83 68 84 74 85 76 86
REMARK SMILES IDX 73 87 69 88 70 89 71 90 72 91 51 92 52 93 60 94 53 95 59 96
REMARK SMILES IDX 61 97 58 98 54 99 55 100 56 101 57 102
REMARK H PARENT 18 6 22 36 81 55 49 66
REMARK Flexibility Score: inf
ROOT
ATOM      1  C   UNL A   1      34.737  33.798  29.502  1.00  0.00     0.042 C 
ENDROOT
BRANCH   1   2
ATOM      2  C   UNL A   1      35.497  33.103  30.631  1.00  0.00     0.118 C 
BRANCH   2   3
ATOM      3  N   UNL A   1      35.728  34.004  31.747  1.00  0.00    -0.352 N 
ATOM      4  C   UNL A   1      36.871  34.607  32.209  1.00  0.00     0.251 C 
ATOM      5  O   UNL A   1      36.769  35.420  33.127  1.00  0.00    -0.269 OA
ATOM      6  H   UNL A   1      34.920  34.221  32.265  1.00  0.00     0.163 HD
BRANCH   4   7
ATOM      7  C   UNL A   1      38.205  34.361  31.598  1.00  0.00     0.039 A 
ATOM      8  C   UNL A   1      40.801  34.019  30.548  1.00  0.00     0.060 A 
ATOM      9  C   UNL A   1      40.615  34.285  31.907  1.00  0.00     0.029 A 
ATOM     10  C   UNL A   1      39.674  33.855  29.742  1.00  0.00     0.029 A 
ATOM     11  C   UNL A   1      39.329  34.463  32.429  1.00  0.00     0.016 A 
ATOM     12  C   UNL A   1      38.390  33.997  30.266  1.00  0.00     0.016 A 
BRANCH   8  13
ATOM     13  N   UNL A   1      42.061  33.872  30.001  1.00  0.00    -0.257 N 
ATOM     14  C   UNL A   1      43.786  32.765  29.487  1.00  0.00     0.071 C 
ATOM     15  N   UNL A   1      42.523  32.633  29.734  1.00  0.00    -0.176 NA
ATOM     16  C   UNL A   1      44.358  34.143  29.661  1.00  0.00     0.091 C 
ATOM     17  C   UNL A   1      43.073  34.933  29.969  1.00  0.00     0.154 C 
BRANCH  14  18
ATOM     18  C   UNL A   1      44.602  31.634  29.042  1.00  0.00    -0.002 A 
ATOM     19  C   UNL A   1      46.091  29.503  28.070  1.00  0.00     0.067 A 
ATOM     20  C   UNL A   1      45.986  30.667  27.307  1.00  0.00     0.021 A 
ATOM     21  C   UNL A   1      45.447  29.400  29.313  1.00  0.00     0.021 A 
ATOM     22  C   UNL A   1      45.226  31.731  27.792  1.00  0.00     0.011 A 
ATOM     23  C   UNL A   1      44.708  30.476  29.809  1.00  0.00     0.011 A 
BRANCH  19  24
ATOM     24  S   UNL A   1      47.012  28.095  27.499  1.00  0.00     0.175 S 
ATOM     25  C   UNL A   1      48.549  28.696  26.858  1.00  0.00     0.163 C 
ATOM     26  O   UNL A   1      46.270  27.540  26.384  1.00  0.00    -0.224 OA
ATOM     27  O   UNL A   1      47.299  27.296  28.677  1.00  0.00    -0.224 OA
ENDBRANCH  19  24
ENDBRANCH  14  18
BRANCH  17  28
ATOM     28  C   UNL A   1      42.755  36.109  29.056  1.00  0.00     0.030 A 
ATOM     29  C   UNL A   1      43.002  37.446  29.332  1.00  0.00     0.017 A 
ATOM     30  S   UNL A   1      41.971  35.950  27.538  1.00  0.00    -0.147 S 
ATOM     31  C   UNL A   1      42.542  38.324  28.310  1.00  0.00     0.012 A 
ATOM     32  C   UNL A   1      41.984  37.634  27.260  1.00  0.00     0.065 A 
ENDBRANCH  17  28
ENDBRANCH   8  13
ENDBRANCH   4   7
ENDBRANCH   2   3
ENDBRANCH   1   2
BRANCH   1  33
ATOM     33  C   UNL A   1      35.046  33.227  28.123  1.00  0.00     0.118 C 
BRANCH  33  34
ATOM     34  N   UNL A   1      34.145  32.139  27.773  1.00  0.00    -0.352 N 
ATOM     35  C   UNL A   1      34.390  30.796  27.643  1.00  0.00     0.251 C 
ATOM     36  H   UNL A   1      33.213  32.411  27.603  1.00  0.00     0.163 HD
ATOM     37  O   UNL A   1      33.551  30.090  27.089  1.00  0.00    -0.269 OA
BRANCH  35  38
ATOM     38  C   UNL A   1      35.650  30.204  28.147  1.00  0.00     0.039 A 
ATOM     39  C   UNL A   1      36.759  30.166  27.297  1.00  0.00     0.014 A 
ATOM     40  C   UNL A   1      35.734  29.649  29.427  1.00  0.00     0.014 A 
ATOM     41  C   UNL A   1      37.964  29.625  27.753  1.00  0.00     0.010 A 
ATOM     42  C   UNL A   1      36.956  29.183  29.906  1.00  0.00     0.010 A 
ATOM     43  C   UNL A   1      38.084  29.163  29.073  1.00  0.00    -0.014 A 
BRANCH  43  44
ATOM     44  C   UNL A   1      39.386  28.666  29.593  1.00  0.00     0.031 A 
ATOM     45  C   UNL A   1      40.077  29.379  30.724  1.00  0.00     0.074 A 
ATOM     46  C   UNL A   1      39.966  27.599  29.008  1.00  0.00     0.049 A 
ATOM     47  N   UNL A   1      41.235  29.122  31.279  1.00  0.00    -0.248 NA
ATOM     48  C   UNL A   1      39.390  30.551  31.287  1.00  0.00     0.031 C 
ATOM     49  C   UNL A   1      39.408  26.853  27.877  1.00  0.00     0.029 A 
ATOM     50  N   UNL A   1      41.148  26.957  29.276  1.00  0.00    -0.354 N 
ATOM     51  C   UNL A   1      41.419  30.102  32.248  1.00  0.00     0.074 A 
ATOM     52  C   UNL A   1      40.281  30.993  32.160  1.00  0.00     0.031 C 
ATOM     53  C   UNL A   1      40.232  25.839  27.571  1.00  0.00     0.029 A 
ATOM     54  C   UNL A   1      41.400  25.891  28.444  1.00  0.00     0.049 A 
ATOM     55  H   UNL A   1      41.760  27.234  29.996  1.00  0.00     0.167 HD
ATOM     56  C   UNL A   1      42.430  30.232  33.143  1.00  0.00     0.034 A 
ATOM     57  C   UNL A   1      42.457  25.057  28.380  1.00  0.00     0.034 A 
ATOM     58  C   UNL A   1      43.556  29.330  33.216  1.00  0.00     0.049 A 
ATOM     59  C   UNL A   1      43.585  25.242  29.363  1.00  0.00     0.074 A 
ATOM     60  C   UNL A   1      44.609  29.337  34.113  1.00  0.00     0.029 A 
ATOM     61  N   UNL A   1      43.783  28.268  32.348  1.00  0.00    -0.354 N 
ATOM     62  N   UNL A   1      43.716  26.141  30.312  1.00  0.00    -0.248 NA
ATOM     63  C   UNL A   1      44.702  24.293  29.273  1.00  0.00     0.031 C 
ATOM     64  C   UNL A   1      45.510  28.333  33.742  1.00  0.00     0.029 A 
ATOM     65  C   UNL A   1      44.977  27.638  32.667  1.00  0.00     0.049 A 
ATOM     66  H   UNL A   1      43.184  28.001  31.614  1.00  0.00     0.167 HD
ATOM     67  C   UNL A   1      44.916  25.843  30.952  1.00  0.00     0.074 A 
ATOM     68  C   UNL A   1      45.456  24.672  30.292  1.00  0.00     0.031 C 
ATOM     69  C   UNL A   1      45.516  26.478  31.992  1.00  0.00     0.034 A 
BRANCH  56  70
ATOM     70  C   UNL A   1      42.377  31.408  34.093  1.00  0.00     0.023 A 
ATOM     71  C   UNL A   1      41.570  31.394  35.244  1.00  0.00     0.031 A 
ATOM     72  C   UNL A   1      43.127  32.569  33.833  1.00  0.00     0.131 A 
ATOM     73  C   UNL A   1      41.471  32.541  36.047  1.00  0.00     0.055 A 
ATOM     74  C   UNL A   1      43.091  33.676  34.683  1.00  0.00     0.041 A 
ATOM     75  F   UNL A   1      43.900  32.653  32.738  1.00  0.00    -0.206 F 
ATOM     76  C   UNL A   1      42.247  33.673  35.790  1.00  0.00     0.022 A 
BRANCH  73  77
ATOM     77  S   UNL A   1      40.201  32.585  37.341  1.00  0.00     0.124 S 
ATOM     78  O   UNL A   1      40.994  32.327  38.541  1.00  0.00    -0.237 OA
ATOM     79  O   UNL A   1      39.663  33.934  37.210  1.00  0.00    -0.237 OA
ATOM     80  O   UNL A   1      39.288  31.509  36.962  1.00  0.00    -0.744 OA
ENDBRANCH  73  77
ENDBRANCH  56  70
BRANCH  57  81
ATOM     81  C   UNL A   1      42.510  23.982  27.348  1.00  0.00     0.023 A 
ATOM     82  C   UNL A   1      41.879  22.745  27.556  1.00  0.00     0.031 A 
ATOM     83  C   UNL A   1      43.227  24.162  26.151  1.00  0.00     0.131 A 
ATOM     84  C   UNL A   1      42.018  21.720  26.608  1.00  0.00     0.055 A 
ATOM     85  C   UNL A   1      43.312  23.160  25.183  1.00  0.00     0.041 A 
ATOM     86  F   UNL A   1      43.845  25.326  25.898  1.00  0.00    -0.206 F 
ATOM     87  C   UNL A   1      42.717  21.924  25.415  1.00  0.00     0.022 A 
BRANCH  84  88
ATOM     88  S   UNL A   1      41.349  20.080  26.997  1.00  0.00     0.124 S 
ATOM     89  O   UNL A   1      40.809  20.289  28.334  1.00  0.00    -0.237 OA
ATOM     90  O   UNL A   1      40.370  19.892  25.931  1.00  0.00    -0.237 OA
ATOM     91  O   UNL A   1      42.520  19.208  26.924  1.00  0.00    -0.744 OA
ENDBRANCH  84  88
ENDBRANCH  57  81
BRANCH  69  92
ATOM     92  C   UNL A   1      46.807  25.885  32.505  1.00  0.00     0.023 A 
ATOM     93  C   UNL A   1      48.045  26.166  31.901  1.00  0.00     0.031 A 
ATOM     94  C   UNL A   1      46.794  25.007  33.604  1.00  0.00     0.131 A 
ATOM     95  C   UNL A   1      49.207  25.524  32.355  1.00  0.00     0.055 A 
ATOM     96  C   UNL A   1      47.963  24.427  34.097  1.00  0.00     0.041 A 
ATOM     97  F   UNL A   1      45.640  24.698  34.218  1.00  0.00    -0.206 F 
ATOM     98  C   UNL A   1      49.177  24.672  33.461  1.00  0.00     0.022 A 
BRANCH  95  99
ATOM     99  S   UNL A   1      50.741  25.729  31.410  1.00  0.00     0.124 S 
ATOM    100  O   UNL A   1      51.754  25.346  32.388  1.00  0.00    -0.237 OA
ATOM    101  O   UNL A   1      50.548  24.805  30.297  1.00  0.00    -0.237 OA
ATOM    102  O   UNL A   1      50.733  27.146  31.047  1.00  0.00    -0.744 OA
ENDBRANCH  95  99
ENDBRANCH  69  92
ENDBRANCH  43  44
ENDBRANCH  35  38
ENDBRANCH  33  34
ENDBRANCH   1  33
TORSDOF 17
ENDMDL
MODEL 3
REMARK VINA RESULT:     -12.0      5.884      9.523
REMARK SMILES CS(=O)(=O)c1ccc(C2=NN(c3ccc(C(=O)NCCCNC(=O)c4ccc(-c5c6nc(c(-c7cc(S(=O)(=O)[O-])ccc7F)c7ccc([nH]7)c(-c7cc(S(=O)(=O)[O-])ccc7F)c7nc(c(-c8cc(S(=O)(=O)[O-])ccc8F)c8ccc5[nH]8)C=C7)C=C6)cc4)cc3)[C@H](c3cccs3)C2)cc1
REMARK SMILES IDX 20 1 19 2 18 3 16 4 17 5 15 7 12 8 13 9 89 10 14 11 88 12
REMARK SMILES IDX 11 13 9 14 10 15 96 16 90 17 8 18 5 19 6 20 98 21 7 22 97 23
REMARK SMILES IDX 2 24 1 25 3 26 4 27 91 28 92 29 95 30 93 31 94 32 21 33
REMARK SMILES IDX 22 34 23 35 24 37 25 38 26 39 87 40 27 41 86 42 28 43 29 44
REMARK SMILES IDX 30 45 80 46 31 47 85 48 79 49 81 50 32 51 84 52 78 53 77 54
REMARK SMILES IDX 33 56 65 57 45 58 64 59 46 60 49 61 63 62 82 63 47 64 48 65
REMARK SMILES IDX 62 67 83 68 50 69 34 70 35 71 43 72 36 73 42 74 44 75 41 76
REMARK SMILES IDX 37 77 38 78 39 79 40 80 66 81 67 82 75 83 68 84 74 85 76 86
REMARK SMILES IDX 73 87 69 88 70 89 71 90 72 91 51 92 52 93 60 94 53 95 59 96
REMARK SMILES IDX 61 97 58 98 54 99 55 100 56 101 57 102
REMARK H PARENT 18 6 22 36 81 55 49 66
REMARK Flexibility Score: inf
ROOT
ATOM      1  C   UNL A   1      37.354  29.977  28.952  1.00  0.00     0.042 C 
ENDROOT
BRANCH   1   2
ATOM      2  C   UNL A   1      36.625  30.120  27.617  1.00  0.00     0.118 C 
BRANCH   2   3
ATOM      3  N   UNL A   1      35.474  31.000  27.733  1.00  0.00    -0.352 N 
ATOM      4  C   UNL A   1      34.167  30.845  27.345  1.00  0.00     0.251 C 
ATOM      5  O   UNL A   1      33.360  31.718  27.663  1.00  0.00    -0.269 OA
ATOM      6  H   UNL A   1      35.667  31.862  28.168  1.00  0.00     0.163 HD
BRANCH   4   7
ATOM      7  C   UNL A   1      33.687  29.638  26.620  1.00  0.00     0.039 A 
ATOM      8  C   UNL A   1      32.701  27.457  25.127  1.00  0.00     0.060 A 
ATOM      9  C   UNL A   1      33.145  28.615  24.483  1.00  0.00     0.029 A 
ATOM     10  C   UNL A   1      32.824  27.380  26.515  1.00  0.00     0.029 A 
ATOM     11  C   UNL A   1      33.628  29.701  25.221  1.00  0.00     0.016 A 
ATOM     12  C   UNL A   1      33.337  28.446  27.252  1.00  0.00     0.016 A 
BRANCH   8  13
ATOM     13  N   UNL A   1      32.189  26.383  24.424  1.00  0.00    -0.257 N 
ATOM     14  C   UNL A   1      32.163  24.364  23.805  1.00  0.00     0.071 C 
ATOM     15  N   UNL A   1      32.568  25.133  24.762  1.00  0.00    -0.176 NA
ATOM     16  C   UNL A   1      31.528  25.045  22.625  1.00  0.00     0.091 C 
ATOM     17  C   UNL A   1      31.503  26.498  23.133  1.00  0.00     0.154 C 
BRANCH  14  18
ATOM     18  C   UNL A   1      32.300  22.908  23.883  1.00  0.00    -0.002 A 
ATOM     19  C   UNL A   1      32.688  20.168  24.085  1.00  0.00     0.067 A 
ATOM     20  C   UNL A   1      33.034  20.988  25.160  1.00  0.00     0.021 A 
ATOM     21  C   UNL A   1      32.156  20.716  22.907  1.00  0.00     0.021 A 
ATOM     22  C   UNL A   1      32.850  22.366  25.051  1.00  0.00     0.011 A 
ATOM     23  C   UNL A   1      31.950  22.093  22.809  1.00  0.00     0.011 A 
BRANCH  19  24
ATOM     24  S   UNL A   1      32.928  18.408  24.141  1.00  0.00     0.175 S 
ATOM     25  C   UNL A   1      34.632  18.121  24.525  1.00  0.00     0.163 C 
ATOM     26  O   UNL A   1      32.703  17.918  22.795  1.00  0.00    -0.224 OA
ATOM     27  O   UNL A   1      32.130  17.927  25.254  1.00  0.00    -0.224 OA
ENDBRANCH  19  24
ENDBRANCH  14  18
BRANCH  17  28
ATOM     28  C   UNL A   1      30.145  27.185  23.176  1.00  0.00     0.030 A 
ATOM     29  C   UNL A   1      28.965  26.631  23.651  1.00  0.00     0.017 A 
ATOM     30  S   UNL A   1      29.859  28.766  22.572  1.00  0.00    -0.147 S 
ATOM     31  C   UNL A   1      27.842  27.495  23.508  1.00  0.00     0.012 A 
ATOM     32  C   UNL A   1      28.197  28.704  22.959  1.00  0.00     0.065 A 
ENDBRANCH  17  28
ENDBRANCH   8  13
ENDBRANCH   4   7
ENDBRANCH   2   3
ENDBRANCH   1   2
BRANCH   1  33
ATOM     33  C   UNL A   1      36.504  29.328  30.039  1.00  0.00     0.118 C 
BRANCH  33  34
ATOM     34  N   UNL A   1      36.386  30.178  31.214  1.00  0.00    -0.352 N 
ATOM     35  C   UNL A   1      37.199  30.283  32.314  1.00  0.00     0.251 C 
ATOM     36  H   UNL A   1      35.600  30.771  31.220  1.00  0.00     0.163 HD
ATOM     37  O   UNL A   1      36.782  30.872  33.307  1.00  0.00    -0.269 OA
BRANCH  35  38
ATOM     38  C   UNL A   1      38.554  29.685  32.315  1.00  0.00     0.039 A 
ATOM     39  C   UNL A   1      39.657  30.525  32.140  1.00  0.00     0.014 A 
ATOM     40  C   UNL A   1      38.742  28.305  32.443  1.00  0.00     0.014 A 
ATOM     41  C   UNL A   1      40.947  29.988  32.151  1.00  0.00     0.010 A 
ATOM     42  C   UNL A   1      40.030  27.783  32.533  1.00  0.00     0.010 A 
ATOM     43  C   UNL A   1      41.146  28.618  32.384  1.00  0.00    -0.014 A 
BRANCH  43  44
ATOM     44  C   UNL A   1      42.518  28.052  32.485  1.00  0.00     0.031 A 
ATOM     45  C   UNL A   1      43.156  27.831  33.830  1.00  0.00     0.074 A 
ATOM     46  C   UNL A   1      43.205  27.785  31.356  1.00  0.00     0.049 A 
ATOM     47  N   UNL A   1      44.356  27.393  34.115  1.00  0.00    -0.248 NA
ATOM     48  C   UNL A   1      42.348  28.175  35.010  1.00  0.00     0.031 C 
ATOM     49  C   UNL A   1      42.705  27.998  29.996  1.00  0.00     0.029 A 
ATOM     50  N   UNL A   1      44.468  27.282  31.168  1.00  0.00    -0.354 N 
ATOM     51  C   UNL A   1      44.451  27.415  35.502  1.00  0.00     0.074 A 
ATOM     52  C   UNL A   1      43.208  27.970  35.995  1.00  0.00     0.031 C 
ATOM     53  C   UNL A   1      43.637  27.599  29.117  1.00  0.00     0.029 A 
ATOM     54  C   UNL A   1      44.820  27.152  29.845  1.00  0.00     0.049 A 
ATOM     55  H   UNL A   1      45.066  27.037  31.911  1.00  0.00     0.167 HD
ATOM     56  C   UNL A   1      45.470  26.990  36.290  1.00  0.00     0.034 A 
ATOM     57  C   UNL A   1      45.971  26.735  29.279  1.00  0.00     0.034 A 
ATOM     58  C   UNL A   1      46.702  26.436  35.777  1.00  0.00     0.049 A 
ATOM     59  C   UNL A   1      47.102  26.299  30.176  1.00  0.00     0.074 A 
ATOM     60  C   UNL A   1      47.778  25.928  36.483  1.00  0.00     0.029 A 
ATOM     61  N   UNL A   1      47.029  26.331  34.430  1.00  0.00    -0.354 N 
ATOM     62  N   UNL A   1      47.154  26.273  31.488  1.00  0.00    -0.248 NA
ATOM     63  C   UNL A   1      48.324  25.827  29.515  1.00  0.00     0.031 C 
ATOM     64  C   UNL A   1      48.783  25.590  35.571  1.00  0.00     0.029 A 
ATOM     65  C   UNL A   1      48.303  25.802  34.288  1.00  0.00     0.049 A 
ATOM     66  H   UNL A   1      46.441  26.594  33.685  1.00  0.00     0.167 HD
ATOM     67  C   UNL A   1      48.404  25.750  31.807  1.00  0.00     0.074 A 
ATOM     68  C   UNL A   1      49.062  25.459  30.550  1.00  0.00     0.031 C 
ATOM     69  C   UNL A   1      48.957  25.529  33.028  1.00  0.00     0.034 A 
BRANCH  56  70
ATOM     70  C   UNL A   1      45.305  27.136  37.786  1.00  0.00     0.023 A 
ATOM     71  C   UNL A   1      45.733  28.288  38.469  1.00  0.00     0.031 A 
ATOM     72  C   UNL A   1      44.732  26.099  38.545  1.00  0.00     0.131 A 
ATOM     73  C   UNL A   1      45.653  28.345  39.869  1.00  0.00     0.055 A 
ATOM     74  C   UNL A   1      44.575  26.198  39.929  1.00  0.00     0.041 A 
ATOM     75  F   UNL A   1      44.324  24.964  37.955  1.00  0.00    -0.206 F 
ATOM     76  C   UNL A   1      45.052  27.320  40.602  1.00  0.00     0.022 A 
BRANCH  73  77
ATOM     77  S   UNL A   1      46.483  29.709  40.729  1.00  0.00     0.124 S 
ATOM     78  O   UNL A   1      46.768  29.108  42.030  1.00  0.00    -0.237 OA
ATOM     79  O   UNL A   1      47.637  29.964  39.877  1.00  0.00    -0.237 OA
ATOM     80  O   UNL A   1      45.474  30.766  40.748  1.00  0.00    -0.744 OA
ENDBRANCH  73  77
ENDBRANCH  56  70
BRANCH  57  81
ATOM     81  C   UNL A   1      46.120  26.718  27.796  1.00  0.00     0.023 A 
ATOM     82  C   UNL A   1      45.933  25.535  27.061  1.00  0.00     0.031 A 
ATOM     83  C   UNL A   1      46.492  27.877  27.091  1.00  0.00     0.131 A 
ATOM     84  C   UNL A   1      46.165  25.527  25.678  1.00  0.00     0.055 A 
ATOM     85  C   UNL A   1      46.663  27.878  25.707  1.00  0.00     0.041 A 
ATOM     86  F   UNL A   1      46.680  29.036  27.742  1.00  0.00    -0.206 F 
ATOM     87  C   UNL A   1      46.514  26.693  24.992  1.00  0.00     0.022 A 
BRANCH  84  88
ATOM     88  S   UNL A   1      46.096  23.943  24.795  1.00  0.00     0.124 S 
ATOM     89  O   UNL A   1      47.152  24.108  23.805  1.00  0.00    -0.237 OA
ATOM     90  O   UNL A   1      46.362  22.988  25.866  1.00  0.00    -0.237 OA
ATOM     91  O   UNL A   1      44.736  23.912  24.260  1.00  0.00    -0.744 OA
ENDBRANCH  84  88
ENDBRANCH  57  81
BRANCH  69  92
ATOM     92  C   UNL A   1      50.330  24.899  33.054  1.00  0.00     0.023 A 
ATOM     93  C   UNL A   1      50.510  23.507  32.968  1.00  0.00     0.031 A 
ATOM     94  C   UNL A   1      51.475  25.705  33.190  1.00  0.00     0.131 A 
ATOM     95  C   UNL A   1      51.796  22.959  33.085  1.00  0.00     0.055 A 
ATOM     96  C   UNL A   1      52.758  25.159  33.234  1.00  0.00     0.041 A 
ATOM     97  F   UNL A   1      51.364  27.040  33.282  1.00  0.00    -0.206 F 
ATOM     98  C   UNL A   1      52.923  23.777  33.198  1.00  0.00     0.022 A 
BRANCH  95  99
ATOM     99  S   UNL A   1      51.967  21.157  33.203  1.00  0.00     0.124 S 
ATOM    100  O   UNL A   1      50.601  20.707  32.959  1.00  0.00    -0.237 OA
ATOM    101  O   UNL A   1      52.932  20.866  32.147  1.00  0.00    -0.237 OA
ATOM    102  O   UNL A   1      52.457  20.948  34.564  1.00  0.00    -0.744 OA
ENDBRANCH  95  99
ENDBRANCH  69  92
ENDBRANCH  43  44
ENDBRANCH  35  38
ENDBRANCH  33  34
ENDBRANCH   1  33
TORSDOF 17
ENDMDL
