MODEL 1
REMARK VINA RESULT:     -12.3      0.000      0.000
REMARK SMILES O=C(C[NH+]1CCN(C(=O)c2ccc(F)c(F)c2F)CC1)NCCCNC(=O)c1ccc(-c2c3nc(c(-c4cc(S(=O)(=O)[O-])ccc4F)c4ccc([nH]4)c(-c4cc(S(=O)(=O)[O-])ccc4F)c4nc(c(-c5cc(S(=O)(=O)[O-])ccc5F)c5ccc2[nH]5)C=C4)C=C3)cc1
REMARK SMILES IDX 23 1 22 2 21 3 1 4 2 5 3 7 4 8 5 9 20 10 6 12 19 13 7 14
REMARK SMILES IDX 8 15 9 16 10 17 11 18 17 19 12 20 15 21 18 22 13 23 16 24
REMARK SMILES IDX 14 25 24 26 25 27 26 28 27 30 28 31 29 32 90 33 30 34 89 35
REMARK SMILES IDX 31 36 32 37 33 38 83 39 34 40 88 41 82 42 84 43 35 44 87 45
REMARK SMILES IDX 81 46 80 47 36 49 68 50 48 51 67 52 49 53 52 54 66 55 85 56
REMARK SMILES IDX 50 57 51 58 65 60 86 61 53 62 37 63 38 64 46 65 39 66 45 67
REMARK SMILES IDX 47 68 44 69 40 70 41 71 42 72 43 73 69 74 70 75 78 76 71 77
REMARK SMILES IDX 77 78 79 79 76 80 72 81 73 82 74 83 75 84 54 85 55 86 63 87
REMARK SMILES IDX 56 88 62 89 64 90 61 91 57 92 58 93 59 94 60 95
REMARK H PARENT 21 6 4 11 25 29 84 48 52 59
REMARK Flexibility Score: inf
ROOT
ATOM      1  C   UNL A   1      31.491  32.065  26.869  1.00  0.00     0.042 C 
ENDROOT
BRANCH   1   2
ATOM      2  C   UNL A   1      31.708  30.553  26.907  1.00  0.00     0.118 C 
BRANCH   2   3
ATOM      3  N   UNL A   1      31.672  29.944  25.594  1.00  0.00    -0.351 N 
ATOM      4  O   UNL A   1      33.808  29.117  25.650  1.00  0.00    -0.269 OA
ATOM      5  C   UNL A   1      32.741  29.267  25.057  1.00  0.00     0.275 C 
ATOM      6  H   UNL A   1      30.847  30.019  25.062  1.00  0.00     0.163 HD
BRANCH   5   7
ATOM      7  C   UNL A   1      32.560  28.771  23.615  1.00  0.00     0.363 C 
BRANCH   7   8
ATOM      8  N   UNL A   1      31.541  27.694  23.511  1.00  0.00    -0.324 N 
ATOM      9  C   UNL A   1      31.395  27.199  22.116  1.00  0.00     0.284 C 
ATOM     10  C   UNL A   1      31.901  26.546  24.379  1.00  0.00     0.284 C 
ATOM     11  H   UNL A   1      30.655  28.100  23.811  1.00  0.00     0.348 HD
ATOM     12  C   UNL A   1      32.563  26.345  21.579  1.00  0.00     0.181 C 
ATOM     13  C   UNL A   1      33.129  25.741  23.903  1.00  0.00     0.181 C 
ATOM     14  N   UNL A   1      32.964  25.293  22.518  1.00  0.00    -0.327 N 
ATOM     15  C   UNL A   1      33.346  24.061  21.997  1.00  0.00     0.257 C 
ATOM     16  O   UNL A   1      33.313  23.789  20.798  1.00  0.00    -0.269 OA
BRANCH  15  17
ATOM     17  C   UNL A   1      33.782  22.988  22.901  1.00  0.00     0.079 A 
ATOM     18  C   UNL A   1      35.090  22.974  23.408  1.00  0.00     0.020 A 
ATOM     19  C   UNL A   1      32.847  22.050  23.338  1.00  0.00     0.174 A 
ATOM     20  C   UNL A   1      35.464  21.987  24.323  1.00  0.00     0.043 A 
ATOM     21  C   UNL A   1      33.220  21.078  24.258  1.00  0.00     0.195 A 
ATOM     22  F   UNL A   1      31.592  22.058  22.866  1.00  0.00    -0.203 F 
ATOM     23  C   UNL A   1      34.523  21.047  24.742  1.00  0.00     0.161 A 
ATOM     24  F   UNL A   1      32.329  20.169  24.677  1.00  0.00    -0.200 F 
ATOM     25  F   UNL A   1      34.890  20.107  25.625  1.00  0.00    -0.204 F 
ENDBRANCH  15  17
ENDBRANCH   7   8
ENDBRANCH   5   7
ENDBRANCH   2   3
ENDBRANCH   1   2
BRANCH   1  26
ATOM     26  C   UNL A   1      32.769  32.898  26.971  1.00  0.00     0.118 C 
BRANCH  26  27
ATOM     27  N   UNL A   1      32.555  34.186  27.612  1.00  0.00    -0.352 N 
ATOM     28  C   UNL A   1      33.140  34.758  28.714  1.00  0.00     0.251 C 
ATOM     29  H   UNL A   1      31.870  34.747  27.179  1.00  0.00     0.163 HD
ATOM     30  O   UNL A   1      32.655  35.800  29.155  1.00  0.00    -0.269 OA
BRANCH  28  31
ATOM     31  C   UNL A   1      34.316  34.153  29.386  1.00  0.00     0.039 A 
ATOM     32  C   UNL A   1      34.090  33.245  30.428  1.00  0.00     0.014 A 
ATOM     33  C   UNL A   1      35.628  34.518  29.068  1.00  0.00     0.014 A 
ATOM     34  C   UNL A   1      35.168  32.672  31.112  1.00  0.00     0.010 A 
ATOM     35  C   UNL A   1      36.704  33.899  29.710  1.00  0.00     0.010 A 
ATOM     36  C   UNL A   1      36.487  32.976  30.745  1.00  0.00    -0.014 A 
BRANCH  36  37
ATOM     37  C   UNL A   1      37.644  32.359  31.451  1.00  0.00     0.031 A 
ATOM     38  C   UNL A   1      38.400  31.221  30.816  1.00  0.00     0.074 A 
ATOM     39  C   UNL A   1      37.988  32.788  32.681  1.00  0.00     0.049 A 
ATOM     40  N   UNL A   1      39.384  30.504  31.301  1.00  0.00    -0.248 NA
ATOM     41  C   UNL A   1      37.973  30.821  29.468  1.00  0.00     0.031 C 
ATOM     42  C   UNL A   1      37.319  33.861  33.420  1.00  0.00     0.029 A 
ATOM     43  N   UNL A   1      38.980  32.368  33.534  1.00  0.00    -0.354 N 
ATOM     44  C   UNL A   1      39.681  29.557  30.326  1.00  0.00     0.074 A 
ATOM     45  C   UNL A   1      38.736  29.760  29.248  1.00  0.00     0.031 C 
ATOM     46  C   UNL A   1      37.929  34.025  34.606  1.00  0.00     0.029 A 
ATOM     47  C   UNL A   1      39.004  33.046  34.730  1.00  0.00     0.049 A 
ATOM     48  H   UNL A   1      39.614  31.649  33.309  1.00  0.00     0.167 HD
ATOM     49  C   UNL A   1      40.662  28.618  30.321  1.00  0.00     0.034 A 
ATOM     50  C   UNL A   1      39.795  32.891  35.811  1.00  0.00     0.034 A 
ATOM     51  C   UNL A   1      41.610  28.436  31.394  1.00  0.00     0.049 A 
ATOM     52  C   UNL A   1      40.874  31.839  35.786  1.00  0.00     0.074 A 
ATOM     53  C   UNL A   1      42.670  27.549  31.469  1.00  0.00     0.029 A 
ATOM     54  N   UNL A   1      41.613  29.154  32.584  1.00  0.00    -0.354 N 
ATOM     55  N   UNL A   1      41.165  30.975  34.841  1.00  0.00    -0.248 NA
ATOM     56  C   UNL A   1      41.740  31.751  36.970  1.00  0.00     0.031 C 
ATOM     57  C   UNL A   1      43.277  27.690  32.723  1.00  0.00     0.029 A 
ATOM     58  C   UNL A   1      42.640  28.713  33.405  1.00  0.00     0.049 A 
ATOM     59  H   UNL A   1      40.977  29.871  32.810  1.00  0.00     0.167 HD
ATOM     60  C   UNL A   1      42.269  30.264  35.306  1.00  0.00     0.074 A 
ATOM     61  C   UNL A   1      42.596  30.807  36.608  1.00  0.00     0.031 C 
ATOM     62  C   UNL A   1      42.953  29.257  34.705  1.00  0.00     0.034 A 
BRANCH  49  63
ATOM     63  C   UNL A   1      40.733  27.700  29.123  1.00  0.00     0.023 A 
ATOM     64  C   UNL A   1      41.677  27.897  28.098  1.00  0.00     0.031 A 
ATOM     65  C   UNL A   1      39.826  26.636  28.984  1.00  0.00     0.131 A 
ATOM     66  C   UNL A   1      41.636  27.097  26.945  1.00  0.00     0.055 A 
ATOM     67  C   UNL A   1      39.845  25.790  27.872  1.00  0.00     0.041 A 
ATOM     68  F   UNL A   1      38.891  26.408  29.920  1.00  0.00    -0.206 F 
ATOM     69  C   UNL A   1      40.744  26.030  26.836  1.00  0.00     0.022 A 
BRANCH  66  70
ATOM     70  S   UNL A   1      42.668  27.569  25.530  1.00  0.00     0.124 S 
ATOM     71  O   UNL A   1      41.940  28.724  25.008  1.00  0.00    -0.237 OA
ATOM     72  O   UNL A   1      43.953  27.853  26.156  1.00  0.00    -0.237 OA
ATOM     73  O   UNL A   1      42.637  26.384  24.674  1.00  0.00    -0.744 OA
ENDBRANCH  66  70
ENDBRANCH  49  63
BRANCH  50  74
ATOM     74  C   UNL A   1      39.599  33.745  37.016  1.00  0.00     0.023 A 
ATOM     75  C   UNL A   1      38.941  33.250  38.153  1.00  0.00     0.031 A 
ATOM     76  C   UNL A   1      40.032  35.082  37.032  1.00  0.00     0.131 A 
ATOM     77  C   UNL A   1      38.694  34.101  39.242  1.00  0.00     0.055 A 
ATOM     78  C   UNL A   1      39.825  35.910  38.136  1.00  0.00     0.041 A 
ATOM     79  F   UNL A   1      40.672  35.600  35.972  1.00  0.00    -0.206 F 
ATOM     80  C   UNL A   1      39.141  35.423  39.246  1.00  0.00     0.022 A 
BRANCH  77  81
ATOM     81  S   UNL A   1      37.708  33.470  40.628  1.00  0.00     0.124 S 
ATOM     82  O   UNL A   1      38.592  32.451  41.183  1.00  0.00    -0.237 OA
ATOM     83  O   UNL A   1      37.523  34.669  41.438  1.00  0.00    -0.237 OA
ATOM     84  O   UNL A   1      36.499  32.964  39.983  1.00  0.00    -0.744 OA
ENDBRANCH  77  81
ENDBRANCH  50  74
BRANCH  62  85
ATOM     85  C   UNL A   1      44.158  28.719  35.436  1.00  0.00     0.023 A 
ATOM     86  C   UNL A   1      44.055  27.665  36.362  1.00  0.00     0.031 A 
ATOM     87  C   UNL A   1      45.426  29.283  35.214  1.00  0.00     0.131 A 
ATOM     88  C   UNL A   1      45.190  27.245  37.072  1.00  0.00     0.055 A 
ATOM     89  C   UNL A   1      46.562  28.826  35.883  1.00  0.00     0.041 A 
ATOM     90  F   UNL A   1      45.581  30.292  34.342  1.00  0.00    -0.206 F 
ATOM     91  C   UNL A   1      46.446  27.810  36.828  1.00  0.00     0.022 A 
BRANCH  88  92
ATOM     92  S   UNL A   1      44.991  26.009  38.384  1.00  0.00     0.124 S 
ATOM     93  O   UNL A   1      44.602  24.822  37.630  1.00  0.00    -0.237 OA
ATOM     94  O   UNL A   1      46.321  25.976  38.985  1.00  0.00    -0.237 OA
ATOM     95  O   UNL A   1      43.944  26.575  39.233  1.00  0.00    -0.744 OA
ENDBRANCH  88  92
ENDBRANCH  62  85
ENDBRANCH  36  37
ENDBRANCH  28  31
ENDBRANCH  26  27
ENDBRANCH   1  26
TORSDOF 15
ENDMDL
MODEL 2
REMARK VINA RESULT:     -12.1      6.296     11.565
REMARK SMILES O=C(C[NH+]1CCN(C(=O)c2ccc(F)c(F)c2F)CC1)NCCCNC(=O)c1ccc(-c2c3nc(c(-c4cc(S(=O)(=O)[O-])ccc4F)c4ccc([nH]4)c(-c4cc(S(=O)(=O)[O-])ccc4F)c4nc(c(-c5cc(S(=O)(=O)[O-])ccc5F)c5ccc2[nH]5)C=C4)C=C3)cc1
REMARK SMILES IDX 23 1 22 2 21 3 1 4 2 5 3 7 4 8 5 9 20 10 6 12 19 13 7 14
REMARK SMILES IDX 8 15 9 16 10 17 11 18 17 19 12 20 15 21 18 22 13 23 16 24
REMARK SMILES IDX 14 25 24 26 25 27 26 28 27 30 28 31 29 32 90 33 30 34 89 35
REMARK SMILES IDX 31 36 32 37 33 38 83 39 34 40 88 41 82 42 84 43 35 44 87 45
REMARK SMILES IDX 81 46 80 47 36 49 68 50 48 51 67 52 49 53 52 54 66 55 85 56
REMARK SMILES IDX 50 57 51 58 65 60 86 61 53 62 37 63 38 64 46 65 39 66 45 67
REMARK SMILES IDX 47 68 44 69 40 70 41 71 42 72 43 73 69 74 70 75 78 76 71 77
REMARK SMILES IDX 77 78 79 79 76 80 72 81 73 82 74 83 75 84 54 85 55 86 63 87
REMARK SMILES IDX 56 88 62 89 64 90 61 91 57 92 58 93 59 94 60 95
REMARK H PARENT 21 6 4 11 25 29 84 48 52 59
REMARK Flexibility Score: inf
ROOT
ATOM      1  C   UNL A   1      37.999  19.612  24.643  1.00  0.00     0.042 C 
ENDROOT
BRANCH   1   2
ATOM      2  C   UNL A   1      36.561  19.247  25.006  1.00  0.00     0.118 C 
BRANCH   2   3
ATOM      3  N   UNL A   1      35.763  20.397  25.376  1.00  0.00    -0.351 N 
ATOM      4  O   UNL A   1      33.845  19.711  24.329  1.00  0.00    -0.269 OA
ATOM      5  C   UNL A   1      34.449  20.545  25.000  1.00  0.00     0.275 C 
ATOM      6  H   UNL A   1      36.179  21.104  25.921  1.00  0.00     0.163 HD
BRANCH   5   7
ATOM      7  C   UNL A   1      33.787  21.872  25.400  1.00  0.00     0.363 C 
BRANCH   7   8
ATOM      8  N   UNL A   1      34.690  23.036  25.208  1.00  0.00    -0.324 N 
ATOM      9  C   UNL A   1      35.130  23.171  23.794  1.00  0.00     0.284 C 
ATOM     10  C   UNL A   1      34.017  24.294  25.611  1.00  0.00     0.284 C 
ATOM     11  H   UNL A   1      35.509  22.870  25.793  1.00  0.00     0.348 HD
ATOM     12  C   UNL A   1      34.055  23.657  22.798  1.00  0.00     0.181 C 
ATOM     13  C   UNL A   1      32.874  24.740  24.674  1.00  0.00     0.181 C 
ATOM     14  N   UNL A   1      33.334  24.837  23.286  1.00  0.00    -0.327 N 
ATOM     15  C   UNL A   1      32.976  25.813  22.363  1.00  0.00     0.257 C 
ATOM     16  O   UNL A   1      33.279  25.769  21.172  1.00  0.00    -0.269 OA
BRANCH  15  17
ATOM     17  C   UNL A   1      32.228  26.998  22.805  1.00  0.00     0.079 A 
ATOM     18  C   UNL A   1      30.861  27.124  22.513  1.00  0.00     0.020 A 
ATOM     19  C   UNL A   1      32.865  27.938  23.614  1.00  0.00     0.174 A 
ATOM     20  C   UNL A   1      30.150  28.222  23.004  1.00  0.00     0.043 A 
ATOM     21  C   UNL A   1      32.150  29.021  24.110  1.00  0.00     0.195 A 
ATOM     22  F   UNL A   1      34.169  27.825  23.905  1.00  0.00    -0.203 F 
ATOM     23  C   UNL A   1      30.802  29.162  23.801  1.00  0.00     0.161 A 
ATOM     24  F   UNL A   1      32.758  29.933  24.882  1.00  0.00    -0.200 F 
ATOM     25  F   UNL A   1      30.110  30.208  24.272  1.00  0.00    -0.204 F 
ENDBRANCH  15  17
ENDBRANCH   7   8
ENDBRANCH   5   7
ENDBRANCH   2   3
ENDBRANCH   1   2
BRANCH   1  26
ATOM     26  C   UNL A   1      38.874  20.025  25.827  1.00  0.00     0.118 C 
BRANCH  26  27
ATOM     27  N   UNL A   1      40.060  19.197  25.970  1.00  0.00    -0.352 N 
ATOM     28  C   UNL A   1      41.382  19.528  26.140  1.00  0.00     0.251 C 
ATOM     29  H   UNL A   1      39.886  18.228  25.941  1.00  0.00     0.163 HD
ATOM     30  O   UNL A   1      42.221  18.630  26.063  1.00  0.00    -0.269 OA
BRANCH  28  31
ATOM     31  C   UNL A   1      41.819  20.923  26.393  1.00  0.00     0.039 A 
ATOM     32  C   UNL A   1      42.125  21.294  27.708  1.00  0.00     0.014 A 
ATOM     33  C   UNL A   1      41.860  21.888  25.382  1.00  0.00     0.014 A 
ATOM     34  C   UNL A   1      42.513  22.607  28.000  1.00  0.00     0.010 A 
ATOM     35  C   UNL A   1      42.306  23.182  25.664  1.00  0.00     0.010 A 
ATOM     36  C   UNL A   1      42.629  23.559  26.977  1.00  0.00    -0.014 A 
BRANCH  36  37
ATOM     37  C   UNL A   1      43.059  24.953  27.270  1.00  0.00     0.031 A 
ATOM     38  C   UNL A   1      42.115  25.913  27.946  1.00  0.00     0.074 A 
ATOM     39  C   UNL A   1      44.282  25.375  26.889  1.00  0.00     0.049 A 
ATOM     40  N   UNL A   1      42.275  27.185  28.218  1.00  0.00    -0.248 NA
ATOM     41  C   UNL A   1      40.806  25.375  28.343  1.00  0.00     0.031 C 
ATOM     42  C   UNL A   1      45.280  24.555  26.200  1.00  0.00     0.029 A 
ATOM     43  N   UNL A   1      44.890  26.599  27.017  1.00  0.00    -0.354 N 
ATOM     44  C   UNL A   1      41.083  27.603  28.800  1.00  0.00     0.074 A 
ATOM     45  C   UNL A   1      40.193  26.460  28.791  1.00  0.00     0.031 C 
ATOM     46  C   UNL A   1      46.381  25.294  25.981  1.00  0.00     0.029 A 
ATOM     47  C   UNL A   1      46.154  26.648  26.476  1.00  0.00     0.049 A 
ATOM     48  H   UNL A   1      44.461  27.370  27.455  1.00  0.00     0.167 HD
ATOM     49  C   UNL A   1      40.766  28.819  29.313  1.00  0.00     0.034 A 
ATOM     50  C   UNL A   1      47.028  27.670  26.379  1.00  0.00     0.034 A 
ATOM     51  C   UNL A   1      41.667  29.947  29.332  1.00  0.00     0.049 A 
ATOM     52  C   UNL A   1      46.653  29.014  26.949  1.00  0.00     0.074 A 
ATOM     53  C   UNL A   1      41.463  31.207  29.868  1.00  0.00     0.029 A 
ATOM     54  N   UNL A   1      42.946  29.953  28.789  1.00  0.00    -0.354 N 
ATOM     55  N   UNL A   1      45.535  29.383  27.529  1.00  0.00    -0.248 NA
ATOM     56  C   UNL A   1      47.665  30.075  26.863  1.00  0.00     0.031 C 
ATOM     57  C   UNL A   1      42.593  31.989  29.600  1.00  0.00     0.029 A 
ATOM     58  C   UNL A   1      43.530  31.199  28.958  1.00  0.00     0.049 A 
ATOM     59  H   UNL A   1      43.374  29.183  28.348  1.00  0.00     0.167 HD
ATOM     60  C   UNL A   1      45.724  30.710  27.905  1.00  0.00     0.074 A 
ATOM     61  C   UNL A   1      47.065  31.072  27.496  1.00  0.00     0.031 C 
ATOM     62  C   UNL A   1      44.867  31.551  28.539  1.00  0.00     0.034 A 
BRANCH  49  63
ATOM     63  C   UNL A   1      39.371  28.993  29.867  1.00  0.00     0.023 A 
ATOM     64  C   UNL A   1      38.341  29.575  29.106  1.00  0.00     0.031 A 
ATOM     65  C   UNL A   1      39.074  28.605  31.185  1.00  0.00     0.131 A 
ATOM     66  C   UNL A   1      37.092  29.828  29.694  1.00  0.00     0.055 A 
ATOM     67  C   UNL A   1      37.803  28.783  31.738  1.00  0.00     0.041 A 
ATOM     68  F   UNL A   1      40.019  28.059  31.967  1.00  0.00    -0.206 F 
ATOM     69  C   UNL A   1      36.808  29.414  30.996  1.00  0.00     0.022 A 
BRANCH  66  70
ATOM     70  S   UNL A   1      35.896  30.841  28.780  1.00  0.00     0.124 S 
ATOM     71  O   UNL A   1      36.779  31.712  28.008  1.00  0.00    -0.237 OA
ATOM     72  O   UNL A   1      35.156  29.844  28.017  1.00  0.00    -0.237 OA
ATOM     73  O   UNL A   1      35.138  31.510  29.835  1.00  0.00    -0.744 OA
ENDBRANCH  66  70
ENDBRANCH  49  63
BRANCH  50  74
ATOM     74  C   UNL A   1      48.345  27.473  25.710  1.00  0.00     0.023 A 
ATOM     75  C   UNL A   1      48.476  27.611  24.319  1.00  0.00     0.031 A 
ATOM     76  C   UNL A   1      49.483  27.105  26.448  1.00  0.00     0.131 A 
ATOM     77  C   UNL A   1      49.708  27.336  23.703  1.00  0.00     0.055 A 
ATOM     78  C   UNL A   1      50.717  26.880  25.837  1.00  0.00     0.041 A 
ATOM     79  F   UNL A   1      49.410  26.968  27.782  1.00  0.00    -0.206 F 
ATOM     80  C   UNL A   1      50.831  26.983  24.453  1.00  0.00     0.022 A 
BRANCH  77  81
ATOM     81  S   UNL A   1      49.800  27.375  21.892  1.00  0.00     0.124 S 
ATOM     82  O   UNL A   1      49.692  28.804  21.619  1.00  0.00    -0.237 OA
ATOM     83  O   UNL A   1      51.103  26.770  21.642  1.00  0.00    -0.237 OA
ATOM     84  O   UNL A   1      48.652  26.571  21.476  1.00  0.00    -0.744 OA
ENDBRANCH  77  81
ENDBRANCH  50  74
BRANCH  62  85
ATOM     85  C   UNL A   1      45.383  32.930  28.872  1.00  0.00     0.023 A 
ATOM     86  C   UNL A   1      45.173  34.027  28.018  1.00  0.00     0.031 A 
ATOM     87  C   UNL A   1      46.111  33.141  30.056  1.00  0.00     0.131 A 
ATOM     88  C   UNL A   1      45.733  35.274  28.333  1.00  0.00     0.055 A 
ATOM     89  C   UNL A   1      46.619  34.396  30.392  1.00  0.00     0.041 A 
ATOM     90  F   UNL A   1      46.340  32.127  30.906  1.00  0.00    -0.206 F 
ATOM     91  C   UNL A   1      46.444  35.469  29.521  1.00  0.00     0.022 A 
BRANCH  88  92
ATOM     92  S   UNL A   1      45.598  36.622  27.127  1.00  0.00     0.124 S 
ATOM     93  O   UNL A   1      46.629  36.268  26.157  1.00  0.00    -0.237 OA
ATOM     94  O   UNL A   1      44.218  36.492  26.668  1.00  0.00    -0.237 OA
ATOM     95  O   UNL A   1      45.876  37.820  27.918  1.00  0.00    -0.744 OA
ENDBRANCH  88  92
ENDBRANCH  62  85
ENDBRANCH  36  37
ENDBRANCH  28  31
ENDBRANCH  26  27
ENDBRANCH   1  26
TORSDOF 15
ENDMDL
MODEL 3
REMARK VINA RESULT:     -12.0      2.712      8.327
REMARK SMILES O=C(C[NH+]1CCN(C(=O)c2ccc(F)c(F)c2F)CC1)NCCCNC(=O)c1ccc(-c2c3nc(c(-c4cc(S(=O)(=O)[O-])ccc4F)c4ccc([nH]4)c(-c4cc(S(=O)(=O)[O-])ccc4F)c4nc(c(-c5cc(S(=O)(=O)[O-])ccc5F)c5ccc2[nH]5)C=C4)C=C3)cc1
REMARK SMILES IDX 23 1 22 2 21 3 1 4 2 5 3 7 4 8 5 9 20 10 6 12 19 13 7 14
REMARK SMILES IDX 8 15 9 16 10 17 11 18 17 19 12 20 15 21 18 22 13 23 16 24
REMARK SMILES IDX 14 25 24 26 25 27 26 28 27 30 28 31 29 32 90 33 30 34 89 35
REMARK SMILES IDX 31 36 32 37 33 38 83 39 34 40 88 41 82 42 84 43 35 44 87 45
REMARK SMILES IDX 81 46 80 47 36 49 68 50 48 51 67 52 49 53 52 54 66 55 85 56
REMARK SMILES IDX 50 57 51 58 65 60 86 61 53 62 37 63 38 64 46 65 39 66 45 67
REMARK SMILES IDX 47 68 44 69 40 70 41 71 42 72 43 73 69 74 70 75 78 76 71 77
REMARK SMILES IDX 77 78 79 79 76 80 72 81 73 82 74 83 75 84 54 85 55 86 63 87
REMARK SMILES IDX 56 88 62 89 64 90 61 91 57 92 58 93 59 94 60 95
REMARK H PARENT 21 6 4 11 25 29 84 48 52 59
REMARK Flexibility Score: inf
ROOT
ATOM      1  C   UNL A   1      31.983  28.832  25.524  1.00  0.00     0.042 C 
ENDROOT
BRANCH   1   2
ATOM      2  C   UNL A   1      31.785  28.687  24.016  1.00  0.00     0.118 C 
BRANCH   2   3
ATOM      3  N   UNL A   1      32.598  27.638  23.437  1.00  0.00    -0.351 N 
ATOM      4  O   UNL A   1      30.851  26.350  22.705  1.00  0.00    -0.269 OA
ATOM      5  C   UNL A   1      32.062  26.532  22.822  1.00  0.00     0.275 C 
ATOM      6  H   UNL A   1      33.578  27.720  23.488  1.00  0.00     0.163 HD
BRANCH   5   7
ATOM      7  C   UNL A   1      33.072  25.475  22.353  1.00  0.00     0.363 C 
BRANCH   7   8
ATOM      8  N   UNL A   1      33.856  24.902  23.478  1.00  0.00    -0.324 N 
ATOM      9  C   UNL A   1      33.025  24.715  24.697  1.00  0.00     0.284 C 
ATOM     10  C   UNL A   1      34.434  23.590  23.099  1.00  0.00     0.284 C 
ATOM     11  H   UNL A   1      34.599  25.569  23.685  1.00  0.00     0.348 HD
ATOM     12  C   UNL A   1      31.995  23.567  24.639  1.00  0.00     0.181 C 
ATOM     13  C   UNL A   1      33.400  22.454  22.944  1.00  0.00     0.181 C 
ATOM     14  N   UNL A   1      32.581  22.315  24.151  1.00  0.00    -0.327 N 
ATOM     15  C   UNL A   1      32.150  21.123  24.725  1.00  0.00     0.257 C 
ATOM     16  O   UNL A   1      31.348  21.066  25.655  1.00  0.00    -0.269 OA
BRANCH  15  17
ATOM     17  C   UNL A   1      32.691  19.843  24.246  1.00  0.00     0.079 A 
ATOM     18  C   UNL A   1      32.041  19.137  23.222  1.00  0.00     0.020 A 
ATOM     19  C   UNL A   1      33.916  19.399  24.741  1.00  0.00     0.174 A 
ATOM     20  C   UNL A   1      32.610  17.960  22.730  1.00  0.00     0.043 A 
ATOM     21  C   UNL A   1      34.483  18.234  24.239  1.00  0.00     0.195 A 
ATOM     22  F   UNL A   1      34.549  20.070  25.715  1.00  0.00    -0.203 F 
ATOM     23  C   UNL A   1      33.829  17.518  23.243  1.00  0.00     0.161 A 
ATOM     24  F   UNL A   1      35.657  17.797  24.716  1.00  0.00    -0.200 F 
ATOM     25  F   UNL A   1      34.369  16.391  22.760  1.00  0.00    -0.204 F 
ENDBRANCH  15  17
ENDBRANCH   7   8
ENDBRANCH   5   7
ENDBRANCH   2   3
ENDBRANCH   1   2
BRANCH   1  26
ATOM     26  C   UNL A   1      33.302  29.485  25.937  1.00  0.00     0.118 C 
BRANCH  26  27
ATOM     27  N   UNL A   1      33.135  30.857  26.393  1.00  0.00    -0.352 N 
ATOM     28  C   UNL A   1      33.829  31.595  27.319  1.00  0.00     0.251 C 
ATOM     29  H   UNL A   1      32.394  31.341  25.961  1.00  0.00     0.163 HD
ATOM     30  O   UNL A   1      33.375  32.691  27.647  1.00  0.00    -0.269 OA
BRANCH  28  31
ATOM     31  C   UNL A   1      35.086  31.105  27.937  1.00  0.00     0.039 A 
ATOM     32  C   UNL A   1      35.078  29.843  28.543  1.00  0.00     0.014 A 
ATOM     33  C   UNL A   1      36.242  31.888  27.999  1.00  0.00     0.014 A 
ATOM     34  C   UNL A   1      36.231  29.351  29.166  1.00  0.00     0.010 A 
ATOM     35  C   UNL A   1      37.411  31.372  28.567  1.00  0.00     0.010 A 
ATOM     36  C   UNL A   1      37.416  30.102  29.164  1.00  0.00    -0.014 A 
BRANCH  36  37
ATOM     37  C   UNL A   1      38.656  29.584  29.805  1.00  0.00     0.031 A 
ATOM     38  C   UNL A   1      39.090  30.105  31.151  1.00  0.00     0.074 A 
ATOM     39  C   UNL A   1      39.419  28.679  29.161  1.00  0.00     0.049 A 
ATOM     40  N   UNL A   1      40.173  29.835  31.837  1.00  0.00    -0.248 NA
ATOM     41  C   UNL A   1      38.198  31.079  31.795  1.00  0.00     0.031 C 
ATOM     42  C   UNL A   1      39.128  28.116  27.841  1.00  0.00     0.029 A 
ATOM     43  N   UNL A   1      40.601  28.080  29.522  1.00  0.00    -0.354 N 
ATOM     44  C   UNL A   1      40.102  30.620  32.984  1.00  0.00     0.074 A 
ATOM     45  C   UNL A   1      38.895  31.412  32.871  1.00  0.00     0.031 C 
ATOM     46  C   UNL A   1      40.095  27.243  27.512  1.00  0.00     0.029 A 
ATOM     47  C   UNL A   1      41.094  27.212  28.575  1.00  0.00     0.049 A 
ATOM     48  H   UNL A   1      41.052  28.255  30.379  1.00  0.00     0.167 HD
ATOM     49  C   UNL A   1      40.952  30.661  34.042  1.00  0.00     0.034 A 
ATOM     50  C   UNL A   1      42.227  26.483  28.558  1.00  0.00     0.034 A 
ATOM     51  C   UNL A   1      42.143  29.853  34.151  1.00  0.00     0.049 A 
ATOM     52  C   UNL A   1      43.160  26.548  29.740  1.00  0.00     0.074 A 
ATOM     53  C   UNL A   1      43.046  29.783  35.198  1.00  0.00     0.029 A 
ATOM     54  N   UNL A   1      42.601  28.974  33.178  1.00  0.00    -0.354 N 
ATOM     55  N   UNL A   1      43.060  27.268  30.834  1.00  0.00    -0.248 NA
ATOM     56  C   UNL A   1      44.353  25.692  29.691  1.00  0.00     0.031 C 
ATOM     57  C   UNL A   1      44.076  28.907  34.836  1.00  0.00     0.029 A 
ATOM     58  C   UNL A   1      43.782  28.377  33.592  1.00  0.00     0.049 A 
ATOM     59  H   UNL A   1      42.151  28.800  32.319  1.00  0.00     0.167 HD
ATOM     60  C   UNL A   1      44.160  26.925  31.615  1.00  0.00     0.074 A 
ATOM     61  C   UNL A   1      44.903  25.928  30.873  1.00  0.00     0.031 C 
ATOM     62  C   UNL A   1      44.519  27.388  32.839  1.00  0.00     0.034 A 
BRANCH  49  63
ATOM     63  C   UNL A   1      40.630  31.637  35.149  1.00  0.00     0.023 A 
ATOM     64  C   UNL A   1      39.620  31.376  36.093  1.00  0.00     0.031 A 
ATOM     65  C   UNL A   1      41.316  32.861  35.243  1.00  0.00     0.131 A 
ATOM     66  C   UNL A   1      39.269  32.356  37.034  1.00  0.00     0.055 A 
ATOM     67  C   UNL A   1      41.018  33.798  36.236  1.00  0.00     0.041 A 
ATOM     68  F   UNL A   1      42.278  33.175  34.362  1.00  0.00    -0.206 F 
ATOM     69  C   UNL A   1      39.977  33.555  37.127  1.00  0.00     0.022 A 
BRANCH  66  70
ATOM     70  S   UNL A   1      37.776  32.100  38.032  1.00  0.00     0.124 S 
ATOM     71  O   UNL A   1      38.278  32.352  39.380  1.00  0.00    -0.237 OA
ATOM     72  O   UNL A   1      36.861  33.099  37.493  1.00  0.00    -0.237 OA
ATOM     73  O   UNL A   1      37.416  30.710  37.758  1.00  0.00    -0.744 OA
ENDBRANCH  66  70
ENDBRANCH  49  63
BRANCH  50  74
ATOM     74  C   UNL A   1      42.556  25.628  27.382  1.00  0.00     0.023 A 
ATOM     75  C   UNL A   1      42.148  24.286  27.328  1.00  0.00     0.031 A 
ATOM     76  C   UNL A   1      43.317  26.132  26.314  1.00  0.00     0.131 A 
ATOM     77  C   UNL A   1      42.543  23.480  26.250  1.00  0.00     0.055 A 
ATOM     78  C   UNL A   1      43.667  25.339  25.221  1.00  0.00     0.041 A 
ATOM     79  F   UNL A   1      43.725  27.411  26.315  1.00  0.00    -0.206 F 
ATOM     80  C   UNL A   1      43.290  23.999  25.190  1.00  0.00     0.022 A 
BRANCH  77  81
ATOM     81  S   UNL A   1      42.128  21.714  26.289  1.00  0.00     0.124 S 
ATOM     82  O   UNL A   1      43.056  21.167  25.307  1.00  0.00    -0.237 OA
ATOM     83  O   UNL A   1      42.392  21.373  27.683  1.00  0.00    -0.237 OA
ATOM     84  O   UNL A   1      40.719  21.688  25.900  1.00  0.00    -0.744 OA
ENDBRANCH  77  81
ENDBRANCH  50  74
BRANCH  62  85
ATOM     85  C   UNL A   1      45.746  26.775  33.470  1.00  0.00     0.023 A 
ATOM     86  C   UNL A   1      45.691  25.553  34.162  1.00  0.00     0.031 A 
ATOM     87  C   UNL A   1      46.984  27.437  33.390  1.00  0.00     0.131 A 
ATOM     88  C   UNL A   1      46.841  25.057  34.795  1.00  0.00     0.055 A 
ATOM     89  C   UNL A   1      48.137  26.912  33.975  1.00  0.00     0.041 A 
ATOM     90  F   UNL A   1      47.091  28.608  32.741  1.00  0.00    -0.206 F 
ATOM     91  C   UNL A   1      48.067  25.722  34.694  1.00  0.00     0.022 A 
BRANCH  88  92
ATOM     92  S   UNL A   1      46.698  23.573  35.828  1.00  0.00     0.124 S 
ATOM     93  O   UNL A   1      47.510  23.928  36.987  1.00  0.00    -0.237 OA
ATOM     94  O   UNL A   1      45.259  23.490  36.058  1.00  0.00    -0.237 OA
ATOM     95  O   UNL A   1      47.251  22.513  34.985  1.00  0.00    -0.744 OA
ENDBRANCH  88  92
ENDBRANCH  62  85
ENDBRANCH  36  37
ENDBRANCH  28  31
ENDBRANCH  26  27
ENDBRANCH   1  26
TORSDOF 15
ENDMDL
