MODEL 1
REMARK VINA RESULT:     -12.5      0.000      0.000
REMARK SMILES O=C(NCCCNC(=O)c1cnccc1C(=O)Nc1ccc(Cl)c(Cl)c1)c1ccc(-c2c3nc(c(-c4cc(S(=O)(=O)[O-])ccc4F)c4ccc([nH]4)c(-c4cc(S(=O)(=O)[O-])ccc4F)c4nc(c(-c5cc(S(=O)(=O)[O-])ccc5F)c5ccc2[nH]5)C=C4)C=C3)cc1
REMARK SMILES IDX 4 1 3 2 1 3 2 4 27 6 28 7 89 8 29 9 88 10 30 11 31 12 32 13
REMARK SMILES IDX 82 14 33 15 87 16 81 17 83 18 34 19 86 20 80 21 79 22 35 24
REMARK SMILES IDX 67 25 47 26 66 27 48 28 51 29 65 30 84 31 49 32 50 33 64 35
REMARK SMILES IDX 85 36 52 37 36 38 37 39 45 40 38 41 44 42 46 43 43 44 39 45
REMARK SMILES IDX 40 46 41 47 42 48 68 49 69 50 77 51 70 52 76 53 78 54 75 55
REMARK SMILES IDX 71 56 72 57 73 58 74 59 53 60 54 61 62 62 55 63 61 64 63 65
REMARK SMILES IDX 60 66 56 67 57 68 58 69 59 70 5 71 6 72 7 73 8 74 9 76 10 77
REMARK SMILES IDX 11 78 15 79 12 80 14 81 13 82 16 83 17 84 18 85 19 87 20 88
REMARK SMILES IDX 26 89 21 90 24 91 22 92 25 93 23 94
REMARK H PARENT 3 5 83 23 51 34 7 75 18 86
REMARK Flexibility Score: inf
ROOT
ATOM      1  C   UNL A   1      32.838  32.696  27.372  1.00  0.00     0.118 C 
ENDROOT
BRANCH   1   2
ATOM      2  N   UNL A   1      32.529  34.067  27.753  1.00  0.00    -0.352 N 
ATOM      3  O   UNL A   1      32.706  35.936  29.018  1.00  0.00    -0.269 OA
ATOM      4  C   UNL A   1      33.143  34.829  28.722  1.00  0.00     0.251 C 
ATOM      5  H   UNL A   1      31.794  34.499  27.261  1.00  0.00     0.163 HD
BRANCH   4   6
ATOM      6  C   UNL A   1      34.317  34.263  29.418  1.00  0.00     0.039 A 
ATOM      7  C   UNL A   1      35.601  34.511  28.926  1.00  0.00     0.014 A 
ATOM      8  C   UNL A   1      34.123  33.410  30.506  1.00  0.00     0.014 A 
ATOM      9  C   UNL A   1      36.675  33.791  29.427  1.00  0.00     0.010 A 
ATOM     10  C   UNL A   1      35.222  32.763  31.075  1.00  0.00     0.010 A 
ATOM     11  C   UNL A   1      36.504  32.932  30.526  1.00  0.00    -0.014 A 
BRANCH  11  12
ATOM     12  C   UNL A   1      37.699  32.319  31.157  1.00  0.00     0.031 A 
ATOM     13  C   UNL A   1      38.448  31.192  30.502  1.00  0.00     0.074 A 
ATOM     14  C   UNL A   1      38.094  32.806  32.350  1.00  0.00     0.049 A 
ATOM     15  N   UNL A   1      39.476  30.522  30.952  1.00  0.00    -0.248 NA
ATOM     16  C   UNL A   1      37.980  30.754  29.177  1.00  0.00     0.031 C 
ATOM     17  C   UNL A   1      37.426  33.895  33.073  1.00  0.00     0.029 A 
ATOM     18  N   UNL A   1      39.139  32.465  33.165  1.00  0.00    -0.354 N 
ATOM     19  C   UNL A   1      39.766  29.564  29.986  1.00  0.00     0.074 A 
ATOM     20  C   UNL A   1      38.797  29.736  28.924  1.00  0.00     0.031 C 
ATOM     21  C   UNL A   1      38.095  34.151  34.204  1.00  0.00     0.029 A 
ATOM     22  C   UNL A   1      39.184  33.192  34.332  1.00  0.00     0.049 A 
ATOM     23  H   UNL A   1      39.796  31.767  32.938  1.00  0.00     0.167 HD
ATOM     24  C   UNL A   1      40.748  28.629  29.997  1.00  0.00     0.034 A 
ATOM     25  C   UNL A   1      39.979  33.073  35.411  1.00  0.00     0.034 A 
ATOM     26  C   UNL A   1      41.715  28.495  31.061  1.00  0.00     0.049 A 
ATOM     27  C   UNL A   1      41.032  32.002  35.405  1.00  0.00     0.074 A 
ATOM     28  C   UNL A   1      42.805  27.643  31.131  1.00  0.00     0.029 A 
ATOM     29  N   UNL A   1      41.702  29.216  32.248  1.00  0.00    -0.354 N 
ATOM     30  N   UNL A   1      41.317  31.135  34.462  1.00  0.00    -0.248 NA
ATOM     31  C   UNL A   1      41.864  31.888  36.608  1.00  0.00     0.031 C 
ATOM     32  C   UNL A   1      43.406  27.800  32.385  1.00  0.00     0.029 A 
ATOM     33  C   UNL A   1      42.732  28.795  33.075  1.00  0.00     0.049 A 
ATOM     34  H   UNL A   1      41.054  29.924  32.469  1.00  0.00     0.167 HD
ATOM     35  C   UNL A   1      42.365  30.370  34.960  1.00  0.00     0.074 A 
ATOM     36  C   UNL A   1      42.682  30.903  36.270  1.00  0.00     0.031 C 
ATOM     37  C   UNL A   1      43.005  29.317  34.391  1.00  0.00     0.034 A 
BRANCH  24  38
ATOM     38  C   UNL A   1      40.806  27.642  28.858  1.00  0.00     0.023 A 
ATOM     39  C   UNL A   1      41.749  27.745  27.823  1.00  0.00     0.031 A 
ATOM     40  C   UNL A   1      39.918  26.550  28.837  1.00  0.00     0.131 A 
ATOM     41  C   UNL A   1      41.762  26.791  26.792  1.00  0.00     0.055 A 
ATOM     42  C   UNL A   1      39.971  25.575  27.839  1.00  0.00     0.041 A 
ATOM     43  F   UNL A   1      38.984  26.412  29.792  1.00  0.00    -0.206 F 
ATOM     44  C   UNL A   1      40.895  25.695  26.806  1.00  0.00     0.022 A 
BRANCH  41  45
ATOM     45  S   UNL A   1      42.883  27.037  25.387  1.00  0.00     0.124 S 
ATOM     46  O   UNL A   1      44.145  27.330  26.064  1.00  0.00    -0.237 OA
ATOM     47  O   UNL A   1      42.811  25.755  24.696  1.00  0.00    -0.237 OA
ATOM     48  O   UNL A   1      42.293  28.165  24.669  1.00  0.00    -0.744 OA
ENDBRANCH  41  45
ENDBRANCH  24  38
BRANCH  25  49
ATOM     49  C   UNL A   1      39.756  33.934  36.605  1.00  0.00     0.023 A 
ATOM     50  C   UNL A   1      39.192  33.417  37.780  1.00  0.00     0.031 A 
ATOM     51  C   UNL A   1      40.081  35.303  36.576  1.00  0.00     0.131 A 
ATOM     52  C   UNL A   1      38.932  34.269  38.863  1.00  0.00     0.055 A 
ATOM     53  C   UNL A   1      39.875  36.136  37.675  1.00  0.00     0.041 A 
ATOM     54  F   UNL A   1      40.626  35.849  35.477  1.00  0.00    -0.206 F 
ATOM     55  C   UNL A   1      39.284  35.622  38.825  1.00  0.00     0.022 A 
BRANCH  52  56
ATOM     56  S   UNL A   1      38.036  33.606  40.292  1.00  0.00     0.124 S 
ATOM     57  O   UNL A   1      39.008  32.672  40.848  1.00  0.00    -0.237 OA
ATOM     58  O   UNL A   1      37.784  34.812  41.075  1.00  0.00    -0.237 OA
ATOM     59  O   UNL A   1      36.851  32.993  39.695  1.00  0.00    -0.744 OA
ENDBRANCH  52  56
ENDBRANCH  25  49
BRANCH  37  60
ATOM     60  C   UNL A   1      44.110  28.694  35.200  1.00  0.00     0.023 A 
ATOM     61  C   UNL A   1      43.853  27.624  36.075  1.00  0.00     0.031 A 
ATOM     62  C   UNL A   1      45.419  29.199  35.130  1.00  0.00     0.131 A 
ATOM     63  C   UNL A   1      44.882  27.129  36.890  1.00  0.00     0.055 A 
ATOM     64  C   UNL A   1      46.451  28.665  35.902  1.00  0.00     0.041 A 
ATOM     65  F   UNL A   1      45.712  30.222  34.313  1.00  0.00    -0.206 F 
ATOM     66  C   UNL A   1      46.181  27.632  36.797  1.00  0.00     0.022 A 
BRANCH  63  67
ATOM     67  S   UNL A   1      44.477  25.873  38.133  1.00  0.00     0.124 S 
ATOM     68  O   UNL A   1      43.495  25.055  37.427  1.00  0.00    -0.237 OA
ATOM     69  O   UNL A   1      45.771  25.244  38.377  1.00  0.00    -0.237 OA
ATOM     70  O   UNL A   1      43.948  26.653  39.249  1.00  0.00    -0.744 OA
ENDBRANCH  63  67
ENDBRANCH  37  60
ENDBRANCH  11  12
ENDBRANCH   4   6
ENDBRANCH   1   2
BRANCH   1  71
ATOM     71  C   UNL A   1      31.736  32.037  26.554  1.00  0.00     0.042 C 
BRANCH  71  72
ATOM     72  C   UNL A   1      31.791  30.523  26.604  1.00  0.00     0.118 C 
BRANCH  72  73
ATOM     73  N   UNL A   1      32.940  30.007  25.881  1.00  0.00    -0.352 N 
ATOM     74  C   UNL A   1      33.004  29.037  24.927  1.00  0.00     0.253 C 
ATOM     75  H   UNL A   1      33.803  30.421  26.116  1.00  0.00     0.163 HD
ATOM     76  O   UNL A   1      34.098  28.656  24.518  1.00  0.00    -0.269 OA
BRANCH  74  77
ATOM     77  C   UNL A   1      31.797  28.383  24.423  1.00  0.00     0.070 A 
ATOM     78  C   UNL A   1      31.419  28.807  23.149  1.00  0.00     0.125 A 
ATOM     79  C   UNL A   1      31.022  27.405  25.049  1.00  0.00     0.056 A 
ATOM     80  N   UNL A   1      30.393  28.281  22.441  1.00  0.00    -0.264 NA
ATOM     81  C   UNL A   1      29.974  26.830  24.306  1.00  0.00     0.035 A 
ATOM     82  C   UNL A   1      29.710  27.284  23.026  1.00  0.00     0.112 A 
BRANCH  79  83
ATOM     83  C   UNL A   1      31.251  26.774  26.377  1.00  0.00     0.256 C 
ATOM     84  O   UNL A   1      30.640  27.254  27.338  1.00  0.00    -0.269 OA
ATOM     85  N   UNL A   1      31.995  25.648  26.622  1.00  0.00    -0.322 N 
ATOM     86  H   UNL A   1      31.838  25.264  27.514  1.00  0.00     0.170 HD
BRANCH  85  87
ATOM     87  C   UNL A   1      32.930  24.933  25.871  1.00  0.00     0.043 A 
ATOM     88  C   UNL A   1      34.245  25.347  25.682  1.00  0.00     0.028 A 
ATOM     89  C   UNL A   1      32.478  23.752  25.268  1.00  0.00     0.048 A 
ATOM     90  C   UNL A   1      35.080  24.626  24.821  1.00  0.00     0.024 A 
ATOM     91  C   UNL A   1      33.299  23.053  24.380  1.00  0.00     0.061 A 
ATOM     92  C   UNL A   1      34.604  23.497  24.148  1.00  0.00     0.059 A 
ATOM     93  Cl  UNL A   1      32.622  21.683  23.576  1.00  0.00    -0.083 Cl
ATOM     94  Cl  UNL A   1      35.669  22.702  23.046  1.00  0.00    -0.083 Cl
ENDBRANCH  85  87
ENDBRANCH  79  83
ENDBRANCH  74  77
ENDBRANCH  72  73
ENDBRANCH  71  72
ENDBRANCH   1  71
TORSDOF 15
ENDMDL
MODEL 2
REMARK VINA RESULT:     -12.2      5.797     11.636
REMARK SMILES O=C(NCCCNC(=O)c1cnccc1C(=O)Nc1ccc(Cl)c(Cl)c1)c1ccc(-c2c3nc(c(-c4cc(S(=O)(=O)[O-])ccc4F)c4ccc([nH]4)c(-c4cc(S(=O)(=O)[O-])ccc4F)c4nc(c(-c5cc(S(=O)(=O)[O-])ccc5F)c5ccc2[nH]5)C=C4)C=C3)cc1
REMARK SMILES IDX 4 1 3 2 1 3 2 4 27 6 28 7 89 8 29 9 88 10 30 11 31 12 32 13
REMARK SMILES IDX 82 14 33 15 87 16 81 17 83 18 34 19 86 20 80 21 79 22 35 24
REMARK SMILES IDX 67 25 47 26 66 27 48 28 51 29 65 30 84 31 49 32 50 33 64 35
REMARK SMILES IDX 85 36 52 37 36 38 37 39 45 40 38 41 44 42 46 43 43 44 39 45
REMARK SMILES IDX 40 46 41 47 42 48 68 49 69 50 77 51 70 52 76 53 78 54 75 55
REMARK SMILES IDX 71 56 72 57 73 58 74 59 53 60 54 61 62 62 55 63 61 64 63 65
REMARK SMILES IDX 60 66 56 67 57 68 58 69 59 70 5 71 6 72 7 73 8 74 9 76 10 77
REMARK SMILES IDX 11 78 15 79 12 80 14 81 13 82 16 83 17 84 18 85 19 87 20 88
REMARK SMILES IDX 26 89 21 90 24 91 22 92 25 93 23 94
REMARK H PARENT 3 5 83 23 51 34 7 75 18 86
REMARK Flexibility Score: inf
ROOT
ATOM      1  C   UNL A   1      39.447  20.237  25.879  1.00  0.00     0.118 C 
ENDROOT
BRANCH   1   2
ATOM      2  N   UNL A   1      40.449  19.182  25.936  1.00  0.00    -0.352 N 
ATOM      3  O   UNL A   1      42.551  18.352  26.057  1.00  0.00    -0.269 OA
ATOM      4  C   UNL A   1      41.803  19.320  26.146  1.00  0.00     0.251 C 
ATOM      5  H   UNL A   1      40.120  18.263  25.809  1.00  0.00     0.163 HD
BRANCH   4   6
ATOM      6  C   UNL A   1      42.332  20.667  26.444  1.00  0.00     0.039 A 
ATOM      7  C   UNL A   1      42.411  21.103  27.768  1.00  0.00     0.014 A 
ATOM      8  C   UNL A   1      42.660  21.522  25.390  1.00  0.00     0.014 A 
ATOM      9  C   UNL A   1      42.675  22.439  28.033  1.00  0.00     0.010 A 
ATOM     10  C   UNL A   1      43.024  22.842  25.667  1.00  0.00     0.010 A 
ATOM     11  C   UNL A   1      43.014  23.316  26.989  1.00  0.00    -0.014 A 
BRANCH  11  12
ATOM     12  C   UNL A   1      43.471  24.689  27.318  1.00  0.00     0.031 A 
ATOM     13  C   UNL A   1      42.528  25.726  27.862  1.00  0.00     0.074 A 
ATOM     14  C   UNL A   1      44.770  24.982  27.109  1.00  0.00     0.049 A 
ATOM     15  N   UNL A   1      42.767  26.980  28.148  1.00  0.00    -0.248 NA
ATOM     16  C   UNL A   1      41.138  25.310  28.107  1.00  0.00     0.031 C 
ATOM     17  C   UNL A   1      45.764  24.043  26.575  1.00  0.00     0.029 A 
ATOM     18  N   UNL A   1      45.483  26.132  27.316  1.00  0.00    -0.354 N 
ATOM     19  C   UNL A   1      41.558  27.514  28.581  1.00  0.00     0.074 A 
ATOM     20  C   UNL A   1      40.582  26.447  28.512  1.00  0.00     0.031 C 
ATOM     21  C   UNL A   1      46.959  24.645  26.528  1.00  0.00     0.029 A 
ATOM     22  C   UNL A   1      46.803  26.032  26.942  1.00  0.00     0.049 A 
ATOM     23  H   UNL A   1      45.089  26.950  27.696  1.00  0.00     0.167 HD
ATOM     24  C   UNL A   1      41.297  28.781  28.989  1.00  0.00     0.034 A 
ATOM     25  C   UNL A   1      47.772  26.964  26.888  1.00  0.00     0.034 A 
ATOM     26  C   UNL A   1      42.296  29.820  29.069  1.00  0.00     0.049 A 
ATOM     27  C   UNL A   1      47.439  28.365  27.313  1.00  0.00     0.074 A 
ATOM     28  C   UNL A   1      42.160  31.110  29.554  1.00  0.00     0.029 A 
ATOM     29  N   UNL A   1      43.611  29.697  28.638  1.00  0.00    -0.354 N 
ATOM     30  N   UNL A   1      46.299  28.839  27.760  1.00  0.00    -0.248 NA
ATOM     31  C   UNL A   1      48.515  29.357  27.219  1.00  0.00     0.031 C 
ATOM     32  C   UNL A   1      43.369  31.785  29.351  1.00  0.00     0.029 A 
ATOM     33  C   UNL A   1      44.280  30.901  28.798  1.00  0.00     0.049 A 
ATOM     34  H   UNL A   1      44.009  28.875  28.270  1.00  0.00     0.167 HD
ATOM     35  C   UNL A   1      46.523  30.189  28.001  1.00  0.00     0.074 A 
ATOM     36  C   UNL A   1      47.914  30.442  27.684  1.00  0.00     0.031 C 
ATOM     37  C   UNL A   1      45.657  31.137  28.440  1.00  0.00     0.034 A 
BRANCH  24  38
ATOM     38  C   UNL A   1      39.873  29.138  29.335  1.00  0.00     0.023 A 
ATOM     39  C   UNL A   1      39.432  29.264  30.663  1.00  0.00     0.031 A 
ATOM     40  C   UNL A   1      38.950  29.399  28.305  1.00  0.00     0.131 A 
ATOM     41  C   UNL A   1      38.097  29.610  30.926  1.00  0.00     0.055 A 
ATOM     42  C   UNL A   1      37.638  29.796  28.572  1.00  0.00     0.041 A 
ATOM     43  F   UNL A   1      39.313  29.277  27.018  1.00  0.00    -0.206 F 
ATOM     44  C   UNL A   1      37.203  29.898  29.889  1.00  0.00     0.022 A 
BRANCH  41  45
ATOM     45  S   UNL A   1      37.515  29.609  32.644  1.00  0.00     0.124 S 
ATOM     46  O   UNL A   1      36.227  30.288  32.520  1.00  0.00    -0.237 OA
ATOM     47  O   UNL A   1      37.458  28.187  32.959  1.00  0.00    -0.237 OA
ATOM     48  O   UNL A   1      38.543  30.364  33.357  1.00  0.00    -0.744 OA
ENDBRANCH  41  45
ENDBRANCH  24  38
BRANCH  25  49
ATOM     49  C   UNL A   1      49.115  26.618  26.344  1.00  0.00     0.023 A 
ATOM     50  C   UNL A   1      49.553  27.127  25.113  1.00  0.00     0.031 A 
ATOM     51  C   UNL A   1      49.970  25.743  27.039  1.00  0.00     0.131 A 
ATOM     52  C   UNL A   1      50.795  26.728  24.596  1.00  0.00     0.055 A 
ATOM     53  C   UNL A   1      51.228  25.394  26.550  1.00  0.00     0.041 A 
ATOM     54  F   UNL A   1      49.599  25.229  28.223  1.00  0.00    -0.206 F 
ATOM     55  C   UNL A   1      51.642  25.878  25.313  1.00  0.00     0.022 A 
BRANCH  52  56
ATOM     56  S   UNL A   1      51.249  27.260  22.924  1.00  0.00     0.124 S 
ATOM     57  O   UNL A   1      50.182  26.668  22.123  1.00  0.00    -0.237 OA
ATOM     58  O   UNL A   1      51.223  28.713  23.053  1.00  0.00    -0.237 OA
ATOM     59  O   UNL A   1      52.574  26.675  22.730  1.00  0.00    -0.744 OA
ENDBRANCH  52  56
ENDBRANCH  25  49
BRANCH  37  60
ATOM     60  C   UNL A   1      46.216  32.526  28.598  1.00  0.00     0.023 A 
ATOM     61  C   UNL A   1      46.333  33.390  27.495  1.00  0.00     0.031 A 
ATOM     62  C   UNL A   1      46.672  32.974  29.848  1.00  0.00     0.131 A 
ATOM     63  C   UNL A   1      46.948  34.640  27.653  1.00  0.00     0.055 A 
ATOM     64  C   UNL A   1      47.232  34.242  30.010  1.00  0.00     0.041 A 
ATOM     65  F   UNL A   1      46.585  32.184  30.930  1.00  0.00    -0.206 F 
ATOM     66  C   UNL A   1      47.384  35.077  28.906  1.00  0.00     0.022 A 
BRANCH  63  67
ATOM     67  S   UNL A   1      47.246  35.654  26.180  1.00  0.00     0.124 S 
ATOM     68  O   UNL A   1      48.704  35.728  26.154  1.00  0.00    -0.237 OA
ATOM     69  O   UNL A   1      46.630  34.860  25.122  1.00  0.00    -0.237 OA
ATOM     70  O   UNL A   1      46.566  36.910  26.486  1.00  0.00    -0.744 OA
ENDBRANCH  63  67
ENDBRANCH  37  60
ENDBRANCH  11  12
ENDBRANCH   4   6
ENDBRANCH   1   2
BRANCH   1  71
ATOM     71  C   UNL A   1      38.178  19.822  25.147  1.00  0.00     0.042 C 
BRANCH  71  72
ATOM     72  C   UNL A   1      37.363  21.005  24.663  1.00  0.00     0.118 C 
BRANCH  72  73
ATOM     73  N   UNL A   1      36.900  21.822  25.771  1.00  0.00    -0.352 N 
ATOM     74  C   UNL A   1      35.640  22.240  26.076  1.00  0.00     0.253 C 
ATOM     75  H   UNL A   1      37.602  22.119  26.394  1.00  0.00     0.163 HD
ATOM     76  O   UNL A   1      35.469  23.033  26.999  1.00  0.00    -0.269 OA
BRANCH  74  77
ATOM     77  C   UNL A   1      34.485  21.818  25.285  1.00  0.00     0.070 A 
ATOM     78  C   UNL A   1      33.716  20.829  25.897  1.00  0.00     0.125 A 
ATOM     79  C   UNL A   1      34.075  22.295  24.038  1.00  0.00     0.056 A 
ATOM     80  N   UNL A   1      32.552  20.349  25.401  1.00  0.00    -0.264 NA
ATOM     81  C   UNL A   1      32.849  21.825  23.532  1.00  0.00     0.035 A 
ATOM     82  C   UNL A   1      32.131  20.878  24.242  1.00  0.00     0.112 A 
BRANCH  79  83
ATOM     83  C   UNL A   1      34.706  23.367  23.221  1.00  0.00     0.256 C 
ATOM     84  O   UNL A   1      35.521  23.010  22.363  1.00  0.00    -0.269 OA
ATOM     85  N   UNL A   1      34.396  24.703  23.257  1.00  0.00    -0.322 N 
ATOM     86  H   UNL A   1      34.755  25.206  22.490  1.00  0.00     0.170 HD
BRANCH  85  87
ATOM     87  C   UNL A   1      33.682  25.498  24.154  1.00  0.00     0.043 A 
ATOM     88  C   UNL A   1      34.160  25.866  25.408  1.00  0.00     0.028 A 
ATOM     89  C   UNL A   1      32.407  25.911  23.746  1.00  0.00     0.048 A 
ATOM     90  C   UNL A   1      33.329  26.571  26.286  1.00  0.00     0.024 A 
ATOM     91  C   UNL A   1      31.564  26.583  24.635  1.00  0.00     0.061 A 
ATOM     92  C   UNL A   1      32.024  26.907  25.915  1.00  0.00     0.059 A 
ATOM     93  Cl  UNL A   1      29.961  26.939  24.101  1.00  0.00    -0.083 Cl
ATOM     94  Cl  UNL A   1      31.033  27.712  27.077  1.00  0.00    -0.083 Cl
ENDBRANCH  85  87
ENDBRANCH  79  83
ENDBRANCH  74  77
ENDBRANCH  72  73
ENDBRANCH  71  72
ENDBRANCH   1  71
TORSDOF 15
ENDMDL
MODEL 3
REMARK VINA RESULT:     -12.2      1.253      1.479
REMARK SMILES O=C(NCCCNC(=O)c1cnccc1C(=O)Nc1ccc(Cl)c(Cl)c1)c1ccc(-c2c3nc(c(-c4cc(S(=O)(=O)[O-])ccc4F)c4ccc([nH]4)c(-c4cc(S(=O)(=O)[O-])ccc4F)c4nc(c(-c5cc(S(=O)(=O)[O-])ccc5F)c5ccc2[nH]5)C=C4)C=C3)cc1
REMARK SMILES IDX 4 1 3 2 1 3 2 4 27 6 28 7 89 8 29 9 88 10 30 11 31 12 32 13
REMARK SMILES IDX 82 14 33 15 87 16 81 17 83 18 34 19 86 20 80 21 79 22 35 24
REMARK SMILES IDX 67 25 47 26 66 27 48 28 51 29 65 30 84 31 49 32 50 33 64 35
REMARK SMILES IDX 85 36 52 37 36 38 37 39 45 40 38 41 44 42 46 43 43 44 39 45
REMARK SMILES IDX 40 46 41 47 42 48 68 49 69 50 77 51 70 52 76 53 78 54 75 55
REMARK SMILES IDX 71 56 72 57 73 58 74 59 53 60 54 61 62 62 55 63 61 64 63 65
REMARK SMILES IDX 60 66 56 67 57 68 58 69 59 70 5 71 6 72 7 73 8 74 9 76 10 77
REMARK SMILES IDX 11 78 15 79 12 80 14 81 13 82 16 83 17 84 18 85 19 87 20 88
REMARK SMILES IDX 26 89 21 90 24 91 22 92 25 93 23 94
REMARK H PARENT 3 5 83 23 51 34 7 75 18 86
REMARK Flexibility Score: inf
ROOT
ATOM      1  C   UNL A   1      32.797  32.783  27.459  1.00  0.00     0.118 C 
ENDROOT
BRANCH   1   2
ATOM      2  N   UNL A   1      32.515  34.155  27.854  1.00  0.00    -0.352 N 
ATOM      3  O   UNL A   1      32.734  36.009  29.135  1.00  0.00    -0.269 OA
ATOM      4  C   UNL A   1      33.149  34.897  28.826  1.00  0.00     0.251 C 
ATOM      5  H   UNL A   1      31.786  34.606  27.371  1.00  0.00     0.163 HD
BRANCH   4   6
ATOM      6  C   UNL A   1      34.317  34.303  29.510  1.00  0.00     0.039 A 
ATOM      7  C   UNL A   1      35.601  34.530  29.010  1.00  0.00     0.014 A 
ATOM      8  C   UNL A   1      34.114  33.447  30.593  1.00  0.00     0.014 A 
ATOM      9  C   UNL A   1      36.665  33.786  29.498  1.00  0.00     0.010 A 
ATOM     10  C   UNL A   1      35.204  32.775  31.150  1.00  0.00     0.010 A 
ATOM     11  C   UNL A   1      36.485  32.923  30.592  1.00  0.00    -0.014 A 
BRANCH  11  12
ATOM     12  C   UNL A   1      37.673  32.282  31.211  1.00  0.00     0.031 A 
ATOM     13  C   UNL A   1      38.411  31.164  30.529  1.00  0.00     0.074 A 
ATOM     14  C   UNL A   1      38.070  32.736  32.416  1.00  0.00     0.049 A 
ATOM     15  N   UNL A   1      39.432  30.472  30.965  1.00  0.00    -0.248 NA
ATOM     16  C   UNL A   1      37.942  30.763  29.193  1.00  0.00     0.031 C 
ATOM     17  C   UNL A   1      37.411  33.813  33.164  1.00  0.00     0.029 A 
ATOM     18  N   UNL A   1      39.109  32.364  33.225  1.00  0.00    -0.354 N 
ATOM     19  C   UNL A   1      39.714  29.536  29.976  1.00  0.00     0.074 A 
ATOM     20  C   UNL A   1      38.749  29.744  28.917  1.00  0.00     0.031 C 
ATOM     21  C   UNL A   1      38.080  34.035  34.303  1.00  0.00     0.029 A 
ATOM     22  C   UNL A   1      39.159  33.062  34.409  1.00  0.00     0.049 A 
ATOM     23  H   UNL A   1      39.759  31.665  32.982  1.00  0.00     0.167 HD
ATOM     24  C   UNL A   1      40.687  28.591  29.966  1.00  0.00     0.034 A 
ATOM     25  C   UNL A   1      39.950  32.907  35.487  1.00  0.00     0.034 A 
ATOM     26  C   UNL A   1      41.650  28.420  31.028  1.00  0.00     0.049 A 
ATOM     27  C   UNL A   1      40.992  31.827  35.456  1.00  0.00     0.074 A 
ATOM     28  C   UNL A   1      42.731  27.556  31.079  1.00  0.00     0.029 A 
ATOM     29  N   UNL A   1      41.641  29.113  32.232  1.00  0.00    -0.354 N 
ATOM     30  N   UNL A   1      41.270  30.980  34.493  1.00  0.00    -0.248 NA
ATOM     31  C   UNL A   1      41.821  31.674  36.657  1.00  0.00     0.031 C 
ATOM     32  C   UNL A   1      43.331  27.676  32.338  1.00  0.00     0.029 A 
ATOM     33  C   UNL A   1      42.665  28.660  33.051  1.00  0.00     0.049 A 
ATOM     34  H   UNL A   1      41.000  29.821  32.470  1.00  0.00     0.167 HD
ATOM     35  C   UNL A   1      42.309  30.192  34.974  1.00  0.00     0.074 A 
ATOM     36  C   UNL A   1      42.629  30.690  36.297  1.00  0.00     0.031 C 
ATOM     37  C   UNL A   1      42.940  29.148  34.380  1.00  0.00     0.034 A 
BRANCH  24  38
ATOM     38  C   UNL A   1      40.737  27.632  28.804  1.00  0.00     0.023 A 
ATOM     39  C   UNL A   1      41.699  27.736  27.786  1.00  0.00     0.031 A 
ATOM     40  C   UNL A   1      39.820  26.565  28.740  1.00  0.00     0.131 A 
ATOM     41  C   UNL A   1      41.704  26.808  26.732  1.00  0.00     0.055 A 
ATOM     42  C   UNL A   1      39.865  25.614  27.719  1.00  0.00     0.041 A 
ATOM     43  F   UNL A   1      38.868  26.428  29.676  1.00  0.00    -0.206 F 
ATOM     44  C   UNL A   1      40.808  25.735  26.704  1.00  0.00     0.022 A 
BRANCH  41  45
ATOM     45  S   UNL A   1      42.854  27.059  25.351  1.00  0.00     0.124 S 
ATOM     46  O   UNL A   1      44.104  27.341  26.055  1.00  0.00    -0.237 OA
ATOM     47  O   UNL A   1      42.791  25.782  24.650  1.00  0.00    -0.237 OA
ATOM     48  O   UNL A   1      42.284  28.194  24.629  1.00  0.00    -0.744 OA
ENDBRANCH  41  45
ENDBRANCH  24  38
BRANCH  25  49
ATOM     49  C   UNL A   1      39.734  33.741  36.701  1.00  0.00     0.023 A 
ATOM     50  C   UNL A   1      40.601  34.794  37.024  1.00  0.00     0.031 A 
ATOM     51  C   UNL A   1      38.665  33.474  37.577  1.00  0.00     0.131 A 
ATOM     52  C   UNL A   1      40.409  35.517  38.211  1.00  0.00     0.055 A 
ATOM     53  C   UNL A   1      38.443  34.232  38.726  1.00  0.00     0.041 A 
ATOM     54  F   UNL A   1      37.803  32.478  37.314  1.00  0.00    -0.206 F 
ATOM     55  C   UNL A   1      39.328  35.253  39.056  1.00  0.00     0.022 A 
BRANCH  52  56
ATOM     56  S   UNL A   1      41.653  36.747  38.687  1.00  0.00     0.124 S 
ATOM     57  O   UNL A   1      42.578  35.945  39.481  1.00  0.00    -0.237 OA
ATOM     58  O   UNL A   1      42.144  37.196  37.389  1.00  0.00    -0.237 OA
ATOM     59  O   UNL A   1      40.881  37.736  39.438  1.00  0.00    -0.744 OA
ENDBRANCH  52  56
ENDBRANCH  25  49
BRANCH  37  60
ATOM     60  C   UNL A   1      44.037  28.493  35.176  1.00  0.00     0.023 A 
ATOM     61  C   UNL A   1      43.761  27.428  36.051  1.00  0.00     0.031 A 
ATOM     62  C   UNL A   1      45.358  28.964  35.093  1.00  0.00     0.131 A 
ATOM     63  C   UNL A   1      44.785  26.904  36.853  1.00  0.00     0.055 A 
ATOM     64  C   UNL A   1      46.383  28.401  35.853  1.00  0.00     0.041 A 
ATOM     65  F   UNL A   1      45.669  29.982  34.276  1.00  0.00    -0.206 F 
ATOM     66  C   UNL A   1      46.097  27.373  36.748  1.00  0.00     0.022 A 
BRANCH  63  67
ATOM     67  S   UNL A   1      44.361  25.655  38.097  1.00  0.00     0.124 S 
ATOM     68  O   UNL A   1      43.805  26.474  39.170  1.00  0.00    -0.237 OA
ATOM     69  O   UNL A   1      43.410  24.810  37.382  1.00  0.00    -0.237 OA
ATOM     70  O   UNL A   1      45.644  25.023  38.399  1.00  0.00    -0.744 OA
ENDBRANCH  63  67
ENDBRANCH  37  60
ENDBRANCH  11  12
ENDBRANCH   4   6
ENDBRANCH   1   2
BRANCH   1  71
ATOM     71  C   UNL A   1      31.752  32.203  26.516  1.00  0.00     0.042 C 
BRANCH  71  72
ATOM     72  C   UNL A   1      31.702  30.688  26.553  1.00  0.00     0.118 C 
BRANCH  72  73
ATOM     73  N   UNL A   1      32.934  30.102  26.055  1.00  0.00    -0.352 N 
ATOM     74  C   UNL A   1      33.117  29.079  25.174  1.00  0.00     0.253 C 
ATOM     75  H   UNL A   1      33.761  30.503  26.408  1.00  0.00     0.163 HD
ATOM     76  O   UNL A   1      34.249  28.646  24.970  1.00  0.00    -0.269 OA
BRANCH  74  77
ATOM     77  C   UNL A   1      31.985  28.433  24.511  1.00  0.00     0.070 A 
ATOM     78  C   UNL A   1      31.710  28.944  23.243  1.00  0.00     0.125 A 
ATOM     79  C   UNL A   1      31.192  27.386  24.986  1.00  0.00     0.056 A 
ATOM     80  N   UNL A   1      30.773  28.446  22.404  1.00  0.00    -0.264 NA
ATOM     81  C   UNL A   1      30.238  26.841  24.106  1.00  0.00     0.035 A 
ATOM     82  C   UNL A   1      30.076  27.386  22.845  1.00  0.00     0.112 A 
BRANCH  79  83
ATOM     83  C   UNL A   1      31.322  26.659  26.278  1.00  0.00     0.256 C 
ATOM     84  O   UNL A   1      30.654  27.083  27.227  1.00  0.00    -0.269 OA
ATOM     85  N   UNL A   1      32.031  25.505  26.491  1.00  0.00    -0.322 N 
ATOM     86  H   UNL A   1      31.809  25.063  27.342  1.00  0.00     0.170 HD
BRANCH  85  87
ATOM     87  C   UNL A   1      33.005  24.827  25.755  1.00  0.00     0.043 A 
ATOM     88  C   UNL A   1      34.367  25.097  25.847  1.00  0.00     0.028 A 
ATOM     89  C   UNL A   1      32.548  23.844  24.868  1.00  0.00     0.048 A 
ATOM     90  C   UNL A   1      35.261  24.446  24.989  1.00  0.00     0.024 A 
ATOM     91  C   UNL A   1      33.435  23.222  23.986  1.00  0.00     0.061 A 
ATOM     92  C   UNL A   1      34.797  23.530  24.040  1.00  0.00     0.059 A 
ATOM     93  Cl  UNL A   1      32.772  22.121  22.833  1.00  0.00    -0.083 Cl
ATOM     94  Cl  UNL A   1      35.948  22.822  22.967  1.00  0.00    -0.083 Cl
ENDBRANCH  85  87
ENDBRANCH  79  83
ENDBRANCH  74  77
ENDBRANCH  72  73
ENDBRANCH  71  72
ENDBRANCH   1  71
TORSDOF 15
ENDMDL
