MODEL 1
REMARK VINA RESULT:     -11.1      0.000      0.000
REMARK SMILES O=C(NCCCNC(=O)[C@H]1CCCCN1c1ccnc2ccccc12)c1ccc(-c2c3nc(c(-c4cc(S(=O)(=O)[O-])ccc4F)c4ccc([nH]4)c(-c4cc(S(=O)(=O)[O-])ccc4F)c4nc(c(-c5cc(S(=O)(=O)[O-])ccc5F)c5ccc2[nH]5)C=C4)C=C3)cc1
REMARK SMILES IDX 4 1 3 2 1 3 2 4 26 6 27 7 88 8 28 9 87 10 29 11 30 12 31 13
REMARK SMILES IDX 81 14 32 15 86 16 80 17 82 18 33 19 85 20 79 21 78 22 34 24
REMARK SMILES IDX 66 25 46 26 65 27 47 28 50 29 64 30 83 31 48 32 49 33 63 35
REMARK SMILES IDX 84 36 51 37 35 38 36 39 44 40 37 41 43 42 45 43 42 44 38 45
REMARK SMILES IDX 39 46 40 47 41 48 67 49 68 50 76 51 69 52 75 53 77 54 74 55
REMARK SMILES IDX 70 56 71 57 72 58 73 59 52 60 53 61 61 62 54 63 60 64 62 65
REMARK SMILES IDX 59 66 55 67 56 68 57 69 58 70 5 71 6 72 7 73 8 74 9 76 10 77
REMARK SMILES IDX 11 78 15 79 12 80 14 81 13 82 16 83 17 84 25 85 18 86 20 87
REMARK SMILES IDX 24 88 19 89 21 90 23 91 22 92
REMARK H PARENT 3 5 82 23 50 34 7 75
REMARK Flexibility Score: inf
ROOT
ATOM      1  C   UNL A   1      34.249  32.980  28.766  1.00  0.00     0.118 C 
ENDROOT
BRANCH   1   2
ATOM      2  N   UNL A   1      33.753  31.956  27.862  1.00  0.00    -0.352 N 
ATOM      3  O   UNL A   1      33.813  30.152  26.526  1.00  0.00    -0.269 OA
ATOM      4  C   UNL A   1      34.346  30.796  27.431  1.00  0.00     0.251 C 
ATOM      5  H   UNL A   1      32.850  32.120  27.504  1.00  0.00     0.163 HD
BRANCH   4   6
ATOM      6  C   UNL A   1      35.618  30.320  28.025  1.00  0.00     0.039 A 
ATOM      7  C   UNL A   1      35.643  29.658  29.254  1.00  0.00     0.014 A 
ATOM      8  C   UNL A   1      36.808  30.493  27.309  1.00  0.00     0.014 A 
ATOM      9  C   UNL A   1      36.858  29.297  29.829  1.00  0.00     0.010 A 
ATOM     10  C   UNL A   1      38.018  30.037  27.842  1.00  0.00     0.010 A 
ATOM     11  C   UNL A   1      38.058  29.451  29.116  1.00  0.00    -0.014 A 
BRANCH  11  12
ATOM     12  C   UNL A   1      39.322  28.907  29.682  1.00  0.00     0.031 A 
ATOM     13  C   UNL A   1      39.969  29.530  30.888  1.00  0.00     0.074 A 
ATOM     14  C   UNL A   1      39.887  27.835  29.090  1.00  0.00     0.049 A 
ATOM     15  N   UNL A   1      41.086  29.201  31.486  1.00  0.00    -0.248 NA
ATOM     16  C   UNL A   1      39.277  30.675  31.497  1.00  0.00     0.031 C 
ATOM     17  C   UNL A   1      39.352  27.148  27.911  1.00  0.00     0.029 A 
ATOM     18  N   UNL A   1      41.021  27.127  29.396  1.00  0.00    -0.354 N 
ATOM     19  C   UNL A   1      41.243  30.103  32.532  1.00  0.00     0.074 A 
ATOM     20  C   UNL A   1      40.119  31.017  32.462  1.00  0.00     0.031 C 
ATOM     21  C   UNL A   1      40.131  26.099  27.620  1.00  0.00     0.029 A 
ATOM     22  C   UNL A   1      41.266  26.082  28.533  1.00  0.00     0.049 A 
ATOM     23  H   UNL A   1      41.603  27.344  30.159  1.00  0.00     0.167 HD
ATOM     24  C   UNL A   1      42.228  30.157  33.465  1.00  0.00     0.034 A 
ATOM     25  C   UNL A   1      42.304  25.227  28.460  1.00  0.00     0.034 A 
ATOM     26  C   UNL A   1      43.343  29.238  33.512  1.00  0.00     0.049 A 
ATOM     27  C   UNL A   1      43.417  25.352  29.464  1.00  0.00     0.074 A 
ATOM     28  C   UNL A   1      44.375  29.184  34.434  1.00  0.00     0.029 A 
ATOM     29  N   UNL A   1      43.584  28.225  32.593  1.00  0.00    -0.354 N 
ATOM     30  N   UNL A   1      43.536  26.198  30.461  1.00  0.00    -0.248 NA
ATOM     31  C   UNL A   1      44.533  24.409  29.335  1.00  0.00     0.031 C 
ATOM     32  C   UNL A   1      45.277  28.196  34.028  1.00  0.00     0.029 A 
ATOM     33  C   UNL A   1      44.767  27.569  32.903  1.00  0.00     0.049 A 
ATOM     34  H   UNL A   1      43.000  28.004  31.832  1.00  0.00     0.167 HD
ATOM     35  C   UNL A   1      44.732  25.870  31.093  1.00  0.00     0.074 A 
ATOM     36  C   UNL A   1      45.283  24.739  30.376  1.00  0.00     0.031 C 
ATOM     37  C   UNL A   1      45.318  26.451  32.171  1.00  0.00     0.034 A 
BRANCH  24  38
ATOM     38  C   UNL A   1      42.167  31.271  34.483  1.00  0.00     0.023 A 
ATOM     39  C   UNL A   1      41.169  31.317  35.473  1.00  0.00     0.031 A 
ATOM     40  C   UNL A   1      43.115  32.310  34.461  1.00  0.00     0.131 A 
ATOM     41  C   UNL A   1      41.100  32.410  36.351  1.00  0.00     0.055 A 
ATOM     42  C   UNL A   1      43.090  33.353  35.390  1.00  0.00     0.041 A 
ATOM     43  F   UNL A   1      44.081  32.334  33.529  1.00  0.00    -0.206 F 
ATOM     44  C   UNL A   1      42.069  33.415  36.333  1.00  0.00     0.022 A 
BRANCH  41  45
ATOM     45  S   UNL A   1      39.640  32.571  37.415  1.00  0.00     0.124 S 
ATOM     46  O   UNL A   1      40.241  32.553  38.746  1.00  0.00    -0.237 OA
ATOM     47  O   UNL A   1      39.078  33.846  36.984  1.00  0.00    -0.237 OA
ATOM     48  O   UNL A   1      38.843  31.392  37.082  1.00  0.00    -0.744 OA
ENDBRANCH  41  45
ENDBRANCH  24  38
BRANCH  25  49
ATOM     49  C   UNL A   1      42.362  24.210  27.371  1.00  0.00     0.023 A 
ATOM     50  C   UNL A   1      41.628  23.017  27.452  1.00  0.00     0.031 A 
ATOM     51  C   UNL A   1      43.182  24.404  26.243  1.00  0.00     0.131 A 
ATOM     52  C   UNL A   1      41.762  22.046  26.448  1.00  0.00     0.055 A 
ATOM     53  C   UNL A   1      43.263  23.463  25.217  1.00  0.00     0.041 A 
ATOM     54  F   UNL A   1      43.906  25.527  26.114  1.00  0.00    -0.206 F 
ATOM     55  C   UNL A   1      42.560  22.267  25.323  1.00  0.00     0.022 A 
BRANCH  52  56
ATOM     56  S   UNL A   1      40.947  20.443  26.681  1.00  0.00     0.124 S 
ATOM     57  O   UNL A   1      41.890  19.535  26.037  1.00  0.00    -0.237 OA
ATOM     58  O   UNL A   1      40.864  20.354  28.135  1.00  0.00    -0.237 OA
ATOM     59  O   UNL A   1      39.669  20.607  25.993  1.00  0.00    -0.744 OA
ENDBRANCH  52  56
ENDBRANCH  25  49
BRANCH  37  60
ATOM     60  C   UNL A   1      46.607  25.837  32.661  1.00  0.00     0.023 A 
ATOM     61  C   UNL A   1      46.622  24.815  33.626  1.00  0.00     0.031 A 
ATOM     62  C   UNL A   1      47.840  26.295  32.164  1.00  0.00     0.131 A 
ATOM     63  C   UNL A   1      47.847  24.324  34.104  1.00  0.00     0.055 A 
ATOM     64  C   UNL A   1      49.053  25.757  32.595  1.00  0.00     0.041 A 
ATOM     65  F   UNL A   1      47.886  27.274  31.246  1.00  0.00    -0.206 F 
ATOM     66  C   UNL A   1      49.062  24.774  33.580  1.00  0.00     0.022 A 
BRANCH  63  67
ATOM     67  S   UNL A   1      47.835  23.153  35.490  1.00  0.00     0.124 S 
ATOM     68  O   UNL A   1      49.190  23.292  36.014  1.00  0.00    -0.237 OA
ATOM     69  O   UNL A   1      46.768  23.679  36.335  1.00  0.00    -0.237 OA
ATOM     70  O   UNL A   1      47.544  21.870  34.853  1.00  0.00    -0.744 OA
ENDBRANCH  63  67
ENDBRANCH  37  60
ENDBRANCH  11  12
ENDBRANCH   4   6
ENDBRANCH   1   2
BRANCH   1  71
ATOM     71  C   UNL A   1      33.613  34.340  28.532  1.00  0.00     0.042 C 
BRANCH  71  72
ATOM     72  C   UNL A   1      33.708  35.311  29.696  1.00  0.00     0.117 C 
BRANCH  72  73
ATOM     73  N   UNL A   1      33.120  34.759  30.904  1.00  0.00    -0.354 N 
ATOM     74  C   UNL A   1      33.698  34.470  32.108  1.00  0.00     0.242 C 
ATOM     75  H   UNL A   1      32.157  34.564  30.846  1.00  0.00     0.163 HD
ATOM     76  O   UNL A   1      32.978  33.927  32.951  1.00  0.00    -0.273 OA
BRANCH  74  77
ATOM     77  C   UNL A   1      35.174  34.859  32.386  1.00  0.00     0.171 C 
ATOM     78  C   UNL A   1      35.348  35.365  33.831  1.00  0.00     0.035 C 
ATOM     79  N   UNL A   1      36.098  33.728  32.127  1.00  0.00    -0.359 N 
ATOM     80  C   UNL A   1      35.349  34.248  34.874  1.00  0.00     0.004 C 
ATOM     81  C   UNL A   1      36.103  32.624  33.088  1.00  0.00     0.117 C 
ATOM     82  C   UNL A   1      36.338  33.149  34.503  1.00  0.00     0.022 C 
BRANCH  79  83
ATOM     83  C   UNL A   1      37.158  33.871  31.227  1.00  0.00     0.048 A 
ATOM     84  C   UNL A   1      36.935  33.645  29.864  1.00  0.00     0.046 A 
ATOM     85  C   UNL A   1      38.494  34.181  31.638  1.00  0.00     0.024 A 
ATOM     86  C   UNL A   1      37.997  33.678  28.985  1.00  0.00     0.114 A 
ATOM     87  C   UNL A   1      39.513  34.138  30.654  1.00  0.00     0.072 A 
ATOM     88  C   UNL A   1      38.884  34.472  32.972  1.00  0.00     0.012 A 
ATOM     89  N   UNL A   1      39.268  33.893  29.358  1.00  0.00    -0.256 NA
ATOM     90  C   UNL A   1      40.836  34.325  31.035  1.00  0.00     0.029 A 
ATOM     91  C   UNL A   1      40.220  34.657  33.331  1.00  0.00     0.001 A 
ATOM     92  C   UNL A   1      41.202  34.572  32.358  1.00  0.00     0.002 A 
ENDBRANCH  79  83
ENDBRANCH  74  77
ENDBRANCH  72  73
ENDBRANCH  71  72
ENDBRANCH   1  71
TORSDOF 14
ENDMDL
MODEL 2
REMARK VINA RESULT:     -11.0      4.141     10.275
REMARK SMILES O=C(NCCCNC(=O)[C@H]1CCCCN1c1ccnc2ccccc12)c1ccc(-c2c3nc(c(-c4cc(S(=O)(=O)[O-])ccc4F)c4ccc([nH]4)c(-c4cc(S(=O)(=O)[O-])ccc4F)c4nc(c(-c5cc(S(=O)(=O)[O-])ccc5F)c5ccc2[nH]5)C=C4)C=C3)cc1
REMARK SMILES IDX 4 1 3 2 1 3 2 4 26 6 27 7 88 8 28 9 87 10 29 11 30 12 31 13
REMARK SMILES IDX 81 14 32 15 86 16 80 17 82 18 33 19 85 20 79 21 78 22 34 24
REMARK SMILES IDX 66 25 46 26 65 27 47 28 50 29 64 30 83 31 48 32 49 33 63 35
REMARK SMILES IDX 84 36 51 37 35 38 36 39 44 40 37 41 43 42 45 43 42 44 38 45
REMARK SMILES IDX 39 46 40 47 41 48 67 49 68 50 76 51 69 52 75 53 77 54 74 55
REMARK SMILES IDX 70 56 71 57 72 58 73 59 52 60 53 61 61 62 54 63 60 64 62 65
REMARK SMILES IDX 59 66 55 67 56 68 57 69 58 70 5 71 6 72 7 73 8 74 9 76 10 77
REMARK SMILES IDX 11 78 15 79 12 80 14 81 13 82 16 83 17 84 25 85 18 86 20 87
REMARK SMILES IDX 24 88 19 89 21 90 23 91 22 92
REMARK H PARENT 3 5 82 23 50 34 7 75
REMARK Flexibility Score: inf
ROOT
ATOM      1  C   UNL A   1      32.943  32.508  27.080  1.00  0.00     0.118 C 
ENDROOT
BRANCH   1   2
ATOM      2  N   UNL A   1      32.682  33.839  27.601  1.00  0.00    -0.352 N 
ATOM      3  O   UNL A   1      32.741  35.556  29.047  1.00  0.00    -0.269 OA
ATOM      4  C   UNL A   1      33.233  34.489  28.677  1.00  0.00     0.251 C 
ATOM      5  H   UNL A   1      32.004  34.354  27.106  1.00  0.00     0.163 HD
BRANCH   4   6
ATOM      6  C   UNL A   1      34.393  33.921  29.402  1.00  0.00     0.039 A 
ATOM      7  C   UNL A   1      34.227  32.955  30.397  1.00  0.00     0.014 A 
ATOM      8  C   UNL A   1      35.684  34.325  29.041  1.00  0.00     0.014 A 
ATOM      9  C   UNL A   1      35.326  32.500  31.120  1.00  0.00     0.010 A 
ATOM     10  C   UNL A   1      36.795  33.789  29.700  1.00  0.00     0.010 A 
ATOM     11  C   UNL A   1      36.627  32.884  30.759  1.00  0.00    -0.014 A 
BRANCH  11  12
ATOM     12  C   UNL A   1      37.792  32.258  31.439  1.00  0.00     0.031 A 
ATOM     13  C   UNL A   1      38.579  31.157  30.783  1.00  0.00     0.074 A 
ATOM     14  C   UNL A   1      38.138  32.696  32.666  1.00  0.00     0.049 A 
ATOM     15  N   UNL A   1      39.600  30.482  31.250  1.00  0.00    -0.248 NA
ATOM     16  C   UNL A   1      38.162  30.755  29.432  1.00  0.00     0.031 C 
ATOM     17  C   UNL A   1      37.446  33.757  33.404  1.00  0.00     0.029 A 
ATOM     18  N   UNL A   1      39.155  32.321  33.507  1.00  0.00    -0.354 N 
ATOM     19  C   UNL A   1      39.940  29.566  30.261  1.00  0.00     0.074 A 
ATOM     20  C   UNL A   1      38.991  29.751  29.181  1.00  0.00     0.031 C 
ATOM     21  C   UNL A   1      38.079  33.974  34.563  1.00  0.00     0.029 A 
ATOM     22  C   UNL A   1      39.170  33.017  34.695  1.00  0.00     0.049 A 
ATOM     23  H   UNL A   1      39.811  31.623  33.282  1.00  0.00     0.167 HD
ATOM     24  C   UNL A   1      40.954  28.664  30.254  1.00  0.00     0.034 A 
ATOM     25  C   UNL A   1      39.949  32.878  35.785  1.00  0.00     0.034 A 
ATOM     26  C   UNL A   1      41.887  28.493  31.346  1.00  0.00     0.049 A 
ATOM     27  C   UNL A   1      41.021  31.824  35.779  1.00  0.00     0.074 A 
ATOM     28  C   UNL A   1      42.969  27.633  31.426  1.00  0.00     0.029 A 
ATOM     29  N   UNL A   1      41.841  29.180  32.552  1.00  0.00    -0.354 N 
ATOM     30  N   UNL A   1      41.344  30.982  34.824  1.00  0.00    -0.248 NA
ATOM     31  C   UNL A   1      41.835  31.700  36.993  1.00  0.00     0.031 C 
ATOM     32  C   UNL A   1      43.525  27.742  32.705  1.00  0.00     0.029 A 
ATOM     33  C   UNL A   1      42.849  28.734  33.396  1.00  0.00     0.049 A 
ATOM     34  H   UNL A   1      41.188  29.882  32.777  1.00  0.00     0.167 HD
ATOM     35  C   UNL A   1      42.417  30.245  35.318  1.00  0.00     0.074 A 
ATOM     36  C   UNL A   1      42.696  30.756  36.643  1.00  0.00     0.031 C 
ATOM     37  C   UNL A   1      43.109  29.239  34.725  1.00  0.00     0.034 A 
BRANCH  24  38
ATOM     38  C   UNL A   1      41.081  27.763  29.048  1.00  0.00     0.023 A 
ATOM     39  C   UNL A   1      42.077  27.962  28.076  1.00  0.00     0.031 A 
ATOM     40  C   UNL A   1      40.188  26.692  28.861  1.00  0.00     0.131 A 
ATOM     41  C   UNL A   1      42.113  27.152  26.931  1.00  0.00     0.055 A 
ATOM     42  C   UNL A   1      40.280  25.838  27.760  1.00  0.00     0.041 A 
ATOM     43  F   UNL A   1      39.203  26.462  29.744  1.00  0.00    -0.206 F 
ATOM     44  C   UNL A   1      41.237  26.075  26.778  1.00  0.00     0.022 A 
BRANCH  41  45
ATOM     45  S   UNL A   1      43.223  27.621  25.576  1.00  0.00     0.124 S 
ATOM     46  O   UNL A   1      42.286  28.182  24.606  1.00  0.00    -0.237 OA
ATOM     47  O   UNL A   1      44.120  28.573  26.221  1.00  0.00    -0.237 OA
ATOM     48  O   UNL A   1      43.835  26.354  25.181  1.00  0.00    -0.744 OA
ENDBRANCH  41  45
ENDBRANCH  24  38
BRANCH  25  49
ATOM     49  C   UNL A   1      39.714  33.728  36.987  1.00  0.00     0.023 A 
ATOM     50  C   UNL A   1      39.052  33.223  38.117  1.00  0.00     0.031 A 
ATOM     51  C   UNL A   1      40.121  35.076  37.011  1.00  0.00     0.131 A 
ATOM     52  C   UNL A   1      38.778  34.068  39.202  1.00  0.00     0.055 A 
ATOM     53  C   UNL A   1      39.902  35.895  38.118  1.00  0.00     0.041 A 
ATOM     54  F   UNL A   1      40.758  35.612  35.957  1.00  0.00    -0.206 F 
ATOM     55  C   UNL A   1      39.214  35.396  39.218  1.00  0.00     0.022 A 
BRANCH  52  56
ATOM     56  S   UNL A   1      37.758  33.432  40.559  1.00  0.00     0.124 S 
ATOM     57  O   UNL A   1      36.597  32.919  39.842  1.00  0.00    -0.237 OA
ATOM     58  O   UNL A   1      38.637  32.432  41.155  1.00  0.00    -0.237 OA
ATOM     59  O   UNL A   1      37.512  34.614  41.382  1.00  0.00    -0.744 OA
ENDBRANCH  52  56
ENDBRANCH  25  49
BRANCH  37  60
ATOM     60  C   UNL A   1      44.266  28.657  35.500  1.00  0.00     0.023 A 
ATOM     61  C   UNL A   1      44.092  27.598  36.408  1.00  0.00     0.031 A 
ATOM     62  C   UNL A   1      45.560  29.182  35.338  1.00  0.00     0.131 A 
ATOM     63  C   UNL A   1      45.184  27.136  37.160  1.00  0.00     0.055 A 
ATOM     64  C   UNL A   1      46.654  28.675  36.040  1.00  0.00     0.041 A 
ATOM     65  F   UNL A   1      45.783  30.199  34.488  1.00  0.00    -0.206 F 
ATOM     66  C   UNL A   1      46.467  27.654  36.967  1.00  0.00     0.022 A 
BRANCH  63  67
ATOM     67  S   UNL A   1      44.888  25.911  38.465  1.00  0.00     0.124 S 
ATOM     68  O   UNL A   1      46.247  25.577  38.879  1.00  0.00    -0.237 OA
ATOM     69  O   UNL A   1      44.095  26.666  39.429  1.00  0.00    -0.237 OA
ATOM     70  O   UNL A   1      44.169  24.842  37.775  1.00  0.00    -0.744 OA
ENDBRANCH  63  67
ENDBRANCH  37  60
ENDBRANCH  11  12
ENDBRANCH   4   6
ENDBRANCH   1   2
BRANCH   1  71
ATOM     71  C   UNL A   1      31.676  31.711  26.820  1.00  0.00     0.042 C 
BRANCH  71  72
ATOM     72  C   UNL A   1      31.845  30.201  26.820  1.00  0.00     0.117 C 
BRANCH  72  73
ATOM     73  N   UNL A   1      32.831  29.773  25.844  1.00  0.00    -0.354 N 
ATOM     74  C   UNL A   1      32.838  28.678  25.026  1.00  0.00     0.242 C 
ATOM     75  H   UNL A   1      33.615  30.362  25.757  1.00  0.00     0.163 HD
ATOM     76  O   UNL A   1      33.850  28.506  24.340  1.00  0.00    -0.273 OA
BRANCH  74  77
ATOM     77  C   UNL A   1      31.602  27.742  24.955  1.00  0.00     0.171 C 
ATOM     78  C   UNL A   1      30.558  28.285  23.961  1.00  0.00     0.035 C 
ATOM     79  N   UNL A   1      31.984  26.356  24.588  1.00  0.00    -0.359 N 
ATOM     80  C   UNL A   1      30.931  28.057  22.496  1.00  0.00     0.004 C 
ATOM     81  C   UNL A   1      32.379  26.107  23.200  1.00  0.00     0.117 C 
ATOM     82  C   UNL A   1      31.298  26.600  22.241  1.00  0.00     0.022 C 
BRANCH  79  83
ATOM     83  C   UNL A   1      31.638  25.283  25.415  1.00  0.00     0.048 A 
ATOM     84  C   UNL A   1      30.298  25.102  25.778  1.00  0.00     0.046 A 
ATOM     85  C   UNL A   1      32.602  24.381  25.967  1.00  0.00     0.024 A 
ATOM     86  C   UNL A   1      29.964  24.112  26.678  1.00  0.00     0.114 A 
ATOM     87  C   UNL A   1      32.150  23.435  26.920  1.00  0.00     0.072 A 
ATOM     88  C   UNL A   1      33.992  24.403  25.676  1.00  0.00     0.012 A 
ATOM     89  N   UNL A   1      30.860  23.304  27.265  1.00  0.00    -0.256 NA
ATOM     90  C   UNL A   1      33.073  22.617  27.559  1.00  0.00     0.029 A 
ATOM     91  C   UNL A   1      34.901  23.570  26.330  1.00  0.00     0.001 A 
ATOM     92  C   UNL A   1      34.439  22.680  27.285  1.00  0.00     0.002 A 
ENDBRANCH  79  83
ENDBRANCH  74  77
ENDBRANCH  72  73
ENDBRANCH  71  72
ENDBRANCH   1  71
TORSDOF 14
ENDMDL
MODEL 3
REMARK VINA RESULT:     -10.9      4.208     10.393
REMARK SMILES O=C(NCCCNC(=O)[C@H]1CCCCN1c1ccnc2ccccc12)c1ccc(-c2c3nc(c(-c4cc(S(=O)(=O)[O-])ccc4F)c4ccc([nH]4)c(-c4cc(S(=O)(=O)[O-])ccc4F)c4nc(c(-c5cc(S(=O)(=O)[O-])ccc5F)c5ccc2[nH]5)C=C4)C=C3)cc1
REMARK SMILES IDX 4 1 3 2 1 3 2 4 26 6 27 7 88 8 28 9 87 10 29 11 30 12 31 13
REMARK SMILES IDX 81 14 32 15 86 16 80 17 82 18 33 19 85 20 79 21 78 22 34 24
REMARK SMILES IDX 66 25 46 26 65 27 47 28 50 29 64 30 83 31 48 32 49 33 63 35
REMARK SMILES IDX 84 36 51 37 35 38 36 39 44 40 37 41 43 42 45 43 42 44 38 45
REMARK SMILES IDX 39 46 40 47 41 48 67 49 68 50 76 51 69 52 75 53 77 54 74 55
REMARK SMILES IDX 70 56 71 57 72 58 73 59 52 60 53 61 61 62 54 63 60 64 62 65
REMARK SMILES IDX 59 66 55 67 56 68 57 69 58 70 5 71 6 72 7 73 8 74 9 76 10 77
REMARK SMILES IDX 11 78 15 79 12 80 14 81 13 82 16 83 17 84 25 85 18 86 20 87
REMARK SMILES IDX 24 88 19 89 21 90 23 91 22 92
REMARK H PARENT 3 5 82 23 50 34 7 75
REMARK Flexibility Score: inf
ROOT
ATOM      1  C   UNL A   1      32.800  32.450  27.233  1.00  0.00     0.118 C 
ENDROOT
BRANCH   1   2
ATOM      2  N   UNL A   1      32.650  33.832  27.657  1.00  0.00    -0.352 N 
ATOM      3  O   UNL A   1      32.887  35.647  28.958  1.00  0.00    -0.269 OA
ATOM      4  C   UNL A   1      33.291  34.524  28.655  1.00  0.00     0.251 C 
ATOM      5  H   UNL A   1      31.986  34.353  27.150  1.00  0.00     0.163 HD
BRANCH   4   6
ATOM      6  C   UNL A   1      34.444  33.934  29.375  1.00  0.00     0.039 A 
ATOM      7  C   UNL A   1      34.265  32.955  30.354  1.00  0.00     0.014 A 
ATOM      8  C   UNL A   1      35.739  34.332  29.024  1.00  0.00     0.014 A 
ATOM      9  C   UNL A   1      35.357  32.479  31.074  1.00  0.00     0.010 A 
ATOM     10  C   UNL A   1      36.843  33.777  29.679  1.00  0.00     0.010 A 
ATOM     11  C   UNL A   1      36.663  32.857  30.724  1.00  0.00    -0.014 A 
BRANCH  11  12
ATOM     12  C   UNL A   1      37.820  32.210  31.398  1.00  0.00     0.031 A 
ATOM     13  C   UNL A   1      38.591  31.102  30.734  1.00  0.00     0.074 A 
ATOM     14  C   UNL A   1      38.174  32.637  32.627  1.00  0.00     0.049 A 
ATOM     15  N   UNL A   1      39.602  30.411  31.196  1.00  0.00    -0.248 NA
ATOM     16  C   UNL A   1      38.166  30.715  29.382  1.00  0.00     0.031 C 
ATOM     17  C   UNL A   1      37.499  33.703  33.372  1.00  0.00     0.029 A 
ATOM     18  N   UNL A   1      39.187  32.243  33.464  1.00  0.00    -0.354 N 
ATOM     19  C   UNL A   1      39.928  29.496  30.201  1.00  0.00     0.074 A 
ATOM     20  C   UNL A   1      38.980  29.700  29.124  1.00  0.00     0.031 C 
ATOM     21  C   UNL A   1      38.137  33.905  34.532  1.00  0.00     0.029 A 
ATOM     22  C   UNL A   1      39.214  32.931  34.656  1.00  0.00     0.049 A 
ATOM     23  H   UNL A   1      39.833  31.537  33.234  1.00  0.00     0.167 HD
ATOM     24  C   UNL A   1      40.929  28.579  30.188  1.00  0.00     0.034 A 
ATOM     25  C   UNL A   1      39.993  32.776  35.744  1.00  0.00     0.034 A 
ATOM     26  C   UNL A   1      41.861  28.388  31.277  1.00  0.00     0.049 A 
ATOM     27  C   UNL A   1      41.050  31.706  35.730  1.00  0.00     0.074 A 
ATOM     28  C   UNL A   1      42.931  27.513  31.351  1.00  0.00     0.029 A 
ATOM     29  N   UNL A   1      41.826  29.069  32.487  1.00  0.00    -0.354 N 
ATOM     30  N   UNL A   1      41.359  30.865  34.770  1.00  0.00    -0.248 NA
ATOM     31  C   UNL A   1      41.864  31.564  36.942  1.00  0.00     0.031 C 
ATOM     32  C   UNL A   1      43.490  27.606  32.629  1.00  0.00     0.029 A 
ATOM     33  C   UNL A   1      42.829  28.604  33.327  1.00  0.00     0.049 A 
ATOM     34  H   UNL A   1      41.184  29.779  32.716  1.00  0.00     0.167 HD
ATOM     35  C   UNL A   1      42.422  30.110  35.258  1.00  0.00     0.074 A 
ATOM     36  C   UNL A   1      42.711  30.609  36.586  1.00  0.00     0.031 C 
ATOM     37  C   UNL A   1      43.099  29.098  34.658  1.00  0.00     0.034 A 
BRANCH  24  38
ATOM     38  C   UNL A   1      41.042  27.683  28.977  1.00  0.00     0.023 A 
ATOM     39  C   UNL A   1      42.026  27.885  27.994  1.00  0.00     0.031 A 
ATOM     40  C   UNL A   1      40.144  26.615  28.795  1.00  0.00     0.131 A 
ATOM     41  C   UNL A   1      42.048  27.080  26.845  1.00  0.00     0.055 A 
ATOM     42  C   UNL A   1      40.223  25.765  27.689  1.00  0.00     0.041 A 
ATOM     43  F   UNL A   1      39.169  26.381  29.688  1.00  0.00    -0.206 F 
ATOM     44  C   UNL A   1      41.169  26.005  26.697  1.00  0.00     0.022 A 
BRANCH  41  45
ATOM     45  S   UNL A   1      43.144  27.554  25.479  1.00  0.00     0.124 S 
ATOM     46  O   UNL A   1      43.593  26.251  24.994  1.00  0.00    -0.237 OA
ATOM     47  O   UNL A   1      42.245  28.288  24.597  1.00  0.00    -0.237 OA
ATOM     48  O   UNL A   1      44.175  28.358  26.132  1.00  0.00    -0.744 OA
ENDBRANCH  41  45
ENDBRANCH  24  38
BRANCH  25  49
ATOM     49  C   UNL A   1      39.771  33.622  36.952  1.00  0.00     0.023 A 
ATOM     50  C   UNL A   1      40.581  34.737  37.215  1.00  0.00     0.031 A 
ATOM     51  C   UNL A   1      38.761  33.306  37.880  1.00  0.00     0.131 A 
ATOM     52  C   UNL A   1      40.397  35.468  38.398  1.00  0.00     0.055 A 
ATOM     53  C   UNL A   1      38.543  34.074  39.024  1.00  0.00     0.041 A 
ATOM     54  F   UNL A   1      37.958  32.251  37.678  1.00  0.00    -0.206 F 
ATOM     55  C   UNL A   1      39.373  35.157  39.295  1.00  0.00     0.022 A 
BRANCH  52  56
ATOM     56  S   UNL A   1      41.582  36.783  38.796  1.00  0.00     0.124 S 
ATOM     57  O   UNL A   1      42.210  37.018  37.501  1.00  0.00    -0.237 OA
ATOM     58  O   UNL A   1      40.705  37.842  39.286  1.00  0.00    -0.237 OA
ATOM     59  O   UNL A   1      42.442  36.171  39.806  1.00  0.00    -0.744 OA
ENDBRANCH  52  56
ENDBRANCH  25  49
BRANCH  37  60
ATOM     60  C   UNL A   1      44.249  28.494  35.428  1.00  0.00     0.023 A 
ATOM     61  C   UNL A   1      44.056  27.461  36.360  1.00  0.00     0.031 A 
ATOM     62  C   UNL A   1      45.556  28.975  35.235  1.00  0.00     0.131 A 
ATOM     63  C   UNL A   1      45.143  26.980  37.106  1.00  0.00     0.055 A 
ATOM     64  C   UNL A   1      46.645  28.447  35.931  1.00  0.00     0.041 A 
ATOM     65  F   UNL A   1      45.798  29.966  34.361  1.00  0.00    -0.206 F 
ATOM     66  C   UNL A   1      46.439  27.452  36.882  1.00  0.00     0.022 A 
BRANCH  63  67
ATOM     67  S   UNL A   1      44.829  25.792  38.440  1.00  0.00     0.124 S 
ATOM     68  O   UNL A   1      44.201  24.689  37.721  1.00  0.00    -0.237 OA
ATOM     69  O   UNL A   1      46.171  25.536  38.953  1.00  0.00    -0.237 OA
ATOM     70  O   UNL A   1      43.948  26.522  39.350  1.00  0.00    -0.744 OA
ENDBRANCH  63  67
ENDBRANCH  37  60
ENDBRANCH  11  12
ENDBRANCH   4   6
ENDBRANCH   1   2
BRANCH   1  71
ATOM     71  C   UNL A   1      31.571  31.910  26.521  1.00  0.00     0.042 C 
BRANCH  71  72
ATOM     72  C   UNL A   1      31.512  30.398  26.381  1.00  0.00     0.117 C 
BRANCH  72  73
ATOM     73  N   UNL A   1      32.627  29.889  25.601  1.00  0.00    -0.354 N 
ATOM     74  C   UNL A   1      32.773  28.691  24.959  1.00  0.00     0.242 C 
ATOM     75  H   UNL A   1      33.394  30.500  25.523  1.00  0.00     0.163 HD
ATOM     76  O   UNL A   1      33.867  28.478  24.429  1.00  0.00    -0.273 OA
BRANCH  74  77
ATOM     77  C   UNL A   1      31.588  27.692  24.879  1.00  0.00     0.171 C 
ATOM     78  C   UNL A   1      30.542  28.160  23.850  1.00  0.00     0.035 C 
ATOM     79  N   UNL A   1      32.049  26.321  24.551  1.00  0.00    -0.359 N 
ATOM     80  C   UNL A   1      30.961  27.922  22.399  1.00  0.00     0.004 C 
ATOM     81  C   UNL A   1      32.489  26.065  23.178  1.00  0.00     0.117 C 
ATOM     82  C   UNL A   1      31.408  26.481  22.184  1.00  0.00     0.022 C 
BRANCH  79  83
ATOM     83  C   UNL A   1      31.739  25.248  25.392  1.00  0.00     0.048 A 
ATOM     84  C   UNL A   1      30.412  25.052  25.792  1.00  0.00     0.046 A 
ATOM     85  C   UNL A   1      32.729  24.361  25.923  1.00  0.00     0.024 A 
ATOM     86  C   UNL A   1      30.114  24.063  26.705  1.00  0.00     0.114 A 
ATOM     87  C   UNL A   1      32.314  23.415  26.893  1.00  0.00     0.072 A 
ATOM     88  C   UNL A   1      34.110  24.399  25.595  1.00  0.00     0.012 A 
ATOM     89  N   UNL A   1      31.035  23.270  27.273  1.00  0.00    -0.256 NA
ATOM     90  C   UNL A   1      33.264  22.612  27.512  1.00  0.00     0.029 A 
ATOM     91  C   UNL A   1      35.047  23.582  26.230  1.00  0.00     0.001 A 
ATOM     92  C   UNL A   1      34.622  22.691  27.201  1.00  0.00     0.002 A 
ENDBRANCH  79  83
ENDBRANCH  74  77
ENDBRANCH  72  73
ENDBRANCH  71  72
ENDBRANCH   1  71
TORSDOF 14
ENDMDL
