MODEL 1
REMARK VINA RESULT:     -13.0      0.000      0.000
REMARK SMILES Cc1nn(C(C)C)cc1-c1cnccc1C(=O)NCCCNC(=O)c1ccc(-c2c3nc(c(-c4cc(S(=O)(=O)[O-])ccc4F)c4ccc([nH]4)c(-c4cc(S(=O)(=O)[O-])ccc4F)c4nc(c(-c5cc(S(=O)(=O)[O-])ccc5F)c5ccc2[nH]5)C=C4)C=C3)cc1
REMARK SMILES IDX 20 1 19 2 18 3 16 4 17 5 15 7 10 8 11 9 12 10 14 11 13 12
REMARK SMILES IDX 9 13 1 14 2 15 3 16 4 17 8 18 5 19 6 20 7 21 21 22 22 23
REMARK SMILES IDX 23 24 24 26 25 27 26 28 87 29 27 30 86 31 28 32 29 33 30 34
REMARK SMILES IDX 80 35 31 36 85 37 79 38 81 39 32 40 84 41 78 42 77 43 33 45
REMARK SMILES IDX 65 46 45 47 64 48 46 49 49 50 63 51 82 52 47 53 48 54 62 56
REMARK SMILES IDX 83 57 50 58 34 59 35 60 43 61 36 62 42 63 44 64 41 65 37 66
REMARK SMILES IDX 38 67 39 68 40 69 66 70 67 71 75 72 68 73 74 74 76 75 73 76
REMARK SMILES IDX 69 77 70 78 71 79 72 80 51 81 52 82 60 83 53 84 59 85 61 86
REMARK SMILES IDX 58 87 54 88 55 89 56 90 57 91
REMARK H PARENT 18 6 22 25 81 44 49 55
REMARK Flexibility Score: inf
ROOT
ATOM      1  C   UNL A   1      33.824  30.129  26.863  1.00  0.00     0.042 C 
ENDROOT
BRANCH   1   2
ATOM      2  C   UNL A   1      33.084  29.154  25.971  1.00  0.00     0.118 C 
BRANCH   2   3
ATOM      3  N   UNL A   1      32.175  28.187  26.520  1.00  0.00    -0.352 N 
ATOM      4  C   UNL A   1      32.018  26.887  26.075  1.00  0.00     0.252 C 
ATOM      5  O   UNL A   1      31.389  26.094  26.777  1.00  0.00    -0.269 OA
ATOM      6  H   UNL A   1      31.615  28.475  27.278  1.00  0.00     0.163 HD
BRANCH   4   7
ATOM      7  C   UNL A   1      32.446  26.426  24.714  1.00  0.00     0.050 A 
ATOM      8  C   UNL A   1      31.912  26.762  23.455  1.00  0.00     0.016 A 
ATOM      9  C   UNL A   1      32.489  26.149  22.339  1.00  0.00     0.120 A 
ATOM     10  N   UNL A   1      33.528  25.283  22.370  1.00  0.00    -0.264 NA
ATOM     11  C   UNL A   1      33.547  25.548  24.756  1.00  0.00     0.034 A 
ATOM     12  C   UNL A   1      34.041  25.010  23.582  1.00  0.00     0.112 A 
BRANCH   8  13
ATOM     13  C   UNL A   1      30.796  27.649  23.190  1.00  0.00     0.025 A 
ATOM     14  C   UNL A   1      28.703  26.258  23.977  1.00  0.00     0.069 C 
ATOM     15  C   UNL A   1      29.397  27.442  23.398  1.00  0.00     0.067 A 
ATOM     16  N   UNL A   1      28.697  28.547  23.119  1.00  0.00    -0.177 NA
ATOM     17  N   UNL A   1      29.617  29.434  22.689  1.00  0.00    -0.269 N 
ATOM     18  C   UNL A   1      30.895  28.935  22.705  1.00  0.00     0.118 A 
BRANCH  17  19
ATOM     19  C   UNL A   1      29.226  30.801  22.347  1.00  0.00     0.101 C 
ATOM     20  C   UNL A   1      28.221  30.858  21.193  1.00  0.00     0.033 C 
ATOM     21  C   UNL A   1      28.652  31.520  23.561  1.00  0.00     0.033 C 
ENDBRANCH  17  19
ENDBRANCH   8  13
ENDBRANCH   4   7
ENDBRANCH   2   3
ENDBRANCH   1   2
BRANCH   1  22
ATOM     22  C   UNL A   1      34.963  29.501  27.640  1.00  0.00     0.118 C 
BRANCH  22  23
ATOM     23  N   UNL A   1      35.487  30.311  28.750  1.00  0.00    -0.352 N 
ATOM     24  C   UNL A   1      36.717  30.174  29.396  1.00  0.00     0.251 C 
ATOM     25  H   UNL A   1      34.904  31.035  29.075  1.00  0.00     0.163 HD
ATOM     26  O   UNL A   1      36.990  30.761  30.425  1.00  0.00    -0.269 OA
BRANCH  24  27
ATOM     27  C   UNL A   1      37.677  29.225  28.810  1.00  0.00     0.039 A 
ATOM     28  C   UNL A   1      38.383  29.576  27.658  1.00  0.00     0.014 A 
ATOM     29  C   UNL A   1      38.050  28.150  29.599  1.00  0.00     0.014 A 
ATOM     30  C   UNL A   1      39.597  28.946  27.411  1.00  0.00     0.010 A 
ATOM     31  C   UNL A   1      39.335  27.697  29.474  1.00  0.00     0.010 A 
ATOM     32  C   UNL A   1      40.108  28.060  28.370  1.00  0.00    -0.014 A 
BRANCH  32  33
ATOM     33  C   UNL A   1      41.509  27.645  28.339  1.00  0.00     0.031 A 
ATOM     34  C   UNL A   1      41.811  26.427  27.537  1.00  0.00     0.074 A 
ATOM     35  C   UNL A   1      42.517  28.439  28.756  1.00  0.00     0.049 A 
ATOM     36  N   UNL A   1      42.129  25.257  27.980  1.00  0.00    -0.248 NA
ATOM     37  C   UNL A   1      41.605  26.465  26.081  1.00  0.00     0.031 C 
ATOM     38  C   UNL A   1      42.438  29.804  29.287  1.00  0.00     0.029 A 
ATOM     39  N   UNL A   1      43.856  28.238  28.644  1.00  0.00    -0.354 N 
ATOM     40  C   UNL A   1      42.425  24.484  26.860  1.00  0.00     0.074 A 
ATOM     41  C   UNL A   1      41.854  25.195  25.748  1.00  0.00     0.031 C 
ATOM     42  C   UNL A   1      43.644  30.397  29.190  1.00  0.00     0.029 A 
ATOM     43  C   UNL A   1      44.613  29.390  28.803  1.00  0.00     0.049 A 
ATOM     44  H   UNL A   1      44.253  27.354  28.467  1.00  0.00     0.167 HD
ATOM     45  C   UNL A   1      43.332  23.465  26.926  1.00  0.00     0.034 A 
ATOM     46  C   UNL A   1      45.950  29.523  28.634  1.00  0.00     0.034 A 
ATOM     47  C   UNL A   1      43.675  23.178  28.306  1.00  0.00     0.049 A 
ATOM     48  C   UNL A   1      46.534  28.175  28.848  1.00  0.00     0.074 A 
ATOM     49  C   UNL A   1      42.954  22.836  29.436  1.00  0.00     0.029 A 
ATOM     50  N   UNL A   1      44.888  23.637  28.777  1.00  0.00    -0.354 N 
ATOM     51  N   UNL A   1      46.451  27.538  29.986  1.00  0.00    -0.248 NA
ATOM     52  C   UNL A   1      46.785  27.329  27.691  1.00  0.00     0.031 C 
ATOM     53  C   UNL A   1      43.549  23.594  30.491  1.00  0.00     0.029 A 
ATOM     54  C   UNL A   1      44.657  24.271  29.974  1.00  0.00     0.049 A 
ATOM     55  H   UNL A   1      45.760  23.530  28.335  1.00  0.00     0.167 HD
ATOM     56  C   UNL A   1      46.168  26.225  29.640  1.00  0.00     0.074 A 
ATOM     57  C   UNL A   1      46.526  26.131  28.226  1.00  0.00     0.031 C 
ATOM     58  C   UNL A   1      45.401  25.428  30.447  1.00  0.00     0.034 A 
BRANCH  45  59
ATOM     59  C   UNL A   1      44.199  22.960  25.783  1.00  0.00     0.023 A 
ATOM     60  C   UNL A   1      44.256  21.564  25.593  1.00  0.00     0.031 A 
ATOM     61  C   UNL A   1      45.155  23.706  25.061  1.00  0.00     0.131 A 
ATOM     62  C   UNL A   1      45.285  20.968  24.842  1.00  0.00     0.055 A 
ATOM     63  C   UNL A   1      46.136  23.113  24.256  1.00  0.00     0.041 A 
ATOM     64  F   UNL A   1      45.262  25.035  25.148  1.00  0.00    -0.206 F 
ATOM     65  C   UNL A   1      46.231  21.736  24.172  1.00  0.00     0.022 A 
BRANCH  62  66
ATOM     66  S   UNL A   1      45.474  19.168  24.921  1.00  0.00     0.124 S 
ATOM     67  O   UNL A   1      45.622  18.829  23.510  1.00  0.00    -0.237 OA
ATOM     68  O   UNL A   1      46.668  19.029  25.747  1.00  0.00    -0.237 OA
ATOM     69  O   UNL A   1      44.230  18.724  25.543  1.00  0.00    -0.744 OA
ENDBRANCH  62  66
ENDBRANCH  45  59
BRANCH  46  70
ATOM     70  C   UNL A   1      46.660  30.692  28.066  1.00  0.00     0.023 A 
ATOM     71  C   UNL A   1      46.048  31.571  27.155  1.00  0.00     0.031 A 
ATOM     72  C   UNL A   1      47.908  31.095  28.599  1.00  0.00     0.131 A 
ATOM     73  C   UNL A   1      46.673  32.791  26.817  1.00  0.00     0.055 A 
ATOM     74  C   UNL A   1      48.528  32.296  28.252  1.00  0.00     0.041 A 
ATOM     75  F   UNL A   1      48.530  30.371  29.544  1.00  0.00    -0.206 F 
ATOM     76  C   UNL A   1      47.904  33.159  27.366  1.00  0.00     0.022 A 
BRANCH  73  77
ATOM     77  S   UNL A   1      45.816  33.985  25.746  1.00  0.00     0.124 S 
ATOM     78  O   UNL A   1      46.922  34.578  25.002  1.00  0.00    -0.237 OA
ATOM     79  O   UNL A   1      44.906  33.135  24.988  1.00  0.00    -0.237 OA
ATOM     80  O   UNL A   1      45.161  34.883  26.697  1.00  0.00    -0.744 OA
ENDBRANCH  73  77
ENDBRANCH  46  70
BRANCH  58  81
ATOM     81  C   UNL A   1      45.119  25.893  31.868  1.00  0.00     0.023 A 
ATOM     82  C   UNL A   1      43.943  26.560  32.285  1.00  0.00     0.031 A 
ATOM     83  C   UNL A   1      46.045  25.538  32.866  1.00  0.00     0.131 A 
ATOM     84  C   UNL A   1      43.741  26.861  33.647  1.00  0.00     0.055 A 
ATOM     85  C   UNL A   1      45.832  25.818  34.216  1.00  0.00     0.041 A 
ATOM     86  F   UNL A   1      47.170  24.876  32.547  1.00  0.00    -0.206 F 
ATOM     87  C   UNL A   1      44.682  26.489  34.611  1.00  0.00     0.022 A 
BRANCH  84  88
ATOM     88  S   UNL A   1      42.259  27.774  34.191  1.00  0.00     0.124 S 
ATOM     89  O   UNL A   1      42.775  28.728  35.164  1.00  0.00    -0.237 OA
ATOM     90  O   UNL A   1      41.763  28.344  32.941  1.00  0.00    -0.237 OA
ATOM     91  O   UNL A   1      41.408  26.726  34.759  1.00  0.00    -0.744 OA
ENDBRANCH  84  88
ENDBRANCH  58  81
ENDBRANCH  32  33
ENDBRANCH  24  27
ENDBRANCH  22  23
ENDBRANCH   1  22
TORSDOF 15
ENDMDL
MODEL 2
REMARK VINA RESULT:     -12.6      4.061      5.408
REMARK SMILES Cc1nn(C(C)C)cc1-c1cnccc1C(=O)NCCCNC(=O)c1ccc(-c2c3nc(c(-c4cc(S(=O)(=O)[O-])ccc4F)c4ccc([nH]4)c(-c4cc(S(=O)(=O)[O-])ccc4F)c4nc(c(-c5cc(S(=O)(=O)[O-])ccc5F)c5ccc2[nH]5)C=C4)C=C3)cc1
REMARK SMILES IDX 20 1 19 2 18 3 16 4 17 5 15 7 10 8 11 9 12 10 14 11 13 12
REMARK SMILES IDX 9 13 1 14 2 15 3 16 4 17 8 18 5 19 6 20 7 21 21 22 22 23
REMARK SMILES IDX 23 24 24 26 25 27 26 28 87 29 27 30 86 31 28 32 29 33 30 34
REMARK SMILES IDX 80 35 31 36 85 37 79 38 81 39 32 40 84 41 78 42 77 43 33 45
REMARK SMILES IDX 65 46 45 47 64 48 46 49 49 50 63 51 82 52 47 53 48 54 62 56
REMARK SMILES IDX 83 57 50 58 34 59 35 60 43 61 36 62 42 63 44 64 41 65 37 66
REMARK SMILES IDX 38 67 39 68 40 69 66 70 67 71 75 72 68 73 74 74 76 75 73 76
REMARK SMILES IDX 69 77 70 78 71 79 72 80 51 81 52 82 60 83 53 84 59 85 61 86
REMARK SMILES IDX 58 87 54 88 55 89 56 90 57 91
REMARK H PARENT 18 6 22 25 81 44 49 55
REMARK Flexibility Score: inf
ROOT
ATOM      1  C   UNL A   1      32.816  29.897  26.531  1.00  0.00     0.042 C 
ENDROOT
BRANCH   1   2
ATOM      2  C   UNL A   1      32.704  28.614  27.329  1.00  0.00     0.118 C 
BRANCH   2   3
ATOM      3  N   UNL A   1      31.510  27.816  27.288  1.00  0.00    -0.352 N 
ATOM      4  C   UNL A   1      31.270  26.773  26.411  1.00  0.00     0.252 C 
ATOM      5  O   UNL A   1      30.321  26.020  26.635  1.00  0.00    -0.269 OA
ATOM      6  H   UNL A   1      30.803  28.029  27.939  1.00  0.00     0.163 HD
BRANCH   4   7
ATOM      7  C   UNL A   1      32.012  26.596  25.120  1.00  0.00     0.050 A 
ATOM      8  C   UNL A   1      31.705  27.105  23.844  1.00  0.00     0.016 A 
ATOM      9  C   UNL A   1      32.561  26.747  22.798  1.00  0.00     0.120 A 
ATOM     10  N   UNL A   1      33.666  25.975  22.918  1.00  0.00    -0.264 NA
ATOM     11  C   UNL A   1      33.176  25.815  25.263  1.00  0.00     0.034 A 
ATOM     12  C   UNL A   1      33.954  25.534  24.155  1.00  0.00     0.112 A 
BRANCH   8  13
ATOM     13  C   UNL A   1      30.571  27.933  23.486  1.00  0.00     0.025 A 
ATOM     14  C   UNL A   1      28.510  26.326  23.805  1.00  0.00     0.069 C 
ATOM     15  C   UNL A   1      29.179  27.609  23.450  1.00  0.00     0.067 A 
ATOM     16  N   UNL A   1      28.437  28.684  23.163  1.00  0.00    -0.177 NA
ATOM     17  N   UNL A   1      29.333  29.673  22.964  1.00  0.00    -0.269 N 
ATOM     18  C   UNL A   1      30.631  29.265  23.138  1.00  0.00     0.118 A 
BRANCH  17  19
ATOM     19  C   UNL A   1      28.882  31.035  22.687  1.00  0.00     0.101 C 
ATOM     20  C   UNL A   1      28.484  31.241  21.222  1.00  0.00     0.033 C 
ATOM     21  C   UNL A   1      27.718  31.416  23.592  1.00  0.00     0.033 C 
ENDBRANCH  17  19
ENDBRANCH   8  13
ENDBRANCH   4   7
ENDBRANCH   2   3
ENDBRANCH   1   2
BRANCH   1  22
ATOM     22  C   UNL A   1      33.456  31.037  27.297  1.00  0.00     0.118 C 
BRANCH  22  23
ATOM     23  N   UNL A   1      32.732  32.316  27.235  1.00  0.00    -0.352 N 
ATOM     24  C   UNL A   1      33.005  33.482  27.954  1.00  0.00     0.251 C 
ATOM     25  H   UNL A   1      31.967  32.356  26.616  1.00  0.00     0.163 HD
ATOM     26  O   UNL A   1      32.244  34.431  27.985  1.00  0.00    -0.269 OA
BRANCH  24  27
ATOM     27  C   UNL A   1      34.247  33.507  28.741  1.00  0.00     0.039 A 
ATOM     28  C   UNL A   1      34.361  32.707  29.881  1.00  0.00     0.014 A 
ATOM     29  C   UNL A   1      35.349  34.098  28.148  1.00  0.00     0.014 A 
ATOM     30  C   UNL A   1      35.633  32.346  30.307  1.00  0.00     0.010 A 
ATOM     31  C   UNL A   1      36.577  33.565  28.435  1.00  0.00     0.010 A 
ATOM     32  C   UNL A   1      36.740  32.714  29.529  1.00  0.00    -0.014 A 
BRANCH  32  33
ATOM     33  C   UNL A   1      38.042  32.080  29.726  1.00  0.00     0.031 A 
ATOM     34  C   UNL A   1      38.173  30.687  29.217  1.00  0.00     0.074 A 
ATOM     35  C   UNL A   1      39.145  32.770  30.082  1.00  0.00     0.049 A 
ATOM     36  N   UNL A   1      38.244  29.602  29.914  1.00  0.00    -0.248 NA
ATOM     37  C   UNL A   1      38.078  30.447  27.769  1.00  0.00     0.031 C 
ATOM     38  C   UNL A   1      39.277  34.211  30.322  1.00  0.00     0.029 A 
ATOM     39  N   UNL A   1      40.430  32.335  30.153  1.00  0.00    -0.354 N 
ATOM     40  C   UNL A   1      38.471  28.572  29.006  1.00  0.00     0.074 A 
ATOM     41  C   UNL A   1      38.116  29.113  27.722  1.00  0.00     0.031 C 
ATOM     42  C   UNL A   1      40.575  34.566  30.236  1.00  0.00     0.029 A 
ATOM     43  C   UNL A   1      41.370  33.357  30.159  1.00  0.00     0.049 A 
ATOM     44  H   UNL A   1      40.673  31.382  30.196  1.00  0.00     0.167 HD
ATOM     45  C   UNL A   1      39.173  27.456  29.366  1.00  0.00     0.034 A 
ATOM     46  C   UNL A   1      42.717  33.231  30.108  1.00  0.00     0.034 A 
ATOM     47  C   UNL A   1      39.362  27.418  30.804  1.00  0.00     0.049 A 
ATOM     48  C   UNL A   1      43.033  31.884  30.643  1.00  0.00     0.074 A 
ATOM     49  C   UNL A   1      38.515  27.445  31.897  1.00  0.00     0.029 A 
ATOM     50  N   UNL A   1      40.604  27.763  31.299  1.00  0.00    -0.354 N 
ATOM     51  N   UNL A   1      42.758  31.525  31.869  1.00  0.00    -0.248 NA
ATOM     52  C   UNL A   1      43.206  30.782  29.709  1.00  0.00     0.031 C 
ATOM     53  C   UNL A   1      39.164  28.303  32.838  1.00  0.00     0.029 A 
ATOM     54  C   UNL A   1      40.409  28.666  32.316  1.00  0.00     0.049 A 
ATOM     55  H   UNL A   1      41.470  27.424  30.980  1.00  0.00     0.167 HD
ATOM     56  C   UNL A   1      42.267  30.232  31.763  1.00  0.00     0.074 A 
ATOM     57  C   UNL A   1      42.699  29.783  30.441  1.00  0.00     0.031 C 
ATOM     58  C   UNL A   1      41.315  29.760  32.626  1.00  0.00     0.034 A 
BRANCH  45  59
ATOM     59  C   UNL A   1      40.011  26.586  28.442  1.00  0.00     0.023 A 
ATOM     60  C   UNL A   1      41.155  27.180  27.870  1.00  0.00     0.031 A 
ATOM     61  C   UNL A   1      39.634  25.345  27.885  1.00  0.00     0.131 A 
ATOM     62  C   UNL A   1      41.781  26.626  26.739  1.00  0.00     0.055 A 
ATOM     63  C   UNL A   1      40.304  24.760  26.803  1.00  0.00     0.041 A 
ATOM     64  F   UNL A   1      38.559  24.661  28.287  1.00  0.00    -0.206 F 
ATOM     65  C   UNL A   1      41.359  25.417  26.197  1.00  0.00     0.022 A 
BRANCH  62  66
ATOM     66  S   UNL A   1      43.029  27.616  25.876  1.00  0.00     0.124 S 
ATOM     67  O   UNL A   1      43.246  28.702  26.824  1.00  0.00    -0.237 OA
ATOM     68  O   UNL A   1      44.119  26.658  25.728  1.00  0.00    -0.237 OA
ATOM     69  O   UNL A   1      42.359  27.995  24.634  1.00  0.00    -0.744 OA
ENDBRANCH  62  66
ENDBRANCH  45  59
BRANCH  46  70
ATOM     70  C   UNL A   1      43.664  34.122  29.397  1.00  0.00     0.023 A 
ATOM     71  C   UNL A   1      44.171  33.813  28.123  1.00  0.00     0.031 A 
ATOM     72  C   UNL A   1      43.913  35.429  29.883  1.00  0.00     0.131 A 
ATOM     73  C   UNL A   1      44.882  34.786  27.388  1.00  0.00     0.055 A 
ATOM     74  C   UNL A   1      44.629  36.383  29.158  1.00  0.00     0.041 A 
ATOM     75  F   UNL A   1      43.395  35.851  31.047  1.00  0.00    -0.206 F 
ATOM     76  C   UNL A   1      45.107  36.068  27.896  1.00  0.00     0.022 A 
BRANCH  73  77
ATOM     77  S   UNL A   1      45.418  34.429  25.687  1.00  0.00     0.124 S 
ATOM     78  O   UNL A   1      46.346  35.523  25.421  1.00  0.00    -0.237 OA
ATOM     79  O   UNL A   1      46.002  33.099  25.811  1.00  0.00    -0.237 OA
ATOM     80  O   UNL A   1      44.171  34.478  24.922  1.00  0.00    -0.744 OA
ENDBRANCH  73  77
ENDBRANCH  46  70
BRANCH  58  81
ATOM     81  C   UNL A   1      41.025  30.556  33.890  1.00  0.00     0.023 A 
ATOM     82  C   UNL A   1      39.936  31.444  34.058  1.00  0.00     0.031 A 
ATOM     83  C   UNL A   1      41.834  30.312  35.015  1.00  0.00     0.131 A 
ATOM     84  C   UNL A   1      39.705  32.059  35.305  1.00  0.00     0.055 A 
ATOM     85  C   UNL A   1      41.589  30.905  36.254  1.00  0.00     0.041 A 
ATOM     86  F   UNL A   1      42.868  29.457  34.937  1.00  0.00    -0.206 F 
ATOM     87  C   UNL A   1      40.527  31.788  36.401  1.00  0.00     0.022 A 
BRANCH  84  88
ATOM     88  S   UNL A   1      38.342  33.252  35.519  1.00  0.00     0.124 S 
ATOM     89  O   UNL A   1      37.146  32.466  35.244  1.00  0.00    -0.237 OA
ATOM     90  O   UNL A   1      38.516  33.686  36.903  1.00  0.00    -0.237 OA
ATOM     91  O   UNL A   1      38.636  34.282  34.519  1.00  0.00    -0.744 OA
ENDBRANCH  84  88
ENDBRANCH  58  81
ENDBRANCH  32  33
ENDBRANCH  24  27
ENDBRANCH  22  23
ENDBRANCH   1  22
TORSDOF 15
ENDMDL
MODEL 3
REMARK VINA RESULT:     -12.6      1.059      2.700
REMARK SMILES Cc1nn(C(C)C)cc1-c1cnccc1C(=O)NCCCNC(=O)c1ccc(-c2c3nc(c(-c4cc(S(=O)(=O)[O-])ccc4F)c4ccc([nH]4)c(-c4cc(S(=O)(=O)[O-])ccc4F)c4nc(c(-c5cc(S(=O)(=O)[O-])ccc5F)c5ccc2[nH]5)C=C4)C=C3)cc1
REMARK SMILES IDX 20 1 19 2 18 3 16 4 17 5 15 7 10 8 11 9 12 10 14 11 13 12
REMARK SMILES IDX 9 13 1 14 2 15 3 16 4 17 8 18 5 19 6 20 7 21 21 22 22 23
REMARK SMILES IDX 23 24 24 26 25 27 26 28 87 29 27 30 86 31 28 32 29 33 30 34
REMARK SMILES IDX 80 35 31 36 85 37 79 38 81 39 32 40 84 41 78 42 77 43 33 45
REMARK SMILES IDX 65 46 45 47 64 48 46 49 49 50 63 51 82 52 47 53 48 54 62 56
REMARK SMILES IDX 83 57 50 58 34 59 35 60 43 61 36 62 42 63 44 64 41 65 37 66
REMARK SMILES IDX 38 67 39 68 40 69 66 70 67 71 75 72 68 73 74 74 76 75 73 76
REMARK SMILES IDX 69 77 70 78 71 79 72 80 51 81 52 82 60 83 53 84 59 85 61 86
REMARK SMILES IDX 58 87 54 88 55 89 56 90 57 91
REMARK H PARENT 18 6 22 25 81 44 49 55
REMARK Flexibility Score: inf
ROOT
ATOM      1  C   UNL A   1      33.486  29.303  27.220  1.00  0.00     0.042 C 
ENDROOT
BRANCH   1   2
ATOM      2  C   UNL A   1      32.975  29.693  25.848  1.00  0.00     0.118 C 
BRANCH   2   3
ATOM      3  N   UNL A   1      33.672  29.295  24.656  1.00  0.00    -0.352 N 
ATOM      4  C   UNL A   1      33.077  28.900  23.471  1.00  0.00     0.252 C 
ATOM      5  O   UNL A   1      33.774  28.818  22.459  1.00  0.00    -0.269 OA
ATOM      6  H   UNL A   1      34.656  29.304  24.685  1.00  0.00     0.163 HD
BRANCH   4   7
ATOM      7  C   UNL A   1      31.658  28.423  23.381  1.00  0.00     0.050 A 
ATOM      8  C   UNL A   1      31.124  27.162  23.711  1.00  0.00     0.016 A 
ATOM      9  C   UNL A   1      29.756  26.979  23.491  1.00  0.00     0.120 A 
ATOM     10  N   UNL A   1      28.905  27.916  23.011  1.00  0.00    -0.264 NA
ATOM     11  C   UNL A   1      30.778  29.416  22.909  1.00  0.00     0.034 A 
ATOM     12  C   UNL A   1      29.437  29.120  22.741  1.00  0.00     0.112 A 
BRANCH   8  13
ATOM     13  C   UNL A   1      31.848  26.015  24.220  1.00  0.00     0.025 A 
ATOM     14  C   UNL A   1      31.562  26.214  26.830  1.00  0.00     0.069 C 
ATOM     15  C   UNL A   1      32.061  25.595  25.570  1.00  0.00     0.067 A 
ATOM     16  N   UNL A   1      32.700  24.422  25.618  1.00  0.00    -0.177 NA
ATOM     17  N   UNL A   1      32.945  24.114  24.328  1.00  0.00    -0.269 N 
ATOM     18  C   UNL A   1      32.459  25.049  23.451  1.00  0.00     0.118 A 
BRANCH  17  19
ATOM     19  C   UNL A   1      33.585  22.847  23.978  1.00  0.00     0.101 C 
ATOM     20  C   UNL A   1      32.680  21.937  23.143  1.00  0.00     0.033 C 
ATOM     21  C   UNL A   1      34.893  23.088  23.236  1.00  0.00     0.033 C 
ENDBRANCH  17  19
ENDBRANCH   8  13
ENDBRANCH   4   7
ENDBRANCH   2   3
ENDBRANCH   1   2
BRANCH   1  22
ATOM     22  C   UNL A   1      34.992  29.395  27.359  1.00  0.00     0.118 C 
BRANCH  22  23
ATOM     23  N   UNL A   1      35.467  30.204  28.491  1.00  0.00    -0.352 N 
ATOM     24  C   UNL A   1      36.690  30.097  29.157  1.00  0.00     0.251 C 
ATOM     25  H   UNL A   1      34.854  30.903  28.817  1.00  0.00     0.163 HD
ATOM     26  O   UNL A   1      36.924  30.676  30.202  1.00  0.00    -0.269 OA
BRANCH  24  27
ATOM     27  C   UNL A   1      37.692  29.192  28.575  1.00  0.00     0.039 A 
ATOM     28  C   UNL A   1      38.456  29.612  27.485  1.00  0.00     0.014 A 
ATOM     29  C   UNL A   1      38.033  28.077  29.322  1.00  0.00     0.014 A 
ATOM     30  C   UNL A   1      39.688  29.008  27.272  1.00  0.00     0.010 A 
ATOM     31  C   UNL A   1      39.329  27.643  29.244  1.00  0.00     0.010 A 
ATOM     32  C   UNL A   1      40.157  28.074  28.207  1.00  0.00    -0.014 A 
BRANCH  32  33
ATOM     33  C   UNL A   1      41.562  27.674  28.231  1.00  0.00     0.031 A 
ATOM     34  C   UNL A   1      41.910  26.465  27.435  1.00  0.00     0.074 A 
ATOM     35  C   UNL A   1      42.544  28.475  28.694  1.00  0.00     0.049 A 
ATOM     36  N   UNL A   1      42.222  25.294  27.883  1.00  0.00    -0.248 NA
ATOM     37  C   UNL A   1      41.763  26.510  25.971  1.00  0.00     0.031 C 
ATOM     38  C   UNL A   1      42.428  29.835  29.231  1.00  0.00     0.029 A 
ATOM     39  N   UNL A   1      43.888  28.288  28.637  1.00  0.00    -0.354 N 
ATOM     40  C   UNL A   1      42.572  24.533  26.771  1.00  0.00     0.074 A 
ATOM     41  C   UNL A   1      42.040  25.245  25.641  1.00  0.00     0.031 C 
ATOM     42  C   UNL A   1      43.631  30.442  29.187  1.00  0.00     0.029 A 
ATOM     43  C   UNL A   1      44.626  29.448  28.834  1.00  0.00     0.049 A 
ATOM     44  H   UNL A   1      44.302  27.411  28.471  1.00  0.00     0.167 HD
ATOM     45  C   UNL A   1      43.486  23.522  26.868  1.00  0.00     0.034 A 
ATOM     46  C   UNL A   1      45.967  29.595  28.721  1.00  0.00     0.034 A 
ATOM     47  C   UNL A   1      43.774  23.230  28.260  1.00  0.00     0.049 A 
ATOM     48  C   UNL A   1      46.556  28.252  28.950  1.00  0.00     0.074 A 
ATOM     49  C   UNL A   1      43.011  22.873  29.356  1.00  0.00     0.029 A 
ATOM     50  N   UNL A   1      44.963  23.698  28.783  1.00  0.00    -0.354 N 
ATOM     51  N   UNL A   1      46.433  27.607  30.079  1.00  0.00    -0.248 NA
ATOM     52  C   UNL A   1      46.863  27.417  27.800  1.00  0.00     0.031 C 
ATOM     53  C   UNL A   1      43.555  23.629  30.439  1.00  0.00     0.029 A 
ATOM     54  C   UNL A   1      44.676  24.321  29.973  1.00  0.00     0.049 A 
ATOM     55  H   UNL A   1      45.854  23.603  28.376  1.00  0.00     0.167 HD
ATOM     56  C   UNL A   1      46.178  26.293  29.715  1.00  0.00     0.074 A 
ATOM     57  C   UNL A   1      46.596  26.212  28.316  1.00  0.00     0.031 C 
ATOM     58  C   UNL A   1      45.387  25.483  30.484  1.00  0.00     0.034 A 
BRANCH  45  59
ATOM     59  C   UNL A   1      44.405  23.035  25.759  1.00  0.00     0.023 A 
ATOM     60  C   UNL A   1      44.440  21.644  25.524  1.00  0.00     0.031 A 
ATOM     61  C   UNL A   1      45.418  23.779  25.118  1.00  0.00     0.131 A 
ATOM     62  C   UNL A   1      45.496  21.048  24.811  1.00  0.00     0.055 A 
ATOM     63  C   UNL A   1      46.429  23.189  24.349  1.00  0.00     0.041 A 
ATOM     64  F   UNL A   1      45.550  25.102  25.257  1.00  0.00    -0.206 F 
ATOM     65  C   UNL A   1      46.496  21.813  24.222  1.00  0.00     0.022 A 
BRANCH  62  66
ATOM     66  S   UNL A   1      45.638  19.242  24.837  1.00  0.00     0.124 S 
ATOM     67  O   UNL A   1      46.860  19.057  25.611  1.00  0.00    -0.237 OA
ATOM     68  O   UNL A   1      44.394  18.854  25.493  1.00  0.00    -0.237 OA
ATOM     69  O   UNL A   1      45.734  18.890  23.423  1.00  0.00    -0.744 OA
ENDBRANCH  62  66
ENDBRANCH  45  59
BRANCH  46  70
ATOM     70  C   UNL A   1      46.687  30.776  28.190  1.00  0.00     0.023 A 
ATOM     71  C   UNL A   1      46.102  31.657  27.264  1.00  0.00     0.031 A 
ATOM     72  C   UNL A   1      47.911  31.185  28.774  1.00  0.00     0.131 A 
ATOM     73  C   UNL A   1      46.728  32.885  26.960  1.00  0.00     0.055 A 
ATOM     74  C   UNL A   1      48.533  32.394  28.460  1.00  0.00     0.041 A 
ATOM     75  F   UNL A   1      48.503  30.458  29.735  1.00  0.00    -0.206 F 
ATOM     76  C   UNL A   1      47.935  33.259  27.558  1.00  0.00     0.022 A 
BRANCH  73  77
ATOM     77  S   UNL A   1      45.902  34.081  25.868  1.00  0.00     0.124 S 
ATOM     78  O   UNL A   1      45.326  35.022  26.822  1.00  0.00    -0.237 OA
ATOM     79  O   UNL A   1      47.005  34.578  25.052  1.00  0.00    -0.237 OA
ATOM     80  O   UNL A   1      44.929  33.263  25.144  1.00  0.00    -0.744 OA
ENDBRANCH  73  77
ENDBRANCH  46  70
BRANCH  58  81
ATOM     81  C   UNL A   1      45.042  25.935  31.895  1.00  0.00     0.023 A 
ATOM     82  C   UNL A   1      43.875  26.647  32.256  1.00  0.00     0.031 A 
ATOM     83  C   UNL A   1      45.891  25.521  32.938  1.00  0.00     0.131 A 
ATOM     84  C   UNL A   1      43.605  26.934  33.609  1.00  0.00     0.055 A 
ATOM     85  C   UNL A   1      45.610  25.787  34.279  1.00  0.00     0.041 A 
ATOM     86  F   UNL A   1      47.002  24.814  32.672  1.00  0.00    -0.206 F 
ATOM     87  C   UNL A   1      44.470  26.502  34.619  1.00  0.00     0.022 A 
BRANCH  84  88
ATOM     88  S   UNL A   1      42.136  27.904  34.084  1.00  0.00     0.124 S 
ATOM     89  O   UNL A   1      42.682  28.998  34.876  1.00  0.00    -0.237 OA
ATOM     90  O   UNL A   1      41.571  28.275  32.788  1.00  0.00    -0.237 OA
ATOM     91  O   UNL A   1      41.330  26.945  34.844  1.00  0.00    -0.744 OA
ENDBRANCH  84  88
ENDBRANCH  58  81
ENDBRANCH  32  33
ENDBRANCH  24  27
ENDBRANCH  22  23
ENDBRANCH   1  22
TORSDOF 15
ENDMDL
