MODEL 1
REMARK VINA RESULT:     -12.0      0.000      0.000
REMARK SMILES Cc1cc(C(=O)N[C@@H]2CC2(C)C)sc1/C=C/C(=O)NCCCNC(=O)c1ccc(-c2c3nc(c(-c4cc(S(=O)(=O)[O-])ccc4F)c4ccc([nH]4)c(-c4cc(S(=O)(=O)[O-])ccc4F)c4nc(c(-c5cc(S(=O)(=O)[O-])ccc5F)c5ccc2[nH]5)C=C4)C=C3)cc1
REMARK SMILES IDX 21 1 20 2 19 3 17 4 18 5 16 7 15 8 14 9 1 10 2 11 3 12 4 13
REMARK SMILES IDX 13 14 5 15 6 16 7 17 8 19 9 20 10 21 11 22 12 23 22 24 23 25
REMARK SMILES IDX 24 26 25 28 26 29 27 30 88 31 28 32 87 33 29 34 30 35 31 36
REMARK SMILES IDX 81 37 32 38 86 39 80 40 82 41 33 42 85 43 79 44 78 45 34 47
REMARK SMILES IDX 66 48 46 49 65 50 47 51 50 52 64 53 83 54 48 55 49 56 63 58
REMARK SMILES IDX 84 59 51 60 35 61 36 62 44 63 37 64 43 65 45 66 42 67 38 68
REMARK SMILES IDX 39 69 40 70 41 71 67 72 68 73 76 74 69 75 75 76 77 77 74 78
REMARK SMILES IDX 70 79 71 80 72 81 73 82 52 83 53 84 61 85 54 86 60 87 62 88
REMARK SMILES IDX 59 89 55 90 56 91 57 92 58 93
REMARK H PARENT 19 6 7 18 23 27 82 46 50 57
REMARK Flexibility Score: inf
ROOT
ATOM      1  C   UNL A   1      33.698  27.798  25.965  1.00  0.00     0.042 C 
ENDROOT
BRANCH   1   2
ATOM      2  C   UNL A   1      32.517  27.715  25.005  1.00  0.00     0.118 C 
BRANCH   2   3
ATOM      3  N   UNL A   1      32.954  27.745  23.621  1.00  0.00    -0.352 N 
ATOM      4  C   UNL A   1      33.511  26.771  22.855  1.00  0.00     0.244 C 
ATOM      5  O   UNL A   1      33.696  26.973  21.657  1.00  0.00    -0.270 OA
ATOM      6  H   UNL A   1      32.826  28.608  23.165  1.00  0.00     0.163 HD
BRANCH   4   7
ATOM      7  C   UNL A   1      33.777  25.427  23.407  1.00  0.00     0.072 C 
ATOM      8  C   UNL A   1      33.875  24.272  22.725  1.00  0.00     0.025 C 
BRANCH   8   9
ATOM      9  C   UNL A   1      34.218  23.087  23.429  1.00  0.00     0.031 A 
ATOM     10  C   UNL A   1      36.759  22.923  23.056  1.00  0.00     0.046 C 
ATOM     11  C   UNL A   1      35.462  22.526  23.683  1.00  0.00    -0.032 A 
ATOM     12  C   UNL A   1      35.352  21.562  24.743  1.00  0.00     0.029 A 
ATOM     13  C   UNL A   1      34.054  21.424  25.214  1.00  0.00     0.093 A 
ATOM     14  S   UNL A   1      32.988  22.055  24.053  1.00  0.00    -0.130 S 
BRANCH  13  15
ATOM     15  C   UNL A   1      33.641  20.673  26.376  1.00  0.00     0.261 C 
ATOM     16  O   UNL A   1      33.710  21.174  27.506  1.00  0.00    -0.268 OA
ATOM     17  N   UNL A   1      33.058  19.423  26.352  1.00  0.00    -0.348 N 
ATOM     18  H   UNL A   1      32.857  19.140  27.272  1.00  0.00     0.164 HD
BRANCH  17  19
ATOM     19  C   UNL A   1      32.644  18.399  25.442  1.00  0.00     0.088 C 
ATOM     20  C   UNL A   1      32.797  16.916  25.488  1.00  0.00     0.034 C 
ATOM     21  C   UNL A   1      33.516  17.698  24.412  1.00  0.00    -0.013 C 
ATOM     22  C   UNL A   1      32.993  17.516  23.009  1.00  0.00     0.013 C 
ATOM     23  C   UNL A   1      35.016  17.808  24.471  1.00  0.00     0.013 C 
ENDBRANCH  17  19
ENDBRANCH  13  15
ENDBRANCH   8   9
ENDBRANCH   4   7
ENDBRANCH   2   3
ENDBRANCH   1   2
BRANCH   1  24
ATOM     24  C   UNL A   1      33.367  28.501  27.276  1.00  0.00     0.118 C 
BRANCH  24  25
ATOM     25  N   UNL A   1      33.461  29.947  27.154  1.00  0.00    -0.352 N 
ATOM     26  C   UNL A   1      34.409  30.815  27.638  1.00  0.00     0.251 C 
ATOM     27  H   UNL A   1      32.731  30.369  26.646  1.00  0.00     0.163 HD
ATOM     28  O   UNL A   1      34.158  32.017  27.649  1.00  0.00    -0.269 OA
BRANCH  26  29
ATOM     29  C   UNL A   1      35.707  30.320  28.155  1.00  0.00     0.039 A 
ATOM     30  C   UNL A   1      35.762  29.810  29.456  1.00  0.00     0.014 A 
ATOM     31  C   UNL A   1      36.876  30.401  27.393  1.00  0.00     0.014 A 
ATOM     32  C   UNL A   1      36.974  29.338  29.970  1.00  0.00     0.010 A 
ATOM     33  C   UNL A   1      38.066  29.857  27.876  1.00  0.00     0.010 A 
ATOM     34  C   UNL A   1      38.129  29.329  29.174  1.00  0.00    -0.014 A 
BRANCH  34  35
ATOM     35  C   UNL A   1      39.417  28.791  29.689  1.00  0.00     0.031 A 
ATOM     36  C   UNL A   1      40.123  29.478  30.826  1.00  0.00     0.074 A 
ATOM     37  C   UNL A   1      39.975  27.717  29.094  1.00  0.00     0.049 A 
ATOM     38  N   UNL A   1      41.288  29.213  31.362  1.00  0.00    -0.248 NA
ATOM     39  C   UNL A   1      39.442  30.638  31.420  1.00  0.00     0.031 C 
ATOM     40  C   UNL A   1      39.404  26.990  27.959  1.00  0.00     0.029 A 
ATOM     41  N   UNL A   1      41.151  27.058  29.353  1.00  0.00    -0.354 N 
ATOM     42  C   UNL A   1      41.484  30.178  32.344  1.00  0.00     0.074 A 
ATOM     43  C   UNL A   1      40.347  31.071  32.283  1.00  0.00     0.031 C 
ATOM     44  C   UNL A   1      40.217  25.972  27.635  1.00  0.00     0.029 A 
ATOM     45  C   UNL A   1      41.389  26.001  28.504  1.00  0.00     0.049 A 
ATOM     46  H   UNL A   1      41.765  27.315  30.078  1.00  0.00     0.167 HD
ATOM     47  C   UNL A   1      42.507  30.295  33.229  1.00  0.00     0.034 A 
ATOM     48  C   UNL A   1      42.439  25.160  28.426  1.00  0.00     0.034 A 
ATOM     49  C   UNL A   1      43.628  29.388  33.280  1.00  0.00     0.049 A 
ATOM     50  C   UNL A   1      43.574  25.320  29.405  1.00  0.00     0.074 A 
ATOM     51  C   UNL A   1      44.695  29.383  34.162  1.00  0.00     0.029 A 
ATOM     52  N   UNL A   1      43.834  28.326  32.408  1.00  0.00    -0.354 N 
ATOM     53  N   UNL A   1      43.724  26.213  30.356  1.00  0.00    -0.248 NA
ATOM     54  C   UNL A   1      44.672  24.350  29.309  1.00  0.00     0.031 C 
ATOM     55  C   UNL A   1      45.575  28.362  33.784  1.00  0.00     0.029 A 
ATOM     56  C   UNL A   1      45.021  27.678  32.714  1.00  0.00     0.049 A 
ATOM     57  H   UNL A   1      43.224  28.070  31.679  1.00  0.00     0.167 HD
ATOM     58  C   UNL A   1      44.922  25.894  30.990  1.00  0.00     0.074 A 
ATOM     59  C   UNL A   1      45.442  24.716  30.323  1.00  0.00     0.031 C 
ATOM     60  C   UNL A   1      45.535  26.513  32.031  1.00  0.00     0.034 A 
BRANCH  47  61
ATOM     61  C   UNL A   1      42.463  31.460  34.191  1.00  0.00     0.023 A 
ATOM     62  C   UNL A   1      41.647  31.443  35.337  1.00  0.00     0.031 A 
ATOM     63  C   UNL A   1      43.223  32.618  33.946  1.00  0.00     0.131 A 
ATOM     64  C   UNL A   1      41.547  32.585  36.145  1.00  0.00     0.055 A 
ATOM     65  C   UNL A   1      43.185  33.721  34.803  1.00  0.00     0.041 A 
ATOM     66  F   UNL A   1      44.007  32.704  32.860  1.00  0.00    -0.206 F 
ATOM     67  C   UNL A   1      42.330  33.715  35.901  1.00  0.00     0.022 A 
BRANCH  64  68
ATOM     68  S   UNL A   1      40.266  32.627  37.428  1.00  0.00     0.124 S 
ATOM     69  O   UNL A   1      39.762  33.993  37.298  1.00  0.00    -0.237 OA
ATOM     70  O   UNL A   1      39.358  31.569  37.002  1.00  0.00    -0.237 OA
ATOM     71  O   UNL A   1      41.005  32.359  38.660  1.00  0.00    -0.744 OA
ENDBRANCH  64  68
ENDBRANCH  47  61
BRANCH  48  72
ATOM     72  C   UNL A   1      42.477  24.098  27.379  1.00  0.00     0.023 A 
ATOM     73  C   UNL A   1      41.931  22.827  27.617  1.00  0.00     0.031 A 
ATOM     74  C   UNL A   1      43.092  24.330  26.135  1.00  0.00     0.131 A 
ATOM     75  C   UNL A   1      42.047  21.822  26.645  1.00  0.00     0.055 A 
ATOM     76  C   UNL A   1      43.157  23.343  25.150  1.00  0.00     0.041 A 
ATOM     77  F   UNL A   1      43.623  25.530  25.853  1.00  0.00    -0.206 F 
ATOM     78  C   UNL A   1      42.645  22.075  25.408  1.00  0.00     0.022 A 
BRANCH  75  79
ATOM     79  S   UNL A   1      41.474  20.150  27.051  1.00  0.00     0.124 S 
ATOM     80  O   UNL A   1      42.711  19.507  27.476  1.00  0.00    -0.237 OA
ATOM     81  O   UNL A   1      40.494  20.414  28.099  1.00  0.00    -0.237 OA
ATOM     82  O   UNL A   1      40.918  19.665  25.790  1.00  0.00    -0.744 OA
ENDBRANCH  75  79
ENDBRANCH  48  72
BRANCH  60  83
ATOM     83  C   UNL A   1      46.815  25.895  32.536  1.00  0.00     0.023 A 
ATOM     84  C   UNL A   1      48.065  26.218  31.979  1.00  0.00     0.031 A 
ATOM     85  C   UNL A   1      46.782  24.956  33.583  1.00  0.00     0.131 A 
ATOM     86  C   UNL A   1      49.221  25.564  32.429  1.00  0.00     0.055 A 
ATOM     87  C   UNL A   1      47.944  24.355  34.069  1.00  0.00     0.041 A 
ATOM     88  F   UNL A   1      45.616  24.608  34.151  1.00  0.00    -0.206 F 
ATOM     89  C   UNL A   1      49.171  24.647  33.482  1.00  0.00     0.022 A 
BRANCH  86  90
ATOM     90  S   UNL A   1      50.783  25.853  31.552  1.00  0.00     0.124 S 
ATOM     91  O   UNL A   1      50.319  26.252  30.228  1.00  0.00    -0.237 OA
ATOM     92  O   UNL A   1      51.401  26.904  32.356  1.00  0.00    -0.237 OA
ATOM     93  O   UNL A   1      51.454  24.556  31.609  1.00  0.00    -0.744 OA
ENDBRANCH  86  90
ENDBRANCH  60  83
ENDBRANCH  34  35
ENDBRANCH  26  29
ENDBRANCH  24  25
ENDBRANCH   1  24
TORSDOF 16
ENDMDL
MODEL 2
REMARK VINA RESULT:     -12.0      3.751      8.869
REMARK SMILES Cc1cc(C(=O)N[C@@H]2CC2(C)C)sc1/C=C/C(=O)NCCCNC(=O)c1ccc(-c2c3nc(c(-c4cc(S(=O)(=O)[O-])ccc4F)c4ccc([nH]4)c(-c4cc(S(=O)(=O)[O-])ccc4F)c4nc(c(-c5cc(S(=O)(=O)[O-])ccc5F)c5ccc2[nH]5)C=C4)C=C3)cc1
REMARK SMILES IDX 21 1 20 2 19 3 17 4 18 5 16 7 15 8 14 9 1 10 2 11 3 12 4 13
REMARK SMILES IDX 13 14 5 15 6 16 7 17 8 19 9 20 10 21 11 22 12 23 22 24 23 25
REMARK SMILES IDX 24 26 25 28 26 29 27 30 88 31 28 32 87 33 29 34 30 35 31 36
REMARK SMILES IDX 81 37 32 38 86 39 80 40 82 41 33 42 85 43 79 44 78 45 34 47
REMARK SMILES IDX 66 48 46 49 65 50 47 51 50 52 64 53 83 54 48 55 49 56 63 58
REMARK SMILES IDX 84 59 51 60 35 61 36 62 44 63 37 64 43 65 45 66 42 67 38 68
REMARK SMILES IDX 39 69 40 70 41 71 67 72 68 73 76 74 69 75 75 76 77 77 74 78
REMARK SMILES IDX 70 79 71 80 72 81 73 82 52 83 53 84 61 85 54 86 60 87 62 88
REMARK SMILES IDX 59 89 55 90 56 91 57 92 58 93
REMARK H PARENT 19 6 7 18 23 27 82 46 50 57
REMARK Flexibility Score: inf
ROOT
ATOM      1  C   UNL A   1      31.358  31.962  26.502  1.00  0.00     0.042 C 
ENDROOT
BRANCH   1   2
ATOM      2  C   UNL A   1      31.555  30.637  25.773  1.00  0.00     0.118 C 
BRANCH   2   3
ATOM      3  N   UNL A   1      30.692  30.536  24.611  1.00  0.00    -0.352 N 
ATOM      4  C   UNL A   1      30.430  29.477  23.801  1.00  0.00     0.244 C 
ATOM      5  O   UNL A   1      29.563  29.574  22.936  1.00  0.00    -0.270 OA
ATOM      6  H   UNL A   1      30.221  31.367  24.371  1.00  0.00     0.163 HD
BRANCH   4   7
ATOM      7  C   UNL A   1      31.076  28.167  24.028  1.00  0.00     0.072 C 
ATOM      8  C   UNL A   1      30.820  27.296  25.020  1.00  0.00     0.025 C 
BRANCH   8   9
ATOM      9  C   UNL A   1      31.493  26.045  25.024  1.00  0.00     0.031 A 
ATOM     10  C   UNL A   1      33.857  26.677  25.821  1.00  0.00     0.046 C 
ATOM     11  C   UNL A   1      32.769  25.718  25.460  1.00  0.00    -0.032 A 
ATOM     12  C   UNL A   1      32.873  24.295  25.631  1.00  0.00     0.029 A 
ATOM     13  C   UNL A   1      31.704  23.625  25.302  1.00  0.00     0.093 A 
ATOM     14  S   UNL A   1      30.746  24.650  24.345  1.00  0.00    -0.130 S 
BRANCH  13  15
ATOM     15  C   UNL A   1      31.427  22.226  25.525  1.00  0.00     0.261 C 
ATOM     16  O   UNL A   1      30.340  21.866  25.997  1.00  0.00    -0.268 OA
ATOM     17  N   UNL A   1      32.253  21.182  25.163  1.00  0.00    -0.348 N 
ATOM     18  H   UNL A   1      31.829  20.330  25.411  1.00  0.00     0.164 HD
BRANCH  17  19
ATOM     19  C   UNL A   1      33.517  20.917  24.548  1.00  0.00     0.088 C 
ATOM     20  C   UNL A   1      34.506  19.820  24.754  1.00  0.00     0.034 C 
ATOM     21  C   UNL A   1      34.889  21.235  25.124  1.00  0.00    -0.013 C 
ATOM     22  C   UNL A   1      35.923  21.887  24.241  1.00  0.00     0.013 C 
ATOM     23  C   UNL A   1      35.049  21.590  26.578  1.00  0.00     0.013 C 
ENDBRANCH  17  19
ENDBRANCH  13  15
ENDBRANCH   8   9
ENDBRANCH   4   7
ENDBRANCH   2   3
ENDBRANCH   1   2
BRANCH   1  24
ATOM     24  C   UNL A   1      32.605  32.445  27.232  1.00  0.00     0.118 C 
BRANCH  24  25
ATOM     25  N   UNL A   1      32.520  33.855  27.574  1.00  0.00    -0.352 N 
ATOM     26  C   UNL A   1      33.163  34.567  28.558  1.00  0.00     0.251 C 
ATOM     27  H   UNL A   1      31.905  34.382  27.014  1.00  0.00     0.163 HD
ATOM     28  O   UNL A   1      32.748  35.687  28.842  1.00  0.00    -0.269 OA
BRANCH  26  29
ATOM     29  C   UNL A   1      34.326  33.997  29.277  1.00  0.00     0.039 A 
ATOM     30  C   UNL A   1      34.097  33.063  30.292  1.00  0.00     0.014 A 
ATOM     31  C   UNL A   1      35.633  34.412  29.001  1.00  0.00     0.014 A 
ATOM     32  C   UNL A   1      35.176  32.511  30.989  1.00  0.00     0.010 A 
ATOM     33  C   UNL A   1      36.711  33.802  29.640  1.00  0.00     0.010 A 
ATOM     34  C   UNL A   1      36.493  32.853  30.649  1.00  0.00    -0.014 A 
BRANCH  34  35
ATOM     35  C   UNL A   1      37.655  32.242  31.351  1.00  0.00     0.031 A 
ATOM     36  C   UNL A   1      38.414  31.111  30.712  1.00  0.00     0.074 A 
ATOM     37  C   UNL A   1      37.987  32.671  32.585  1.00  0.00     0.049 A 
ATOM     38  N   UNL A   1      39.398  30.395  31.194  1.00  0.00    -0.248 NA
ATOM     39  C   UNL A   1      37.988  30.709  29.363  1.00  0.00     0.031 C 
ATOM     40  C   UNL A   1      37.303  33.734  33.322  1.00  0.00     0.029 A 
ATOM     41  N   UNL A   1      38.977  32.258  33.441  1.00  0.00    -0.354 N 
ATOM     42  C   UNL A   1      39.700  29.454  30.215  1.00  0.00     0.074 A 
ATOM     43  C   UNL A   1      38.750  29.650  29.142  1.00  0.00     0.031 C 
ATOM     44  C   UNL A   1      37.907  33.906  34.509  1.00  0.00     0.029 A 
ATOM     45  C   UNL A   1      38.989  32.936  34.639  1.00  0.00     0.049 A 
ATOM     46  H   UNL A   1      39.619  31.546  33.220  1.00  0.00     0.167 HD
ATOM     47  C   UNL A   1      40.692  28.527  30.204  1.00  0.00     0.034 A 
ATOM     48  C   UNL A   1      39.773  32.785  35.724  1.00  0.00     0.034 A 
ATOM     49  C   UNL A   1      41.637  28.353  31.281  1.00  0.00     0.049 A 
ATOM     50  C   UNL A   1      40.856  31.736  35.699  1.00  0.00     0.074 A 
ATOM     51  C   UNL A   1      42.708  27.479  31.357  1.00  0.00     0.029 A 
ATOM     52  N   UNL A   1      41.621  29.061  32.476  1.00  0.00    -0.354 N 
ATOM     53  N   UNL A   1      41.154  30.882  34.747  1.00  0.00    -0.248 NA
ATOM     54  C   UNL A   1      41.714  31.641  36.886  1.00  0.00     0.031 C 
ATOM     55  C   UNL A   1      43.297  27.614  32.619  1.00  0.00     0.029 A 
ATOM     56  C   UNL A   1      42.645  28.626  33.305  1.00  0.00     0.049 A 
ATOM     57  H   UNL A   1      40.976  29.770  32.703  1.00  0.00     0.167 HD
ATOM     58  C   UNL A   1      42.256  30.167  35.213  1.00  0.00     0.074 A 
ATOM     59  C   UNL A   1      42.575  30.704  36.520  1.00  0.00     0.031 C 
ATOM     60  C   UNL A   1      42.943  29.161  34.612  1.00  0.00     0.034 A 
BRANCH  47  61
ATOM     61  C   UNL A   1      40.781  27.620  28.998  1.00  0.00     0.023 A 
ATOM     62  C   UNL A   1      41.742  27.822  27.990  1.00  0.00     0.031 A 
ATOM     63  C   UNL A   1      39.875  26.557  28.835  1.00  0.00     0.131 A 
ATOM     64  C   UNL A   1      41.723  27.030  26.832  1.00  0.00     0.055 A 
ATOM     65  C   UNL A   1      39.917  25.717  27.719  1.00  0.00     0.041 A 
ATOM     66  F   UNL A   1      38.923  26.323  29.751  1.00  0.00    -0.206 F 
ATOM     67  C   UNL A   1      40.833  25.962  26.701  1.00  0.00     0.022 A 
BRANCH  64  68
ATOM     68  S   UNL A   1      42.775  27.514  25.436  1.00  0.00     0.124 S 
ATOM     69  O   UNL A   1      42.872  26.260  24.692  1.00  0.00    -0.237 OA
ATOM     70  O   UNL A   1      41.994  28.571  24.805  1.00  0.00    -0.237 OA
ATOM     71  O   UNL A   1      44.015  27.948  26.076  1.00  0.00    -0.744 OA
ENDBRANCH  64  68
ENDBRANCH  47  61
BRANCH  48  72
ATOM     72  C   UNL A   1      39.563  33.636  36.930  1.00  0.00     0.023 A 
ATOM     73  C   UNL A   1      38.893  33.139  38.060  1.00  0.00     0.031 A 
ATOM     74  C   UNL A   1      40.000  34.973  36.959  1.00  0.00     0.131 A 
ATOM     75  C   UNL A   1      38.641  33.983  39.152  1.00  0.00     0.055 A 
ATOM     76  C   UNL A   1      39.794  35.793  38.069  1.00  0.00     0.041 A 
ATOM     77  F   UNL A   1      40.652  35.496  35.908  1.00  0.00    -0.206 F 
ATOM     78  C   UNL A   1      39.098  35.303  39.170  1.00  0.00     0.022 A 
BRANCH  75  79
ATOM     79  S   UNL A   1      37.634  33.353  40.523  1.00  0.00     0.124 S 
ATOM     80  O   UNL A   1      37.471  34.545  41.345  1.00  0.00    -0.237 OA
ATOM     81  O   UNL A   1      36.440  32.883  39.828  1.00  0.00    -0.237 OA
ATOM     82  O   UNL A   1      38.467  32.302  41.102  1.00  0.00    -0.744 OA
ENDBRANCH  75  79
ENDBRANCH  48  72
BRANCH  60  83
ATOM     83  C   UNL A   1      44.137  28.612  35.354  1.00  0.00     0.023 A 
ATOM     84  C   UNL A   1      44.008  27.599  36.321  1.00  0.00     0.031 A 
ATOM     85  C   UNL A   1      45.423  29.122  35.101  1.00  0.00     0.131 A 
ATOM     86  C   UNL A   1      45.133  27.171  37.039  1.00  0.00     0.055 A 
ATOM     87  C   UNL A   1      46.549  28.648  35.774  1.00  0.00     0.041 A 
ATOM     88  F   UNL A   1      45.605  30.092  34.190  1.00  0.00    -0.206 F 
ATOM     89  C   UNL A   1      46.406  27.677  36.761  1.00  0.00     0.022 A 
BRANCH  86  90
ATOM     90  S   UNL A   1      44.900  26.013  38.416  1.00  0.00     0.124 S 
ATOM     91  O   UNL A   1      44.124  26.812  39.357  1.00  0.00    -0.237 OA
ATOM     92  O   UNL A   1      44.188  24.909  37.777  1.00  0.00    -0.237 OA
ATOM     93  O   UNL A   1      46.264  25.705  38.841  1.00  0.00    -0.744 OA
ENDBRANCH  86  90
ENDBRANCH  60  83
ENDBRANCH  34  35
ENDBRANCH  26  29
ENDBRANCH  24  25
ENDBRANCH   1  24
TORSDOF 16
ENDMDL
MODEL 3
REMARK VINA RESULT:     -12.0      4.748      8.048
REMARK SMILES Cc1cc(C(=O)N[C@@H]2CC2(C)C)sc1/C=C/C(=O)NCCCNC(=O)c1ccc(-c2c3nc(c(-c4cc(S(=O)(=O)[O-])ccc4F)c4ccc([nH]4)c(-c4cc(S(=O)(=O)[O-])ccc4F)c4nc(c(-c5cc(S(=O)(=O)[O-])ccc5F)c5ccc2[nH]5)C=C4)C=C3)cc1
REMARK SMILES IDX 21 1 20 2 19 3 17 4 18 5 16 7 15 8 14 9 1 10 2 11 3 12 4 13
REMARK SMILES IDX 13 14 5 15 6 16 7 17 8 19 9 20 10 21 11 22 12 23 22 24 23 25
REMARK SMILES IDX 24 26 25 28 26 29 27 30 88 31 28 32 87 33 29 34 30 35 31 36
REMARK SMILES IDX 81 37 32 38 86 39 80 40 82 41 33 42 85 43 79 44 78 45 34 47
REMARK SMILES IDX 66 48 46 49 65 50 47 51 50 52 64 53 83 54 48 55 49 56 63 58
REMARK SMILES IDX 84 59 51 60 35 61 36 62 44 63 37 64 43 65 45 66 42 67 38 68
REMARK SMILES IDX 39 69 40 70 41 71 67 72 68 73 76 74 69 75 75 76 77 77 74 78
REMARK SMILES IDX 70 79 71 80 72 81 73 82 52 83 53 84 61 85 54 86 60 87 62 88
REMARK SMILES IDX 59 89 55 90 56 91 57 92 58 93
REMARK H PARENT 19 6 7 18 23 27 82 46 50 57
REMARK Flexibility Score: inf
ROOT
ATOM      1  C   UNL A   1      34.349  21.701  26.384  1.00  0.00     0.042 C 
ENDROOT
BRANCH   1   2
ATOM      2  C   UNL A   1      33.322  21.434  25.288  1.00  0.00     0.118 C 
BRANCH   2   3
ATOM      3  N   UNL A   1      31.970  21.442  25.815  1.00  0.00    -0.352 N 
ATOM      4  C   UNL A   1      31.114  22.476  26.024  1.00  0.00     0.244 C 
ATOM      5  O   UNL A   1      29.957  22.247  26.367  1.00  0.00    -0.270 OA
ATOM      6  H   UNL A   1      31.616  20.556  26.060  1.00  0.00     0.163 HD
BRANCH   4   7
ATOM      7  C   UNL A   1      31.512  23.866  25.717  1.00  0.00     0.072 C 
ATOM      8  C   UNL A   1      32.007  24.777  26.572  1.00  0.00     0.025 C 
BRANCH   8   9
ATOM      9  C   UNL A   1      32.408  26.044  26.069  1.00  0.00     0.031 A 
ATOM     10  C   UNL A   1      34.007  25.411  24.155  1.00  0.00     0.046 C 
ATOM     11  C   UNL A   1      33.186  26.361  24.965  1.00  0.00    -0.032 A 
ATOM     12  C   UNL A   1      33.003  27.746  24.625  1.00  0.00     0.029 A 
ATOM     13  C   UNL A   1      32.133  28.402  25.483  1.00  0.00     0.093 A 
ATOM     14  S   UNL A   1      31.989  27.489  26.907  1.00  0.00    -0.130 S 
BRANCH  13  15
ATOM     15  C   UNL A   1      31.610  29.736  25.315  1.00  0.00     0.261 C 
ATOM     16  O   UNL A   1      32.099  30.687  25.939  1.00  0.00    -0.268 OA
ATOM     17  N   UNL A   1      30.629  30.102  24.416  1.00  0.00    -0.348 N 
ATOM     18  H   UNL A   1      30.465  31.070  24.490  1.00  0.00     0.164 HD
BRANCH  17  19
ATOM     19  C   UNL A   1      29.772  29.553  23.412  1.00  0.00     0.088 C 
ATOM     20  C   UNL A   1      29.416  30.034  22.045  1.00  0.00     0.034 C 
ATOM     21  C   UNL A   1      28.343  29.981  23.109  1.00  0.00    -0.013 C 
ATOM     22  C   UNL A   1      27.285  28.923  22.920  1.00  0.00     0.013 C 
ATOM     23  C   UNL A   1      27.794  31.271  23.655  1.00  0.00     0.013 C 
ENDBRANCH  17  19
ENDBRANCH  13  15
ENDBRANCH   8   9
ENDBRANCH   4   7
ENDBRANCH   2   3
ENDBRANCH   1   2
BRANCH   1  24
ATOM     24  C   UNL A   1      35.684  22.210  25.854  1.00  0.00     0.118 C 
BRANCH  24  25
ATOM     25  N   UNL A   1      36.655  21.139  25.712  1.00  0.00    -0.352 N 
ATOM     26  C   UNL A   1      38.028  21.185  25.692  1.00  0.00     0.251 C 
ATOM     27  H   UNL A   1      36.269  20.238  25.614  1.00  0.00     0.163 HD
ATOM     28  O   UNL A   1      38.647  20.201  25.297  1.00  0.00    -0.269 OA
BRANCH  26  29
ATOM     29  C   UNL A   1      38.757  22.402  26.123  1.00  0.00     0.039 A 
ATOM     30  C   UNL A   1      39.893  22.255  26.926  1.00  0.00     0.014 A 
ATOM     31  C   UNL A   1      38.304  23.682  25.791  1.00  0.00     0.014 A 
ATOM     32  C   UNL A   1      40.598  23.386  27.349  1.00  0.00     0.010 A 
ATOM     33  C   UNL A   1      39.053  24.803  26.145  1.00  0.00     0.010 A 
ATOM     34  C   UNL A   1      40.202  24.668  26.938  1.00  0.00    -0.014 A 
BRANCH  34  35
ATOM     35  C   UNL A   1      40.966  25.879  27.342  1.00  0.00     0.031 A 
ATOM     36  C   UNL A   1      40.303  26.953  28.161  1.00  0.00     0.074 A 
ATOM     37  C   UNL A   1      42.238  26.034  26.924  1.00  0.00     0.049 A 
ATOM     38  N   UNL A   1      40.771  28.114  28.543  1.00  0.00    -0.248 NA
ATOM     39  C   UNL A   1      38.915  26.701  28.578  1.00  0.00     0.031 C 
ATOM     40  C   UNL A   1      42.976  25.079  26.095  1.00  0.00     0.029 A 
ATOM     41  N   UNL A   1      43.132  27.055  27.129  1.00  0.00    -0.354 N 
ATOM     42  C   UNL A   1      39.734  28.735  29.233  1.00  0.00     0.074 A 
ATOM     43  C   UNL A   1      38.594  27.846  29.159  1.00  0.00     0.031 C 
ATOM     44  C   UNL A   1      44.216  25.548  25.882  1.00  0.00     0.029 A 
ATOM     45  C   UNL A   1      44.348  26.856  26.516  1.00  0.00     0.049 A 
ATOM     46  H   UNL A   1      42.924  27.854  27.664  1.00  0.00     0.167 HD
ATOM     47  C   UNL A   1      39.741  29.924  29.887  1.00  0.00     0.034 A 
ATOM     48  C   UNL A   1      45.440  27.643  26.458  1.00  0.00     0.034 A 
ATOM     49  C   UNL A   1      40.892  30.792  29.958  1.00  0.00     0.049 A 
ATOM     50  C   UNL A   1      45.419  28.969  27.175  1.00  0.00     0.074 A 
ATOM     51  C   UNL A   1      41.025  31.995  30.630  1.00  0.00     0.029 A 
ATOM     52  N   UNL A   1      42.108  30.555  29.329  1.00  0.00    -0.354 N 
ATOM     53  N   UNL A   1      44.444  29.522  27.859  1.00  0.00    -0.248 NA
ATOM     54  C   UNL A   1      46.649  29.769  27.122  1.00  0.00     0.031 C 
ATOM     55  C   UNL A   1      42.295  32.515  30.354  1.00  0.00     0.029 A 
ATOM     56  C   UNL A   1      42.986  31.601  29.574  1.00  0.00     0.049 A 
ATOM     57  H   UNL A   1      42.317  29.759  28.788  1.00  0.00     0.167 HD
ATOM     58  C   UNL A   1      44.956  30.724  28.343  1.00  0.00     0.074 A 
ATOM     59  C   UNL A   1      46.328  30.803  27.886  1.00  0.00     0.031 C 
ATOM     60  C   UNL A   1      44.348  31.673  29.100  1.00  0.00     0.034 A 
BRANCH  47  61
ATOM     61  C   UNL A   1      38.454  30.358  30.552  1.00  0.00     0.023 A 
ATOM     62  C   UNL A   1      37.453  31.047  29.846  1.00  0.00     0.031 A 
ATOM     63  C   UNL A   1      38.237  30.106  31.919  1.00  0.00     0.131 A 
ATOM     64  C   UNL A   1      36.323  31.532  30.523  1.00  0.00     0.055 A 
ATOM     65  C   UNL A   1      37.070  30.516  32.568  1.00  0.00     0.041 A 
ATOM     66  F   UNL A   1      39.163  29.469  32.653  1.00  0.00    -0.206 F 
ATOM     67  C   UNL A   1      36.112  31.249  31.874  1.00  0.00     0.022 A 
BRANCH  64  68
ATOM     68  S   UNL A   1      35.212  32.667  29.648  1.00  0.00     0.124 S 
ATOM     69  O   UNL A   1      34.428  33.221  30.751  1.00  0.00    -0.237 OA
ATOM     70  O   UNL A   1      36.142  33.585  29.002  1.00  0.00    -0.237 OA
ATOM     71  O   UNL A   1      34.469  31.791  28.744  1.00  0.00    -0.744 OA
ENDBRANCH  64  68
ENDBRANCH  47  61
BRANCH  48  72
ATOM     72  C   UNL A   1      46.642  27.209  25.690  1.00  0.00     0.023 A 
ATOM     73  C   UNL A   1      46.888  27.693  24.395  1.00  0.00     0.031 A 
ATOM     74  C   UNL A   1      47.548  26.276  26.228  1.00  0.00     0.131 A 
ATOM     75  C   UNL A   1      47.986  27.211  23.665  1.00  0.00     0.055 A 
ATOM     76  C   UNL A   1      48.667  25.840  25.518  1.00  0.00     0.041 A 
ATOM     77  F   UNL A   1      47.364  25.787  27.465  1.00  0.00    -0.206 F 
ATOM     78  C   UNL A   1      48.883  26.298  24.222  1.00  0.00     0.022 A 
BRANCH  75  79
ATOM     79  S   UNL A   1      48.178  27.737  21.940  1.00  0.00     0.124 S 
ATOM     80  O   UNL A   1      48.338  26.460  21.255  1.00  0.00    -0.237 OA
ATOM     81  O   UNL A   1      46.924  28.443  21.698  1.00  0.00    -0.237 OA
ATOM     82  O   UNL A   1      49.369  28.583  21.973  1.00  0.00    -0.744 OA
ENDBRANCH  75  79
ENDBRANCH  48  72
BRANCH  60  83
ATOM     83  C   UNL A   1      45.187  32.857  29.514  1.00  0.00     0.023 A 
ATOM     84  C   UNL A   1      45.281  34.014  28.720  1.00  0.00     0.031 A 
ATOM     85  C   UNL A   1      45.916  32.821  30.716  1.00  0.00     0.131 A 
ATOM     86  C   UNL A   1      46.131  35.060  29.107  1.00  0.00     0.055 A 
ATOM     87  C   UNL A   1      46.711  33.891  31.127  1.00  0.00     0.041 A 
ATOM     88  F   UNL A   1      45.865  31.740  31.513  1.00  0.00    -0.206 F 
ATOM     89  C   UNL A   1      46.834  35.013  30.313  1.00  0.00     0.022 A 
BRANCH  86  90
ATOM     90  S   UNL A   1      46.385  36.445  27.963  1.00  0.00     0.124 S 
ATOM     91  O   UNL A   1      46.394  37.589  28.868  1.00  0.00    -0.237 OA
ATOM     92  O   UNL A   1      47.665  36.108  27.346  1.00  0.00    -0.237 OA
ATOM     93  O   UNL A   1      45.230  36.369  27.070  1.00  0.00    -0.744 OA
ENDBRANCH  86  90
ENDBRANCH  60  83
ENDBRANCH  34  35
ENDBRANCH  26  29
ENDBRANCH  24  25
ENDBRANCH   1  24
TORSDOF 16
ENDMDL
