MODEL 1
REMARK VINA RESULT:     -11.4      0.000      0.000
REMARK SMILES O=C(NCCCNC(=O)c1cc(OCc2ccccc2C(F)(F)F)cs1)c1ccc(-c2c3nc(c(-c4cc(S(=O)(=O)[O-])ccc4F)c4ccc([nH]4)c(-c4cc(S(=O)(=O)[O-])ccc4F)c4nc(c(-c5cc(S(=O)(=O)[O-])ccc5F)c5ccc2[nH]5)C=C4)C=C3)cc1
REMARK SMILES IDX 5 1 4 2 3 3 1 4 2 5 27 7 28 8 89 9 29 10 88 11 30 12 31 13
REMARK SMILES IDX 32 14 82 15 33 16 87 17 81 18 83 19 34 20 86 21 80 22 79 23
REMARK SMILES IDX 35 25 67 26 47 27 66 28 48 29 51 30 65 31 84 32 49 33 50 34
REMARK SMILES IDX 64 36 85 37 52 38 36 39 37 40 45 41 38 42 44 43 46 44 43 45
REMARK SMILES IDX 39 46 40 47 41 48 42 49 68 50 69 51 77 52 70 53 76 54 78 55
REMARK SMILES IDX 75 56 71 57 72 58 73 59 74 60 53 61 54 62 62 63 55 64 61 65
REMARK SMILES IDX 63 66 60 67 56 68 57 69 58 70 59 71 6 72 7 73 8 74 9 76
REMARK SMILES IDX 10 77 11 78 26 79 12 80 25 81 13 82 14 83 15 84 16 85 20 86
REMARK SMILES IDX 17 87 19 88 18 89 21 90 22 91 23 92 24 93
REMARK H PARENT 3 6 83 24 51 35 7 75
REMARK Flexibility Score: inf
ROOT
ATOM      1  C   UNL A   1      31.539  31.872  26.813  1.00  0.00     0.042 C 
ENDROOT
BRANCH   1   2
ATOM      2  C   UNL A   1      32.749  32.798  26.903  1.00  0.00     0.118 C 
BRANCH   2   3
ATOM      3  N   UNL A   1      32.535  34.008  27.707  1.00  0.00    -0.352 N 
ATOM      4  O   UNL A   1      32.721  35.535  29.341  1.00  0.00    -0.269 OA
ATOM      5  C   UNL A   1      33.178  34.523  28.813  1.00  0.00     0.251 C 
ATOM      6  H   UNL A   1      31.783  34.560  27.395  1.00  0.00     0.163 HD
BRANCH   5   7
ATOM      7  C   UNL A   1      34.374  33.869  29.400  1.00  0.00     0.039 A 
ATOM      8  C   UNL A   1      34.250  32.828  30.314  1.00  0.00     0.014 A 
ATOM      9  C   UNL A   1      35.655  34.282  29.010  1.00  0.00     0.014 A 
ATOM     10  C   UNL A   1      35.362  32.374  31.009  1.00  0.00     0.010 A 
ATOM     11  C   UNL A   1      36.792  33.715  29.606  1.00  0.00     0.010 A 
ATOM     12  C   UNL A   1      36.652  32.782  30.643  1.00  0.00    -0.014 A 
BRANCH  12  13
ATOM     13  C   UNL A   1      37.818  32.127  31.296  1.00  0.00     0.031 A 
ATOM     14  C   UNL A   1      38.591  31.033  30.610  1.00  0.00     0.074 A 
ATOM     15  C   UNL A   1      38.201  32.572  32.512  1.00  0.00     0.049 A 
ATOM     16  N   UNL A   1      39.628  30.365  31.047  1.00  0.00    -0.248 NA
ATOM     17  C   UNL A   1      38.144  30.629  29.269  1.00  0.00     0.031 C 
ATOM     18  C   UNL A   1      37.524  33.633  33.266  1.00  0.00     0.029 A 
ATOM     19  N   UNL A   1      39.248  32.214  33.322  1.00  0.00    -0.354 N 
ATOM     20  C   UNL A   1      39.942  29.444  30.052  1.00  0.00     0.074 A 
ATOM     21  C   UNL A   1      38.976  29.633  28.990  1.00  0.00     0.031 C 
ATOM     22  C   UNL A   1      38.200  33.874  34.398  1.00  0.00     0.029 A 
ATOM     23  C   UNL A   1      39.289  32.914  34.507  1.00  0.00     0.049 A 
ATOM     24  H   UNL A   1      39.906  31.524  33.080  1.00  0.00     0.167 HD
ATOM     25  C   UNL A   1      40.942  28.527  30.038  1.00  0.00     0.034 A 
ATOM     26  C   UNL A   1      40.077  32.770  35.590  1.00  0.00     0.034 A 
ATOM     27  C   UNL A   1      41.904  28.373  31.104  1.00  0.00     0.049 A 
ATOM     28  C   UNL A   1      41.136  31.702  35.565  1.00  0.00     0.074 A 
ATOM     29  C   UNL A   1      43.000  27.529  31.155  1.00  0.00     0.029 A 
ATOM     30  N   UNL A   1      41.876  29.056  32.313  1.00  0.00    -0.354 N 
ATOM     31  N   UNL A   1      41.447  30.876  34.592  1.00  0.00    -0.248 NA
ATOM     32  C   UNL A   1      41.943  31.538  36.779  1.00  0.00     0.031 C 
ATOM     33  C   UNL A   1      43.575  27.632  32.425  1.00  0.00     0.029 A 
ATOM     34  C   UNL A   1      42.895  28.605  33.139  1.00  0.00     0.049 A 
ATOM     35  H   UNL A   1      41.225  29.757  32.550  1.00  0.00     0.167 HD
ATOM     36  C   UNL A   1      42.494  30.102  35.077  1.00  0.00     0.074 A 
ATOM     37  C   UNL A   1      42.783  30.581  36.413  1.00  0.00     0.031 C 
ATOM     38  C   UNL A   1      43.155  29.081  34.476  1.00  0.00     0.034 A 
BRANCH  25  39
ATOM     39  C   UNL A   1      41.023  27.573  28.870  1.00  0.00     0.023 A 
ATOM     40  C   UNL A   1      41.996  27.692  27.864  1.00  0.00     0.031 A 
ATOM     41  C   UNL A   1      40.126  26.490  28.794  1.00  0.00     0.131 A 
ATOM     42  C   UNL A   1      42.026  26.767  26.807  1.00  0.00     0.055 A 
ATOM     43  C   UNL A   1      40.204  25.536  27.776  1.00  0.00     0.041 A 
ATOM     44  F   UNL A   1      39.163  26.336  29.715  1.00  0.00    -0.206 F 
ATOM     45  C   UNL A   1      41.153  25.676  26.771  1.00  0.00     0.022 A 
BRANCH  42  46
ATOM     46  S   UNL A   1      43.159  27.062  25.420  1.00  0.00     0.124 S 
ATOM     47  O   UNL A   1      43.297  25.720  24.860  1.00  0.00    -0.237 OA
ATOM     48  O   UNL A   1      42.419  28.019  24.607  1.00  0.00    -0.237 OA
ATOM     49  O   UNL A   1      44.361  27.587  26.064  1.00  0.00    -0.744 OA
ENDBRANCH  42  46
ENDBRANCH  25  39
BRANCH  26  50
ATOM     50  C   UNL A   1      39.836  33.589  36.814  1.00  0.00     0.023 A 
ATOM     51  C   UNL A   1      40.600  34.733  37.088  1.00  0.00     0.031 A 
ATOM     52  C   UNL A   1      38.870  33.202  37.763  1.00  0.00     0.131 A 
ATOM     53  C   UNL A   1      40.425  35.414  38.302  1.00  0.00     0.055 A 
ATOM     54  C   UNL A   1      38.648  33.926  38.934  1.00  0.00     0.041 A 
ATOM     55  F   UNL A   1      38.112  32.112  37.558  1.00  0.00    -0.206 F 
ATOM     56  C   UNL A   1      39.443  35.031  39.218  1.00  0.00     0.022 A 
BRANCH  53  57
ATOM     57  S   UNL A   1      41.594  36.733  38.728  1.00  0.00     0.124 S 
ATOM     58  O   UNL A   1      40.702  37.766  39.242  1.00  0.00    -0.237 OA
ATOM     59  O   UNL A   1      42.447  36.074  39.711  1.00  0.00    -0.237 OA
ATOM     60  O   UNL A   1      42.236  37.042  37.452  1.00  0.00    -0.744 OA
ENDBRANCH  53  57
ENDBRANCH  26  50
BRANCH  38  61
ATOM     61  C   UNL A   1      44.268  28.436  35.260  1.00  0.00     0.023 A 
ATOM     62  C   UNL A   1      44.015  27.398  36.175  1.00  0.00     0.031 A 
ATOM     63  C   UNL A   1      45.597  28.865  35.094  1.00  0.00     0.131 A 
ATOM     64  C   UNL A   1      45.070  26.856  36.923  1.00  0.00     0.055 A 
ATOM     65  C   UNL A   1      46.649  28.279  35.795  1.00  0.00     0.041 A 
ATOM     66  F   UNL A   1      45.892  29.857  34.239  1.00  0.00    -0.206 F 
ATOM     67  C   UNL A   1      46.388  27.276  36.725  1.00  0.00     0.022 A 
BRANCH  64  68
ATOM     68  S   UNL A   1      44.686  25.647  38.219  1.00  0.00     0.124 S 
ATOM     69  O   UNL A   1      43.868  26.434  39.135  1.00  0.00    -0.237 OA
ATOM     70  O   UNL A   1      43.987  24.603  37.476  1.00  0.00    -0.237 OA
ATOM     71  O   UNL A   1      46.001  25.265  38.732  1.00  0.00    -0.744 OA
ENDBRANCH  64  68
ENDBRANCH  38  61
ENDBRANCH  12  13
ENDBRANCH   5   7
ENDBRANCH   2   3
ENDBRANCH   1   2
BRANCH   1  72
ATOM     72  C   UNL A   1      31.896  30.399  26.888  1.00  0.00     0.118 C 
BRANCH  72  73
ATOM     73  N   UNL A   1      33.157  30.079  27.547  1.00  0.00    -0.351 N 
ATOM     74  C   UNL A   1      34.124  29.185  27.096  1.00  0.00     0.261 C 
ATOM     75  H   UNL A   1      33.342  30.541  28.397  1.00  0.00     0.163 HD
ATOM     76  O   UNL A   1      35.261  29.276  27.546  1.00  0.00    -0.268 OA
BRANCH  74  77
ATOM     77  C   UNL A   1      33.729  28.206  26.098  1.00  0.00     0.096 A 
ATOM     78  C   UNL A   1      33.326  26.887  26.256  1.00  0.00     0.072 A 
ATOM     79  S   UNL A   1      33.696  28.660  24.449  1.00  0.00    -0.135 S 
ATOM     80  C   UNL A   1      33.473  26.164  25.036  1.00  0.00     0.131 A 
ATOM     81  C   UNL A   1      33.507  27.028  23.963  1.00  0.00     0.112 A 
BRANCH  80  82
ATOM     82  O   UNL A   1      33.509  24.825  24.803  1.00  0.00    -0.488 OA
BRANCH  82  83
ATOM     83  C   UNL A   1      33.899  23.973  25.893  1.00  0.00     0.266 C 
BRANCH  83  84
ATOM     84  C   UNL A   1      35.234  23.254  25.701  1.00  0.00     0.001 A 
ATOM     85  C   UNL A   1      36.429  23.997  25.787  1.00  0.00     0.008 A 
ATOM     86  C   UNL A   1      35.346  21.875  25.403  1.00  0.00     0.062 A 
ATOM     87  C   UNL A   1      37.682  23.379  25.691  1.00  0.00     0.000 A 
ATOM     88  C   UNL A   1      36.609  21.248  25.467  1.00  0.00     0.013 A 
ATOM     89  C   UNL A   1      37.771  21.997  25.601  1.00  0.00     0.001 A 
BRANCH  86  90
ATOM     90  C   UNL A   1      34.198  21.052  24.873  1.00  0.00     0.416 C 
ATOM     91  F   UNL A   1      34.578  19.825  24.416  1.00  0.00    -0.166 F 
ATOM     92  F   UNL A   1      33.243  20.794  25.787  1.00  0.00    -0.166 F 
ATOM     93  F   UNL A   1      33.550  21.641  23.829  1.00  0.00    -0.166 F 
ENDBRANCH  86  90
ENDBRANCH  83  84
ENDBRANCH  82  83
ENDBRANCH  80  82
ENDBRANCH  74  77
ENDBRANCH  72  73
ENDBRANCH   1  72
TORSDOF 17
ENDMDL
MODEL 2
REMARK VINA RESULT:     -11.4      2.923      4.180
REMARK SMILES O=C(NCCCNC(=O)c1cc(OCc2ccccc2C(F)(F)F)cs1)c1ccc(-c2c3nc(c(-c4cc(S(=O)(=O)[O-])ccc4F)c4ccc([nH]4)c(-c4cc(S(=O)(=O)[O-])ccc4F)c4nc(c(-c5cc(S(=O)(=O)[O-])ccc5F)c5ccc2[nH]5)C=C4)C=C3)cc1
REMARK SMILES IDX 5 1 4 2 3 3 1 4 2 5 27 7 28 8 89 9 29 10 88 11 30 12 31 13
REMARK SMILES IDX 32 14 82 15 33 16 87 17 81 18 83 19 34 20 86 21 80 22 79 23
REMARK SMILES IDX 35 25 67 26 47 27 66 28 48 29 51 30 65 31 84 32 49 33 50 34
REMARK SMILES IDX 64 36 85 37 52 38 36 39 37 40 45 41 38 42 44 43 46 44 43 45
REMARK SMILES IDX 39 46 40 47 41 48 42 49 68 50 69 51 77 52 70 53 76 54 78 55
REMARK SMILES IDX 75 56 71 57 72 58 73 59 74 60 53 61 54 62 62 63 55 64 61 65
REMARK SMILES IDX 63 66 60 67 56 68 57 69 58 70 59 71 6 72 7 73 8 74 9 76
REMARK SMILES IDX 10 77 11 78 26 79 12 80 25 81 13 82 14 83 15 84 16 85 20 86
REMARK SMILES IDX 17 87 19 88 18 89 21 90 22 91 23 92 24 93
REMARK H PARENT 3 6 83 24 51 35 7 75
REMARK Flexibility Score: inf
ROOT
ATOM      1  C   UNL A   1      31.612  31.896  27.165  1.00  0.00     0.042 C 
ENDROOT
BRANCH   1   2
ATOM      2  C   UNL A   1      32.752  32.899  27.011  1.00  0.00     0.118 C 
BRANCH   2   3
ATOM      3  N   UNL A   1      32.538  34.178  27.696  1.00  0.00    -0.352 N 
ATOM      4  O   UNL A   1      32.695  35.839  29.198  1.00  0.00    -0.269 OA
ATOM      5  C   UNL A   1      33.147  34.773  28.782  1.00  0.00     0.251 C 
ATOM      6  H   UNL A   1      31.817  34.720  27.302  1.00  0.00     0.163 HD
BRANCH   5   7
ATOM      7  C   UNL A   1      34.296  34.144  29.478  1.00  0.00     0.039 A 
ATOM      8  C   UNL A   1      35.606  34.455  29.132  1.00  0.00     0.014 A 
ATOM      9  C   UNL A   1      34.065  33.242  30.527  1.00  0.00     0.014 A 
ATOM     10  C   UNL A   1      36.658  33.707  29.642  1.00  0.00     0.010 A 
ATOM     11  C   UNL A   1      35.142  32.593  31.149  1.00  0.00     0.010 A 
ATOM     12  C   UNL A   1      36.450  32.791  30.682  1.00  0.00    -0.014 A 
BRANCH  12  13
ATOM     13  C   UNL A   1      37.634  32.153  31.318  1.00  0.00     0.031 A 
ATOM     14  C   UNL A   1      38.409  31.066  30.624  1.00  0.00     0.074 A 
ATOM     15  C   UNL A   1      38.032  32.608  32.526  1.00  0.00     0.049 A 
ATOM     16  N   UNL A   1      39.462  30.413  31.046  1.00  0.00    -0.248 NA
ATOM     17  C   UNL A   1      37.945  30.651  29.292  1.00  0.00     0.031 C 
ATOM     18  C   UNL A   1      37.354  33.664  33.287  1.00  0.00     0.029 A 
ATOM     19  N   UNL A   1      39.096  32.267  33.320  1.00  0.00    -0.354 N 
ATOM     20  C   UNL A   1      39.771  29.492  30.050  1.00  0.00     0.074 A 
ATOM     21  C   UNL A   1      38.785  29.665  29.004  1.00  0.00     0.031 C 
ATOM     22  C   UNL A   1      38.045  33.918  34.406  1.00  0.00     0.029 A 
ATOM     23  C   UNL A   1      39.147  32.972  34.502  1.00  0.00     0.049 A 
ATOM     24  H   UNL A   1      39.759  31.584  33.070  1.00  0.00     0.167 HD
ATOM     25  C   UNL A   1      40.781  28.588  30.022  1.00  0.00     0.034 A 
ATOM     26  C   UNL A   1      39.955  32.842  35.572  1.00  0.00     0.034 A 
ATOM     27  C   UNL A   1      41.763  28.450  31.073  1.00  0.00     0.049 A 
ATOM     28  C   UNL A   1      41.027  31.787  35.534  1.00  0.00     0.074 A 
ATOM     29  C   UNL A   1      42.870  27.620  31.110  1.00  0.00     0.029 A 
ATOM     30  N   UNL A   1      41.746  29.137  32.280  1.00  0.00    -0.354 N 
ATOM     31  N   UNL A   1      41.332  30.962  34.558  1.00  0.00    -0.248 NA
ATOM     32  C   UNL A   1      41.856  31.638  36.734  1.00  0.00     0.031 C 
ATOM     33  C   UNL A   1      43.464  27.735  32.370  1.00  0.00     0.029 A 
ATOM     34  C   UNL A   1      42.785  28.703  33.091  1.00  0.00     0.049 A 
ATOM     35  H   UNL A   1      41.091  29.831  32.525  1.00  0.00     0.167 HD
ATOM     36  C   UNL A   1      42.396  30.202  35.029  1.00  0.00     0.074 A 
ATOM     37  C   UNL A   1      42.701  30.690  36.359  1.00  0.00     0.031 C 
ATOM     38  C   UNL A   1      43.061  29.188  34.421  1.00  0.00     0.034 A 
BRANCH  25  39
ATOM     39  C   UNL A   1      40.856  27.630  28.858  1.00  0.00     0.023 A 
ATOM     40  C   UNL A   1      41.800  27.766  27.827  1.00  0.00     0.031 A 
ATOM     41  C   UNL A   1      39.982  26.526  28.809  1.00  0.00     0.131 A 
ATOM     42  C   UNL A   1      41.825  26.836  26.773  1.00  0.00     0.055 A 
ATOM     43  C   UNL A   1      40.056  25.569  27.794  1.00  0.00     0.041 A 
ATOM     44  F   UNL A   1      39.046  26.355  29.755  1.00  0.00    -0.206 F 
ATOM     45  C   UNL A   1      40.976  25.725  26.764  1.00  0.00     0.022 A 
BRANCH  42  46
ATOM     46  S   UNL A   1      42.915  27.150  25.357  1.00  0.00     0.124 S 
ATOM     47  O   UNL A   1      42.879  25.865  24.665  1.00  0.00    -0.237 OA
ATOM     48  O   UNL A   1      42.246  28.257  24.683  1.00  0.00    -0.237 OA
ATOM     49  O   UNL A   1      44.197  27.480  25.977  1.00  0.00    -0.744 OA
ENDBRANCH  42  46
ENDBRANCH  25  39
BRANCH  26  50
ATOM     50  C   UNL A   1      39.724  33.663  36.796  1.00  0.00     0.023 A 
ATOM     51  C   UNL A   1      39.143  33.109  37.947  1.00  0.00     0.031 A 
ATOM     52  C   UNL A   1      40.030  35.038  36.813  1.00  0.00     0.131 A 
ATOM     53  C   UNL A   1      38.836  33.933  39.040  1.00  0.00     0.055 A 
ATOM     54  C   UNL A   1      39.791  35.837  37.930  1.00  0.00     0.041 A 
ATOM     55  F   UNL A   1      40.582  35.626  35.739  1.00  0.00    -0.206 F 
ATOM     56  C   UNL A   1      39.172  35.288  39.047  1.00  0.00     0.022 A 
BRANCH  53  57
ATOM     57  S   UNL A   1      37.866  33.234  40.403  1.00  0.00     0.124 S 
ATOM     58  O   UNL A   1      38.646  32.048  40.744  1.00  0.00    -0.237 OA
ATOM     59  O   UNL A   1      37.890  34.319  41.377  1.00  0.00    -0.237 OA
ATOM     60  O   UNL A   1      36.565  32.971  39.793  1.00  0.00    -0.744 OA
ENDBRANCH  53  57
ENDBRANCH  26  50
BRANCH  38  61
ATOM     61  C   UNL A   1      44.195  28.560  35.190  1.00  0.00     0.023 A 
ATOM     62  C   UNL A   1      43.971  27.513  36.102  1.00  0.00     0.031 A 
ATOM     63  C   UNL A   1      45.513  29.014  35.010  1.00  0.00     0.131 A 
ATOM     64  C   UNL A   1      45.044  26.987  36.836  1.00  0.00     0.055 A 
ATOM     65  C   UNL A   1      46.584  28.444  35.696  1.00  0.00     0.041 A 
ATOM     66  F   UNL A   1      45.780  30.015  34.156  1.00  0.00    -0.206 F 
ATOM     67  C   UNL A   1      46.352  27.432  36.624  1.00  0.00     0.022 A 
BRANCH  64  68
ATOM     68  S   UNL A   1      44.698  25.766  38.130  1.00  0.00     0.124 S 
ATOM     69  O   UNL A   1      46.017  25.575  38.726  1.00  0.00    -0.237 OA
ATOM     70  O   UNL A   1      43.718  26.457  38.961  1.00  0.00    -0.237 OA
ATOM     71  O   UNL A   1      44.179  24.618  37.389  1.00  0.00    -0.744 OA
ENDBRANCH  64  68
ENDBRANCH  38  61
ENDBRANCH  12  13
ENDBRANCH   5   7
ENDBRANCH   2   3
ENDBRANCH   1   2
BRANCH   1  72
ATOM     72  C   UNL A   1      32.017  30.465  26.860  1.00  0.00     0.118 C 
BRANCH  72  73
ATOM     73  N   UNL A   1      33.244  29.998  27.496  1.00  0.00    -0.351 N 
ATOM     74  C   UNL A   1      34.175  29.118  26.952  1.00  0.00     0.261 C 
ATOM     75  H   UNL A   1      33.431  30.340  28.400  1.00  0.00     0.163 HD
ATOM     76  O   UNL A   1      35.304  29.091  27.429  1.00  0.00    -0.268 OA
BRANCH  74  77
ATOM     77  C   UNL A   1      33.755  28.294  25.831  1.00  0.00     0.096 A 
ATOM     78  C   UNL A   1      33.530  28.642  24.506  1.00  0.00     0.072 A 
ATOM     79  S   UNL A   1      33.499  26.620  26.074  1.00  0.00    -0.135 S 
ATOM     80  C   UNL A   1      32.709  27.671  23.860  1.00  0.00     0.131 A 
ATOM     81  C   UNL A   1      32.759  26.470  24.536  1.00  0.00     0.112 A 
BRANCH  80  82
ATOM     82  O   UNL A   1      31.991  27.747  22.708  1.00  0.00    -0.488 OA
BRANCH  82  83
ATOM     83  C   UNL A   1      31.101  28.865  22.555  1.00  0.00     0.266 C 
BRANCH  83  84
ATOM     84  C   UNL A   1      29.632  28.560  22.844  1.00  0.00     0.001 A 
ATOM     85  C   UNL A   1      29.288  27.304  23.387  1.00  0.00     0.008 A 
ATOM     86  C   UNL A   1      28.575  29.458  22.564  1.00  0.00     0.062 A 
ATOM     87  C   UNL A   1      27.968  26.997  23.738  1.00  0.00     0.000 A 
ATOM     88  C   UNL A   1      27.283  29.194  23.067  1.00  0.00     0.013 A 
ATOM     89  C   UNL A   1      26.979  27.966  23.643  1.00  0.00     0.001 A 
BRANCH  86  90
ATOM     90  C   UNL A   1      28.718  30.629  21.623  1.00  0.00     0.416 C 
ATOM     91  F   UNL A   1      28.909  31.817  22.263  1.00  0.00    -0.166 F 
ATOM     92  F   UNL A   1      29.762  30.526  20.778  1.00  0.00    -0.166 F 
ATOM     93  F   UNL A   1      27.627  30.818  20.829  1.00  0.00    -0.166 F 
ENDBRANCH  86  90
ENDBRANCH  83  84
ENDBRANCH  82  83
ENDBRANCH  80  82
ENDBRANCH  74  77
ENDBRANCH  72  73
ENDBRANCH   1  72
TORSDOF 17
ENDMDL
MODEL 3
REMARK VINA RESULT:     -11.2      2.607      3.300
REMARK SMILES O=C(NCCCNC(=O)c1cc(OCc2ccccc2C(F)(F)F)cs1)c1ccc(-c2c3nc(c(-c4cc(S(=O)(=O)[O-])ccc4F)c4ccc([nH]4)c(-c4cc(S(=O)(=O)[O-])ccc4F)c4nc(c(-c5cc(S(=O)(=O)[O-])ccc5F)c5ccc2[nH]5)C=C4)C=C3)cc1
REMARK SMILES IDX 5 1 4 2 3 3 1 4 2 5 27 7 28 8 89 9 29 10 88 11 30 12 31 13
REMARK SMILES IDX 32 14 82 15 33 16 87 17 81 18 83 19 34 20 86 21 80 22 79 23
REMARK SMILES IDX 35 25 67 26 47 27 66 28 48 29 51 30 65 31 84 32 49 33 50 34
REMARK SMILES IDX 64 36 85 37 52 38 36 39 37 40 45 41 38 42 44 43 46 44 43 45
REMARK SMILES IDX 39 46 40 47 41 48 42 49 68 50 69 51 77 52 70 53 76 54 78 55
REMARK SMILES IDX 75 56 71 57 72 58 73 59 74 60 53 61 54 62 62 63 55 64 61 65
REMARK SMILES IDX 63 66 60 67 56 68 57 69 58 70 59 71 6 72 7 73 8 74 9 76
REMARK SMILES IDX 10 77 11 78 26 79 12 80 25 81 13 82 14 83 15 84 16 85 20 86
REMARK SMILES IDX 17 87 19 88 18 89 21 90 22 91 23 92 24 93
REMARK H PARENT 3 6 83 24 51 35 7 75
REMARK Flexibility Score: inf
ROOT
ATOM      1  C   UNL A   1      32.052  28.480  26.460  1.00  0.00     0.042 C 
ENDROOT
BRANCH   1   2
ATOM      2  C   UNL A   1      32.859  29.608  25.822  1.00  0.00     0.118 C 
BRANCH   2   3
ATOM      3  N   UNL A   1      32.574  30.944  26.360  1.00  0.00    -0.352 N 
ATOM      4  O   UNL A   1      32.698  32.804  27.609  1.00  0.00    -0.269 OA
ATOM      5  C   UNL A   1      33.221  31.740  27.281  1.00  0.00     0.251 C 
ATOM      6  H   UNL A   1      31.759  31.352  25.988  1.00  0.00     0.163 HD
BRANCH   5   7
ATOM      7  C   UNL A   1      34.500  31.330  27.910  1.00  0.00     0.039 A 
ATOM      8  C   UNL A   1      34.686  30.038  28.389  1.00  0.00     0.014 A 
ATOM      9  C   UNL A   1      35.557  32.247  28.001  1.00  0.00     0.014 A 
ATOM     10  C   UNL A   1      35.800  29.733  29.159  1.00  0.00     0.010 A 
ATOM     11  C   UNL A   1      36.748  31.891  28.651  1.00  0.00     0.010 A 
ATOM     12  C   UNL A   1      36.863  30.639  29.274  1.00  0.00    -0.014 A 
BRANCH  12  13
ATOM     13  C   UNL A   1      38.109  30.193  29.955  1.00  0.00     0.031 A 
ATOM     14  C   UNL A   1      39.056  29.221  29.305  1.00  0.00     0.074 A 
ATOM     15  C   UNL A   1      38.398  30.722  31.164  1.00  0.00     0.049 A 
ATOM     16  N   UNL A   1      40.180  28.738  29.769  1.00  0.00    -0.248 NA
ATOM     17  C   UNL A   1      38.699  28.721  27.969  1.00  0.00     0.031 C 
ATOM     18  C   UNL A   1      37.549  31.678  31.884  1.00  0.00     0.029 A 
ATOM     19  N   UNL A   1      39.476  30.554  31.994  1.00  0.00    -0.354 N 
ATOM     20  C   UNL A   1      40.652  27.856  28.801  1.00  0.00     0.074 A 
ATOM     21  C   UNL A   1      39.684  27.865  27.725  1.00  0.00     0.031 C 
ATOM     22  C   UNL A   1      38.161  32.048  33.017  1.00  0.00     0.029 A 
ATOM     23  C   UNL A   1      39.387  31.277  33.162  1.00  0.00     0.049 A 
ATOM     24  H   UNL A   1      40.239  29.972  31.777  1.00  0.00     0.167 HD
ATOM     25  C   UNL A   1      41.785  27.111  28.821  1.00  0.00     0.034 A 
ATOM     26  C   UNL A   1      40.172  31.286  34.257  1.00  0.00     0.034 A 
ATOM     27  C   UNL A   1      42.743  27.137  29.901  1.00  0.00     0.049 A 
ATOM     28  C   UNL A   1      41.388  30.400  34.270  1.00  0.00     0.074 A 
ATOM     29  C   UNL A   1      43.959  26.480  29.985  1.00  0.00     0.029 A 
ATOM     30  N   UNL A   1      42.588  27.834  31.093  1.00  0.00    -0.354 N 
ATOM     31  N   UNL A   1      41.841  29.613  33.321  1.00  0.00    -0.248 NA
ATOM     32  C   UNL A   1      42.193  30.395  35.496  1.00  0.00     0.031 C 
ATOM     33  C   UNL A   1      44.491  26.702  31.259  1.00  0.00     0.029 A 
ATOM     34  C   UNL A   1      43.654  27.571  31.940  1.00  0.00     0.049 A 
ATOM     35  H   UNL A   1      41.831  28.427  31.305  1.00  0.00     0.167 HD
ATOM     36  C   UNL A   1      42.990  29.027  33.837  1.00  0.00     0.074 A 
ATOM     37  C   UNL A   1      43.179  29.576  35.164  1.00  0.00     0.031 C 
ATOM     38  C   UNL A   1      43.815  28.112  33.268  1.00  0.00     0.034 A 
BRANCH  25  39
ATOM     39  C   UNL A   1      42.034  26.156  27.678  1.00  0.00     0.023 A 
ATOM     40  C   UNL A   1      41.515  24.851  27.657  1.00  0.00     0.031 A 
ATOM     41  C   UNL A   1      42.777  26.587  26.561  1.00  0.00     0.131 A 
ATOM     42  C   UNL A   1      41.775  24.012  26.560  1.00  0.00     0.055 A 
ATOM     43  C   UNL A   1      42.975  25.771  25.446  1.00  0.00     0.041 A 
ATOM     44  F   UNL A   1      43.314  27.816  26.533  1.00  0.00    -0.206 F 
ATOM     45  C   UNL A   1      42.480  24.472  25.444  1.00  0.00     0.022 A 
BRANCH  42  46
ATOM     46  S   UNL A   1      41.265  22.273  26.652  1.00  0.00     0.124 S 
ATOM     47  O   UNL A   1      39.829  22.372  26.407  1.00  0.00    -0.237 OA
ATOM     48  O   UNL A   1      42.053  21.657  25.590  1.00  0.00    -0.237 OA
ATOM     49  O   UNL A   1      41.632  21.878  28.010  1.00  0.00    -0.744 OA
ENDBRANCH  42  46
ENDBRANCH  25  39
BRANCH  26  50
ATOM     50  C   UNL A   1      39.785  32.083  35.457  1.00  0.00     0.023 A 
ATOM     51  C   UNL A   1      38.963  31.543  36.457  1.00  0.00     0.031 A 
ATOM     52  C   UNL A   1      40.189  33.426  35.594  1.00  0.00     0.131 A 
ATOM     53  C   UNL A   1      38.526  32.355  37.515  1.00  0.00     0.055 A 
ATOM     54  C   UNL A   1      39.813  34.206  36.686  1.00  0.00     0.041 A 
ATOM     55  F   UNL A   1      40.972  33.999  34.665  1.00  0.00    -0.206 F 
ATOM     56  C   UNL A   1      38.959  33.676  37.647  1.00  0.00     0.022 A 
BRANCH  53  57
ATOM     57  S   UNL A   1      37.272  31.696  38.647  1.00  0.00     0.124 S 
ATOM     58  O   UNL A   1      37.966  31.758  39.928  1.00  0.00    -0.237 OA
ATOM     59  O   UNL A   1      36.176  32.642  38.465  1.00  0.00    -0.237 OA
ATOM     60  O   UNL A   1      37.026  30.350  38.135  1.00  0.00    -0.744 OA
ENDBRANCH  53  57
ENDBRANCH  26  50
BRANCH  38  61
ATOM     61  C   UNL A   1      45.005  27.671  34.081  1.00  0.00     0.023 A 
ATOM     62  C   UNL A   1      44.952  26.529  34.899  1.00  0.00     0.031 A 
ATOM     63  C   UNL A   1      46.206  28.401  34.038  1.00  0.00     0.131 A 
ATOM     64  C   UNL A   1      46.062  26.177  35.679  1.00  0.00     0.055 A 
ATOM     65  C   UNL A   1      47.327  28.011  34.768  1.00  0.00     0.041 A 
ATOM     66  F   UNL A   1      46.308  29.504  33.278  1.00  0.00    -0.206 F 
ATOM     67  C   UNL A   1      47.256  26.899  35.603  1.00  0.00     0.022 A 
BRANCH  64  68
ATOM     68  S   UNL A   1      45.902  24.807  36.856  1.00  0.00     0.124 S 
ATOM     69  O   UNL A   1      45.989  23.644  35.979  1.00  0.00    -0.237 OA
ATOM     70  O   UNL A   1      47.040  25.022  37.744  1.00  0.00    -0.237 OA
ATOM     71  O   UNL A   1      44.592  25.030  37.465  1.00  0.00    -0.744 OA
ENDBRANCH  64  68
ENDBRANCH  38  61
ENDBRANCH  12  13
ENDBRANCH   5   7
ENDBRANCH   2   3
ENDBRANCH   1   2
BRANCH   1  72
ATOM     72  C   UNL A   1      31.216  27.696  25.465  1.00  0.00     0.118 C 
BRANCH  72  73
ATOM     73  N   UNL A   1      30.766  28.430  24.288  1.00  0.00    -0.351 N 
ATOM     74  C   UNL A   1      30.867  28.011  22.964  1.00  0.00     0.261 C 
ATOM     75  H   UNL A   1      30.351  29.308  24.446  1.00  0.00     0.163 HD
ATOM     76  O   UNL A   1      30.148  28.544  22.125  1.00  0.00    -0.268 OA
BRANCH  74  77
ATOM     77  C   UNL A   1      31.809  26.949  22.658  1.00  0.00     0.096 A 
ATOM     78  C   UNL A   1      31.575  25.624  22.312  1.00  0.00     0.072 A 
ATOM     79  S   UNL A   1      33.485  27.288  22.672  1.00  0.00    -0.135 S 
ATOM     80  C   UNL A   1      32.735  24.829  22.544  1.00  0.00     0.131 A 
ATOM     81  C   UNL A   1      33.863  25.619  22.581  1.00  0.00     0.112 A 
BRANCH  80  82
ATOM     82  O   UNL A   1      32.873  23.480  22.654  1.00  0.00    -0.488 OA
BRANCH  82  83
ATOM     83  C   UNL A   1      33.089  22.941  23.969  1.00  0.00     0.266 C 
BRANCH  83  84
ATOM     84  C   UNL A   1      34.417  22.209  24.152  1.00  0.00     0.001 A 
ATOM     85  C   UNL A   1      35.612  22.857  23.778  1.00  0.00     0.008 A 
ATOM     86  C   UNL A   1      34.521  20.888  24.649  1.00  0.00     0.062 A 
ATOM     87  C   UNL A   1      36.862  22.263  23.991  1.00  0.00     0.000 A 
ATOM     88  C   UNL A   1      35.788  20.373  25.001  1.00  0.00     0.013 A 
ATOM     89  C   UNL A   1      36.952  21.053  24.665  1.00  0.00     0.001 A 
BRANCH  86  90
ATOM     90  C   UNL A   1      33.356  19.931  24.692  1.00  0.00     0.416 C 
ATOM     91  F   UNL A   1      33.718  18.651  24.992  1.00  0.00    -0.166 F 
ATOM     92  F   UNL A   1      32.425  20.245  25.614  1.00  0.00    -0.166 F 
ATOM     93  F   UNL A   1      32.682  19.849  23.512  1.00  0.00    -0.166 F 
ENDBRANCH  86  90
ENDBRANCH  83  84
ENDBRANCH  82  83
ENDBRANCH  80  82
ENDBRANCH  74  77
ENDBRANCH  72  73
ENDBRANCH   1  72
TORSDOF 17
ENDMDL
