MODEL 1
REMARK VINA RESULT:     -12.1      0.000      0.000
REMARK SMILES CC(C)(C)OC(=O)N1CC[C@@]2(CCC[C@@H](C(=O)NCCCNC(=O)c3ccc(-c4c5nc(c(-c6cc(S(=O)(=O)[O-])ccc6F)c6ccc([nH]6)c(-c6cc(S(=O)(=O)[O-])ccc6F)c6nc(c(-c7cc(S(=O)(=O)[O-])ccc7F)c7ccc4[nH]7)C=C6)C=C5)cc3)O2)C1
REMARK SMILES IDX 20 1 19 2 18 3 16 4 17 5 15 7 8 8 9 9 89 10 10 11 11 12
REMARK SMILES IDX 12 13 88 14 13 15 14 16 6 17 7 18 5 19 2 20 1 21 3 22 4 23
REMARK SMILES IDX 21 24 22 25 23 26 24 28 25 29 26 30 87 31 27 32 86 33 28 34
REMARK SMILES IDX 29 35 30 36 80 37 31 38 85 39 79 40 81 41 32 42 84 43 78 44
REMARK SMILES IDX 77 45 33 47 65 48 45 49 64 50 46 51 49 52 63 53 82 54 47 55
REMARK SMILES IDX 48 56 62 58 83 59 50 60 34 61 35 62 43 63 36 64 42 65 44 66
REMARK SMILES IDX 41 67 37 68 38 69 39 70 40 71 66 72 67 73 75 74 68 75 74 76
REMARK SMILES IDX 76 77 73 78 69 79 70 80 71 81 72 82 51 83 52 84 60 85 53 86
REMARK SMILES IDX 59 87 61 88 58 89 54 90 55 91 56 92 57 93
REMARK H PARENT 18 6 22 27 81 46 49 57
REMARK Flexibility Score: inf
ROOT
ATOM      1  C   UNL A   1      31.486  32.128  26.592  1.00  0.00     0.042 C 
ENDROOT
BRANCH   1   2
ATOM      2  C   UNL A   1      31.667  30.702  26.072  1.00  0.00     0.117 C 
BRANCH   2   3
ATOM      3  N   UNL A   1      30.738  30.404  24.994  1.00  0.00    -0.354 N 
ATOM      4  C   UNL A   1      30.876  29.550  23.936  1.00  0.00     0.249 C 
ATOM      5  O   UNL A   1      29.975  29.528  23.092  1.00  0.00    -0.272 OA
ATOM      6  H   UNL A   1      29.883  30.890  25.031  1.00  0.00     0.163 HD
BRANCH   4   7
ATOM      7  C   UNL A   1      32.052  28.551  23.856  1.00  0.00     0.207 C 
ATOM      8  N   UNL A   1      32.726  23.896  24.292  1.00  0.00    -0.305 N 
ATOM      9  C   UNL A   1      33.499  24.524  25.334  1.00  0.00     0.126 C 
ATOM     10  C   UNL A   1      31.927  24.849  23.573  1.00  0.00     0.158 C 
ATOM     11  C   UNL A   1      33.479  26.022  25.020  1.00  0.00     0.059 C 
ATOM     12  C   UNL A   1      32.646  26.197  23.731  1.00  0.00     0.089 C 
ATOM     13  C   UNL A   1      33.491  26.466  22.473  1.00  0.00     0.037 C 
ATOM     14  O   UNL A   1      31.641  27.194  23.919  1.00  0.00    -0.360 OA
ATOM     15  C   UNL A   1      33.989  27.900  22.403  1.00  0.00     0.006 C 
ATOM     16  C   UNL A   1      32.819  28.855  22.570  1.00  0.00     0.042 C 
BRANCH   8  17
ATOM     17  C   UNL A   1      32.648  22.554  24.030  1.00  0.00     0.410 C 
ATOM     18  O   UNL A   1      32.661  22.102  22.892  1.00  0.00    -0.224 OA
BRANCH  17  19
ATOM     19  O   UNL A   1      32.536  21.823  25.165  1.00  0.00    -0.444 OA
BRANCH  19  20
ATOM     20  C   UNL A   1      33.630  20.990  25.636  1.00  0.00     0.106 C 
ATOM     21  C   UNL A   1      33.148  19.547  25.432  1.00  0.00     0.056 C 
ATOM     22  C   UNL A   1      33.824  21.257  27.130  1.00  0.00     0.056 C 
ATOM     23  C   UNL A   1      34.947  21.156  24.863  1.00  0.00     0.056 C 
ENDBRANCH  19  20
ENDBRANCH  17  19
ENDBRANCH   8  17
ENDBRANCH   4   7
ENDBRANCH   2   3
ENDBRANCH   1   2
BRANCH   1  24
ATOM     24  C   UNL A   1      32.739  32.687  27.268  1.00  0.00     0.118 C 
BRANCH  24  25
ATOM     25  N   UNL A   1      32.575  34.083  27.656  1.00  0.00    -0.352 N 
ATOM     26  C   UNL A   1      33.147  34.797  28.677  1.00  0.00     0.251 C 
ATOM     27  H   UNL A   1      31.952  34.596  27.093  1.00  0.00     0.163 HD
ATOM     28  O   UNL A   1      32.678  35.893  28.971  1.00  0.00    -0.269 OA
BRANCH  26  29
ATOM     29  C   UNL A   1      34.307  34.260  29.421  1.00  0.00     0.039 A 
ATOM     30  C   UNL A   1      34.075  33.477  30.555  1.00  0.00     0.014 A 
ATOM     31  C   UNL A   1      35.616  34.559  29.035  1.00  0.00     0.014 A 
ATOM     32  C   UNL A   1      35.154  32.948  31.266  1.00  0.00     0.010 A 
ATOM     33  C   UNL A   1      36.690  33.968  29.700  1.00  0.00     0.010 A 
ATOM     34  C   UNL A   1      36.470  33.157  30.823  1.00  0.00    -0.014 A 
BRANCH  34  35
ATOM     35  C   UNL A   1      37.622  32.522  31.515  1.00  0.00     0.031 A 
ATOM     36  C   UNL A   1      38.355  31.372  30.879  1.00  0.00     0.074 A 
ATOM     37  C   UNL A   1      37.971  32.951  32.746  1.00  0.00     0.049 A 
ATOM     38  N   UNL A   1      39.339  30.654  31.355  1.00  0.00    -0.248 NA
ATOM     39  C   UNL A   1      37.905  30.961  29.541  1.00  0.00     0.031 C 
ATOM     40  C   UNL A   1      37.311  34.034  33.478  1.00  0.00     0.029 A 
ATOM     41  N   UNL A   1      38.959  32.529  33.599  1.00  0.00    -0.354 N 
ATOM     42  C   UNL A   1      39.620  29.700  30.382  1.00  0.00     0.074 A 
ATOM     43  C   UNL A   1      38.660  29.896  29.317  1.00  0.00     0.031 C 
ATOM     44  C   UNL A   1      37.931  34.210  34.656  1.00  0.00     0.029 A 
ATOM     45  C   UNL A   1      38.993  33.218  34.790  1.00  0.00     0.049 A 
ATOM     46  H   UNL A   1      39.584  31.800  33.381  1.00  0.00     0.167 HD
ATOM     47  C   UNL A   1      40.602  28.763  30.370  1.00  0.00     0.034 A 
ATOM     48  C   UNL A   1      39.778  33.060  35.874  1.00  0.00     0.034 A 
ATOM     49  C   UNL A   1      41.551  28.585  31.443  1.00  0.00     0.049 A 
ATOM     50  C   UNL A   1      40.834  31.983  35.854  1.00  0.00     0.074 A 
ATOM     51  C   UNL A   1      42.616  27.703  31.512  1.00  0.00     0.029 A 
ATOM     52  N   UNL A   1      41.546  29.292  32.640  1.00  0.00    -0.354 N 
ATOM     53  N   UNL A   1      41.120  31.124  34.904  1.00  0.00    -0.248 NA
ATOM     54  C   UNL A   1      41.678  31.863  37.049  1.00  0.00     0.031 C 
ATOM     55  C   UNL A   1      43.200  27.818  32.778  1.00  0.00     0.029 A 
ATOM     56  C   UNL A   1      42.563  28.837  33.467  1.00  0.00     0.049 A 
ATOM     57  H   UNL A   1      40.914  30.011  32.867  1.00  0.00     0.167 HD
ATOM     58  C   UNL A   1      42.200  30.382  35.375  1.00  0.00     0.074 A 
ATOM     59  C   UNL A   1      42.523  30.910  36.685  1.00  0.00     0.031 C 
ATOM     60  C   UNL A   1      42.867  29.362  34.778  1.00  0.00     0.034 A 
BRANCH  47  61
ATOM     61  C   UNL A   1      40.674  27.842  29.174  1.00  0.00     0.023 A 
ATOM     62  C   UNL A   1      41.610  28.039  28.143  1.00  0.00     0.031 A 
ATOM     63  C   UNL A   1      39.785  26.760  29.052  1.00  0.00     0.131 A 
ATOM     64  C   UNL A   1      41.585  27.218  27.006  1.00  0.00     0.055 A 
ATOM     65  C   UNL A   1      39.823  25.892  27.958  1.00  0.00     0.041 A 
ATOM     66  F   UNL A   1      38.852  26.531  29.991  1.00  0.00    -0.206 F 
ATOM     67  C   UNL A   1      40.717  26.128  26.918  1.00  0.00     0.022 A 
BRANCH  64  68
ATOM     68  S   UNL A   1      42.601  27.685  25.578  1.00  0.00     0.124 S 
ATOM     69  O   UNL A   1      43.901  27.917  26.204  1.00  0.00    -0.237 OA
ATOM     70  O   UNL A   1      42.505  26.508  24.722  1.00  0.00    -0.237 OA
ATOM     71  O   UNL A   1      41.943  28.885  25.066  1.00  0.00    -0.744 OA
ENDBRANCH  64  68
ENDBRANCH  47  61
BRANCH  48  72
ATOM     72  C   UNL A   1      39.591  33.925  37.076  1.00  0.00     0.023 A 
ATOM     73  C   UNL A   1      38.986  33.427  38.240  1.00  0.00     0.031 A 
ATOM     74  C   UNL A   1      39.973  35.279  37.060  1.00  0.00     0.131 A 
ATOM     75  C   UNL A   1      38.733  34.287  39.320  1.00  0.00     0.055 A 
ATOM     76  C   UNL A   1      39.776  36.114  38.161  1.00  0.00     0.041 A 
ATOM     77  F   UNL A   1      40.556  35.809  35.974  1.00  0.00    -0.206 F 
ATOM     78  C   UNL A   1      39.139  35.623  39.295  1.00  0.00     0.022 A 
BRANCH  75  79
ATOM     79  S   UNL A   1      37.771  33.658  40.725  1.00  0.00     0.124 S 
ATOM     80  O   UNL A   1      37.479  34.885  41.455  1.00  0.00    -0.237 OA
ATOM     81  O   UNL A   1      36.639  33.022  40.056  1.00  0.00    -0.237 OA
ATOM     82  O   UNL A   1      38.697  32.741  41.386  1.00  0.00    -0.744 OA
ENDBRANCH  75  79
ENDBRANCH  48  72
BRANCH  60  83
ATOM     83  C   UNL A   1      44.046  28.781  35.526  1.00  0.00     0.023 A 
ATOM     84  C   UNL A   1      43.909  27.686  36.396  1.00  0.00     0.031 A 
ATOM     85  C   UNL A   1      45.326  29.346  35.372  1.00  0.00     0.131 A 
ATOM     86  C   UNL A   1      45.016  27.231  37.127  1.00  0.00     0.055 A 
ATOM     87  C   UNL A   1      46.438  28.841  36.048  1.00  0.00     0.041 A 
ATOM     88  F   UNL A   1      45.518  30.395  34.559  1.00  0.00    -0.206 F 
ATOM     89  C   UNL A   1      46.284  27.788  36.944  1.00  0.00     0.022 A 
BRANCH  86  90
ATOM     90  S   UNL A   1      44.756  25.969  38.404  1.00  0.00     0.124 S 
ATOM     91  O   UNL A   1      44.007  26.710  39.414  1.00  0.00    -0.237 OA
ATOM     92  O   UNL A   1      44.011  24.943  37.683  1.00  0.00    -0.237 OA
ATOM     93  O   UNL A   1      46.113  25.590  38.794  1.00  0.00    -0.744 OA
ENDBRANCH  86  90
ENDBRANCH  60  83
ENDBRANCH  34  35
ENDBRANCH  26  29
ENDBRANCH  24  25
ENDBRANCH   1  24
TORSDOF 16
ENDMDL
MODEL 2
REMARK VINA RESULT:     -12.0      5.985     12.127
REMARK SMILES CC(C)(C)OC(=O)N1CC[C@@]2(CCC[C@@H](C(=O)NCCCNC(=O)c3ccc(-c4c5nc(c(-c6cc(S(=O)(=O)[O-])ccc6F)c6ccc([nH]6)c(-c6cc(S(=O)(=O)[O-])ccc6F)c6nc(c(-c7cc(S(=O)(=O)[O-])ccc7F)c7ccc4[nH]7)C=C6)C=C5)cc3)O2)C1
REMARK SMILES IDX 20 1 19 2 18 3 16 4 17 5 15 7 8 8 9 9 89 10 10 11 11 12
REMARK SMILES IDX 12 13 88 14 13 15 14 16 6 17 7 18 5 19 2 20 1 21 3 22 4 23
REMARK SMILES IDX 21 24 22 25 23 26 24 28 25 29 26 30 87 31 27 32 86 33 28 34
REMARK SMILES IDX 29 35 30 36 80 37 31 38 85 39 79 40 81 41 32 42 84 43 78 44
REMARK SMILES IDX 77 45 33 47 65 48 45 49 64 50 46 51 49 52 63 53 82 54 47 55
REMARK SMILES IDX 48 56 62 58 83 59 50 60 34 61 35 62 43 63 36 64 42 65 44 66
REMARK SMILES IDX 41 67 37 68 38 69 39 70 40 71 66 72 67 73 75 74 68 75 74 76
REMARK SMILES IDX 76 77 73 78 69 79 70 80 71 81 72 82 51 83 52 84 60 85 53 86
REMARK SMILES IDX 59 87 61 88 58 89 54 90 55 91 56 92 57 93
REMARK H PARENT 18 6 22 27 81 46 49 57
REMARK Flexibility Score: inf
ROOT
ATOM      1  C   UNL A   1      38.424  19.483  25.229  1.00  0.00     0.042 C 
ENDROOT
BRANCH   1   2
ATOM      2  C   UNL A   1      37.427  20.605  24.941  1.00  0.00     0.117 C 
BRANCH   2   3
ATOM      3  N   UNL A   1      37.852  21.864  25.532  1.00  0.00    -0.354 N 
ATOM      4  C   UNL A   1      37.264  23.095  25.476  1.00  0.00     0.249 C 
ATOM      5  O   UNL A   1      37.863  24.044  25.992  1.00  0.00    -0.272 OA
ATOM      6  H   UNL A   1      38.688  21.822  26.050  1.00  0.00     0.163 HD
BRANCH   4   7
ATOM      7  C   UNL A   1      35.841  23.283  24.903  1.00  0.00     0.207 C 
ATOM      8  N   UNL A   1      32.366  26.475  25.131  1.00  0.00    -0.305 N 
ATOM      9  C   UNL A   1      31.843  25.253  25.689  1.00  0.00     0.126 C 
ATOM     10  C   UNL A   1      33.766  26.362  24.824  1.00  0.00     0.158 C 
ATOM     11  C   UNL A   1      32.879  24.173  25.371  1.00  0.00     0.059 C 
ATOM     12  C   UNL A   1      34.021  24.866  24.595  1.00  0.00     0.089 C 
ATOM     13  C   UNL A   1      34.013  24.580  23.083  1.00  0.00     0.037 C 
ATOM     14  O   UNL A   1      35.284  24.557  25.188  1.00  0.00    -0.360 OA
ATOM     15  C   UNL A   1      34.558  23.201  22.749  1.00  0.00     0.006 C 
ATOM     16  C   UNL A   1      35.919  23.019  23.399  1.00  0.00     0.042 C 
BRANCH   8  17
ATOM     17  C   UNL A   1      31.693  27.656  24.977  1.00  0.00     0.410 C 
ATOM     18  O   UNL A   1      30.543  27.711  24.556  1.00  0.00    -0.224 OA
BRANCH  17  19
ATOM     19  O   UNL A   1      32.453  28.722  25.322  1.00  0.00    -0.444 OA
BRANCH  19  20
ATOM     20  C   UNL A   1      32.397  29.289  26.658  1.00  0.00     0.106 C 
ATOM     21  C   UNL A   1      31.703  30.648  26.487  1.00  0.00     0.056 C 
ATOM     22  C   UNL A   1      33.831  29.505  27.146  1.00  0.00     0.056 C 
ATOM     23  C   UNL A   1      31.579  28.473  27.671  1.00  0.00     0.056 C 
ENDBRANCH  19  20
ENDBRANCH  17  19
ENDBRANCH   8  17
ENDBRANCH   4   7
ENDBRANCH   2   3
ENDBRANCH   1   2
BRANCH   1  24
ATOM     24  C   UNL A   1      39.577  19.919  26.136  1.00  0.00     0.118 C 
BRANCH  24  25
ATOM     25  N   UNL A   1      40.692  18.982  26.090  1.00  0.00    -0.352 N 
ATOM     26  C   UNL A   1      42.045  19.207  26.052  1.00  0.00     0.251 C 
ATOM     27  H   UNL A   1      40.433  18.032  26.087  1.00  0.00     0.163 HD
ATOM     28  O   UNL A   1      42.794  18.276  25.767  1.00  0.00    -0.269 OA
BRANCH  26  29
ATOM     29  C   UNL A   1      42.598  20.547  26.342  1.00  0.00     0.039 A 
ATOM     30  C   UNL A   1      43.121  21.302  25.289  1.00  0.00     0.014 A 
ATOM     31  C   UNL A   1      42.647  21.043  27.647  1.00  0.00     0.014 A 
ATOM     32  C   UNL A   1      43.637  22.575  25.536  1.00  0.00     0.010 A 
ATOM     33  C   UNL A   1      43.093  22.343  27.882  1.00  0.00     0.010 A 
ATOM     34  C   UNL A   1      43.592  23.123  26.829  1.00  0.00    -0.014 A 
BRANCH  34  35
ATOM     35  C   UNL A   1      44.052  24.512  27.089  1.00  0.00     0.031 A 
ATOM     36  C   UNL A   1      43.089  25.552  27.594  1.00  0.00     0.074 A 
ATOM     37  C   UNL A   1      45.330  24.847  26.817  1.00  0.00     0.049 A 
ATOM     38  N   UNL A   1      43.289  26.825  27.818  1.00  0.00    -0.248 NA
ATOM     39  C   UNL A   1      41.712  25.106  27.856  1.00  0.00     0.031 C 
ATOM     40  C   UNL A   1      46.346  23.933  26.291  1.00  0.00     0.029 A 
ATOM     41  N   UNL A   1      45.992  26.042  26.938  1.00  0.00    -0.354 N 
ATOM     42  C   UNL A   1      42.065  27.336  28.238  1.00  0.00     0.074 A 
ATOM     43  C   UNL A   1      41.115  26.245  28.176  1.00  0.00     0.031 C 
ATOM     44  C   UNL A   1      47.508  24.592  26.164  1.00  0.00     0.029 A 
ATOM     45  C   UNL A   1      47.309  25.988  26.542  1.00  0.00     0.049 A 
ATOM     46  H   UNL A   1      45.565  26.863  27.276  1.00  0.00     0.167 HD
ATOM     47  C   UNL A   1      41.767  28.591  28.657  1.00  0.00     0.034 A 
ATOM     48  C   UNL A   1      48.247  26.954  26.475  1.00  0.00     0.034 A 
ATOM     49  C   UNL A   1      42.729  29.666  28.713  1.00  0.00     0.049 A 
ATOM     50  C   UNL A   1      47.880  28.352  26.905  1.00  0.00     0.074 A 
ATOM     51  C   UNL A   1      42.549  30.961  29.168  1.00  0.00     0.029 A 
ATOM     52  N   UNL A   1      44.051  29.578  28.289  1.00  0.00    -0.354 N 
ATOM     53  N   UNL A   1      46.730  28.805  27.348  1.00  0.00    -0.248 NA
ATOM     54  C   UNL A   1      48.939  29.365  26.833  1.00  0.00     0.031 C 
ATOM     55  C   UNL A   1      43.730  31.675  28.943  1.00  0.00     0.029 A 
ATOM     56  C   UNL A   1      44.681  30.805  28.436  1.00  0.00     0.049 A 
ATOM     57  H   UNL A   1      44.476  28.763  27.938  1.00  0.00     0.167 HD
ATOM     58  C   UNL A   1      46.941  30.151  27.641  1.00  0.00     0.074 A 
ATOM     59  C   UNL A   1      48.330  30.426  27.340  1.00  0.00     0.031 C 
ATOM     60  C   UNL A   1      46.066  31.072  28.119  1.00  0.00     0.034 A 
BRANCH  47  61
ATOM     61  C   UNL A   1      40.336  28.874  29.055  1.00  0.00     0.023 A 
ATOM     62  C   UNL A   1      39.931  28.885  30.402  1.00  0.00     0.031 A 
ATOM     63  C   UNL A   1      39.359  29.122  28.075  1.00  0.00     0.131 A 
ATOM     64  C   UNL A   1      38.577  29.061  30.725  1.00  0.00     0.055 A 
ATOM     65  C   UNL A   1      38.028  29.384  28.409  1.00  0.00     0.041 A 
ATOM     66  F   UNL A   1      39.677  29.104  26.770  1.00  0.00    -0.206 F 
ATOM     67  C   UNL A   1      37.627  29.338  29.741  1.00  0.00     0.022 A 
BRANCH  64  68
ATOM     68  S   UNL A   1      38.052  28.772  32.437  1.00  0.00     0.124 S 
ATOM     69  O   UNL A   1      39.021  29.573  33.182  1.00  0.00    -0.237 OA
ATOM     70  O   UNL A   1      36.680  29.267  32.435  1.00  0.00    -0.237 OA
ATOM     71  O   UNL A   1      38.194  27.327  32.601  1.00  0.00    -0.744 OA
ENDBRANCH  64  68
ENDBRANCH  47  61
BRANCH  48  72
ATOM     72  C   UNL A   1      49.616  26.645  25.967  1.00  0.00     0.023 A 
ATOM     73  C   UNL A   1      50.034  27.079  24.700  1.00  0.00     0.031 A 
ATOM     74  C   UNL A   1      50.511  25.869  26.726  1.00  0.00     0.131 A 
ATOM     75  C   UNL A   1      51.290  26.691  24.206  1.00  0.00     0.055 A 
ATOM     76  C   UNL A   1      51.783  25.539  26.256  1.00  0.00     0.041 A 
ATOM     77  F   UNL A   1      50.165  25.427  27.945  1.00  0.00    -0.206 F 
ATOM     78  C   UNL A   1      52.174  25.938  24.982  1.00  0.00     0.022 A 
BRANCH  75  79
ATOM     79  S   UNL A   1      51.713  27.100  22.490  1.00  0.00     0.124 S 
ATOM     80  O   UNL A   1      52.092  28.503  22.606  1.00  0.00    -0.237 OA
ATOM     81  O   UNL A   1      52.796  26.162  22.213  1.00  0.00    -0.237 OA
ATOM     82  O   UNL A   1      50.469  26.847  21.764  1.00  0.00    -0.744 OA
ENDBRANCH  75  79
ENDBRANCH  48  72
BRANCH  60  83
ATOM     83  C   UNL A   1      46.606  32.458  28.387  1.00  0.00     0.023 A 
ATOM     84  C   UNL A   1      46.703  33.428  27.374  1.00  0.00     0.031 A 
ATOM     85  C   UNL A   1      47.045  32.806  29.678  1.00  0.00     0.131 A 
ATOM     86  C   UNL A   1      47.283  34.674  27.653  1.00  0.00     0.055 A 
ATOM     87  C   UNL A   1      47.554  34.073  29.965  1.00  0.00     0.041 A 
ATOM     88  F   UNL A   1      46.982  31.920  30.684  1.00  0.00    -0.206 F 
ATOM     89  C   UNL A   1      47.690  35.011  28.947  1.00  0.00     0.022 A 
BRANCH  86  90
ATOM     90  S   UNL A   1      47.598  35.815  26.278  1.00  0.00     0.124 S 
ATOM     91  O   UNL A   1      48.755  36.561  26.762  1.00  0.00    -0.237 OA
ATOM     92  O   UNL A   1      47.847  34.903  25.167  1.00  0.00    -0.237 OA
ATOM     93  O   UNL A   1      46.360  36.586  26.181  1.00  0.00    -0.744 OA
ENDBRANCH  86  90
ENDBRANCH  60  83
ENDBRANCH  34  35
ENDBRANCH  26  29
ENDBRANCH  24  25
ENDBRANCH   1  24
TORSDOF 16
ENDMDL
MODEL 3
REMARK VINA RESULT:     -11.8      6.181     11.568
REMARK SMILES CC(C)(C)OC(=O)N1CC[C@@]2(CCC[C@@H](C(=O)NCCCNC(=O)c3ccc(-c4c5nc(c(-c6cc(S(=O)(=O)[O-])ccc6F)c6ccc([nH]6)c(-c6cc(S(=O)(=O)[O-])ccc6F)c6nc(c(-c7cc(S(=O)(=O)[O-])ccc7F)c7ccc4[nH]7)C=C6)C=C5)cc3)O2)C1
REMARK SMILES IDX 20 1 19 2 18 3 16 4 17 5 15 7 8 8 9 9 89 10 10 11 11 12
REMARK SMILES IDX 12 13 88 14 13 15 14 16 6 17 7 18 5 19 2 20 1 21 3 22 4 23
REMARK SMILES IDX 21 24 22 25 23 26 24 28 25 29 26 30 87 31 27 32 86 33 28 34
REMARK SMILES IDX 29 35 30 36 80 37 31 38 85 39 79 40 81 41 32 42 84 43 78 44
REMARK SMILES IDX 77 45 33 47 65 48 45 49 64 50 46 51 49 52 63 53 82 54 47 55
REMARK SMILES IDX 48 56 62 58 83 59 50 60 34 61 35 62 43 63 36 64 42 65 44 66
REMARK SMILES IDX 41 67 37 68 38 69 39 70 40 71 66 72 67 73 75 74 68 75 74 76
REMARK SMILES IDX 76 77 73 78 69 79 70 80 71 81 72 82 51 83 52 84 60 85 53 86
REMARK SMILES IDX 59 87 61 88 58 89 54 90 55 91 56 92 57 93
REMARK H PARENT 18 6 22 27 81 46 49 57
REMARK Flexibility Score: inf
ROOT
ATOM      1  C   UNL A   1      37.327  19.927  24.832  1.00  0.00     0.042 C 
ENDROOT
BRANCH   1   2
ATOM      2  C   UNL A   1      36.028  20.715  24.998  1.00  0.00     0.117 C 
BRANCH   2   3
ATOM      3  N   UNL A   1      34.862  19.852  24.902  1.00  0.00    -0.354 N 
ATOM      4  C   UNL A   1      33.551  20.126  25.169  1.00  0.00     0.249 C 
ATOM      5  O   UNL A   1      32.741  19.196  25.096  1.00  0.00    -0.272 OA
ATOM      6  H   UNL A   1      35.045  18.933  24.600  1.00  0.00     0.163 HD
BRANCH   4   7
ATOM      7  C   UNL A   1      33.067  21.569  25.431  1.00  0.00     0.207 C 
ATOM      8  N   UNL A   1      33.184  25.753  23.239  1.00  0.00    -0.305 N 
ATOM      9  C   UNL A   1      33.916  25.911  24.470  1.00  0.00     0.126 C 
ATOM     10  C   UNL A   1      32.789  24.387  23.027  1.00  0.00     0.158 C 
ATOM     11  C   UNL A   1      33.649  24.639  25.280  1.00  0.00     0.059 C 
ATOM     12  C   UNL A   1      32.716  23.755  24.424  1.00  0.00     0.089 C 
ATOM     13  C   UNL A   1      31.251  23.750  24.898  1.00  0.00     0.037 C 
ATOM     14  O   UNL A   1      33.245  22.432  24.317  1.00  0.00    -0.360 OA
ATOM     15  C   UNL A   1      31.039  22.874  26.121  1.00  0.00     0.006 C 
ATOM     16  C   UNL A   1      31.602  21.487  25.860  1.00  0.00     0.042 C 
BRANCH   8  17
ATOM     17  C   UNL A   1      32.945  26.721  22.301  1.00  0.00     0.410 C 
ATOM     18  O   UNL A   1      33.838  27.226  21.632  1.00  0.00    -0.224 OA
BRANCH  17  19
ATOM     19  O   UNL A   1      31.632  27.046  22.233  1.00  0.00    -0.444 OA
BRANCH  19  20
ATOM     20  C   UNL A   1      31.050  28.026  23.134  1.00  0.00     0.106 C 
ATOM     21  C   UNL A   1      30.441  27.203  24.278  1.00  0.00     0.056 C 
ATOM     22  C   UNL A   1      29.936  28.761  22.385  1.00  0.00     0.056 C 
ATOM     23  C   UNL A   1      32.053  29.012  23.752  1.00  0.00     0.056 C 
ENDBRANCH  19  20
ENDBRANCH  17  19
ENDBRANCH   8  17
ENDBRANCH   4   7
ENDBRANCH   2   3
ENDBRANCH   1   2
BRANCH   1  24
ATOM     24  C   UNL A   1      38.505  20.539  25.592  1.00  0.00     0.118 C 
BRANCH  24  25
ATOM     25  N   UNL A   1      39.554  19.561  25.855  1.00  0.00    -0.352 N 
ATOM     26  C   UNL A   1      40.890  19.733  26.113  1.00  0.00     0.251 C 
ATOM     27  H   UNL A   1      39.255  18.623  25.847  1.00  0.00     0.163 HD
ATOM     28  O   UNL A   1      41.636  18.759  26.059  1.00  0.00    -0.269 OA
BRANCH  26  29
ATOM     29  C   UNL A   1      41.431  21.069  26.445  1.00  0.00     0.039 A 
ATOM     30  C   UNL A   1      41.929  21.869  25.413  1.00  0.00     0.014 A 
ATOM     31  C   UNL A   1      41.492  21.517  27.767  1.00  0.00     0.014 A 
ATOM     32  C   UNL A   1      42.432  23.139  25.700  1.00  0.00     0.010 A 
ATOM     33  C   UNL A   1      41.925  22.813  28.043  1.00  0.00     0.010 A 
ATOM     34  C   UNL A   1      42.400  23.638  27.013  1.00  0.00    -0.014 A 
BRANCH  34  35
ATOM     35  C   UNL A   1      42.846  25.023  27.318  1.00  0.00     0.031 A 
ATOM     36  C   UNL A   1      41.908  25.998  27.976  1.00  0.00     0.074 A 
ATOM     37  C   UNL A   1      44.083  25.414  26.950  1.00  0.00     0.049 A 
ATOM     38  N   UNL A   1      42.096  27.261  28.262  1.00  0.00    -0.248 NA
ATOM     39  C   UNL A   1      40.575  25.493  28.336  1.00  0.00     0.031 C 
ATOM     40  C   UNL A   1      45.068  24.567  26.274  1.00  0.00     0.029 A 
ATOM     41  N   UNL A   1      44.723  26.620  27.085  1.00  0.00    -0.354 N 
ATOM     42  C   UNL A   1      40.904  27.705  28.826  1.00  0.00     0.074 A 
ATOM     43  C   UNL A   1      39.982  26.590  28.782  1.00  0.00     0.031 C 
ATOM     44  C   UNL A   1      46.195  25.270  26.081  1.00  0.00     0.029 A 
ATOM     45  C   UNL A   1      45.997  26.632  26.566  1.00  0.00     0.049 A 
ATOM     46  H   UNL A   1      44.309  27.404  27.513  1.00  0.00     0.167 HD
ATOM     47  C   UNL A   1      40.615  28.922  29.351  1.00  0.00     0.034 A 
ATOM     48  C   UNL A   1      46.898  27.630  26.473  1.00  0.00     0.034 A 
ATOM     49  C   UNL A   1      41.550  30.022  29.385  1.00  0.00     0.049 A 
ATOM     50  C   UNL A   1      46.538  28.986  27.025  1.00  0.00     0.074 A 
ATOM     51  C   UNL A   1      41.380  31.280  29.938  1.00  0.00     0.029 A 
ATOM     52  N   UNL A   1      42.827  30.002  28.836  1.00  0.00    -0.354 N 
ATOM     53  N   UNL A   1      45.424  29.374  27.602  1.00  0.00    -0.248 NA
ATOM     54  C   UNL A   1      47.559  30.036  26.920  1.00  0.00     0.031 C 
ATOM     55  C   UNL A   1      42.516  32.043  29.650  1.00  0.00     0.029 A 
ATOM     56  C   UNL A   1      43.437  31.237  29.002  1.00  0.00     0.049 A 
ATOM     57  H   UNL A   1      43.238  29.224  28.395  1.00  0.00     0.167 HD
ATOM     58  C   UNL A   1      45.626  30.706  27.959  1.00  0.00     0.074 A 
ATOM     59  C   UNL A   1      46.973  31.043  27.548  1.00  0.00     0.031 C 
ATOM     60  C   UNL A   1      44.777  31.568  28.575  1.00  0.00     0.034 A 
BRANCH  47  61
ATOM     61  C   UNL A   1      39.222  29.135  29.898  1.00  0.00     0.023 A 
ATOM     62  C   UNL A   1      38.224  29.787  29.151  1.00  0.00     0.031 A 
ATOM     63  C   UNL A   1      38.889  28.694  31.191  1.00  0.00     0.131 A 
ATOM     64  C   UNL A   1      36.972  30.046  29.728  1.00  0.00     0.055 A 
ATOM     65  C   UNL A   1      37.612  28.877  31.727  1.00  0.00     0.041 A 
ATOM     66  F   UNL A   1      39.803  28.085  31.963  1.00  0.00    -0.206 F 
ATOM     67  C   UNL A   1      36.649  29.571  31.001  1.00  0.00     0.022 A 
BRANCH  64  68
ATOM     68  S   UNL A   1      35.824  31.142  28.850  1.00  0.00     0.124 S 
ATOM     69  O   UNL A   1      35.074  30.191  28.033  1.00  0.00    -0.237 OA
ATOM     70  O   UNL A   1      35.087  31.768  29.942  1.00  0.00    -0.237 OA
ATOM     71  O   UNL A   1      36.707  32.034  28.101  1.00  0.00    -0.744 OA
ENDBRANCH  64  68
ENDBRANCH  47  61
BRANCH  48  72
ATOM     72  C   UNL A   1      48.221  27.397  25.822  1.00  0.00     0.023 A 
ATOM     73  C   UNL A   1      48.377  27.526  24.433  1.00  0.00     0.031 A 
ATOM     74  C   UNL A   1      49.338  26.994  26.575  1.00  0.00     0.131 A 
ATOM     75  C   UNL A   1      49.605  27.205  23.834  1.00  0.00     0.055 A 
ATOM     76  C   UNL A   1      50.575  26.737  25.982  1.00  0.00     0.041 A 
ATOM     77  F   UNL A   1      49.246  26.854  27.907  1.00  0.00    -0.206 F 
ATOM     78  C   UNL A   1      50.710  26.828  24.601  1.00  0.00     0.022 A 
BRANCH  75  79
ATOM     79  S   UNL A   1      49.711  27.190  22.023  1.00  0.00     0.124 S 
ATOM     80  O   UNL A   1      51.090  26.766  21.811  1.00  0.00    -0.237 OA
ATOM     81  O   UNL A   1      48.679  26.222  21.667  1.00  0.00    -0.237 OA
ATOM     82  O   UNL A   1      49.419  28.574  21.655  1.00  0.00    -0.744 OA
ENDBRANCH  75  79
ENDBRANCH  48  72
BRANCH  60  83
ATOM     83  C   UNL A   1      45.305  32.951  28.880  1.00  0.00     0.023 A 
ATOM     84  C   UNL A   1      45.128  34.027  27.994  1.00  0.00     0.031 A 
ATOM     85  C   UNL A   1      46.010  33.189  30.075  1.00  0.00     0.131 A 
ATOM     86  C   UNL A   1      45.701  35.274  28.284  1.00  0.00     0.055 A 
ATOM     87  C   UNL A   1      46.516  34.450  30.391  1.00  0.00     0.041 A 
ATOM     88  F   UNL A   1      46.215  32.199  30.957  1.00  0.00    -0.206 F 
ATOM     89  C   UNL A   1      46.377  35.498  29.487  1.00  0.00     0.022 A 
BRANCH  86  90
ATOM     90  S   UNL A   1      45.647  36.573  27.019  1.00  0.00     0.124 S 
ATOM     91  O   UNL A   1      46.414  35.971  25.934  1.00  0.00    -0.237 OA
ATOM     92  O   UNL A   1      44.215  36.719  26.783  1.00  0.00    -0.237 OA
ATOM     93  O   UNL A   1      46.286  37.714  27.671  1.00  0.00    -0.744 OA
ENDBRANCH  86  90
ENDBRANCH  60  83
ENDBRANCH  34  35
ENDBRANCH  26  29
ENDBRANCH  24  25
ENDBRANCH   1  24
TORSDOF 16
ENDMDL
