MODEL 1
REMARK VINA RESULT:     -12.4      0.000      0.000
REMARK SMILES CC(C)CCn1cc(C(=O)NCCCNC(=O)c2ccc(-c3c4nc(c(-c5cc(S(=O)(=O)[O-])ccc5F)c5ccc([nH]5)c(-c5cc(S(=O)(=O)[O-])ccc5F)c5nc(c(-c6cc(S(=O)(=O)[O-])ccc6F)c6ccc3[nH]6)C=C5)C=C4)cc2)c(-c2ccoc2)n1
REMARK SMILES IDX 13 1 12 2 11 3 9 4 10 5 8 7 6 8 7 9 87 10 81 11 5 12 4 13
REMARK SMILES IDX 2 14 1 15 3 16 82 17 83 18 86 19 84 20 85 21 14 22 15 23
REMARK SMILES IDX 16 24 17 26 18 27 19 28 80 29 20 30 79 31 21 32 22 33 23 34
REMARK SMILES IDX 73 35 24 36 78 37 72 38 74 39 25 40 77 41 71 42 70 43 26 45
REMARK SMILES IDX 58 46 38 47 57 48 39 49 42 50 56 51 75 52 40 53 41 54 55 56
REMARK SMILES IDX 76 57 43 58 27 59 28 60 36 61 29 62 35 63 37 64 34 65 30 66
REMARK SMILES IDX 31 67 32 68 33 69 59 70 60 71 68 72 61 73 67 74 69 75 66 76
REMARK SMILES IDX 62 77 63 78 64 79 65 80 44 81 45 82 53 83 46 84 52 85 54 86
REMARK SMILES IDX 51 87 47 88 48 89 49 90 50 91
REMARK H PARENT 11 6 15 25 74 44 42 55
REMARK Flexibility Score: inf
ROOT
ATOM      1  C   UNL A   1      33.626  29.497  27.006  1.00  0.00     0.042 C 
ENDROOT
BRANCH   1   2
ATOM      2  C   UNL A   1      33.239  28.402  26.004  1.00  0.00     0.118 C 
BRANCH   2   3
ATOM      3  N   UNL A   1      33.683  28.699  24.653  1.00  0.00    -0.352 N 
ATOM      4  C   UNL A   1      32.981  28.870  23.476  1.00  0.00     0.255 C 
ATOM      5  O   UNL A   1      33.610  29.272  22.508  1.00  0.00    -0.269 OA
ATOM      6  H   UNL A   1      34.658  28.794  24.559  1.00  0.00     0.163 HD
BRANCH   4   7
ATOM      7  C   UNL A   1      31.544  28.632  23.436  1.00  0.00     0.085 A 
ATOM      8  N   UNL A   1      29.373  28.923  23.190  1.00  0.00    -0.271 N 
ATOM      9  C   UNL A   1      30.526  29.557  23.535  1.00  0.00     0.123 A 
ATOM     10  N   UNL A   1      29.521  27.587  23.133  1.00  0.00    -0.172 NA
ATOM     11  C   UNL A   1      30.832  27.402  23.368  1.00  0.00     0.108 A 
BRANCH   8  12
ATOM     12  C   UNL A   1      28.083  29.518  22.885  1.00  0.00     0.144 C 
BRANCH  12  13
ATOM     13  C   UNL A   1      27.783  30.895  23.511  1.00  0.00     0.027 C 
BRANCH  13  14
ATOM     14  C   UNL A   1      27.924  32.115  22.572  1.00  0.00    -0.016 C 
ATOM     15  C   UNL A   1      28.981  33.111  23.044  1.00  0.00     0.007 C 
ATOM     16  C   UNL A   1      28.236  31.650  21.147  1.00  0.00     0.007 C 
ENDBRANCH  13  14
ENDBRANCH  12  13
ENDBRANCH   8  12
BRANCH  11  17
ATOM     17  C   UNL A   1      31.404  26.074  23.560  1.00  0.00     0.041 A 
ATOM     18  C   UNL A   1      32.091  25.303  22.592  1.00  0.00     0.052 A 
ATOM     19  C   UNL A   1      31.339  25.298  24.695  1.00  0.00     0.205 A 
ATOM     20  C   UNL A   1      32.426  24.122  23.218  1.00  0.00     0.195 A 
ATOM     21  O   UNL A   1      31.960  24.107  24.492  1.00  0.00    -0.472 OA
ENDBRANCH  11  17
ENDBRANCH   4   7
ENDBRANCH   2   3
ENDBRANCH   1   2
BRANCH   1  22
ATOM     22  C   UNL A   1      35.058  29.364  27.497  1.00  0.00     0.118 C 
BRANCH  22  23
ATOM     23  N   UNL A   1      35.290  30.113  28.735  1.00  0.00    -0.352 N 
ATOM     24  C   UNL A   1      36.307  29.955  29.658  1.00  0.00     0.251 C 
ATOM     25  H   UNL A   1      34.635  30.819  28.937  1.00  0.00     0.163 HD
ATOM     26  O   UNL A   1      36.170  30.376  30.801  1.00  0.00    -0.269 OA
BRANCH  24  27
ATOM     27  C   UNL A   1      37.544  29.267  29.246  1.00  0.00     0.039 A 
ATOM     28  C   UNL A   1      38.201  29.595  28.056  1.00  0.00     0.014 A 
ATOM     29  C   UNL A   1      38.069  28.308  30.104  1.00  0.00     0.014 A 
ATOM     30  C   UNL A   1      39.441  29.017  27.788  1.00  0.00     0.010 A 
ATOM     31  C   UNL A   1      39.355  27.872  29.923  1.00  0.00     0.010 A 
ATOM     32  C   UNL A   1      40.029  28.173  28.743  1.00  0.00    -0.014 A 
BRANCH  32  33
ATOM     33  C   UNL A   1      41.413  27.711  28.612  1.00  0.00     0.031 A 
ATOM     34  C   UNL A   1      41.566  26.414  27.893  1.00  0.00     0.074 A 
ATOM     35  C   UNL A   1      42.463  28.530  28.850  1.00  0.00     0.049 A 
ATOM     36  N   UNL A   1      42.076  25.313  28.338  1.00  0.00    -0.248 NA
ATOM     37  C   UNL A   1      40.946  26.274  26.563  1.00  0.00     0.031 C 
ATOM     38  C   UNL A   1      42.418  29.934  29.281  1.00  0.00     0.029 A 
ATOM     39  N   UNL A   1      43.791  28.345  28.602  1.00  0.00    -0.354 N 
ATOM     40  C   UNL A   1      42.073  24.426  27.263  1.00  0.00     0.074 A 
ATOM     41  C   UNL A   1      41.171  24.987  26.296  1.00  0.00     0.031 C 
ATOM     42  C   UNL A   1      43.595  30.533  29.002  1.00  0.00     0.029 A 
ATOM     43  C   UNL A   1      44.531  29.529  28.532  1.00  0.00     0.049 A 
ATOM     44  H   UNL A   1      44.193  27.455  28.482  1.00  0.00     0.167 HD
ATOM     45  C   UNL A   1      43.015  23.446  27.154  1.00  0.00     0.034 A 
ATOM     46  C   UNL A   1      45.806  29.692  28.086  1.00  0.00     0.034 A 
ATOM     47  C   UNL A   1      43.694  23.246  28.418  1.00  0.00     0.049 A 
ATOM     48  C   UNL A   1      46.452  28.358  28.154  1.00  0.00     0.074 A 
ATOM     49  C   UNL A   1      43.275  22.934  29.698  1.00  0.00     0.029 A 
ATOM     50  N   UNL A   1      44.964  23.761  28.562  1.00  0.00    -0.354 N 
ATOM     51  N   UNL A   1      46.671  27.729  29.277  1.00  0.00    -0.248 NA
ATOM     52  C   UNL A   1      46.392  27.507  26.975  1.00  0.00     0.031 C 
ATOM     53  C   UNL A   1      44.074  23.751  30.550  1.00  0.00     0.029 A 
ATOM     54  C   UNL A   1      45.002  24.433  29.759  1.00  0.00     0.049 A 
ATOM     55  H   UNL A   1      45.708  23.666  27.923  1.00  0.00     0.167 HD
ATOM     56  C   UNL A   1      46.318  26.413  29.022  1.00  0.00     0.074 A 
ATOM     57  C   UNL A   1      46.266  26.314  27.564  1.00  0.00     0.031 C 
ATOM     58  C   UNL A   1      45.811  25.613  30.008  1.00  0.00     0.034 A 
BRANCH  45  59
ATOM     59  C   UNL A   1      43.598  22.934  25.849  1.00  0.00     0.023 A 
ATOM     60  C   UNL A   1      43.577  21.539  25.645  1.00  0.00     0.031 A 
ATOM     61  C   UNL A   1      44.413  23.666  24.958  1.00  0.00     0.131 A 
ATOM     62  C   UNL A   1      44.423  20.931  24.701  1.00  0.00     0.055 A 
ATOM     63  C   UNL A   1      45.198  23.062  23.970  1.00  0.00     0.041 A 
ATOM     64  F   UNL A   1      44.574  24.992  25.036  1.00  0.00    -0.206 F 
ATOM     65  C   UNL A   1      45.238  21.683  23.862  1.00  0.00     0.022 A 
BRANCH  62  66
ATOM     66  S   UNL A   1      44.585  19.127  24.734  1.00  0.00     0.124 S 
ATOM     67  O   UNL A   1      44.959  18.844  23.352  1.00  0.00    -0.237 OA
ATOM     68  O   UNL A   1      45.627  18.940  25.737  1.00  0.00    -0.237 OA
ATOM     69  O   UNL A   1      43.252  18.676  25.125  1.00  0.00    -0.744 OA
ENDBRANCH  62  66
ENDBRANCH  45  59
BRANCH  46  70
ATOM     70  C   UNL A   1      46.389  30.865  27.369  1.00  0.00     0.023 A 
ATOM     71  C   UNL A   1      45.603  31.865  26.754  1.00  0.00     0.031 A 
ATOM     72  C   UNL A   1      47.772  31.136  27.483  1.00  0.00     0.131 A 
ATOM     73  C   UNL A   1      46.203  33.062  26.286  1.00  0.00     0.055 A 
ATOM     74  C   UNL A   1      48.359  32.315  27.014  1.00  0.00     0.041 A 
ATOM     75  F   UNL A   1      48.593  30.299  28.136  1.00  0.00    -0.206 F 
ATOM     76  C   UNL A   1      47.574  33.288  26.420  1.00  0.00     0.022 A 
BRANCH  73  77
ATOM     77  S   UNL A   1      45.186  34.399  25.574  1.00  0.00     0.124 S 
ATOM     78  O   UNL A   1      44.022  34.407  26.451  1.00  0.00    -0.237 OA
ATOM     79  O   UNL A   1      46.074  35.553  25.664  1.00  0.00    -0.237 OA
ATOM     80  O   UNL A   1      44.922  33.940  24.209  1.00  0.00    -0.744 OA
ENDBRANCH  73  77
ENDBRANCH  46  70
BRANCH  58  81
ATOM     81  C   UNL A   1      45.903  26.085  31.448  1.00  0.00     0.023 A 
ATOM     82  C   UNL A   1      44.834  26.636  32.193  1.00  0.00     0.031 A 
ATOM     83  C   UNL A   1      47.108  25.836  32.129  1.00  0.00     0.131 A 
ATOM     84  C   UNL A   1      45.002  26.925  33.563  1.00  0.00     0.055 A 
ATOM     85  C   UNL A   1      47.262  26.101  33.489  1.00  0.00     0.041 A 
ATOM     86  F   UNL A   1      48.153  25.289  31.486  1.00  0.00    -0.206 F 
ATOM     87  C   UNL A   1      46.211  26.652  34.210  1.00  0.00     0.022 A 
BRANCH  84  88
ATOM     88  S   UNL A   1      43.654  27.678  34.531  1.00  0.00     0.124 S 
ATOM     89  O   UNL A   1      42.446  27.176  33.888  1.00  0.00    -0.237 OA
ATOM     90  O   UNL A   1      43.915  27.182  35.880  1.00  0.00    -0.237 OA
ATOM     91  O   UNL A   1      43.878  29.116  34.364  1.00  0.00    -0.744 OA
ENDBRANCH  84  88
ENDBRANCH  58  81
ENDBRANCH  32  33
ENDBRANCH  24  27
ENDBRANCH  22  23
ENDBRANCH   1  22
TORSDOF 17
ENDMDL
MODEL 2
REMARK VINA RESULT:     -12.2      1.219      3.236
REMARK SMILES CC(C)CCn1cc(C(=O)NCCCNC(=O)c2ccc(-c3c4nc(c(-c5cc(S(=O)(=O)[O-])ccc5F)c5ccc([nH]5)c(-c5cc(S(=O)(=O)[O-])ccc5F)c5nc(c(-c6cc(S(=O)(=O)[O-])ccc6F)c6ccc3[nH]6)C=C5)C=C4)cc2)c(-c2ccoc2)n1
REMARK SMILES IDX 13 1 12 2 11 3 9 4 10 5 8 7 6 8 7 9 87 10 81 11 5 12 4 13
REMARK SMILES IDX 2 14 1 15 3 16 82 17 83 18 86 19 84 20 85 21 14 22 15 23
REMARK SMILES IDX 16 24 17 26 18 27 19 28 80 29 20 30 79 31 21 32 22 33 23 34
REMARK SMILES IDX 73 35 24 36 78 37 72 38 74 39 25 40 77 41 71 42 70 43 26 45
REMARK SMILES IDX 58 46 38 47 57 48 39 49 42 50 56 51 75 52 40 53 41 54 55 56
REMARK SMILES IDX 76 57 43 58 27 59 28 60 36 61 29 62 35 63 37 64 34 65 30 66
REMARK SMILES IDX 31 67 32 68 33 69 59 70 60 71 68 72 61 73 67 74 69 75 66 76
REMARK SMILES IDX 62 77 63 78 64 79 65 80 44 81 45 82 53 83 46 84 52 85 54 86
REMARK SMILES IDX 51 87 47 88 48 89 49 90 50 91
REMARK H PARENT 11 6 15 25 74 44 42 55
REMARK Flexibility Score: inf
ROOT
ATOM      1  C   UNL A   1      33.713  29.691  26.875  1.00  0.00     0.042 C 
ENDROOT
BRANCH   1   2
ATOM      2  C   UNL A   1      33.212  28.609  25.910  1.00  0.00     0.118 C 
BRANCH   2   3
ATOM      3  N   UNL A   1      32.082  27.865  26.441  1.00  0.00    -0.352 N 
ATOM      4  C   UNL A   1      31.439  26.731  25.988  1.00  0.00     0.255 C 
ATOM      5  O   UNL A   1      30.607  26.230  26.730  1.00  0.00    -0.269 OA
ATOM      6  H   UNL A   1      31.708  28.237  27.272  1.00  0.00     0.163 HD
BRANCH   4   7
ATOM      7  C   UNL A   1      31.801  26.145  24.704  1.00  0.00     0.085 A 
ATOM      8  N   UNL A   1      32.583  24.771  23.167  1.00  0.00    -0.271 N 
ATOM      9  C   UNL A   1      32.777  25.206  24.441  1.00  0.00     0.123 A 
ATOM     10  N   UNL A   1      31.722  25.548  22.486  1.00  0.00    -0.172 NA
ATOM     11  C   UNL A   1      31.307  26.441  23.402  1.00  0.00     0.108 A 
BRANCH   8  12
ATOM     12  C   UNL A   1      33.174  23.612  22.519  1.00  0.00     0.144 C 
BRANCH  12  13
ATOM     13  C   UNL A   1      32.480  22.254  22.749  1.00  0.00     0.027 C 
BRANCH  13  14
ATOM     14  C   UNL A   1      32.848  21.513  24.055  1.00  0.00    -0.016 C 
ATOM     15  C   UNL A   1      32.533  20.021  24.002  1.00  0.00     0.007 C 
ATOM     16  C   UNL A   1      34.328  21.729  24.384  1.00  0.00     0.007 C 
ENDBRANCH  13  14
ENDBRANCH  12  13
ENDBRANCH   8  12
BRANCH  11  17
ATOM     17  C   UNL A   1      30.477  27.586  23.046  1.00  0.00     0.041 A 
ATOM     18  C   UNL A   1      29.086  27.724  23.273  1.00  0.00     0.052 A 
ATOM     19  C   UNL A   1      30.872  28.723  22.377  1.00  0.00     0.205 A 
ATOM     20  C   UNL A   1      28.739  28.952  22.754  1.00  0.00     0.195 A 
ATOM     21  O   UNL A   1      29.817  29.559  22.195  1.00  0.00    -0.472 OA
ENDBRANCH  11  17
ENDBRANCH   4   7
ENDBRANCH   2   3
ENDBRANCH   1   2
BRANCH   1  22
ATOM     22  C   UNL A   1      35.057  29.346  27.496  1.00  0.00     0.118 C 
BRANCH  22  23
ATOM     23  N   UNL A   1      35.277  30.046  28.764  1.00  0.00    -0.352 N 
ATOM     24  C   UNL A   1      36.262  29.826  29.708  1.00  0.00     0.251 C 
ATOM     25  H   UNL A   1      34.638  30.766  28.971  1.00  0.00     0.163 HD
ATOM     26  O   UNL A   1      36.105  30.213  30.861  1.00  0.00    -0.269 OA
BRANCH  24  27
ATOM     27  C   UNL A   1      37.488  29.113  29.307  1.00  0.00     0.039 A 
ATOM     28  C   UNL A   1      38.122  29.376  28.089  1.00  0.00     0.014 A 
ATOM     29  C   UNL A   1      38.027  28.197  30.204  1.00  0.00     0.014 A 
ATOM     30  C   UNL A   1      39.355  28.781  27.827  1.00  0.00     0.010 A 
ATOM     31  C   UNL A   1      39.309  27.747  30.019  1.00  0.00     0.010 A 
ATOM     32  C   UNL A   1      39.959  27.985  28.812  1.00  0.00    -0.014 A 
BRANCH  32  33
ATOM     33  C   UNL A   1      41.339  27.511  28.677  1.00  0.00     0.031 A 
ATOM     34  C   UNL A   1      41.481  26.221  27.944  1.00  0.00     0.074 A 
ATOM     35  C   UNL A   1      42.397  28.318  28.925  1.00  0.00     0.049 A 
ATOM     36  N   UNL A   1      41.980  25.110  28.377  1.00  0.00    -0.248 NA
ATOM     37  C   UNL A   1      40.861  26.101  26.611  1.00  0.00     0.031 C 
ATOM     38  C   UNL A   1      42.364  29.718  29.371  1.00  0.00     0.029 A 
ATOM     39  N   UNL A   1      43.723  28.124  28.676  1.00  0.00    -0.354 N 
ATOM     40  C   UNL A   1      41.970  24.235  27.293  1.00  0.00     0.074 A 
ATOM     41  C   UNL A   1      41.074  24.815  26.331  1.00  0.00     0.031 C 
ATOM     42  C   UNL A   1      43.547  30.309  29.099  1.00  0.00     0.029 A 
ATOM     43  C   UNL A   1      44.474  29.301  28.620  1.00  0.00     0.049 A 
ATOM     44  H   UNL A   1      44.117  27.232  28.546  1.00  0.00     0.167 HD
ATOM     45  C   UNL A   1      42.903  23.248  27.174  1.00  0.00     0.034 A 
ATOM     46  C   UNL A   1      45.751  29.457  28.176  1.00  0.00     0.034 A 
ATOM     47  C   UNL A   1      43.579  23.028  28.436  1.00  0.00     0.049 A 
ATOM     48  C   UNL A   1      46.384  28.117  28.230  1.00  0.00     0.074 A 
ATOM     49  C   UNL A   1      43.155  22.706  29.712  1.00  0.00     0.029 A 
ATOM     50  N   UNL A   1      44.853  23.530  28.586  1.00  0.00    -0.354 N 
ATOM     51  N   UNL A   1      46.596  27.474  29.347  1.00  0.00    -0.248 NA
ATOM     52  C   UNL A   1      46.318  27.279  27.042  1.00  0.00     0.031 C 
ATOM     53  C   UNL A   1      43.962  23.506  30.574  1.00  0.00     0.029 A 
ATOM     54  C   UNL A   1      44.897  24.189  29.791  1.00  0.00     0.049 A 
ATOM     55  H   UNL A   1      45.597  23.435  27.947  1.00  0.00     0.167 HD
ATOM     56  C   UNL A   1      46.231  26.164  29.077  1.00  0.00     0.074 A 
ATOM     57  C   UNL A   1      46.180  26.081  27.618  1.00  0.00     0.031 C 
ATOM     58  C   UNL A   1      45.716  25.357  30.053  1.00  0.00     0.034 A 
BRANCH  45  59
ATOM     59  C   UNL A   1      43.482  22.744  25.864  1.00  0.00     0.023 A 
ATOM     60  C   UNL A   1      43.625  21.349  25.724  1.00  0.00     0.031 A 
ATOM     61  C   UNL A   1      44.157  23.525  24.898  1.00  0.00     0.131 A 
ATOM     62  C   UNL A   1      44.495  20.802  24.764  1.00  0.00     0.055 A 
ATOM     63  C   UNL A   1      44.963  22.971  23.898  1.00  0.00     0.041 A 
ATOM     64  F   UNL A   1      44.155  24.862  24.908  1.00  0.00    -0.206 F 
ATOM     65  C   UNL A   1      45.168  21.603  23.850  1.00  0.00     0.022 A 
BRANCH  62  66
ATOM     66  S   UNL A   1      44.881  19.035  24.869  1.00  0.00     0.124 S 
ATOM     67  O   UNL A   1      46.187  19.061  25.521  1.00  0.00    -0.237 OA
ATOM     68  O   UNL A   1      43.770  18.534  25.670  1.00  0.00    -0.237 OA
ATOM     69  O   UNL A   1      44.888  18.607  23.473  1.00  0.00    -0.744 OA
ENDBRANCH  62  66
ENDBRANCH  45  59
BRANCH  46  70
ATOM     70  C   UNL A   1      46.345  30.632  27.473  1.00  0.00     0.023 A 
ATOM     71  C   UNL A   1      45.585  31.535  26.695  1.00  0.00     0.031 A 
ATOM     72  C   UNL A   1      47.677  31.016  27.755  1.00  0.00     0.131 A 
ATOM     73  C   UNL A   1      46.160  32.749  26.238  1.00  0.00     0.055 A 
ATOM     74  C   UNL A   1      48.240  32.210  27.297  1.00  0.00     0.041 A 
ATOM     75  F   UNL A   1      48.455  30.279  28.564  1.00  0.00    -0.206 F 
ATOM     76  C   UNL A   1      47.480  33.087  26.542  1.00  0.00     0.022 A 
BRANCH  73  77
ATOM     77  S   UNL A   1      45.162  33.964  25.314  1.00  0.00     0.124 S 
ATOM     78  O   UNL A   1      44.520  33.136  24.300  1.00  0.00    -0.237 OA
ATOM     79  O   UNL A   1      44.293  34.512  26.350  1.00  0.00    -0.237 OA
ATOM     80  O   UNL A   1      46.158  34.904  24.796  1.00  0.00    -0.744 OA
ENDBRANCH  73  77
ENDBRANCH  46  70
BRANCH  58  81
ATOM     81  C   UNL A   1      45.811  25.813  31.499  1.00  0.00     0.023 A 
ATOM     82  C   UNL A   1      44.723  26.263  32.283  1.00  0.00     0.031 A 
ATOM     83  C   UNL A   1      47.051  25.653  32.142  1.00  0.00     0.131 A 
ATOM     84  C   UNL A   1      44.906  26.543  33.652  1.00  0.00     0.055 A 
ATOM     85  C   UNL A   1      47.223  25.907  33.501  1.00  0.00     0.041 A 
ATOM     86  F   UNL A   1      48.118  25.202  31.461  1.00  0.00    -0.206 F 
ATOM     87  C   UNL A   1      46.152  26.360  34.260  1.00  0.00     0.022 A 
BRANCH  84  88
ATOM     88  S   UNL A   1      43.530  27.170  34.671  1.00  0.00     0.124 S 
ATOM     89  O   UNL A   1      42.943  28.219  33.847  1.00  0.00    -0.237 OA
ATOM     90  O   UNL A   1      42.711  25.976  34.866  1.00  0.00    -0.237 OA
ATOM     91  O   UNL A   1      44.197  27.650  35.883  1.00  0.00    -0.744 OA
ENDBRANCH  84  88
ENDBRANCH  58  81
ENDBRANCH  32  33
ENDBRANCH  24  27
ENDBRANCH  22  23
ENDBRANCH   1  22
TORSDOF 17
ENDMDL
MODEL 3
REMARK VINA RESULT:     -12.1      2.475      7.023
REMARK SMILES CC(C)CCn1cc(C(=O)NCCCNC(=O)c2ccc(-c3c4nc(c(-c5cc(S(=O)(=O)[O-])ccc5F)c5ccc([nH]5)c(-c5cc(S(=O)(=O)[O-])ccc5F)c5nc(c(-c6cc(S(=O)(=O)[O-])ccc6F)c6ccc3[nH]6)C=C5)C=C4)cc2)c(-c2ccoc2)n1
REMARK SMILES IDX 13 1 12 2 11 3 9 4 10 5 8 7 6 8 7 9 87 10 81 11 5 12 4 13
REMARK SMILES IDX 2 14 1 15 3 16 82 17 83 18 86 19 84 20 85 21 14 22 15 23
REMARK SMILES IDX 16 24 17 26 18 27 19 28 80 29 20 30 79 31 21 32 22 33 23 34
REMARK SMILES IDX 73 35 24 36 78 37 72 38 74 39 25 40 77 41 71 42 70 43 26 45
REMARK SMILES IDX 58 46 38 47 57 48 39 49 42 50 56 51 75 52 40 53 41 54 55 56
REMARK SMILES IDX 76 57 43 58 27 59 28 60 36 61 29 62 35 63 37 64 34 65 30 66
REMARK SMILES IDX 31 67 32 68 33 69 59 70 60 71 68 72 61 73 67 74 69 75 66 76
REMARK SMILES IDX 62 77 63 78 64 79 65 80 44 81 45 82 53 83 46 84 52 85 54 86
REMARK SMILES IDX 51 87 47 88 48 89 49 90 50 91
REMARK H PARENT 11 6 15 25 74 44 42 55
REMARK Flexibility Score: inf
ROOT
ATOM      1  C   UNL A   1      32.803  30.154  27.270  1.00  0.00     0.042 C 
ENDROOT
BRANCH   1   2
ATOM      2  C   UNL A   1      32.463  29.076  26.234  1.00  0.00     0.118 C 
BRANCH   2   3
ATOM      3  N   UNL A   1      33.329  29.128  25.068  1.00  0.00    -0.352 N 
ATOM      4  C   UNL A   1      33.053  29.035  23.718  1.00  0.00     0.255 C 
ATOM      5  O   UNL A   1      33.970  29.273  22.946  1.00  0.00    -0.269 OA
ATOM      6  H   UNL A   1      34.282  29.251  25.277  1.00  0.00     0.163 HD
BRANCH   4   7
ATOM      7  C   UNL A   1      31.704  28.725  23.264  1.00  0.00     0.085 A 
ATOM      8  N   UNL A   1      29.585  28.919  22.684  1.00  0.00    -0.271 N 
ATOM      9  C   UNL A   1      30.541  29.424  23.510  1.00  0.00     0.123 A 
ATOM     10  N   UNL A   1      29.965  27.762  22.109  1.00  0.00    -0.172 NA
ATOM     11  C   UNL A   1      31.232  27.599  22.531  1.00  0.00     0.108 A 
BRANCH   8  12
ATOM     12  C   UNL A   1      28.281  29.481  22.376  1.00  0.00     0.144 C 
BRANCH  12  13
ATOM     13  C   UNL A   1      27.837  30.706  23.201  1.00  0.00     0.027 C 
BRANCH  13  14
ATOM     14  C   UNL A   1      27.921  32.074  22.488  1.00  0.00    -0.016 C 
ATOM     15  C   UNL A   1      28.965  33.003  23.101  1.00  0.00     0.007 C 
ATOM     16  C   UNL A   1      28.203  31.875  20.996  1.00  0.00     0.007 C 
ENDBRANCH  13  14
ENDBRANCH  12  13
ENDBRANCH   8  12
BRANCH  11  17
ATOM     17  C   UNL A   1      31.981  26.375  22.273  1.00  0.00     0.041 A 
ATOM     18  C   UNL A   1      32.461  25.459  23.241  1.00  0.00     0.052 A 
ATOM     19  C   UNL A   1      32.408  25.903  21.052  1.00  0.00     0.205 A 
ATOM     20  C   UNL A   1      33.120  24.476  22.536  1.00  0.00     0.195 A 
ATOM     21  O   UNL A   1      33.104  24.747  21.206  1.00  0.00    -0.472 OA
ENDBRANCH  11  17
ENDBRANCH   4   7
ENDBRANCH   2   3
ENDBRANCH   1   2
BRANCH   1  22
ATOM     22  C   UNL A   1      34.290  30.220  27.582  1.00  0.00     0.118 C 
BRANCH  22  23
ATOM     23  N   UNL A   1      34.829  31.572  27.420  1.00  0.00    -0.352 N 
ATOM     24  C   UNL A   1      35.947  32.129  28.013  1.00  0.00     0.251 C 
ATOM     25  H   UNL A   1      34.330  32.162  26.810  1.00  0.00     0.163 HD
ATOM     26  O   UNL A   1      36.062  33.347  28.083  1.00  0.00    -0.269 OA
BRANCH  24  27
ATOM     27  C   UNL A   1      36.982  31.236  28.563  1.00  0.00     0.039 A 
ATOM     28  C   UNL A   1      37.017  29.874  28.246  1.00  0.00     0.014 A 
ATOM     29  C   UNL A   1      37.959  31.799  29.376  1.00  0.00     0.014 A 
ATOM     30  C   UNL A   1      38.100  29.108  28.676  1.00  0.00     0.010 A 
ATOM     31  C   UNL A   1      39.098  31.090  29.653  1.00  0.00     0.010 A 
ATOM     32  C   UNL A   1      39.156  29.730  29.359  1.00  0.00    -0.014 A 
BRANCH  32  33
ATOM     33  C   UNL A   1      40.408  29.025  29.646  1.00  0.00     0.031 A 
ATOM     34  C   UNL A   1      40.703  28.854  31.097  1.00  0.00     0.074 A 
ATOM     35  C   UNL A   1      41.069  28.331  28.690  1.00  0.00     0.049 A 
ATOM     36  N   UNL A   1      41.723  29.293  31.758  1.00  0.00    -0.248 NA
ATOM     37  C   UNL A   1      39.669  28.248  31.955  1.00  0.00     0.031 C 
ATOM     38  C   UNL A   1      40.697  28.185  27.277  1.00  0.00     0.029 A 
ATOM     39  N   UNL A   1      42.120  27.470  28.804  1.00  0.00    -0.354 N 
ATOM     40  C   UNL A   1      41.585  28.798  33.053  1.00  0.00     0.074 A 
ATOM     41  C   UNL A   1      40.216  28.375  33.165  1.00  0.00     0.031 C 
ATOM     42  C   UNL A   1      41.320  27.110  26.751  1.00  0.00     0.029 A 
ATOM     43  C   UNL A   1      42.258  26.589  27.728  1.00  0.00     0.049 A 
ATOM     44  H   UNL A   1      42.729  27.469  29.577  1.00  0.00     0.167 HD
ATOM     45  C   UNL A   1      42.675  28.536  33.829  1.00  0.00     0.034 A 
ATOM     46  C   UNL A   1      43.051  25.486  27.647  1.00  0.00     0.034 A 
ATOM     47  C   UNL A   1      43.854  29.180  33.289  1.00  0.00     0.049 A 
ATOM     48  C   UNL A   1      44.106  25.647  28.678  1.00  0.00     0.074 A 
ATOM     49  C   UNL A   1      44.181  30.487  32.976  1.00  0.00     0.029 A 
ATOM     50  N   UNL A   1      44.768  28.400  32.614  1.00  0.00    -0.354 N 
ATOM     51  N   UNL A   1      45.006  26.592  28.633  1.00  0.00    -0.248 NA
ATOM     52  C   UNL A   1      43.862  25.093  30.001  1.00  0.00     0.031 C 
ATOM     53  C   UNL A   1      44.903  30.396  31.750  1.00  0.00     0.029 A 
ATOM     54  C   UNL A   1      45.069  29.043  31.438  1.00  0.00     0.049 A 
ATOM     55  H   UNL A   1      45.137  27.539  32.918  1.00  0.00     0.167 HD
ATOM     56  C   UNL A   1      45.095  27.060  29.935  1.00  0.00     0.074 A 
ATOM     57  C   UNL A   1      44.456  26.026  30.750  1.00  0.00     0.031 C 
ATOM     58  C   UNL A   1      45.403  28.366  30.199  1.00  0.00     0.034 A 
BRANCH  45  59
ATOM     59  C   UNL A   1      42.778  27.411  34.843  1.00  0.00     0.023 A 
ATOM     60  C   UNL A   1      43.560  26.296  34.481  1.00  0.00     0.031 A 
ATOM     61  C   UNL A   1      41.950  27.231  35.973  1.00  0.00     0.131 A 
ATOM     62  C   UNL A   1      43.407  25.059  35.133  1.00  0.00     0.055 A 
ATOM     63  C   UNL A   1      41.855  26.019  36.665  1.00  0.00     0.041 A 
ATOM     64  F   UNL A   1      41.118  28.175  36.427  1.00  0.00    -0.206 F 
ATOM     65  C   UNL A   1      42.556  24.911  36.223  1.00  0.00     0.022 A 
BRANCH  62  66
ATOM     66  S   UNL A   1      44.191  23.601  34.397  1.00  0.00     0.124 S 
ATOM     67  O   UNL A   1      45.322  24.202  33.696  1.00  0.00    -0.237 OA
ATOM     68  O   UNL A   1      44.511  22.808  35.577  1.00  0.00    -0.237 OA
ATOM     69  O   UNL A   1      43.145  23.053  33.539  1.00  0.00    -0.744 OA
ENDBRANCH  62  66
ENDBRANCH  45  59
BRANCH  46  70
ATOM     70  C   UNL A   1      42.783  24.209  26.921  1.00  0.00     0.023 A 
ATOM     71  C   UNL A   1      43.723  23.594  26.063  1.00  0.00     0.031 A 
ATOM     72  C   UNL A   1      41.643  23.442  27.255  1.00  0.00     0.131 A 
ATOM     73  C   UNL A   1      43.500  22.279  25.581  1.00  0.00     0.055 A 
ATOM     74  C   UNL A   1      41.425  22.149  26.770  1.00  0.00     0.041 A 
ATOM     75  F   UNL A   1      40.737  23.892  28.137  1.00  0.00    -0.206 F 
ATOM     76  C   UNL A   1      42.359  21.558  25.937  1.00  0.00     0.022 A 
BRANCH  73  77
ATOM     77  S   UNL A   1      44.749  21.440  24.548  1.00  0.00     0.124 S 
ATOM     78  O   UNL A   1      44.744  22.245  23.334  1.00  0.00    -0.237 OA
ATOM     79  O   UNL A   1      45.948  21.521  25.376  1.00  0.00    -0.237 OA
ATOM     80  O   UNL A   1      44.211  20.088  24.390  1.00  0.00    -0.744 OA
ENDBRANCH  73  77
ENDBRANCH  46  70
BRANCH  58  81
ATOM     81  C   UNL A   1      45.928  29.232  29.068  1.00  0.00     0.023 A 
ATOM     82  C   UNL A   1      45.193  30.250  28.415  1.00  0.00     0.031 A 
ATOM     83  C   UNL A   1      47.286  29.096  28.732  1.00  0.00     0.131 A 
ATOM     84  C   UNL A   1      45.823  31.076  27.462  1.00  0.00     0.055 A 
ATOM     85  C   UNL A   1      47.912  29.930  27.807  1.00  0.00     0.041 A 
ATOM     86  F   UNL A   1      48.047  28.167  29.336  1.00  0.00    -0.206 F 
ATOM     87  C   UNL A   1      47.180  30.920  27.164  1.00  0.00     0.022 A 
BRANCH  84  88
ATOM     88  S   UNL A   1      44.885  32.363  26.575  1.00  0.00     0.124 S 
ATOM     89  O   UNL A   1      44.359  33.203  27.643  1.00  0.00    -0.237 OA
ATOM     90  O   UNL A   1      45.906  32.971  25.725  1.00  0.00    -0.237 OA
ATOM     91  O   UNL A   1      43.869  31.600  25.845  1.00  0.00    -0.744 OA
ENDBRANCH  84  88
ENDBRANCH  58  81
ENDBRANCH  32  33
ENDBRANCH  24  27
ENDBRANCH  22  23
ENDBRANCH   1  22
TORSDOF 17
ENDMDL
