MODEL 1
REMARK VINA RESULT:     -12.4      0.000      0.000
REMARK SMILES Cc1ccccc1C[C@@H](CC(F)(F)F)C(=O)NCCCNC(=O)c1ccc(-c2c3nc(c(-c4cc(S(=O)(=O)[O-])ccc4F)c4ccc([nH]4)c(-c4cc(S(=O)(=O)[O-])ccc4F)c4nc(c(-c5cc(S(=O)(=O)[O-])ccc5F)c5ccc2[nH]5)C=C4)C=C3)cc1
REMARK SMILES IDX 19 1 18 2 17 3 15 4 16 5 9 7 8 8 7 9 1 10 2 11 3 12 4 13
REMARK SMILES IDX 6 14 5 15 10 16 11 17 12 18 13 19 14 20 20 21 21 22 22 23
REMARK SMILES IDX 23 25 24 26 25 27 86 28 26 29 85 30 27 31 28 32 29 33 79 34
REMARK SMILES IDX 30 35 84 36 78 37 80 38 31 39 83 40 77 41 76 42 32 44 64 45
REMARK SMILES IDX 44 46 63 47 45 48 48 49 62 50 81 51 46 52 47 53 61 55 82 56
REMARK SMILES IDX 49 57 33 58 34 59 42 60 35 61 41 62 43 63 40 64 36 65 37 66
REMARK SMILES IDX 38 67 39 68 65 69 66 70 74 71 67 72 73 73 75 74 72 75 68 76
REMARK SMILES IDX 69 77 70 78 71 79 50 80 51 81 59 82 52 83 58 84 60 85 57 86
REMARK SMILES IDX 53 87 54 88 55 89 56 90
REMARK H PARENT 17 6 21 24 80 43 48 54
REMARK Flexibility Score: inf
ROOT
ATOM      1  C   UNL A   1      37.663  21.276  24.641  1.00  0.00     0.042 C 
ENDROOT
BRANCH   1   2
ATOM      2  C   UNL A   1      36.466  20.468  25.116  1.00  0.00     0.117 C 
BRANCH   2   3
ATOM      3  N   UNL A   1      35.771  21.086  26.238  1.00  0.00    -0.356 N 
ATOM      4  C   UNL A   1      34.559  21.689  26.346  1.00  0.00     0.223 C 
ATOM      5  O   UNL A   1      34.192  22.043  27.470  1.00  0.00    -0.275 OA
ATOM      6  H   UNL A   1      36.279  21.061  27.081  1.00  0.00     0.163 HD
BRANCH   4   7
ATOM      7  C   UNL A   1      33.629  21.937  25.157  1.00  0.00     0.092 C 
BRANCH   7   8
ATOM      8  C   UNL A   1      32.367  21.057  25.191  1.00  0.00     0.049 C 
BRANCH   8   9
ATOM      9  C   UNL A   1      32.490  19.685  24.553  1.00  0.00    -0.044 A 
ATOM     10  C   UNL A   1      31.997  20.457  22.135  1.00  0.00     0.044 C 
ATOM     11  C   UNL A   1      32.314  19.418  23.178  1.00  0.00    -0.048 A 
ATOM     12  C   UNL A   1      32.501  18.100  22.710  1.00  0.00     0.004 A 
ATOM     13  C   UNL A   1      32.844  17.061  23.573  1.00  0.00     0.000 A 
ATOM     14  C   UNL A   1      32.855  18.619  25.399  1.00  0.00     0.004 A 
ATOM     15  C   UNL A   1      33.022  17.324  24.922  1.00  0.00     0.000 A 
ENDBRANCH   8   9
ENDBRANCH   7   8
BRANCH   7  16
ATOM     16  C   UNL A   1      33.501  23.437  24.818  1.00  0.00     0.129 C 
BRANCH  16  17
ATOM     17  C   UNL A   1      34.395  24.042  23.760  1.00  0.00     0.389 C 
ATOM     18  F   UNL A   1      34.432  23.307  22.638  1.00  0.00    -0.171 F 
ATOM     19  F   UNL A   1      33.934  25.271  23.421  1.00  0.00    -0.171 F 
ATOM     20  F   UNL A   1      35.657  24.217  24.206  1.00  0.00    -0.171 F 
ENDBRANCH  16  17
ENDBRANCH   7  16
ENDBRANCH   4   7
ENDBRANCH   2   3
ENDBRANCH   1   2
BRANCH   1  21
ATOM     21  C   UNL A   1      38.152  22.244  25.696  1.00  0.00     0.118 C 
BRANCH  21  22
ATOM     22  N   UNL A   1      39.556  22.091  26.069  1.00  0.00    -0.352 N 
ATOM     23  C   UNL A   1      40.470  23.066  26.456  1.00  0.00     0.251 C 
ATOM     24  H   UNL A   1      39.902  21.170  26.044  1.00  0.00     0.163 HD
ATOM     25  O   UNL A   1      41.643  22.789  26.627  1.00  0.00    -0.269 OA
BRANCH  23  26
ATOM     26  C   UNL A   1      39.969  24.428  26.765  1.00  0.00     0.039 A 
ATOM     27  C   UNL A   1      40.587  25.521  26.142  1.00  0.00     0.014 A 
ATOM     28  C   UNL A   1      39.113  24.628  27.837  1.00  0.00     0.014 A 
ATOM     29  C   UNL A   1      40.542  26.770  26.757  1.00  0.00     0.010 A 
ATOM     30  C   UNL A   1      39.220  25.802  28.540  1.00  0.00     0.010 A 
ATOM     31  C   UNL A   1      39.958  26.868  28.016  1.00  0.00    -0.014 A 
BRANCH  31  32
ATOM     32  C   UNL A   1      40.094  28.004  28.913  1.00  0.00     0.031 A 
ATOM     33  C   UNL A   1      39.198  29.168  28.749  1.00  0.00     0.074 A 
ATOM     34  C   UNL A   1      40.907  27.915  29.988  1.00  0.00     0.049 A 
ATOM     35  N   UNL A   1      39.425  30.328  29.260  1.00  0.00    -0.248 NA
ATOM     36  C   UNL A   1      37.968  29.127  27.964  1.00  0.00     0.031 C 
ATOM     37  C   UNL A   1      40.916  28.775  31.168  1.00  0.00     0.029 A 
ATOM     38  N   UNL A   1      42.062  27.143  30.114  1.00  0.00    -0.354 N 
ATOM     39  C   UNL A   1      38.278  31.074  29.134  1.00  0.00     0.074 A 
ATOM     40  C   UNL A   1      37.414  30.300  28.278  1.00  0.00     0.031 C 
ATOM     41  C   UNL A   1      42.119  28.696  31.756  1.00  0.00     0.029 A 
ATOM     42  C   UNL A   1      42.966  27.900  30.888  1.00  0.00     0.049 A 
ATOM     43  H   UNL A   1      42.215  26.246  29.739  1.00  0.00     0.167 HD
ATOM     44  C   UNL A   1      38.144  32.208  29.874  1.00  0.00     0.034 A 
ATOM     45  C   UNL A   1      44.156  28.311  30.363  1.00  0.00     0.034 A 
ATOM     46  C   UNL A   1      39.343  32.467  30.667  1.00  0.00     0.049 A 
ATOM     47  C   UNL A   1      44.308  29.815  30.306  1.00  0.00     0.074 A 
ATOM     48  C   UNL A   1      39.669  32.258  31.996  1.00  0.00     0.029 A 
ATOM     49  N   UNL A   1      40.534  32.744  30.010  1.00  0.00    -0.354 N 
ATOM     50  N   UNL A   1      43.326  30.663  30.458  1.00  0.00    -0.248 NA
ATOM     51  C   UNL A   1      45.579  30.487  30.069  1.00  0.00     0.031 C 
ATOM     52  C   UNL A   1      41.078  32.388  32.127  1.00  0.00     0.029 A 
ATOM     53  C   UNL A   1      41.600  32.705  30.885  1.00  0.00     0.049 A 
ATOM     54  H   UNL A   1      40.608  32.944  29.048  1.00  0.00     0.167 HD
ATOM     55  C   UNL A   1      43.788  31.952  30.331  1.00  0.00     0.074 A 
ATOM     56  C   UNL A   1      45.214  31.781  30.104  1.00  0.00     0.031 C 
ATOM     57  C   UNL A   1      42.941  33.027  30.411  1.00  0.00     0.034 A 
BRANCH  44  58
ATOM     58  C   UNL A   1      36.839  32.934  30.083  1.00  0.00     0.023 A 
ATOM     59  C   UNL A   1      36.314  33.030  31.387  1.00  0.00     0.031 A 
ATOM     60  C   UNL A   1      36.058  33.524  29.070  1.00  0.00     0.131 A 
ATOM     61  C   UNL A   1      35.048  33.589  31.631  1.00  0.00     0.055 A 
ATOM     62  C   UNL A   1      34.773  34.032  29.303  1.00  0.00     0.041 A 
ATOM     63  F   UNL A   1      36.525  33.684  27.824  1.00  0.00    -0.206 F 
ATOM     64  C   UNL A   1      34.256  34.058  30.589  1.00  0.00     0.022 A 
BRANCH  61  65
ATOM     65  S   UNL A   1      34.460  33.707  33.342  1.00  0.00     0.124 S 
ATOM     66  O   UNL A   1      34.485  35.146  33.579  1.00  0.00    -0.237 OA
ATOM     67  O   UNL A   1      33.141  33.088  33.259  1.00  0.00    -0.237 OA
ATOM     68  O   UNL A   1      35.453  32.940  34.094  1.00  0.00    -0.744 OA
ENDBRANCH  61  65
ENDBRANCH  44  58
BRANCH  45  69
ATOM     69  C   UNL A   1      44.725  27.318  29.404  1.00  0.00     0.023 A 
ATOM     70  C   UNL A   1      44.486  27.559  28.033  1.00  0.00     0.031 A 
ATOM     71  C   UNL A   1      45.808  26.497  29.745  1.00  0.00     0.131 A 
ATOM     72  C   UNL A   1      45.419  27.150  27.070  1.00  0.00     0.055 A 
ATOM     73  C   UNL A   1      46.696  26.025  28.768  1.00  0.00     0.041 A 
ATOM     74  F   UNL A   1      46.108  26.261  31.031  1.00  0.00    -0.206 F 
ATOM     75  C   UNL A   1      46.534  26.394  27.431  1.00  0.00     0.022 A 
BRANCH  72  76
ATOM     76  S   UNL A   1      45.309  27.875  25.404  1.00  0.00     0.124 S 
ATOM     77  O   UNL A   1      45.977  26.867  24.590  1.00  0.00    -0.237 OA
ATOM     78  O   UNL A   1      43.866  28.000  25.210  1.00  0.00    -0.237 OA
ATOM     79  O   UNL A   1      46.013  29.148  25.536  1.00  0.00    -0.744 OA
ENDBRANCH  72  76
ENDBRANCH  45  69
BRANCH  57  80
ATOM     80  C   UNL A   1      43.249  34.490  30.106  1.00  0.00     0.023 A 
ATOM     81  C   UNL A   1      42.999  35.110  28.876  1.00  0.00     0.031 A 
ATOM     82  C   UNL A   1      43.781  35.352  31.107  1.00  0.00     0.131 A 
ATOM     83  C   UNL A   1      43.290  36.474  28.663  1.00  0.00     0.055 A 
ATOM     84  C   UNL A   1      44.012  36.717  30.914  1.00  0.00     0.041 A 
ATOM     85  F   UNL A   1      44.098  34.916  32.334  1.00  0.00    -0.206 F 
ATOM     86  C   UNL A   1      43.772  37.289  29.681  1.00  0.00     0.022 A 
BRANCH  83  87
ATOM     87  S   UNL A   1      43.061  37.147  26.996  1.00  0.00     0.124 S 
ATOM     88  O   UNL A   1      44.259  37.967  26.835  1.00  0.00    -0.237 OA
ATOM     89  O   UNL A   1      43.007  35.940  26.177  1.00  0.00    -0.237 OA
ATOM     90  O   UNL A   1      41.807  37.891  27.091  1.00  0.00    -0.744 OA
ENDBRANCH  83  87
ENDBRANCH  57  80
ENDBRANCH  31  32
ENDBRANCH  23  26
ENDBRANCH  21  22
ENDBRANCH   1  21
TORSDOF 17
ENDMDL
MODEL 2
REMARK VINA RESULT:     -12.3      4.783     10.310
REMARK SMILES Cc1ccccc1C[C@@H](CC(F)(F)F)C(=O)NCCCNC(=O)c1ccc(-c2c3nc(c(-c4cc(S(=O)(=O)[O-])ccc4F)c4ccc([nH]4)c(-c4cc(S(=O)(=O)[O-])ccc4F)c4nc(c(-c5cc(S(=O)(=O)[O-])ccc5F)c5ccc2[nH]5)C=C4)C=C3)cc1
REMARK SMILES IDX 19 1 18 2 17 3 15 4 16 5 9 7 8 8 7 9 1 10 2 11 3 12 4 13
REMARK SMILES IDX 6 14 5 15 10 16 11 17 12 18 13 19 14 20 20 21 21 22 22 23
REMARK SMILES IDX 23 25 24 26 25 27 86 28 26 29 85 30 27 31 28 32 29 33 79 34
REMARK SMILES IDX 30 35 84 36 78 37 80 38 31 39 83 40 77 41 76 42 32 44 64 45
REMARK SMILES IDX 44 46 63 47 45 48 48 49 62 50 81 51 46 52 47 53 61 55 82 56
REMARK SMILES IDX 49 57 33 58 34 59 42 60 35 61 41 62 43 63 40 64 36 65 37 66
REMARK SMILES IDX 38 67 39 68 65 69 66 70 74 71 67 72 73 73 75 74 72 75 68 76
REMARK SMILES IDX 69 77 70 78 71 79 50 80 51 81 59 82 52 83 58 84 60 85 57 86
REMARK SMILES IDX 53 87 54 88 55 89 56 90
REMARK H PARENT 17 6 21 24 80 43 48 54
REMARK Flexibility Score: inf
ROOT
ATOM      1  C   UNL A   1      32.791  30.667  26.976  1.00  0.00     0.042 C 
ENDROOT
BRANCH   1   2
ATOM      2  C   UNL A   1      32.264  29.707  25.922  1.00  0.00     0.117 C 
BRANCH   2   3
ATOM      3  N   UNL A   1      33.076  29.686  24.713  1.00  0.00    -0.356 N 
ATOM      4  C   UNL A   1      33.234  28.762  23.730  1.00  0.00     0.223 C 
ATOM      5  O   UNL A   1      33.936  29.067  22.762  1.00  0.00    -0.275 OA
ATOM      6  H   UNL A   1      33.616  30.499  24.584  1.00  0.00     0.163 HD
BRANCH   4   7
ATOM      7  C   UNL A   1      32.579  27.380  23.756  1.00  0.00     0.092 C 
BRANCH   7   8
ATOM      8  C   UNL A   1      31.556  27.181  22.623  1.00  0.00     0.049 C 
BRANCH   8   9
ATOM      9  C   UNL A   1      30.115  27.526  22.954  1.00  0.00    -0.044 A 
ATOM     10  C   UNL A   1      30.127  29.863  21.849  1.00  0.00     0.044 C 
ATOM     11  C   UNL A   1      29.478  28.737  22.611  1.00  0.00    -0.048 A 
ATOM     12  C   UNL A   1      28.117  28.910  22.942  1.00  0.00     0.004 A 
ATOM     13  C   UNL A   1      27.397  27.918  23.605  1.00  0.00     0.000 A 
ATOM     14  C   UNL A   1      29.357  26.534  23.607  1.00  0.00     0.004 A 
ATOM     15  C   UNL A   1      28.021  26.726  23.938  1.00  0.00     0.000 A 
ENDBRANCH   8   9
ENDBRANCH   7   8
BRANCH   7  16
ATOM     16  C   UNL A   1      33.592  26.259  24.071  1.00  0.00     0.129 C 
BRANCH  16  17
ATOM     17  C   UNL A   1      33.927  25.938  25.509  1.00  0.00     0.389 C 
ATOM     18  F   UNL A   1      35.029  25.179  25.621  1.00  0.00    -0.171 F 
ATOM     19  F   UNL A   1      34.158  27.085  26.192  1.00  0.00    -0.171 F 
ATOM     20  F   UNL A   1      32.907  25.317  26.139  1.00  0.00    -0.171 F 
ENDBRANCH  16  17
ENDBRANCH   7  16
ENDBRANCH   4   7
ENDBRANCH   2   3
ENDBRANCH   1   2
BRANCH   1  21
ATOM     21  C   UNL A   1      34.183  30.296  27.439  1.00  0.00     0.118 C 
BRANCH  21  22
ATOM     22  N   UNL A   1      34.914  31.365  28.114  1.00  0.00    -0.352 N 
ATOM     23  C   UNL A   1      36.117  31.298  28.809  1.00  0.00     0.251 C 
ATOM     24  H   UNL A   1      34.497  32.255  28.071  1.00  0.00     0.163 HD
ATOM     25  O   UNL A   1      36.541  32.264  29.418  1.00  0.00    -0.269 OA
BRANCH  23  26
ATOM     26  C   UNL A   1      36.932  30.062  28.705  1.00  0.00     0.039 A 
ATOM     27  C   UNL A   1      37.043  29.242  29.837  1.00  0.00     0.014 A 
ATOM     28  C   UNL A   1      37.774  29.874  27.621  1.00  0.00     0.014 A 
ATOM     29  C   UNL A   1      38.156  28.415  29.971  1.00  0.00     0.010 A 
ATOM     30  C   UNL A   1      38.957  29.209  27.829  1.00  0.00     0.010 A 
ATOM     31  C   UNL A   1      39.164  28.501  29.016  1.00  0.00    -0.014 A 
BRANCH  31  32
ATOM     32  C   UNL A   1      40.501  27.948  29.162  1.00  0.00     0.031 A 
ATOM     33  C   UNL A   1      40.775  26.577  28.685  1.00  0.00     0.074 A 
ATOM     34  C   UNL A   1      41.515  28.746  29.564  1.00  0.00     0.049 A 
ATOM     35  N   UNL A   1      41.801  25.884  29.035  1.00  0.00    -0.248 NA
ATOM     36  C   UNL A   1      39.887  25.853  27.778  1.00  0.00     0.031 C 
ATOM     37  C   UNL A   1      42.948  28.492  29.437  1.00  0.00     0.029 A 
ATOM     38  N   UNL A   1      41.434  29.866  30.390  1.00  0.00    -0.354 N 
ATOM     39  C   UNL A   1      41.872  24.789  28.209  1.00  0.00     0.074 A 
ATOM     40  C   UNL A   1      40.632  24.787  27.474  1.00  0.00     0.031 C 
ATOM     41  C   UNL A   1      43.602  29.229  30.347  1.00  0.00     0.029 A 
ATOM     42  C   UNL A   1      42.600  29.863  31.183  1.00  0.00     0.049 A 
ATOM     43  H   UNL A   1      40.706  30.529  30.415  1.00  0.00     0.167 HD
ATOM     44  C   UNL A   1      43.031  24.078  28.153  1.00  0.00     0.034 A 
ATOM     45  C   UNL A   1      42.520  29.741  32.539  1.00  0.00     0.034 A 
ATOM     46  C   UNL A   1      44.023  24.610  29.083  1.00  0.00     0.049 A 
ATOM     47  C   UNL A   1      43.207  28.505  33.080  1.00  0.00     0.074 A 
ATOM     48  C   UNL A   1      45.126  25.432  28.931  1.00  0.00     0.029 A 
ATOM     49  N   UNL A   1      43.765  24.548  30.446  1.00  0.00    -0.354 N 
ATOM     50  N   UNL A   1      43.591  27.495  32.348  1.00  0.00    -0.248 NA
ATOM     51  C   UNL A   1      43.512  28.307  34.491  1.00  0.00     0.031 C 
ATOM     52  C   UNL A   1      45.516  25.886  30.221  1.00  0.00     0.029 A 
ATOM     53  C   UNL A   1      44.667  25.316  31.153  1.00  0.00     0.049 A 
ATOM     54  H   UNL A   1      43.036  24.025  30.854  1.00  0.00     0.167 HD
ATOM     55  C   UNL A   1      44.161  26.525  33.139  1.00  0.00     0.074 A 
ATOM     56  C   UNL A   1      44.100  27.097  34.474  1.00  0.00     0.031 C 
ATOM     57  C   UNL A   1      44.612  25.343  32.610  1.00  0.00     0.034 A 
BRANCH  44  58
ATOM     58  C   UNL A   1      43.358  23.075  27.076  1.00  0.00     0.023 A 
ATOM     59  C   UNL A   1      42.795  21.784  27.152  1.00  0.00     0.031 A 
ATOM     60  C   UNL A   1      44.213  23.299  25.980  1.00  0.00     0.131 A 
ATOM     61  C   UNL A   1      43.152  20.772  26.246  1.00  0.00     0.055 A 
ATOM     62  C   UNL A   1      44.613  22.276  25.109  1.00  0.00     0.041 A 
ATOM     63  F   UNL A   1      44.656  24.526  25.671  1.00  0.00    -0.206 F 
ATOM     64  C   UNL A   1      44.090  21.000  25.245  1.00  0.00     0.022 A 
BRANCH  61  65
ATOM     65  S   UNL A   1      42.356  19.149  26.392  1.00  0.00     0.124 S 
ATOM     66  O   UNL A   1      43.298  18.279  25.696  1.00  0.00    -0.237 OA
ATOM     67  O   UNL A   1      42.264  18.978  27.838  1.00  0.00    -0.237 OA
ATOM     68  O   UNL A   1      41.075  19.340  25.712  1.00  0.00    -0.744 OA
ENDBRANCH  61  65
ENDBRANCH  44  58
BRANCH  45  69
ATOM     69  C   UNL A   1      41.304  30.404  33.097  1.00  0.00     0.023 A 
ATOM     70  C   UNL A   1      41.296  31.817  33.081  1.00  0.00     0.031 A 
ATOM     71  C   UNL A   1      40.072  29.744  33.177  1.00  0.00     0.131 A 
ATOM     72  C   UNL A   1      40.088  32.516  32.952  1.00  0.00     0.055 A 
ATOM     73  C   UNL A   1      38.864  30.454  33.125  1.00  0.00     0.041 A 
ATOM     74  F   UNL A   1      40.012  28.404  33.157  1.00  0.00    -0.206 F 
ATOM     75  C   UNL A   1      38.868  31.841  32.959  1.00  0.00     0.022 A 
BRANCH  72  76
ATOM     76  S   UNL A   1      40.157  34.271  32.474  1.00  0.00     0.124 S 
ATOM     77  O   UNL A   1      40.954  34.847  33.551  1.00  0.00    -0.237 OA
ATOM     78  O   UNL A   1      40.799  34.215  31.163  1.00  0.00    -0.237 OA
ATOM     79  O   UNL A   1      38.754  34.674  32.442  1.00  0.00    -0.744 OA
ENDBRANCH  72  76
ENDBRANCH  45  69
BRANCH  57  80
ATOM     80  C   UNL A   1      45.087  24.100  33.358  1.00  0.00     0.023 A 
ATOM     81  C   UNL A   1      46.362  23.953  33.917  1.00  0.00     0.031 A 
ATOM     82  C   UNL A   1      44.211  23.000  33.581  1.00  0.00     0.131 A 
ATOM     83  C   UNL A   1      46.733  22.784  34.614  1.00  0.00     0.055 A 
ATOM     84  C   UNL A   1      44.559  21.867  34.323  1.00  0.00     0.041 A 
ATOM     85  F   UNL A   1      42.962  22.968  33.095  1.00  0.00    -0.206 F 
ATOM     86  C   UNL A   1      45.832  21.749  34.842  1.00  0.00     0.022 A 
BRANCH  83  87
ATOM     87  S   UNL A   1      48.447  22.633  35.179  1.00  0.00     0.124 S 
ATOM     88  O   UNL A   1      48.891  24.024  35.173  1.00  0.00    -0.237 OA
ATOM     89  O   UNL A   1      48.289  22.025  36.496  1.00  0.00    -0.237 OA
ATOM     90  O   UNL A   1      49.071  21.778  34.171  1.00  0.00    -0.744 OA
ENDBRANCH  83  87
ENDBRANCH  57  80
ENDBRANCH  31  32
ENDBRANCH  23  26
ENDBRANCH  21  22
ENDBRANCH   1  21
TORSDOF 17
ENDMDL
MODEL 3
REMARK VINA RESULT:     -12.2      1.475      2.525
REMARK SMILES Cc1ccccc1C[C@@H](CC(F)(F)F)C(=O)NCCCNC(=O)c1ccc(-c2c3nc(c(-c4cc(S(=O)(=O)[O-])ccc4F)c4ccc([nH]4)c(-c4cc(S(=O)(=O)[O-])ccc4F)c4nc(c(-c5cc(S(=O)(=O)[O-])ccc5F)c5ccc2[nH]5)C=C4)C=C3)cc1
REMARK SMILES IDX 19 1 18 2 17 3 15 4 16 5 9 7 8 8 7 9 1 10 2 11 3 12 4 13
REMARK SMILES IDX 6 14 5 15 10 16 11 17 12 18 13 19 14 20 20 21 21 22 22 23
REMARK SMILES IDX 23 25 24 26 25 27 86 28 26 29 85 30 27 31 28 32 29 33 79 34
REMARK SMILES IDX 30 35 84 36 78 37 80 38 31 39 83 40 77 41 76 42 32 44 64 45
REMARK SMILES IDX 44 46 63 47 45 48 48 49 62 50 81 51 46 52 47 53 61 55 82 56
REMARK SMILES IDX 49 57 33 58 34 59 42 60 35 61 41 62 43 63 40 64 36 65 37 66
REMARK SMILES IDX 38 67 39 68 65 69 66 70 74 71 67 72 73 73 75 74 72 75 68 76
REMARK SMILES IDX 69 77 70 78 71 79 50 80 51 81 59 82 52 83 58 84 60 85 57 86
REMARK SMILES IDX 53 87 54 88 55 89 56 90
REMARK H PARENT 17 6 21 24 80 43 48 54
REMARK Flexibility Score: inf
ROOT
ATOM      1  C   UNL A   1      37.495  20.971  25.135  1.00  0.00     0.042 C 
ENDROOT
BRANCH   1   2
ATOM      2  C   UNL A   1      35.979  21.069  25.189  1.00  0.00     0.117 C 
BRANCH   2   3
ATOM      3  N   UNL A   1      35.483  21.537  26.476  1.00  0.00    -0.356 N 
ATOM      4  C   UNL A   1      34.515  22.427  26.817  1.00  0.00     0.223 C 
ATOM      5  O   UNL A   1      34.249  22.554  28.016  1.00  0.00    -0.275 OA
ATOM      6  H   UNL A   1      35.937  21.129  27.248  1.00  0.00     0.163 HD
BRANCH   4   7
ATOM      7  C   UNL A   1      33.736  23.261  25.799  1.00  0.00     0.092 C 
BRANCH   7   8
ATOM      8  C   UNL A   1      34.651  24.037  24.835  1.00  0.00     0.049 C 
BRANCH   8   9
ATOM      9  C   UNL A   1      33.982  25.113  23.998  1.00  0.00    -0.044 A 
ATOM     10  C   UNL A   1      33.411  23.587  21.990  1.00  0.00     0.044 C 
ATOM     11  C   UNL A   1      33.433  24.908  22.714  1.00  0.00    -0.048 A 
ATOM     12  C   UNL A   1      32.800  25.988  22.063  1.00  0.00     0.004 A 
ATOM     13  C   UNL A   1      32.715  27.247  22.654  1.00  0.00     0.000 A 
ATOM     14  C   UNL A   1      33.866  26.391  24.578  1.00  0.00     0.004 A 
ATOM     15  C   UNL A   1      33.250  27.448  23.916  1.00  0.00     0.000 A 
ENDBRANCH   8   9
ENDBRANCH   7   8
BRANCH   7  16
ATOM     16  C   UNL A   1      32.510  22.507  25.243  1.00  0.00     0.129 C 
BRANCH  16  17
ATOM     17  C   UNL A   1      31.152  23.170  25.263  1.00  0.00     0.389 C 
ATOM     18  F   UNL A   1      30.263  22.493  26.007  1.00  0.00    -0.171 F 
ATOM     19  F   UNL A   1      31.258  24.411  25.795  1.00  0.00    -0.171 F 
ATOM     20  F   UNL A   1      30.649  23.327  24.021  1.00  0.00    -0.171 F 
ENDBRANCH  16  17
ENDBRANCH   7  16
ENDBRANCH   4   7
ENDBRANCH   2   3
ENDBRANCH   1   2
BRANCH   1  21
ATOM     21  C   UNL A   1      38.165  22.219  25.667  1.00  0.00     0.118 C 
BRANCH  21  22
ATOM     22  N   UNL A   1      39.558  22.046  26.071  1.00  0.00    -0.352 N 
ATOM     23  C   UNL A   1      40.477  23.008  26.477  1.00  0.00     0.251 C 
ATOM     24  H   UNL A   1      39.891  21.121  26.054  1.00  0.00     0.163 HD
ATOM     25  O   UNL A   1      41.642  22.715  26.674  1.00  0.00    -0.269 OA
BRANCH  23  26
ATOM     26  C   UNL A   1      39.989  24.378  26.774  1.00  0.00     0.039 A 
ATOM     27  C   UNL A   1      40.634  25.461  26.160  1.00  0.00     0.014 A 
ATOM     28  C   UNL A   1      39.116  24.592  27.829  1.00  0.00     0.014 A 
ATOM     29  C   UNL A   1      40.595  26.712  26.772  1.00  0.00     0.010 A 
ATOM     30  C   UNL A   1      39.226  25.766  28.531  1.00  0.00     0.010 A 
ATOM     31  C   UNL A   1      39.988  26.820  28.020  1.00  0.00    -0.014 A 
BRANCH  31  32
ATOM     32  C   UNL A   1      40.122  27.957  28.917  1.00  0.00     0.031 A 
ATOM     33  C   UNL A   1      39.222  29.118  28.756  1.00  0.00     0.074 A 
ATOM     34  C   UNL A   1      40.939  27.869  29.989  1.00  0.00     0.049 A 
ATOM     35  N   UNL A   1      39.445  30.277  29.267  1.00  0.00    -0.248 NA
ATOM     36  C   UNL A   1      37.989  29.072  27.975  1.00  0.00     0.031 C 
ATOM     37  C   UNL A   1      40.948  28.729  31.170  1.00  0.00     0.029 A 
ATOM     38  N   UNL A   1      42.097  27.102  30.112  1.00  0.00    -0.354 N 
ATOM     39  C   UNL A   1      38.296  31.019  29.145  1.00  0.00     0.074 A 
ATOM     40  C   UNL A   1      37.432  30.243  28.292  1.00  0.00     0.031 C 
ATOM     41  C   UNL A   1      42.153  28.654  31.754  1.00  0.00     0.029 A 
ATOM     42  C   UNL A   1      43.000  27.862  30.883  1.00  0.00     0.049 A 
ATOM     43  H   UNL A   1      42.252  26.205  29.735  1.00  0.00     0.167 HD
ATOM     44  C   UNL A   1      38.159  32.153  29.887  1.00  0.00     0.034 A 
ATOM     45  C   UNL A   1      44.187  28.278  30.355  1.00  0.00     0.034 A 
ATOM     46  C   UNL A   1      39.360  32.415  30.676  1.00  0.00     0.049 A 
ATOM     47  C   UNL A   1      44.334  29.783  30.299  1.00  0.00     0.074 A 
ATOM     48  C   UNL A   1      39.691  32.206  32.004  1.00  0.00     0.029 A 
ATOM     49  N   UNL A   1      40.548  32.697  30.016  1.00  0.00    -0.354 N 
ATOM     50  N   UNL A   1      43.349  30.626  30.454  1.00  0.00    -0.248 NA
ATOM     51  C   UNL A   1      45.602  30.460  30.059  1.00  0.00     0.031 C 
ATOM     52  C   UNL A   1      41.100  32.342  32.131  1.00  0.00     0.029 A 
ATOM     53  C   UNL A   1      41.616  32.661  30.888  1.00  0.00     0.049 A 
ATOM     54  H   UNL A   1      40.619  32.898  29.054  1.00  0.00     0.167 HD
ATOM     55  C   UNL A   1      43.806  31.917  30.326  1.00  0.00     0.074 A 
ATOM     56  C   UNL A   1      45.231  31.752  30.096  1.00  0.00     0.031 C 
ATOM     57  C   UNL A   1      42.955  32.989  30.410  1.00  0.00     0.034 A 
BRANCH  44  58
ATOM     58  C   UNL A   1      36.852  32.873  30.100  1.00  0.00     0.023 A 
ATOM     59  C   UNL A   1      36.338  32.979  31.408  1.00  0.00     0.031 A 
ATOM     60  C   UNL A   1      36.060  33.450  29.088  1.00  0.00     0.131 A 
ATOM     61  C   UNL A   1      35.071  33.534  31.657  1.00  0.00     0.055 A 
ATOM     62  C   UNL A   1      34.774  33.953  29.328  1.00  0.00     0.041 A 
ATOM     63  F   UNL A   1      36.515  33.600  27.837  1.00  0.00    -0.206 F 
ATOM     64  C   UNL A   1      34.268  33.988  30.617  1.00  0.00     0.022 A 
BRANCH  61  65
ATOM     65  S   UNL A   1      34.497  33.665  33.372  1.00  0.00     0.124 S 
ATOM     66  O   UNL A   1      33.151  33.108  33.291  1.00  0.00    -0.237 OA
ATOM     67  O   UNL A   1      35.485  32.867  34.091  1.00  0.00    -0.237 OA
ATOM     68  O   UNL A   1      34.556  35.102  33.639  1.00  0.00    -0.744 OA
ENDBRANCH  61  65
ENDBRANCH  44  58
BRANCH  45  69
ATOM     69  C   UNL A   1      44.757  27.287  29.394  1.00  0.00     0.023 A 
ATOM     70  C   UNL A   1      44.512  27.528  28.023  1.00  0.00     0.031 A 
ATOM     71  C   UNL A   1      45.845  26.471  29.730  1.00  0.00     0.131 A 
ATOM     72  C   UNL A   1      45.443  27.123  27.057  1.00  0.00     0.055 A 
ATOM     73  C   UNL A   1      46.732  26.004  28.750  1.00  0.00     0.041 A 
ATOM     74  F   UNL A   1      46.151  26.237  31.015  1.00  0.00    -0.206 F 
ATOM     75  C   UNL A   1      46.563  26.372  27.413  1.00  0.00     0.022 A 
BRANCH  72  76
ATOM     76  S   UNL A   1      45.324  27.848  25.391  1.00  0.00     0.124 S 
ATOM     77  O   UNL A   1      45.974  26.832  24.572  1.00  0.00    -0.237 OA
ATOM     78  O   UNL A   1      43.880  27.987  25.212  1.00  0.00    -0.237 OA
ATOM     79  O   UNL A   1      46.041  29.114  25.516  1.00  0.00    -0.744 OA
ENDBRANCH  72  76
ENDBRANCH  45  69
BRANCH  57  80
ATOM     80  C   UNL A   1      43.256  34.454  30.105  1.00  0.00     0.023 A 
ATOM     81  C   UNL A   1      43.009  35.071  28.873  1.00  0.00     0.031 A 
ATOM     82  C   UNL A   1      43.779  35.319  31.107  1.00  0.00     0.131 A 
ATOM     83  C   UNL A   1      43.294  36.436  28.660  1.00  0.00     0.055 A 
ATOM     84  C   UNL A   1      44.004  36.686  30.914  1.00  0.00     0.041 A 
ATOM     85  F   UNL A   1      44.092  34.886  32.337  1.00  0.00    -0.206 F 
ATOM     86  C   UNL A   1      43.767  37.255  29.679  1.00  0.00     0.022 A 
BRANCH  83  87
ATOM     87  S   UNL A   1      43.069  37.107  26.992  1.00  0.00     0.124 S 
ATOM     88  O   UNL A   1      42.998  35.891  26.185  1.00  0.00    -0.237 OA
ATOM     89  O   UNL A   1      41.821  37.852  27.121  1.00  0.00    -0.237 OA
ATOM     90  O   UNL A   1      44.262  37.923  26.782  1.00  0.00    -0.744 OA
ENDBRANCH  83  87
ENDBRANCH  57  80
ENDBRANCH  31  32
ENDBRANCH  23  26
ENDBRANCH  21  22
ENDBRANCH   1  21
TORSDOF 17
ENDMDL
