MODEL 1
REMARK VINA RESULT:     -12.2      0.000      0.000
REMARK SMILES CC1CCN(C(=O)N[C@@H]2C=C[C@H](C(=O)NCCCNC(=O)c3ccc(-c4c5nc(c(-c6cc(S(=O)(=O)[O-])ccc6F)c6ccc([nH]6)c(-c6cc(S(=O)(=O)[O-])ccc6F)c6nc(c(-c7cc(S(=O)(=O)[O-])ccc7F)c7ccc4[nH]7)C=C6)C=C5)cc3)C2)CC1
REMARK SMILES IDX 18 1 17 2 16 3 15 4 13 5 14 6 12 8 9 9 10 10 85 11 11 12
REMARK SMILES IDX 8 13 1 14 2 15 3 16 87 17 4 18 86 19 5 20 6 21 7 22 19 24
REMARK SMILES IDX 20 25 21 27 22 28 23 29 84 30 24 31 83 32 25 33 26 34 27 35
REMARK SMILES IDX 77 36 28 37 82 38 76 39 78 40 29 41 81 42 75 43 74 44 30 46
REMARK SMILES IDX 62 47 42 48 61 49 43 50 46 51 60 52 79 53 44 54 45 55 59 57
REMARK SMILES IDX 80 58 47 59 31 60 32 61 40 62 33 63 39 64 41 65 38 66 34 67
REMARK SMILES IDX 35 68 36 69 37 70 63 71 64 72 72 73 65 74 71 75 73 76 70 77
REMARK SMILES IDX 66 78 67 79 68 80 69 81 48 82 49 83 57 84 50 85 56 86 58 87
REMARK SMILES IDX 55 88 51 89 52 90 53 91 54 92
REMARK H PARENT 15 7 8 23 19 26 78 45 46 56
REMARK Flexibility Score: inf
ROOT
ATOM      1  C   UNL A   1      32.877  32.697  27.132  1.00  0.00     0.118 C 
ENDROOT
BRANCH   1   2
ATOM      2  C   UNL A   1      31.633  31.867  26.827  1.00  0.00     0.042 C 
BRANCH   2   3
ATOM      3  C   UNL A   1      31.817  30.358  26.903  1.00  0.00     0.117 C 
BRANCH   3   4
ATOM      4  N   UNL A   1      32.548  29.834  25.770  1.00  0.00    -0.356 N 
ATOM      5  C   UNL A   1      32.115  29.368  24.571  1.00  0.00     0.227 C 
ATOM      6  O   UNL A   1      32.985  29.152  23.728  1.00  0.00    -0.274 OA
ATOM      7  H   UNL A   1      33.526  29.812  25.890  1.00  0.00     0.163 HD
BRANCH   5   8
ATOM      8  C   UNL A   1      30.625  29.126  24.315  1.00  0.00     0.103 C 
ATOM      9  C   UNL A   1      30.446  27.298  22.671  1.00  0.00     0.107 C 
ATOM     10  C   UNL A   1      30.120  28.656  22.075  1.00  0.00    -0.006 C 
ATOM     11  C   UNL A   1      30.305  27.640  24.154  1.00  0.00     0.047 C 
ATOM     12  C   UNL A   1      30.232  29.649  22.970  1.00  0.00    -0.016 C 
BRANCH   9  13
ATOM     13  N   UNL A   1      31.694  26.893  22.048  1.00  0.00    -0.332 N 
ATOM     14  C   UNL A   1      33.754  23.410  26.620  1.00  0.00     0.008 C 
ATOM     15  C   UNL A   1      33.394  23.338  25.136  1.00  0.00    -0.011 C 
ATOM     16  C   UNL A   1      34.455  24.092  24.320  1.00  0.00     0.025 C 
ATOM     17  C   UNL A   1      31.979  23.891  24.871  1.00  0.00     0.025 C 
ATOM     18  C   UNL A   1      34.057  24.210  22.852  1.00  0.00     0.121 C 
ATOM     19  C   UNL A   1      31.694  24.071  23.372  1.00  0.00     0.121 C 
ATOM     20  N   UNL A   1      32.743  24.843  22.732  1.00  0.00    -0.325 N 
ATOM     21  C   UNL A   1      32.669  25.985  22.009  1.00  0.00     0.317 C 
ATOM     22  O   UNL A   1      33.571  26.287  21.213  1.00  0.00    -0.249 OA
ATOM     23  H   UNL A   1      31.910  27.575  21.371  1.00  0.00     0.165 HD
ENDBRANCH   9  13
ENDBRANCH   5   8
ENDBRANCH   3   4
ENDBRANCH   2   3
ENDBRANCH   1   2
BRANCH   1  24
ATOM     24  N   UNL A   1      32.593  34.028  27.639  1.00  0.00    -0.352 N 
ATOM     25  C   UNL A   1      33.167  34.729  28.669  1.00  0.00     0.251 C 
ATOM     26  H   UNL A   1      31.872  34.505  27.168  1.00  0.00     0.163 HD
ATOM     27  O   UNL A   1      32.694  35.817  28.986  1.00  0.00    -0.269 OA
BRANCH  25  28
ATOM     28  C   UNL A   1      34.314  34.169  29.418  1.00  0.00     0.039 A 
ATOM     29  C   UNL A   1      34.049  33.300  30.479  1.00  0.00     0.014 A 
ATOM     30  C   UNL A   1      35.633  34.505  29.102  1.00  0.00     0.014 A 
ATOM     31  C   UNL A   1      35.106  32.723  31.184  1.00  0.00     0.010 A 
ATOM     32  C   UNL A   1      36.687  33.871  29.758  1.00  0.00     0.010 A 
ATOM     33  C   UNL A   1      36.435  32.981  30.813  1.00  0.00    -0.014 A 
BRANCH  33  34
ATOM     34  C   UNL A   1      37.562  32.349  31.548  1.00  0.00     0.031 A 
ATOM     35  C   UNL A   1      38.325  31.211  30.926  1.00  0.00     0.074 A 
ATOM     36  C   UNL A   1      37.885  32.785  32.782  1.00  0.00     0.049 A 
ATOM     37  N   UNL A   1      39.330  30.526  31.408  1.00  0.00    -0.248 NA
ATOM     38  C   UNL A   1      37.878  30.770  29.597  1.00  0.00     0.031 C 
ATOM     39  C   UNL A   1      37.197  33.856  33.506  1.00  0.00     0.029 A 
ATOM     40  N   UNL A   1      38.875  32.386  33.643  1.00  0.00    -0.354 N 
ATOM     41  C   UNL A   1      39.636  29.572  30.442  1.00  0.00     0.074 A 
ATOM     42  C   UNL A   1      38.657  29.720  29.386  1.00  0.00     0.031 C 
ATOM     43  C   UNL A   1      37.811  34.054  34.684  1.00  0.00     0.029 A 
ATOM     44  C   UNL A   1      38.910  33.102  34.817  1.00  0.00     0.049 A 
ATOM     45  H   UNL A   1      39.503  31.655  33.440  1.00  0.00     0.167 HD
ATOM     46  C   UNL A   1      40.656  28.677  30.420  1.00  0.00     0.034 A 
ATOM     47  C   UNL A   1      39.737  33.005  35.877  1.00  0.00     0.034 A 
ATOM     48  C   UNL A   1      41.627  28.543  31.480  1.00  0.00     0.049 A 
ATOM     49  C   UNL A   1      40.846  31.985  35.847  1.00  0.00     0.074 A 
ATOM     50  C   UNL A   1      42.714  27.689  31.553  1.00  0.00     0.029 A 
ATOM     51  N   UNL A   1      41.626  29.282  32.657  1.00  0.00    -0.354 N 
ATOM     52  N   UNL A   1      41.146  31.116  34.908  1.00  0.00    -0.248 NA
ATOM     53  C   UNL A   1      41.738  31.945  37.012  1.00  0.00     0.031 C 
ATOM     54  C   UNL A   1      43.332  27.869  32.797  1.00  0.00     0.029 A 
ATOM     55  C   UNL A   1      42.679  28.889  33.470  1.00  0.00     0.049 A 
ATOM     56  H   UNL A   1      40.972  29.984  32.881  1.00  0.00     0.167 HD
ATOM     57  C   UNL A   1      42.289  30.458  35.353  1.00  0.00     0.074 A 
ATOM     58  C   UNL A   1      42.626  31.035  36.639  1.00  0.00     0.031 C 
ATOM     59  C   UNL A   1      43.002  29.470  34.752  1.00  0.00     0.034 A 
BRANCH  46  60
ATOM     60  C   UNL A   1      40.745  27.766  29.218  1.00  0.00     0.023 A 
ATOM     61  C   UNL A   1      41.674  27.999  28.187  1.00  0.00     0.031 A 
ATOM     62  C   UNL A   1      39.860  26.684  29.069  1.00  0.00     0.131 A 
ATOM     63  C   UNL A   1      41.631  27.227  27.017  1.00  0.00     0.055 A 
ATOM     64  C   UNL A   1      39.884  25.861  27.941  1.00  0.00     0.041 A 
ATOM     65  F   UNL A   1      38.936  26.422  30.008  1.00  0.00    -0.206 F 
ATOM     66  C   UNL A   1      40.760  26.143  26.897  1.00  0.00     0.022 A 
BRANCH  63  67
ATOM     67  S   UNL A   1      42.608  27.772  25.589  1.00  0.00     0.124 S 
ATOM     68  O   UNL A   1      43.939  27.906  26.177  1.00  0.00    -0.237 OA
ATOM     69  O   UNL A   1      42.433  26.672  24.648  1.00  0.00    -0.237 OA
ATOM     70  O   UNL A   1      41.977  29.031  25.202  1.00  0.00    -0.744 OA
ENDBRANCH  63  67
ENDBRANCH  46  60
BRANCH  47  71
ATOM     71  C   UNL A   1      39.565  33.905  37.054  1.00  0.00     0.023 A 
ATOM     72  C   UNL A   1      38.973  33.436  38.238  1.00  0.00     0.031 A 
ATOM     73  C   UNL A   1      39.947  35.256  36.997  1.00  0.00     0.131 A 
ATOM     74  C   UNL A   1      38.736  34.322  39.300  1.00  0.00     0.055 A 
ATOM     75  C   UNL A   1      39.754  36.122  38.075  1.00  0.00     0.041 A 
ATOM     76  F   UNL A   1      40.523  35.753  35.891  1.00  0.00    -0.206 F 
ATOM     77  C   UNL A   1      39.132  35.660  39.230  1.00  0.00     0.022 A 
BRANCH  74  78
ATOM     78  S   UNL A   1      37.822  33.718  40.747  1.00  0.00     0.124 S 
ATOM     79  O   UNL A   1      37.543  34.959  41.460  1.00  0.00    -0.237 OA
ATOM     80  O   UNL A   1      36.678  33.061  40.127  1.00  0.00    -0.237 OA
ATOM     81  O   UNL A   1      38.775  32.823  41.400  1.00  0.00    -0.744 OA
ENDBRANCH  74  78
ENDBRANCH  47  71
BRANCH  59  82
ATOM     82  C   UNL A   1      44.252  29.001  35.456  1.00  0.00     0.023 A 
ATOM     83  C   UNL A   1      44.221  27.987  36.431  1.00  0.00     0.031 A 
ATOM     84  C   UNL A   1      45.491  29.595  35.159  1.00  0.00     0.131 A 
ATOM     85  C   UNL A   1      45.396  27.643  37.117  1.00  0.00     0.055 A 
ATOM     86  C   UNL A   1      46.667  29.205  35.801  1.00  0.00     0.041 A 
ATOM     87  F   UNL A   1      45.579  30.568  34.238  1.00  0.00    -0.206 F 
ATOM     88  C   UNL A   1      46.621  28.234  36.797  1.00  0.00     0.022 A 
BRANCH  85  89
ATOM     89  S   UNL A   1      45.284  26.483  38.507  1.00  0.00     0.124 S 
ATOM     90  O   UNL A   1      43.882  26.602  38.891  1.00  0.00    -0.237 OA
ATOM     91  O   UNL A   1      45.671  25.218  37.890  1.00  0.00    -0.237 OA
ATOM     92  O   UNL A   1      46.239  27.015  39.477  1.00  0.00    -0.744 OA
ENDBRANCH  85  89
ENDBRANCH  59  82
ENDBRANCH  33  34
ENDBRANCH  25  28
ENDBRANCH   1  24
TORSDOF 14
ENDMDL
MODEL 2
REMARK VINA RESULT:     -12.2      1.662      7.824
REMARK SMILES CC1CCN(C(=O)N[C@@H]2C=C[C@H](C(=O)NCCCNC(=O)c3ccc(-c4c5nc(c(-c6cc(S(=O)(=O)[O-])ccc6F)c6ccc([nH]6)c(-c6cc(S(=O)(=O)[O-])ccc6F)c6nc(c(-c7cc(S(=O)(=O)[O-])ccc7F)c7ccc4[nH]7)C=C6)C=C5)cc3)C2)CC1
REMARK SMILES IDX 18 1 17 2 16 3 15 4 13 5 14 6 12 8 9 9 10 10 85 11 11 12
REMARK SMILES IDX 8 13 1 14 2 15 3 16 87 17 4 18 86 19 5 20 6 21 7 22 19 24
REMARK SMILES IDX 20 25 21 27 22 28 23 29 84 30 24 31 83 32 25 33 26 34 27 35
REMARK SMILES IDX 77 36 28 37 82 38 76 39 78 40 29 41 81 42 75 43 74 44 30 46
REMARK SMILES IDX 62 47 42 48 61 49 43 50 46 51 60 52 79 53 44 54 45 55 59 57
REMARK SMILES IDX 80 58 47 59 31 60 32 61 40 62 33 63 39 64 41 65 38 66 34 67
REMARK SMILES IDX 35 68 36 69 37 70 63 71 64 72 72 73 65 74 71 75 73 76 70 77
REMARK SMILES IDX 66 78 67 79 68 80 69 81 48 82 49 83 57 84 50 85 56 86 58 87
REMARK SMILES IDX 55 88 51 89 52 90 53 91 54 92
REMARK H PARENT 15 7 8 23 19 26 78 45 46 56
REMARK Flexibility Score: inf
ROOT
ATOM      1  C   UNL A   1      32.886  32.542  26.892  1.00  0.00     0.118 C 
ENDROOT
BRANCH   1   2
ATOM      2  C   UNL A   1      31.741  31.535  26.946  1.00  0.00     0.042 C 
BRANCH   2   3
ATOM      3  C   UNL A   1      32.157  30.072  27.007  1.00  0.00     0.117 C 
BRANCH   3   4
ATOM      4  N   UNL A   1      32.816  29.634  25.797  1.00  0.00    -0.356 N 
ATOM      5  C   UNL A   1      32.307  29.211  24.611  1.00  0.00     0.227 C 
ATOM      6  O   UNL A   1      33.116  29.072  23.694  1.00  0.00    -0.274 OA
ATOM      7  H   UNL A   1      33.800  29.645  25.840  1.00  0.00     0.163 HD
BRANCH   5   8
ATOM      8  C   UNL A   1      30.812  28.923  24.457  1.00  0.00     0.103 C 
ATOM      9  C   UNL A   1      30.583  26.997  22.936  1.00  0.00     0.107 C 
ATOM     10  C   UNL A   1      30.191  28.310  22.282  1.00  0.00    -0.006 C 
ATOM     11  C   UNL A   1      30.518  27.424  24.402  1.00  0.00     0.047 C 
ATOM     12  C   UNL A   1      30.330  29.357  23.109  1.00  0.00    -0.016 C 
BRANCH   9  13
ATOM     13  N   UNL A   1      31.803  26.582  22.266  1.00  0.00    -0.332 N 
ATOM     14  C   UNL A   1      34.097  23.234  26.828  1.00  0.00     0.008 C 
ATOM     15  C   UNL A   1      33.669  23.120  25.364  1.00  0.00    -0.011 C 
ATOM     16  C   UNL A   1      34.685  23.857  24.479  1.00  0.00     0.025 C 
ATOM     17  C   UNL A   1      32.239  23.659  25.152  1.00  0.00     0.025 C 
ATOM     18  C   UNL A   1      34.219  23.933  23.030  1.00  0.00     0.121 C 
ATOM     19  C   UNL A   1      31.883  23.796  23.664  1.00  0.00     0.121 C 
ATOM     20  N   UNL A   1      32.896  24.556  22.955  1.00  0.00    -0.325 N 
ATOM     21  C   UNL A   1      32.781  25.677  22.206  1.00  0.00     0.317 C 
ATOM     22  O   UNL A   1      33.643  25.963  21.360  1.00  0.00    -0.249 OA
ATOM     23  H   UNL A   1      31.983  27.246  21.561  1.00  0.00     0.165 HD
ENDBRANCH   9  13
ENDBRANCH   5   8
ENDBRANCH   3   4
ENDBRANCH   2   3
ENDBRANCH   1   2
BRANCH   1  24
ATOM     24  N   UNL A   1      32.618  33.784  27.597  1.00  0.00    -0.352 N 
ATOM     25  C   UNL A   1      33.256  34.353  28.669  1.00  0.00     0.251 C 
ATOM     26  H   UNL A   1      31.855  34.300  27.249  1.00  0.00     0.163 HD
ATOM     27  O   UNL A   1      32.789  35.375  29.166  1.00  0.00    -0.269 OA
BRANCH  25  28
ATOM     28  C   UNL A   1      34.465  33.729  29.248  1.00  0.00     0.039 A 
ATOM     29  C   UNL A   1      34.299  32.645  30.114  1.00  0.00     0.014 A 
ATOM     30  C   UNL A   1      35.748  34.208  28.967  1.00  0.00     0.014 A 
ATOM     31  C   UNL A   1      35.417  32.006  30.651  1.00  0.00     0.010 A 
ATOM     32  C   UNL A   1      36.865  33.523  29.444  1.00  0.00     0.010 A 
ATOM     33  C   UNL A   1      36.712  32.421  30.299  1.00  0.00    -0.014 A 
BRANCH  33  34
ATOM     34  C   UNL A   1      37.905  31.728  30.851  1.00  0.00     0.031 A 
ATOM     35  C   UNL A   1      38.375  32.035  32.247  1.00  0.00     0.074 A 
ATOM     36  C   UNL A   1      38.575  30.839  30.092  1.00  0.00     0.049 A 
ATOM     37  N   UNL A   1      39.395  31.544  32.905  1.00  0.00    -0.248 NA
ATOM     38  C   UNL A   1      37.613  33.050  32.989  1.00  0.00     0.031 C 
ATOM     39  C   UNL A   1      38.238  30.483  28.712  1.00  0.00     0.029 A 
ATOM     40  N   UNL A   1      39.675  30.068  30.373  1.00  0.00    -0.354 N 
ATOM     41  C   UNL A   1      39.397  32.190  34.138  1.00  0.00     0.074 A 
ATOM     42  C   UNL A   1      38.325  33.162  34.100  1.00  0.00     0.031 C 
ATOM     43  C   UNL A   1      39.089  29.537  28.283  1.00  0.00     0.029 A 
ATOM     44  C   UNL A   1      40.053  29.246  29.339  1.00  0.00     0.049 A 
ATOM     45  H   UNL A   1      40.149  30.102  31.236  1.00  0.00     0.167 HD
ATOM     46  C   UNL A   1      40.196  31.972  35.213  1.00  0.00     0.034 A 
ATOM     47  C   UNL A   1      41.061  28.355  29.253  1.00  0.00     0.034 A 
ATOM     48  C   UNL A   1      41.260  30.996  35.237  1.00  0.00     0.049 A 
ATOM     49  C   UNL A   1      41.956  28.147  30.449  1.00  0.00     0.074 A 
ATOM     50  C   UNL A   1      42.114  30.674  36.276  1.00  0.00     0.029 A 
ATOM     51  N   UNL A   1      41.618  30.186  34.166  1.00  0.00    -0.354 N 
ATOM     52  N   UNL A   1      41.920  28.738  31.621  1.00  0.00    -0.248 NA
ATOM     53  C   UNL A   1      43.016  27.140  30.313  1.00  0.00     0.031 C 
ATOM     54  C   UNL A   1      43.026  29.716  35.817  1.00  0.00     0.029 A 
ATOM     55  C   UNL A   1      42.693  29.381  34.514  1.00  0.00     0.049 A 
ATOM     56  H   UNL A   1      41.173  30.182  33.288  1.00  0.00     0.167 HD
ATOM     57  C   UNL A   1      42.926  28.141  32.376  1.00  0.00     0.074 A 
ATOM     58  C   UNL A   1      43.544  27.141  31.528  1.00  0.00     0.031 C 
ATOM     59  C   UNL A   1      43.302  28.390  33.657  1.00  0.00     0.034 A 
BRANCH  46  60
ATOM     60  C   UNL A   1      39.953  32.828  36.434  1.00  0.00     0.023 A 
ATOM     61  C   UNL A   1      39.133  32.386  37.489  1.00  0.00     0.031 A 
ATOM     62  C   UNL A   1      40.498  34.120  36.526  1.00  0.00     0.131 A 
ATOM     63  C   UNL A   1      38.806  33.260  38.536  1.00  0.00     0.055 A 
ATOM     64  C   UNL A   1      40.242  34.953  37.618  1.00  0.00     0.041 A 
ATOM     65  F   UNL A   1      41.272  34.608  35.543  1.00  0.00    -0.206 F 
ATOM     66  C   UNL A   1      39.375  34.531  38.622  1.00  0.00     0.022 A 
BRANCH  63  67
ATOM     67  S   UNL A   1      37.490  32.773  39.686  1.00  0.00     0.124 S 
ATOM     68  O   UNL A   1      36.331  32.714  38.798  1.00  0.00    -0.237 OA
ATOM     69  O   UNL A   1      37.972  31.494  40.194  1.00  0.00    -0.237 OA
ATOM     70  O   UNL A   1      37.464  33.862  40.659  1.00  0.00    -0.744 OA
ENDBRANCH  63  67
ENDBRANCH  46  60
BRANCH  47  71
ATOM     71  C   UNL A   1      41.276  27.575  28.000  1.00  0.00     0.023 A 
ATOM     72  C   UNL A   1      40.971  26.205  27.944  1.00  0.00     0.031 A 
ATOM     73  C   UNL A   1      41.832  28.175  26.857  1.00  0.00     0.131 A 
ATOM     74  C   UNL A   1      41.267  25.470  26.786  1.00  0.00     0.055 A 
ATOM     75  C   UNL A   1      42.079  27.449  25.690  1.00  0.00     0.041 A 
ATOM     76  F   UNL A   1      42.135  29.483  26.857  1.00  0.00    -0.206 F 
ATOM     77  C   UNL A   1      41.810  26.085  25.655  1.00  0.00     0.022 A 
BRANCH  74  78
ATOM     78  S   UNL A   1      41.012  23.674  26.809  1.00  0.00     0.124 S 
ATOM     79  O   UNL A   1      39.594  23.571  26.482  1.00  0.00    -0.237 OA
ATOM     80  O   UNL A   1      41.943  23.223  25.782  1.00  0.00    -0.237 OA
ATOM     81  O   UNL A   1      41.366  23.298  28.176  1.00  0.00    -0.744 OA
ENDBRANCH  74  78
ENDBRANCH  47  71
BRANCH  59  82
ATOM     82  C   UNL A   1      44.393  27.519  34.233  1.00  0.00     0.023 A 
ATOM     83  C   UNL A   1      44.118  26.268  34.812  1.00  0.00     0.031 A 
ATOM     84  C   UNL A   1      45.727  27.963  34.220  1.00  0.00     0.131 A 
ATOM     85  C   UNL A   1      45.153  25.532  35.409  1.00  0.00     0.055 A 
ATOM     86  C   UNL A   1      46.762  27.199  34.760  1.00  0.00     0.041 A 
ATOM     87  F   UNL A   1      46.047  29.151  33.682  1.00  0.00    -0.206 F 
ATOM     88  C   UNL A   1      46.476  25.983  35.373  1.00  0.00     0.022 A 
BRANCH  85  89
ATOM     89  S   UNL A   1      44.734  24.024  36.325  1.00  0.00     0.124 S 
ATOM     90  O   UNL A   1      44.456  24.546  37.659  1.00  0.00    -0.237 OA
ATOM     91  O   UNL A   1      43.583  23.519  35.585  1.00  0.00    -0.237 OA
ATOM     92  O   UNL A   1      45.944  23.209  36.219  1.00  0.00    -0.744 OA
ENDBRANCH  85  89
ENDBRANCH  59  82
ENDBRANCH  33  34
ENDBRANCH  25  28
ENDBRANCH   1  24
TORSDOF 14
ENDMDL
MODEL 3
REMARK VINA RESULT:     -12.2      4.098      9.298
REMARK SMILES CC1CCN(C(=O)N[C@@H]2C=C[C@H](C(=O)NCCCNC(=O)c3ccc(-c4c5nc(c(-c6cc(S(=O)(=O)[O-])ccc6F)c6ccc([nH]6)c(-c6cc(S(=O)(=O)[O-])ccc6F)c6nc(c(-c7cc(S(=O)(=O)[O-])ccc7F)c7ccc4[nH]7)C=C6)C=C5)cc3)C2)CC1
REMARK SMILES IDX 18 1 17 2 16 3 15 4 13 5 14 6 12 8 9 9 10 10 85 11 11 12
REMARK SMILES IDX 8 13 1 14 2 15 3 16 87 17 4 18 86 19 5 20 6 21 7 22 19 24
REMARK SMILES IDX 20 25 21 27 22 28 23 29 84 30 24 31 83 32 25 33 26 34 27 35
REMARK SMILES IDX 77 36 28 37 82 38 76 39 78 40 29 41 81 42 75 43 74 44 30 46
REMARK SMILES IDX 62 47 42 48 61 49 43 50 46 51 60 52 79 53 44 54 45 55 59 57
REMARK SMILES IDX 80 58 47 59 31 60 32 61 40 62 33 63 39 64 41 65 38 66 34 67
REMARK SMILES IDX 35 68 36 69 37 70 63 71 64 72 72 73 65 74 71 75 73 76 70 77
REMARK SMILES IDX 66 78 67 79 68 80 69 81 48 82 49 83 57 84 50 85 56 86 58 87
REMARK SMILES IDX 55 88 51 89 52 90 53 91 54 92
REMARK H PARENT 15 7 8 23 19 26 78 45 46 56
REMARK Flexibility Score: inf
ROOT
ATOM      1  C   UNL A   1      34.022  28.872  25.732  1.00  0.00     0.118 C 
ENDROOT
BRANCH   1   2
ATOM      2  C   UNL A   1      33.159  27.683  26.145  1.00  0.00     0.042 C 
BRANCH   2   3
ATOM      3  C   UNL A   1      32.991  26.597  25.092  1.00  0.00     0.117 C 
BRANCH   3   4
ATOM      4  N   UNL A   1      34.063  25.626  25.125  1.00  0.00    -0.356 N 
ATOM      5  C   UNL A   1      34.080  24.335  25.545  1.00  0.00     0.227 C 
ATOM      6  O   UNL A   1      35.098  23.695  25.286  1.00  0.00    -0.274 OA
ATOM      7  H   UNL A   1      34.926  25.958  24.786  1.00  0.00     0.163 HD
BRANCH   5   8
ATOM      8  C   UNL A   1      32.890  23.741  26.303  1.00  0.00     0.103 C 
ATOM      9  C   UNL A   1      33.329  21.334  26.599  1.00  0.00     0.107 C 
ATOM     10  C   UNL A   1      32.265  21.611  25.552  1.00  0.00    -0.006 C 
ATOM     11  C   UNL A   1      33.326  22.682  27.317  1.00  0.00     0.047 C 
ATOM     12  C   UNL A   1      32.039  22.922  25.385  1.00  0.00    -0.016 C 
BRANCH   9  13
ATOM     13  N   UNL A   1      34.467  20.811  25.861  1.00  0.00    -0.332 N 
ATOM     14  C   UNL A   1      32.668  14.978  25.688  1.00  0.00     0.008 C 
ATOM     15  C   UNL A   1      33.047  16.137  24.764  1.00  0.00    -0.011 C 
ATOM     16  C   UNL A   1      34.561  16.384  24.853  1.00  0.00     0.025 C 
ATOM     17  C   UNL A   1      32.247  17.411  25.102  1.00  0.00     0.025 C 
ATOM     18  C   UNL A   1      34.972  17.640  24.094  1.00  0.00     0.121 C 
ATOM     19  C   UNL A   1      32.786  18.650  24.370  1.00  0.00     0.121 C 
ATOM     20  N   UNL A   1      34.214  18.796  24.578  1.00  0.00    -0.325 N 
ATOM     21  C   UNL A   1      34.923  19.837  25.073  1.00  0.00     0.317 C 
ATOM     22  O   UNL A   1      36.130  19.959  24.815  1.00  0.00    -0.249 OA
ATOM     23  H   UNL A   1      35.212  21.438  26.003  1.00  0.00     0.165 HD
ENDBRANCH   9  13
ENDBRANCH   5   8
ENDBRANCH   3   4
ENDBRANCH   2   3
ENDBRANCH   1   2
BRANCH   1  24
ATOM     24  N   UNL A   1      33.659  30.122  26.377  1.00  0.00    -0.352 N 
ATOM     25  C   UNL A   1      34.275  30.811  27.390  1.00  0.00     0.251 C 
ATOM     26  H   UNL A   1      32.839  30.543  26.031  1.00  0.00     0.163 HD
ATOM     27  O   UNL A   1      33.728  31.812  27.848  1.00  0.00    -0.269 OA
BRANCH  25  28
ATOM     28  C   UNL A   1      35.557  30.338  27.956  1.00  0.00     0.039 A 
ATOM     29  C   UNL A   1      35.525  29.613  29.150  1.00  0.00     0.014 A 
ATOM     30  C   UNL A   1      36.780  30.617  27.341  1.00  0.00     0.014 A 
ATOM     31  C   UNL A   1      36.711  29.119  29.695  1.00  0.00     0.010 A 
ATOM     32  C   UNL A   1      37.955  30.059  27.845  1.00  0.00     0.010 A 
ATOM     33  C   UNL A   1      37.934  29.313  29.032  1.00  0.00    -0.014 A 
BRANCH  33  34
ATOM     34  C   UNL A   1      39.195  28.768  29.599  1.00  0.00     0.031 A 
ATOM     35  C   UNL A   1      39.744  29.320  30.887  1.00  0.00     0.074 A 
ATOM     36  C   UNL A   1      39.856  27.792  28.947  1.00  0.00     0.049 A 
ATOM     37  N   UNL A   1      40.829  28.985  31.537  1.00  0.00    -0.248 NA
ATOM     38  C   UNL A   1      38.983  30.414  31.509  1.00  0.00     0.031 C 
ATOM     39  C   UNL A   1      39.444  27.198  27.672  1.00  0.00     0.029 A 
ATOM     40  N   UNL A   1      41.010  27.121  29.265  1.00  0.00    -0.354 N 
ATOM     41  C   UNL A   1      40.883  29.826  32.644  1.00  0.00     0.074 A 
ATOM     42  C   UNL A   1      39.763  30.737  32.529  1.00  0.00     0.031 C 
ATOM     43  C   UNL A   1      40.311  26.228  27.340  1.00  0.00     0.029 A 
ATOM     44  C   UNL A   1      41.359  26.154  28.353  1.00  0.00     0.049 A 
ATOM     45  H   UNL A   1      41.540  27.316  30.073  1.00  0.00     0.167 HD
ATOM     46  C   UNL A   1      41.763  29.821  33.677  1.00  0.00     0.034 A 
ATOM     47  C   UNL A   1      42.402  25.300  28.338  1.00  0.00     0.034 A 
ATOM     48  C   UNL A   1      42.874  28.905  33.779  1.00  0.00     0.049 A 
ATOM     49  C   UNL A   1      43.386  25.329  29.480  1.00  0.00     0.074 A 
ATOM     50  C   UNL A   1      43.812  28.793  34.789  1.00  0.00     0.029 A 
ATOM     51  N   UNL A   1      43.198  27.942  32.831  1.00  0.00    -0.354 N 
ATOM     52  N   UNL A   1      43.400  26.105  30.540  1.00  0.00    -0.248 NA
ATOM     53  C   UNL A   1      44.483  24.356  29.431  1.00  0.00     0.031 C 
ATOM     54  C   UNL A   1      44.738  27.808  34.424  1.00  0.00     0.029 A 
ATOM     55  C   UNL A   1      44.334  27.249  33.223  1.00  0.00     0.049 A 
ATOM     56  H   UNL A   1      42.695  27.775  32.001  1.00  0.00     0.167 HD
ATOM     57  C   UNL A   1      44.483  25.681  31.304  1.00  0.00     0.074 A 
ATOM     58  C   UNL A   1      45.092  24.579  30.586  1.00  0.00     0.031 C 
ATOM     59  C   UNL A   1      44.933  26.153  32.495  1.00  0.00     0.034 A 
BRANCH  46  60
ATOM     60  C   UNL A   1      41.560  30.859  34.757  1.00  0.00     0.023 A 
ATOM     61  C   UNL A   1      40.394  30.881  35.544  1.00  0.00     0.031 A 
ATOM     62  C   UNL A   1      42.514  31.869  34.971  1.00  0.00     0.131 A 
ATOM     63  C   UNL A   1      40.168  31.942  36.433  1.00  0.00     0.055 A 
ATOM     64  C   UNL A   1      42.324  32.871  35.924  1.00  0.00     0.041 A 
ATOM     65  F   UNL A   1      43.638  31.915  34.239  1.00  0.00    -0.206 F 
ATOM     66  C   UNL A   1      41.136  32.924  36.648  1.00  0.00     0.022 A 
BRANCH  63  67
ATOM     67  S   UNL A   1      38.519  32.113  37.169  1.00  0.00     0.124 S 
ATOM     68  O   UNL A   1      37.930  30.808  36.879  1.00  0.00    -0.237 OA
ATOM     69  O   UNL A   1      38.825  32.379  38.570  1.00  0.00    -0.237 OA
ATOM     70  O   UNL A   1      37.930  33.230  36.435  1.00  0.00    -0.744 OA
ENDBRANCH  63  67
ENDBRANCH  46  60
BRANCH  47  71
ATOM     71  C   UNL A   1      42.570  24.332  27.216  1.00  0.00     0.023 A 
ATOM     72  C   UNL A   1      41.970  23.063  27.264  1.00  0.00     0.031 A 
ATOM     73  C   UNL A   1      43.369  24.643  26.102  1.00  0.00     0.131 A 
ATOM     74  C   UNL A   1      42.217  22.133  26.243  1.00  0.00     0.055 A 
ATOM     75  C   UNL A   1      43.572  23.731  25.064  1.00  0.00     0.041 A 
ATOM     76  F   UNL A   1      43.959  25.845  26.003  1.00  0.00    -0.206 F 
ATOM     77  C   UNL A   1      43.006  22.463  25.137  1.00  0.00     0.022 A 
BRANCH  74  78
ATOM     78  S   UNL A   1      41.560  20.452  26.422  1.00  0.00     0.124 S 
ATOM     79  O   UNL A   1      42.010  20.099  27.764  1.00  0.00    -0.237 OA
ATOM     80  O   UNL A   1      40.128  20.669  26.260  1.00  0.00    -0.237 OA
ATOM     81  O   UNL A   1      42.204  19.718  25.335  1.00  0.00    -0.744 OA
ENDBRANCH  74  78
ENDBRANCH  47  71
BRANCH  59  82
ATOM     82  C   UNL A   1      46.103  25.433  33.121  1.00  0.00     0.023 A 
ATOM     83  C   UNL A   1      47.424  25.638  32.685  1.00  0.00     0.031 A 
ATOM     84  C   UNL A   1      45.886  24.510  34.160  1.00  0.00     0.131 A 
ATOM     85  C   UNL A   1      48.468  24.885  33.241  1.00  0.00     0.055 A 
ATOM     86  C   UNL A   1      46.936  23.808  34.752  1.00  0.00     0.041 A 
ATOM     87  F   UNL A   1      44.645  24.273  34.616  1.00  0.00    -0.206 F 
ATOM     88  C   UNL A   1      48.235  23.982  34.283  1.00  0.00     0.022 A 
BRANCH  85  89
ATOM     89  S   UNL A   1      50.125  25.024  32.515  1.00  0.00     0.124 S 
ATOM     90  O   UNL A   1      49.851  25.720  31.263  1.00  0.00    -0.237 OA
ATOM     91  O   UNL A   1      50.845  25.790  33.527  1.00  0.00    -0.237 OA
ATOM     92  O   UNL A   1      50.554  23.634  32.370  1.00  0.00    -0.744 OA
ENDBRANCH  85  89
ENDBRANCH  59  82
ENDBRANCH  33  34
ENDBRANCH  25  28
ENDBRANCH   1  24
TORSDOF 14
ENDMDL
