MODEL 1
REMARK VINA RESULT:     -12.9      0.000      0.000
REMARK SMILES Cc1ccccc1N[C@H](C(=O)NCCCNC(=O)c1ccc(-c2c3nc(c(-c4cc(S(=O)(=O)[O-])ccc4F)c4ccc([nH]4)c(-c4cc(S(=O)(=O)[O-])ccc4F)c4nc(c(-c5cc(S(=O)(=O)[O-])ccc5F)c5ccc2[nH]5)C=C4)C=C3)cc1)c1ccccc1
REMARK SMILES IDX 14 1 13 2 12 3 10 4 11 5 9 7 8 8 7 10 1 11 2 12 3 13 4 14
REMARK SMILES IDX 6 15 5 16 82 17 83 18 87 19 84 20 86 21 85 22 15 23 16 24
REMARK SMILES IDX 17 25 18 27 19 28 20 29 81 30 21 31 80 32 22 33 23 34 24 35
REMARK SMILES IDX 74 36 25 37 79 38 73 39 75 40 26 41 78 42 72 43 71 44 27 46
REMARK SMILES IDX 59 47 39 48 58 49 40 50 43 51 57 52 76 53 41 54 42 55 56 57
REMARK SMILES IDX 77 58 44 59 28 60 29 61 37 62 30 63 36 64 38 65 35 66 31 67
REMARK SMILES IDX 32 68 33 69 34 70 60 71 61 72 69 73 62 74 68 75 70 76 67 77
REMARK SMILES IDX 63 78 64 79 65 80 66 81 45 82 46 83 54 84 47 85 53 86 55 87
REMARK SMILES IDX 52 88 48 89 49 90 50 91 51 92
REMARK H PARENT 12 6 8 9 16 26 75 45 43 56
REMARK Flexibility Score: inf
ROOT
ATOM      1  C   UNL A   1      32.777  30.474  27.244  1.00  0.00     0.042 C 
ENDROOT
BRANCH   1   2
ATOM      2  C   UNL A   1      32.223  29.994  25.916  1.00  0.00     0.117 C 
BRANCH   2   3
ATOM      3  N   UNL A   1      33.245  29.881  24.887  1.00  0.00    -0.354 N 
ATOM      4  C   UNL A   1      33.421  28.855  23.993  1.00  0.00     0.247 C 
ATOM      5  O   UNL A   1      34.316  28.969  23.146  1.00  0.00    -0.272 OA
ATOM      6  H   UNL A   1      33.886  30.627  24.826  1.00  0.00     0.163 HD
BRANCH   4   7
ATOM      7  C   UNL A   1      32.604  27.531  24.121  1.00  0.00     0.200 C 
BRANCH   7   8
ATOM      8  N   UNL A   1      31.464  27.647  23.166  1.00  0.00    -0.370 N 
ATOM      9  H   UNL A   1      31.622  27.117  22.353  1.00  0.00     0.161 HD
BRANCH   8  10
ATOM     10  C   UNL A   1      30.250  28.294  23.115  1.00  0.00     0.038 A 
ATOM     11  C   UNL A   1      29.038  26.300  24.209  1.00  0.00     0.046 C 
ATOM     12  C   UNL A   1      29.058  27.614  23.470  1.00  0.00    -0.028 A 
ATOM     13  C   UNL A   1      27.793  28.177  23.181  1.00  0.00     0.005 A 
ATOM     14  C   UNL A   1      27.682  29.443  22.626  1.00  0.00     0.000 A 
ATOM     15  C   UNL A   1      30.084  29.618  22.698  1.00  0.00     0.026 A 
ATOM     16  C   UNL A   1      28.833  30.182  22.425  1.00  0.00     0.002 A 
ENDBRANCH   8  10
ENDBRANCH   7   8
BRANCH   7  17
ATOM     17  C   UNL A   1      33.416  26.242  24.178  1.00  0.00    -0.016 A 
ATOM     18  C   UNL A   1      33.989  25.797  25.380  1.00  0.00     0.006 A 
ATOM     19  C   UNL A   1      33.602  25.435  23.042  1.00  0.00     0.006 A 
ATOM     20  C   UNL A   1      34.471  24.487  25.497  1.00  0.00     0.000 A 
ATOM     21  C   UNL A   1      34.062  24.126  23.160  1.00  0.00     0.000 A 
ATOM     22  C   UNL A   1      34.454  23.636  24.397  1.00  0.00     0.000 A 
ENDBRANCH   7  17
ENDBRANCH   4   7
ENDBRANCH   2   3
ENDBRANCH   1   2
BRANCH   1  23
ATOM     23  C   UNL A   1      34.279  30.281  27.299  1.00  0.00     0.118 C 
BRANCH  23  24
ATOM     24  N   UNL A   1      35.004  31.254  28.111  1.00  0.00    -0.352 N 
ATOM     25  C   UNL A   1      36.125  31.063  28.913  1.00  0.00     0.251 C 
ATOM     26  H   UNL A   1      34.651  32.173  28.088  1.00  0.00     0.163 HD
ATOM     27  O   UNL A   1      36.544  31.954  29.629  1.00  0.00    -0.269 OA
BRANCH  25  28
ATOM     28  C   UNL A   1      36.870  29.783  28.798  1.00  0.00     0.039 A 
ATOM     29  C   UNL A   1      37.101  29.045  29.965  1.00  0.00     0.014 A 
ATOM     30  C   UNL A   1      37.562  29.486  27.632  1.00  0.00     0.014 A 
ATOM     31  C   UNL A   1      38.210  28.204  30.026  1.00  0.00     0.010 A 
ATOM     32  C   UNL A   1      38.747  28.797  27.742  1.00  0.00     0.010 A 
ATOM     33  C   UNL A   1      39.099  28.194  28.954  1.00  0.00    -0.014 A 
BRANCH  33  34
ATOM     34  C   UNL A   1      40.468  27.696  29.033  1.00  0.00     0.031 A 
ATOM     35  C   UNL A   1      40.788  26.330  28.565  1.00  0.00     0.074 A 
ATOM     36  C   UNL A   1      41.456  28.541  29.401  1.00  0.00     0.049 A 
ATOM     37  N   UNL A   1      41.851  25.672  28.882  1.00  0.00    -0.248 NA
ATOM     38  C   UNL A   1      39.884  25.566  27.712  1.00  0.00     0.031 C 
ATOM     39  C   UNL A   1      42.893  28.362  29.219  1.00  0.00     0.029 A 
ATOM     40  N   UNL A   1      41.348  29.671  30.215  1.00  0.00    -0.354 N 
ATOM     41  C   UNL A   1      41.905  24.543  28.093  1.00  0.00     0.074 A 
ATOM     42  C   UNL A   1      40.634  24.505  27.414  1.00  0.00     0.031 C 
ATOM     43  C   UNL A   1      43.544  29.174  30.066  1.00  0.00     0.029 A 
ATOM     44  C   UNL A   1      42.551  29.778  30.938  1.00  0.00     0.049 A 
ATOM     45  H   UNL A   1      40.576  30.279  30.273  1.00  0.00     0.167 HD
ATOM     46  C   UNL A   1      43.068  23.835  28.012  1.00  0.00     0.034 A 
ATOM     47  C   UNL A   1      42.557  29.668  32.298  1.00  0.00     0.034 A 
ATOM     48  C   UNL A   1      44.077  24.378  28.922  1.00  0.00     0.049 A 
ATOM     49  C   UNL A   1      43.331  28.479  32.816  1.00  0.00     0.074 A 
ATOM     50  C   UNL A   1      45.142  25.242  28.731  1.00  0.00     0.029 A 
ATOM     51  N   UNL A   1      43.882  24.291  30.297  1.00  0.00    -0.354 N 
ATOM     52  N   UNL A   1      43.698  27.462  32.086  1.00  0.00    -0.248 NA
ATOM     53  C   UNL A   1      43.728  28.341  34.213  1.00  0.00     0.031 C 
ATOM     54  C   UNL A   1      45.524  25.750  30.001  1.00  0.00     0.029 A 
ATOM     55  C   UNL A   1      44.721  25.163  30.965  1.00  0.00     0.049 A 
ATOM     56  H   UNL A   1      43.236  23.689  30.735  1.00  0.00     0.167 HD
ATOM     57  C   UNL A   1      44.291  26.520  32.886  1.00  0.00     0.074 A 
ATOM     58  C   UNL A   1      44.334  27.143  34.198  1.00  0.00     0.031 C 
ATOM     59  C   UNL A   1      44.664  25.292  32.416  1.00  0.00     0.034 A 
BRANCH  46  60
ATOM     60  C   UNL A   1      43.395  22.858  26.901  1.00  0.00     0.023 A 
ATOM     61  C   UNL A   1      42.871  21.549  26.969  1.00  0.00     0.031 A 
ATOM     62  C   UNL A   1      44.239  23.103  25.800  1.00  0.00     0.131 A 
ATOM     63  C   UNL A   1      43.266  20.545  26.064  1.00  0.00     0.055 A 
ATOM     64  C   UNL A   1      44.684  22.093  24.935  1.00  0.00     0.041 A 
ATOM     65  F   UNL A   1      44.626  24.340  25.467  1.00  0.00    -0.206 F 
ATOM     66  C   UNL A   1      44.208  20.800  25.073  1.00  0.00     0.022 A 
BRANCH  63  67
ATOM     67  S   UNL A   1      42.523  18.896  26.196  1.00  0.00     0.124 S 
ATOM     68  O   UNL A   1      41.165  19.131  25.720  1.00  0.00    -0.237 OA
ATOM     69  O   UNL A   1      43.385  18.099  25.330  1.00  0.00    -0.237 OA
ATOM     70  O   UNL A   1      42.633  18.589  27.622  1.00  0.00    -0.744 OA
ENDBRANCH  63  67
ENDBRANCH  46  60
BRANCH  47  71
ATOM     71  C   UNL A   1      41.347  30.232  32.952  1.00  0.00     0.023 A 
ATOM     72  C   UNL A   1      41.250  31.631  33.059  1.00  0.00     0.031 A 
ATOM     73  C   UNL A   1      40.176  29.475  33.105  1.00  0.00     0.131 A 
ATOM     74  C   UNL A   1      39.995  32.243  33.187  1.00  0.00     0.055 A 
ATOM     75  C   UNL A   1      38.926  30.090  33.254  1.00  0.00     0.041 A 
ATOM     76  F   UNL A   1      40.203  28.141  32.974  1.00  0.00    -0.206 F 
ATOM     77  C   UNL A   1      38.827  31.480  33.254  1.00  0.00     0.022 A 
BRANCH  74  78
ATOM     78  S   UNL A   1      39.865  34.046  33.051  1.00  0.00     0.124 S 
ATOM     79  O   UNL A   1      40.849  34.501  34.027  1.00  0.00    -0.237 OA
ATOM     80  O   UNL A   1      40.199  34.298  31.652  1.00  0.00    -0.237 OA
ATOM     81  O   UNL A   1      38.469  34.303  33.393  1.00  0.00    -0.744 OA
ENDBRANCH  74  78
ENDBRANCH  47  71
BRANCH  59  82
ATOM     82  C   UNL A   1      45.079  24.134  33.295  1.00  0.00     0.023 A 
ATOM     83  C   UNL A   1      46.303  24.097  33.978  1.00  0.00     0.031 A 
ATOM     84  C   UNL A   1      44.209  23.045  33.535  1.00  0.00     0.131 A 
ATOM     85  C   UNL A   1      46.678  22.981  34.744  1.00  0.00     0.055 A 
ATOM     86  C   UNL A   1      44.544  21.979  34.376  1.00  0.00     0.041 A 
ATOM     87  F   UNL A   1      42.995  22.975  32.967  1.00  0.00    -0.206 F 
ATOM     88  C   UNL A   1      45.797  21.929  34.968  1.00  0.00     0.022 A 
BRANCH  85  89
ATOM     89  S   UNL A   1      48.383  22.901  35.351  1.00  0.00     0.124 S 
ATOM     90  O   UNL A   1      49.148  23.111  34.123  1.00  0.00    -0.237 OA
ATOM     91  O   UNL A   1      48.424  23.994  36.316  1.00  0.00    -0.237 OA
ATOM     92  O   UNL A   1      48.484  21.560  35.921  1.00  0.00    -0.744 OA
ENDBRANCH  85  89
ENDBRANCH  59  82
ENDBRANCH  33  34
ENDBRANCH  25  28
ENDBRANCH  23  24
ENDBRANCH   1  23
TORSDOF 16
ENDMDL
MODEL 2
REMARK VINA RESULT:     -12.8      4.570     10.942
REMARK SMILES Cc1ccccc1N[C@H](C(=O)NCCCNC(=O)c1ccc(-c2c3nc(c(-c4cc(S(=O)(=O)[O-])ccc4F)c4ccc([nH]4)c(-c4cc(S(=O)(=O)[O-])ccc4F)c4nc(c(-c5cc(S(=O)(=O)[O-])ccc5F)c5ccc2[nH]5)C=C4)C=C3)cc1)c1ccccc1
REMARK SMILES IDX 14 1 13 2 12 3 10 4 11 5 9 7 8 8 7 10 1 11 2 12 3 13 4 14
REMARK SMILES IDX 6 15 5 16 82 17 83 18 87 19 84 20 86 21 85 22 15 23 16 24
REMARK SMILES IDX 17 25 18 27 19 28 20 29 81 30 21 31 80 32 22 33 23 34 24 35
REMARK SMILES IDX 74 36 25 37 79 38 73 39 75 40 26 41 78 42 72 43 71 44 27 46
REMARK SMILES IDX 59 47 39 48 58 49 40 50 43 51 57 52 76 53 41 54 42 55 56 57
REMARK SMILES IDX 77 58 44 59 28 60 29 61 37 62 30 63 36 64 38 65 35 66 31 67
REMARK SMILES IDX 32 68 33 69 34 70 60 71 61 72 69 73 62 74 68 75 70 76 67 77
REMARK SMILES IDX 63 78 64 79 65 80 66 81 45 82 46 83 54 84 47 85 53 86 55 87
REMARK SMILES IDX 52 88 48 89 49 90 50 91 51 92
REMARK H PARENT 12 6 8 9 16 26 75 45 43 56
REMARK Flexibility Score: inf
ROOT
ATOM      1  C   UNL A   1      38.363  21.553  25.628  1.00  0.00     0.042 C 
ENDROOT
BRANCH   1   2
ATOM      2  C   UNL A   1      36.877  21.592  25.325  1.00  0.00     0.117 C 
BRANCH   2   3
ATOM      3  N   UNL A   1      36.062  21.728  26.523  1.00  0.00    -0.354 N 
ATOM      4  C   UNL A   1      34.711  21.962  26.592  1.00  0.00     0.247 C 
ATOM      5  O   UNL A   1      34.183  21.984  27.711  1.00  0.00    -0.272 OA
ATOM      6  H   UNL A   1      36.534  21.642  27.384  1.00  0.00     0.163 HD
BRANCH   4   7
ATOM      7  C   UNL A   1      33.892  22.317  25.313  1.00  0.00     0.200 C 
BRANCH   7   8
ATOM      8  N   UNL A   1      33.061  21.118  24.999  1.00  0.00    -0.370 N 
ATOM      9  H   UNL A   1      32.179  21.171  25.430  1.00  0.00     0.161 HD
BRANCH   8  10
ATOM     10  C   UNL A   1      33.195  19.959  24.270  1.00  0.00     0.038 A 
ATOM     11  C   UNL A   1      31.768  20.900  22.341  1.00  0.00     0.046 C 
ATOM     12  C   UNL A   1      32.465  19.778  23.069  1.00  0.00    -0.028 A 
ATOM     13  C   UNL A   1      32.394  18.508  22.451  1.00  0.00     0.005 A 
ATOM     14  C   UNL A   1      33.106  17.428  22.951  1.00  0.00     0.000 A 
ATOM     15  C   UNL A   1      34.005  18.885  24.646  1.00  0.00     0.026 A 
ATOM     16  C   UNL A   1      33.948  17.630  24.028  1.00  0.00     0.002 A 
ENDBRANCH   8  10
ENDBRANCH   7   8
BRANCH   7  17
ATOM     17  C   UNL A   1      33.262  23.705  25.280  1.00  0.00    -0.016 A 
ATOM     18  C   UNL A   1      31.922  23.886  24.905  1.00  0.00     0.006 A 
ATOM     19  C   UNL A   1      33.988  24.853  25.646  1.00  0.00     0.006 A 
ATOM     20  C   UNL A   1      31.270  25.100  25.158  1.00  0.00     0.000 A 
ATOM     21  C   UNL A   1      33.337  26.055  25.916  1.00  0.00     0.000 A 
ATOM     22  C   UNL A   1      31.970  26.166  25.716  1.00  0.00     0.000 A 
ENDBRANCH   7  17
ENDBRANCH   4   7
ENDBRANCH   2   3
ENDBRANCH   1   2
BRANCH   1  23
ATOM     23  C   UNL A   1      38.852  22.913  26.086  1.00  0.00     0.118 C 
BRANCH  23  24
ATOM     24  N   UNL A   1      40.246  22.961  26.518  1.00  0.00    -0.352 N 
ATOM     25  C   UNL A   1      41.012  24.065  26.877  1.00  0.00     0.251 C 
ATOM     26  H   UNL A   1      40.708  22.093  26.560  1.00  0.00     0.163 HD
ATOM     27  O   UNL A   1      42.204  23.957  27.099  1.00  0.00    -0.269 OA
BRANCH  25  28
ATOM     28  C   UNL A   1      40.327  25.366  27.094  1.00  0.00     0.039 A 
ATOM     29  C   UNL A   1      40.764  26.474  26.359  1.00  0.00     0.014 A 
ATOM     30  C   UNL A   1      39.493  25.535  28.191  1.00  0.00     0.014 A 
ATOM     31  C   UNL A   1      40.586  27.751  26.889  1.00  0.00     0.010 A 
ATOM     32  C   UNL A   1      39.468  26.769  28.797  1.00  0.00     0.010 A 
ATOM     33  C   UNL A   1      40.058  27.873  28.171  1.00  0.00    -0.014 A 
BRANCH  33  34
ATOM     34  C   UNL A   1      40.183  29.069  28.996  1.00  0.00     0.031 A 
ATOM     35  C   UNL A   1      39.096  30.073  29.017  1.00  0.00     0.074 A 
ATOM     36  C   UNL A   1      41.231  29.179  29.842  1.00  0.00     0.049 A 
ATOM     37  N   UNL A   1      39.224  31.289  29.423  1.00  0.00    -0.248 NA
ATOM     38  C   UNL A   1      37.753  29.778  28.527  1.00  0.00     0.031 C 
ATOM     39  C   UNL A   1      41.368  30.092  30.973  1.00  0.00     0.029 A 
ATOM     40  N   UNL A   1      42.494  28.597  29.710  1.00  0.00    -0.354 N 
ATOM     41  C   UNL A   1      37.966  31.848  29.500  1.00  0.00     0.074 A 
ATOM     42  C   UNL A   1      37.092  30.877  28.889  1.00  0.00     0.031 C 
ATOM     43  C   UNL A   1      42.667  30.200  31.290  1.00  0.00     0.029 A 
ATOM     44  C   UNL A   1      43.423  29.494  30.268  1.00  0.00     0.049 A 
ATOM     45  H   UNL A   1      42.696  27.724  29.304  1.00  0.00     0.167 HD
ATOM     46  C   UNL A   1      37.790  33.016  30.181  1.00  0.00     0.034 A 
ATOM     47  C   UNL A   1      44.386  30.070  29.492  1.00  0.00     0.034 A 
ATOM     48  C   UNL A   1      39.071  33.553  30.641  1.00  0.00     0.049 A 
ATOM     49  C   UNL A   1      44.270  31.573  29.382  1.00  0.00     0.074 A 
ATOM     50  C   UNL A   1      39.728  33.491  31.859  1.00  0.00     0.029 A 
ATOM     51  N   UNL A   1      40.005  33.999  29.711  1.00  0.00    -0.354 N 
ATOM     52  N   UNL A   1      43.207  32.257  29.705  1.00  0.00    -0.248 NA
ATOM     53  C   UNL A   1      45.348  32.414  28.872  1.00  0.00     0.031 C 
ATOM     54  C   UNL A   1      41.093  33.813  31.634  1.00  0.00     0.029 A 
ATOM     55  C   UNL A   1      41.256  34.110  30.290  1.00  0.00     0.049 A 
ATOM     56  H   UNL A   1      39.803  34.209  28.771  1.00  0.00     0.167 HD
ATOM     57  C   UNL A   1      43.405  33.576  29.389  1.00  0.00     0.074 A 
ATOM     58  C   UNL A   1      44.780  33.630  28.923  1.00  0.00     0.031 C 
ATOM     59  C   UNL A   1      42.413  34.511  29.500  1.00  0.00     0.034 A 
BRANCH  46  60
ATOM     60  C   UNL A   1      36.453  33.510  30.695  1.00  0.00     0.023 A 
ATOM     61  C   UNL A   1      35.597  34.203  29.811  1.00  0.00     0.031 A 
ATOM     62  C   UNL A   1      35.978  33.399  32.016  1.00  0.00     0.131 A 
ATOM     63  C   UNL A   1      34.421  34.832  30.261  1.00  0.00     0.055 A 
ATOM     64  C   UNL A   1      34.841  34.074  32.482  1.00  0.00     0.041 A 
ATOM     65  F   UNL A   1      36.552  32.583  32.908  1.00  0.00    -0.206 F 
ATOM     66  C   UNL A   1      34.061  34.809  31.604  1.00  0.00     0.022 A 
BRANCH  63  67
ATOM     67  S   UNL A   1      33.357  35.676  29.060  1.00  0.00     0.124 S 
ATOM     68  O   UNL A   1      32.622  34.566  28.465  1.00  0.00    -0.237 OA
ATOM     69  O   UNL A   1      32.590  36.580  29.908  1.00  0.00    -0.237 OA
ATOM     70  O   UNL A   1      34.311  36.333  28.166  1.00  0.00    -0.744 OA
ENDBRANCH  63  67
ENDBRANCH  46  60
BRANCH  47  71
ATOM     71  C   UNL A   1      44.896  29.186  28.411  1.00  0.00     0.023 A 
ATOM     72  C   UNL A   1      45.856  28.218  28.754  1.00  0.00     0.031 A 
ATOM     73  C   UNL A   1      44.200  29.029  27.203  1.00  0.00     0.131 A 
ATOM     74  C   UNL A   1      46.011  27.069  27.965  1.00  0.00     0.055 A 
ATOM     75  C   UNL A   1      44.373  27.889  26.406  1.00  0.00     0.041 A 
ATOM     76  F   UNL A   1      43.246  29.901  26.846  1.00  0.00    -0.206 F 
ATOM     77  C   UNL A   1      45.251  26.884  26.807  1.00  0.00     0.022 A 
BRANCH  74  78
ATOM     78  S   UNL A   1      47.053  25.712  28.562  1.00  0.00     0.124 S 
ATOM     79  O   UNL A   1      48.375  26.327  28.591  1.00  0.00    -0.237 OA
ATOM     80  O   UNL A   1      46.473  25.398  29.866  1.00  0.00    -0.237 OA
ATOM     81  O   UNL A   1      46.858  24.676  27.552  1.00  0.00    -0.744 OA
ENDBRANCH  74  78
ENDBRANCH  47  71
BRANCH  59  82
ATOM     82  C   UNL A   1      42.493  35.909  28.931  1.00  0.00     0.023 A 
ATOM     83  C   UNL A   1      43.101  36.974  29.610  1.00  0.00     0.031 A 
ATOM     84  C   UNL A   1      42.016  36.202  27.632  1.00  0.00     0.131 A 
ATOM     85  C   UNL A   1      43.110  38.272  29.074  1.00  0.00     0.055 A 
ATOM     86  C   UNL A   1      42.113  37.473  27.058  1.00  0.00     0.041 A 
ATOM     87  F   UNL A   1      41.441  35.263  26.865  1.00  0.00    -0.206 F 
ATOM     88  C   UNL A   1      42.640  38.527  27.789  1.00  0.00     0.022 A 
BRANCH  85  89
ATOM     89  S   UNL A   1      43.659  39.629  30.140  1.00  0.00     0.124 S 
ATOM     90  O   UNL A   1      43.932  38.930  31.395  1.00  0.00    -0.237 OA
ATOM     91  O   UNL A   1      44.829  40.133  29.430  1.00  0.00    -0.237 OA
ATOM     92  O   UNL A   1      42.510  40.530  30.171  1.00  0.00    -0.744 OA
ENDBRANCH  85  89
ENDBRANCH  59  82
ENDBRANCH  33  34
ENDBRANCH  25  28
ENDBRANCH  23  24
ENDBRANCH   1  23
TORSDOF 16
ENDMDL
MODEL 3
REMARK VINA RESULT:     -12.6      4.400     10.597
REMARK SMILES Cc1ccccc1N[C@H](C(=O)NCCCNC(=O)c1ccc(-c2c3nc(c(-c4cc(S(=O)(=O)[O-])ccc4F)c4ccc([nH]4)c(-c4cc(S(=O)(=O)[O-])ccc4F)c4nc(c(-c5cc(S(=O)(=O)[O-])ccc5F)c5ccc2[nH]5)C=C4)C=C3)cc1)c1ccccc1
REMARK SMILES IDX 14 1 13 2 12 3 10 4 11 5 9 7 8 8 7 10 1 11 2 12 3 13 4 14
REMARK SMILES IDX 6 15 5 16 82 17 83 18 87 19 84 20 86 21 85 22 15 23 16 24
REMARK SMILES IDX 17 25 18 27 19 28 20 29 81 30 21 31 80 32 22 33 23 34 24 35
REMARK SMILES IDX 74 36 25 37 79 38 73 39 75 40 26 41 78 42 72 43 71 44 27 46
REMARK SMILES IDX 59 47 39 48 58 49 40 50 43 51 57 52 76 53 41 54 42 55 56 57
REMARK SMILES IDX 77 58 44 59 28 60 29 61 37 62 30 63 36 64 38 65 35 66 31 67
REMARK SMILES IDX 32 68 33 69 34 70 60 71 61 72 69 73 62 74 68 75 70 76 67 77
REMARK SMILES IDX 63 78 64 79 65 80 66 81 45 82 46 83 54 84 47 85 53 86 55 87
REMARK SMILES IDX 52 88 48 89 49 90 50 91 51 92
REMARK H PARENT 12 6 8 9 16 26 75 45 43 56
REMARK Flexibility Score: inf
ROOT
ATOM      1  C   UNL A   1      38.501  21.523  25.749  1.00  0.00     0.042 C 
ENDROOT
BRANCH   1   2
ATOM      2  C   UNL A   1      37.030  21.531  25.379  1.00  0.00     0.117 C 
BRANCH   2   3
ATOM      3  N   UNL A   1      36.775  22.175  24.100  1.00  0.00    -0.354 N 
ATOM      4  C   UNL A   1      35.608  22.762  23.678  1.00  0.00     0.247 C 
ATOM      5  O   UNL A   1      35.604  23.316  22.571  1.00  0.00    -0.272 OA
ATOM      6  H   UNL A   1      37.526  22.191  23.462  1.00  0.00     0.163 HD
BRANCH   4   7
ATOM      7  C   UNL A   1      34.294  22.623  24.508  1.00  0.00     0.200 C 
BRANCH   7   8
ATOM      8  N   UNL A   1      33.576  23.924  24.380  1.00  0.00    -0.370 N 
ATOM      9  H   UNL A   1      33.295  24.089  23.452  1.00  0.00     0.161 HD
BRANCH   8  10
ATOM     10  C   UNL A   1      33.200  24.956  25.209  1.00  0.00     0.038 A 
ATOM     11  C   UNL A   1      31.043  23.732  25.907  1.00  0.00     0.046 C 
ATOM     12  C   UNL A   1      31.926  24.951  25.830  1.00  0.00    -0.028 A 
ATOM     13  C   UNL A   1      31.430  26.111  26.470  1.00  0.00     0.005 A 
ATOM     14  C   UNL A   1      32.207  27.254  26.584  1.00  0.00     0.000 A 
ATOM     15  C   UNL A   1      33.994  26.075  25.479  1.00  0.00     0.026 A 
ATOM     16  C   UNL A   1      33.510  27.219  26.124  1.00  0.00     0.002 A 
ENDBRANCH   8  10
ENDBRANCH   7   8
BRANCH   7  17
ATOM     17  C   UNL A   1      33.528  21.315  24.343  1.00  0.00    -0.016 A 
ATOM     18  C   UNL A   1      32.637  21.125  23.276  1.00  0.00     0.006 A 
ATOM     19  C   UNL A   1      33.700  20.241  25.235  1.00  0.00     0.006 A 
ATOM     20  C   UNL A   1      32.169  19.843  22.960  1.00  0.00     0.000 A 
ATOM     21  C   UNL A   1      33.252  18.963  24.912  1.00  0.00     0.000 A 
ATOM     22  C   UNL A   1      32.525  18.755  23.750  1.00  0.00     0.000 A 
ENDBRANCH   7  17
ENDBRANCH   4   7
ENDBRANCH   2   3
ENDBRANCH   1   2
BRANCH   1  23
ATOM     23  C   UNL A   1      38.964  22.913  26.136  1.00  0.00     0.118 C 
BRANCH  23  24
ATOM     24  N   UNL A   1      40.370  23.020  26.514  1.00  0.00    -0.352 N 
ATOM     25  C   UNL A   1      41.095  24.150  26.878  1.00  0.00     0.251 C 
ATOM     26  H   UNL A   1      40.876  22.175  26.509  1.00  0.00     0.163 HD
ATOM     27  O   UNL A   1      42.299  24.096  27.049  1.00  0.00    -0.269 OA
BRANCH  25  28
ATOM     28  C   UNL A   1      40.354  25.407  27.164  1.00  0.00     0.039 A 
ATOM     29  C   UNL A   1      40.657  26.540  26.400  1.00  0.00     0.014 A 
ATOM     30  C   UNL A   1      39.615  25.524  28.333  1.00  0.00     0.014 A 
ATOM     31  C   UNL A   1      40.450  27.803  26.952  1.00  0.00     0.010 A 
ATOM     32  C   UNL A   1      39.570  26.754  28.947  1.00  0.00     0.010 A 
ATOM     33  C   UNL A   1      40.034  27.892  28.278  1.00  0.00    -0.014 A 
BRANCH  33  34
ATOM     34  C   UNL A   1      40.161  29.093  29.096  1.00  0.00     0.031 A 
ATOM     35  C   UNL A   1      39.084  30.107  29.095  1.00  0.00     0.074 A 
ATOM     36  C   UNL A   1      41.198  29.197  29.955  1.00  0.00     0.049 A 
ATOM     37  N   UNL A   1      39.219  31.326  29.494  1.00  0.00    -0.248 NA
ATOM     38  C   UNL A   1      37.745  29.823  28.590  1.00  0.00     0.031 C 
ATOM     39  C   UNL A   1      41.330  30.117  31.081  1.00  0.00     0.029 A 
ATOM     40  N   UNL A   1      42.457  28.602  29.844  1.00  0.00    -0.354 N 
ATOM     41  C   UNL A   1      37.967  31.898  29.551  1.00  0.00     0.074 A 
ATOM     42  C   UNL A   1      37.090  30.932  28.936  1.00  0.00     0.031 C 
ATOM     43  C   UNL A   1      42.626  30.214  31.415  1.00  0.00     0.029 A 
ATOM     44  C   UNL A   1      43.388  29.492  30.409  1.00  0.00     0.049 A 
ATOM     45  H   UNL A   1      42.655  27.723  29.447  1.00  0.00     0.167 HD
ATOM     46  C   UNL A   1      37.794  33.072  30.222  1.00  0.00     0.034 A 
ATOM     47  C   UNL A   1      44.366  30.053  29.641  1.00  0.00     0.034 A 
ATOM     48  C   UNL A   1      39.074  33.599  30.695  1.00  0.00     0.049 A 
ATOM     49  C   UNL A   1      44.268  31.556  29.519  1.00  0.00     0.074 A 
ATOM     50  C   UNL A   1      39.715  33.539  31.922  1.00  0.00     0.029 A 
ATOM     51  N   UNL A   1      40.025  34.029  29.775  1.00  0.00    -0.354 N 
ATOM     52  N   UNL A   1      43.208  32.254  29.823  1.00  0.00    -0.248 NA
ATOM     53  C   UNL A   1      45.361  32.382  29.018  1.00  0.00     0.031 C 
ATOM     54  C   UNL A   1      41.085  33.845  31.712  1.00  0.00     0.029 A 
ATOM     55  C   UNL A   1      41.269  34.131  30.369  1.00  0.00     0.049 A 
ATOM     56  H   UNL A   1      39.837  34.234  28.830  1.00  0.00     0.167 HD
ATOM     57  C   UNL A   1      43.424  33.569  29.501  1.00  0.00     0.074 A 
ATOM     58  C   UNL A   1      44.806  33.604  29.052  1.00  0.00     0.031 C 
ATOM     59  C   UNL A   1      42.440  34.514  29.592  1.00  0.00     0.034 A 
BRANCH  46  60
ATOM     60  C   UNL A   1      36.455  33.584  30.714  1.00  0.00     0.023 A 
ATOM     61  C   UNL A   1      35.564  34.165  29.786  1.00  0.00     0.031 A 
ATOM     62  C   UNL A   1      36.011  33.595  32.051  1.00  0.00     0.131 A 
ATOM     63  C   UNL A   1      34.381  34.807  30.198  1.00  0.00     0.055 A 
ATOM     64  C   UNL A   1      34.866  34.287  32.472  1.00  0.00     0.041 A 
ATOM     65  F   UNL A   1      36.623  32.887  33.006  1.00  0.00    -0.206 F 
ATOM     66  C   UNL A   1      34.049  34.911  31.544  1.00  0.00     0.022 A 
BRANCH  63  67
ATOM     67  S   UNL A   1      33.271  35.501  28.942  1.00  0.00     0.124 S 
ATOM     68  O   UNL A   1      34.180  36.313  28.142  1.00  0.00    -0.237 OA
ATOM     69  O   UNL A   1      32.740  34.302  28.304  1.00  0.00    -0.237 OA
ATOM     70  O   UNL A   1      32.300  36.258  29.731  1.00  0.00    -0.744 OA
ENDBRANCH  63  67
ENDBRANCH  46  60
BRANCH  47  71
ATOM     71  C   UNL A   1      44.881  29.156  28.573  1.00  0.00     0.023 A 
ATOM     72  C   UNL A   1      45.779  28.140  28.946  1.00  0.00     0.031 A 
ATOM     73  C   UNL A   1      44.233  29.043  27.334  1.00  0.00     0.131 A 
ATOM     74  C   UNL A   1      45.914  26.993  28.151  1.00  0.00     0.055 A 
ATOM     75  C   UNL A   1      44.387  27.905  26.533  1.00  0.00     0.041 A 
ATOM     76  F   UNL A   1      43.338  29.964  26.946  1.00  0.00    -0.206 F 
ATOM     77  C   UNL A   1      45.198  26.855  26.960  1.00  0.00     0.022 A 
BRANCH  74  78
ATOM     78  S   UNL A   1      46.864  25.581  28.778  1.00  0.00     0.124 S 
ATOM     79  O   UNL A   1      45.862  24.522  28.805  1.00  0.00    -0.237 OA
ATOM     80  O   UNL A   1      47.920  25.425  27.781  1.00  0.00    -0.237 OA
ATOM     81  O   UNL A   1      47.329  26.048  30.081  1.00  0.00    -0.744 OA
ENDBRANCH  74  78
ENDBRANCH  47  71
BRANCH  59  82
ATOM     82  C   UNL A   1      42.543  35.907  29.014  1.00  0.00     0.023 A 
ATOM     83  C   UNL A   1      43.327  36.915  29.591  1.00  0.00     0.031 A 
ATOM     84  C   UNL A   1      41.900  36.248  27.801  1.00  0.00     0.131 A 
ATOM     85  C   UNL A   1      43.357  38.213  29.057  1.00  0.00     0.055 A 
ATOM     86  C   UNL A   1      42.009  37.514  27.216  1.00  0.00     0.041 A 
ATOM     87  F   UNL A   1      41.145  35.364  27.131  1.00  0.00    -0.206 F 
ATOM     88  C   UNL A   1      42.720  38.516  27.858  1.00  0.00     0.022 A 
BRANCH  85  89
ATOM     89  S   UNL A   1      44.164  39.513  30.026  1.00  0.00     0.124 S 
ATOM     90  O   UNL A   1      43.859  40.707  29.238  1.00  0.00    -0.237 OA
ATOM     91  O   UNL A   1      43.484  39.415  31.313  1.00  0.00    -0.237 OA
ATOM     92  O   UNL A   1      45.570  39.118  30.031  1.00  0.00    -0.744 OA
ENDBRANCH  85  89
ENDBRANCH  59  82
ENDBRANCH  33  34
ENDBRANCH  25  28
ENDBRANCH  23  24
ENDBRANCH   1  23
TORSDOF 16
ENDMDL
