MODEL 1
REMARK VINA RESULT:     -11.5      0.000      0.000
REMARK SMILES C[C@@H]1CN([C@@H](CCS(C)(=O)=O)C(=O)NCCCNC(=O)c2ccc(-c3c4nc(c(-c5cc(S(=O)(=O)[O-])ccc5F)c5ccc([nH]5)c(-c5cc(S(=O)(=O)[O-])ccc5F)c5nc(c(-c6cc(S(=O)(=O)[O-])ccc6F)c6ccc3[nH]6)C=C5)C=C4)cc2)S(=O)(=O)C1
REMARK SMILES IDX 16 1 15 2 14 3 12 4 13 5 5 7 4 8 1 9 2 10 3 11 87 12 84 13
REMARK SMILES IDX 85 14 86 15 6 16 7 17 8 18 9 19 10 20 11 21 17 22 18 23
REMARK SMILES IDX 19 24 20 26 21 27 22 28 83 29 23 30 82 31 24 32 25 33 26 34
REMARK SMILES IDX 76 35 27 36 81 37 75 38 77 39 28 40 80 41 74 42 73 43 29 45
REMARK SMILES IDX 61 46 41 47 60 48 42 49 45 50 59 51 78 52 43 53 44 54 58 56
REMARK SMILES IDX 79 57 46 58 30 59 31 60 39 61 32 62 38 63 40 64 37 65 33 66
REMARK SMILES IDX 34 67 35 68 36 69 62 70 63 71 71 72 64 73 70 74 72 75 69 76
REMARK SMILES IDX 65 77 66 78 67 79 68 80 47 81 48 82 56 83 49 84 55 85 57 86
REMARK SMILES IDX 54 87 50 88 51 89 52 90 53 91
REMARK H PARENT 14 6 18 25 77 44 45 55
REMARK Flexibility Score: inf
ROOT
ATOM      1  C   UNL A   1      32.757  28.976  25.421  1.00  0.00     0.042 C 
ENDROOT
BRANCH   1   2
ATOM      2  C   UNL A   1      32.722  27.468  25.482  1.00  0.00     0.117 C 
BRANCH   2   3
ATOM      3  N   UNL A   1      31.441  26.961  25.906  1.00  0.00    -0.355 N 
ATOM      4  C   UNL A   1      30.893  25.739  25.726  1.00  0.00     0.238 C 
ATOM      5  O   UNL A   1      29.856  25.491  26.356  1.00  0.00    -0.273 OA
ATOM      6  H   UNL A   1      30.880  27.602  26.400  1.00  0.00     0.163 HD
BRANCH   4   7
ATOM      7  C   UNL A   1      31.539  24.634  24.898  1.00  0.00     0.163 C 
BRANCH   7   8
ATOM      8  N   UNL A   1      31.819  23.230  25.350  1.00  0.00    -0.189 NA
ATOM      9  C   UNL A   1      32.633  19.739  24.113  1.00  0.00     0.010 C 
ATOM     10  C   UNL A   1      32.253  20.921  24.985  1.00  0.00     0.017 C 
ATOM     11  C   UNL A   1      32.061  22.251  24.244  1.00  0.00     0.107 C 
ATOM     12  C   UNL A   1      33.319  21.212  26.030  1.00  0.00     0.159 C 
ATOM     13  S   UNL A   1      32.968  22.869  26.573  1.00  0.00     0.215 S 
ATOM     14  O   UNL A   1      34.148  23.672  26.348  1.00  0.00    -0.212 OA
ATOM     15  O   UNL A   1      32.269  22.773  27.827  1.00  0.00    -0.212 OA
ENDBRANCH   7   8
BRANCH   7  16
ATOM     16  C   UNL A   1      31.063  24.658  23.412  1.00  0.00     0.046 C 
BRANCH  16  17
ATOM     17  C   UNL A   1      31.441  25.838  22.517  1.00  0.00     0.139 C 
BRANCH  17  18
ATOM     18  S   UNL A   1      33.118  25.810  21.855  1.00  0.00     0.147 S 
ATOM     19  C   UNL A   1      33.746  27.449  22.054  1.00  0.00     0.158 C 
ATOM     20  O   UNL A   1      33.906  24.949  22.715  1.00  0.00    -0.229 OA
ATOM     21  O   UNL A   1      33.089  25.596  20.424  1.00  0.00    -0.229 OA
ENDBRANCH  17  18
ENDBRANCH  16  17
ENDBRANCH   7  16
ENDBRANCH   4   7
ENDBRANCH   2   3
ENDBRANCH   1   2
BRANCH   1  22
ATOM     22  C   UNL A   1      32.268  29.536  26.739  1.00  0.00     0.118 C 
BRANCH  22  23
ATOM     23  N   UNL A   1      32.231  31.006  26.729  1.00  0.00    -0.352 N 
ATOM     24  C   UNL A   1      33.090  31.925  27.282  1.00  0.00     0.251 C 
ATOM     25  H   UNL A   1      31.466  31.396  26.248  1.00  0.00     0.163 HD
ATOM     26  O   UNL A   1      32.764  33.103  27.381  1.00  0.00    -0.269 OA
BRANCH  24  27
ATOM     27  C   UNL A   1      34.398  31.466  27.780  1.00  0.00     0.039 A 
ATOM     28  C   UNL A   1      35.438  32.375  27.965  1.00  0.00     0.014 A 
ATOM     29  C   UNL A   1      34.560  30.129  28.129  1.00  0.00     0.014 A 
ATOM     30  C   UNL A   1      36.607  31.947  28.593  1.00  0.00     0.010 A 
ATOM     31  C   UNL A   1      35.622  29.764  28.930  1.00  0.00     0.010 A 
ATOM     32  C   UNL A   1      36.682  30.652  29.135  1.00  0.00    -0.014 A 
BRANCH  32  33
ATOM     33  C   UNL A   1      37.875  30.170  29.870  1.00  0.00     0.031 A 
ATOM     34  C   UNL A   1      38.127  30.666  31.271  1.00  0.00     0.074 A 
ATOM     35  C   UNL A   1      38.765  29.369  29.255  1.00  0.00     0.049 A 
ATOM     36  N   UNL A   1      39.161  30.469  32.047  1.00  0.00    -0.248 NA
ATOM     37  C   UNL A   1      37.108  31.558  31.851  1.00  0.00     0.031 C 
ATOM     38  C   UNL A   1      38.664  28.894  27.872  1.00  0.00     0.029 A 
ATOM     39  N   UNL A   1      39.934  28.818  29.708  1.00  0.00    -0.354 N 
ATOM     40  C   UNL A   1      38.924  31.234  33.185  1.00  0.00     0.074 A 
ATOM     41  C   UNL A   1      37.715  31.986  32.944  1.00  0.00     0.031 C 
ATOM     42  C   UNL A   1      39.702  28.086  27.607  1.00  0.00     0.029 A 
ATOM     43  C   UNL A   1      40.575  28.037  28.775  1.00  0.00     0.049 A 
ATOM     44  H   UNL A   1      40.283  28.967  30.617  1.00  0.00     0.167 HD
ATOM     45  C   UNL A   1      39.624  31.270  34.345  1.00  0.00     0.034 A 
ATOM     46  C   UNL A   1      41.742  27.370  28.848  1.00  0.00     0.034 A 
ATOM     47  C   UNL A   1      40.815  30.492  34.564  1.00  0.00     0.049 A 
ATOM     48  C   UNL A   1      42.516  27.422  30.139  1.00  0.00     0.074 A 
ATOM     49  C   UNL A   1      41.580  30.385  35.710  1.00  0.00     0.029 A 
ATOM     50  N   UNL A   1      41.424  29.690  33.603  1.00  0.00    -0.354 N 
ATOM     51  N   UNL A   1      42.245  28.089  31.238  1.00  0.00    -0.248 NA
ATOM     52  C   UNL A   1      43.743  26.622  30.206  1.00  0.00     0.031 C 
ATOM     53  C   UNL A   1      42.693  29.591  35.417  1.00  0.00     0.029 A 
ATOM     54  C   UNL A   1      42.576  29.120  34.118  1.00  0.00     0.049 A 
ATOM     55  H   UNL A   1      41.085  29.550  32.688  1.00  0.00     0.167 HD
ATOM     56  C   UNL A   1      43.258  27.772  32.137  1.00  0.00     0.074 A 
ATOM     57  C   UNL A   1      44.133  26.838  31.454  1.00  0.00     0.031 C 
ATOM     58  C   UNL A   1      43.447  28.205  33.411  1.00  0.00     0.034 A 
BRANCH  45  59
ATOM     59  C   UNL A   1      39.116  32.197  35.430  1.00  0.00     0.023 A 
ATOM     60  C   UNL A   1      39.490  33.553  35.479  1.00  0.00     0.031 A 
ATOM     61  C   UNL A   1      38.318  31.704  36.475  1.00  0.00     0.131 A 
ATOM     62  C   UNL A   1      39.175  34.329  36.605  1.00  0.00     0.055 A 
ATOM     63  C   UNL A   1      37.913  32.514  37.539  1.00  0.00     0.041 A 
ATOM     64  F   UNL A   1      37.943  30.415  36.502  1.00  0.00    -0.206 F 
ATOM     65  C   UNL A   1      38.363  33.828  37.623  1.00  0.00     0.022 A 
BRANCH  62  66
ATOM     66  S   UNL A   1      40.019  35.923  36.818  1.00  0.00     0.124 S 
ATOM     67  O   UNL A   1      39.838  36.530  35.501  1.00  0.00    -0.237 OA
ATOM     68  O   UNL A   1      39.271  36.533  37.911  1.00  0.00    -0.237 OA
ATOM     69  O   UNL A   1      41.394  35.543  37.134  1.00  0.00    -0.744 OA
ENDBRANCH  62  66
ENDBRANCH  45  59
BRANCH  46  70
ATOM     70  C   UNL A   1      42.244  26.617  27.663  1.00  0.00     0.023 A 
ATOM     71  C   UNL A   1      41.944  25.259  27.474  1.00  0.00     0.031 A 
ATOM     72  C   UNL A   1      43.030  27.261  26.688  1.00  0.00     0.131 A 
ATOM     73  C   UNL A   1      42.450  24.582  26.352  1.00  0.00     0.055 A 
ATOM     74  C   UNL A   1      43.484  26.597  25.549  1.00  0.00     0.041 A 
ATOM     75  F   UNL A   1      43.341  28.560  26.817  1.00  0.00    -0.206 F 
ATOM     76  C   UNL A   1      43.201  25.246  25.381  1.00  0.00     0.022 A 
BRANCH  73  77
ATOM     77  S   UNL A   1      42.161  22.796  26.206  1.00  0.00     0.124 S 
ATOM     78  O   UNL A   1      40.705  22.725  26.252  1.00  0.00    -0.237 OA
ATOM     79  O   UNL A   1      42.780  22.491  24.921  1.00  0.00    -0.237 OA
ATOM     80  O   UNL A   1      42.849  22.244  27.372  1.00  0.00    -0.744 OA
ENDBRANCH  73  77
ENDBRANCH  46  70
BRANCH  58  81
ATOM     81  C   UNL A   1      44.629  27.640  34.161  1.00  0.00     0.023 A 
ATOM     82  C   UNL A   1      44.553  26.419  34.852  1.00  0.00     0.031 A 
ATOM     83  C   UNL A   1      45.850  28.337  34.182  1.00  0.00     0.131 A 
ATOM     84  C   UNL A   1      45.660  25.961  35.584  1.00  0.00     0.055 A 
ATOM     85  C   UNL A   1      46.970  27.841  34.849  1.00  0.00     0.041 A 
ATOM     86  F   UNL A   1      45.978  29.513  33.544  1.00  0.00    -0.206 F 
ATOM     87  C   UNL A   1      46.873  26.654  35.567  1.00  0.00     0.022 A 
BRANCH  84  88
ATOM     88  S   UNL A   1      45.458  24.507  36.647  1.00  0.00     0.124 S 
ATOM     89  O   UNL A   1      44.748  23.585  35.766  1.00  0.00    -0.237 OA
ATOM     90  O   UNL A   1      46.839  24.153  36.960  1.00  0.00    -0.237 OA
ATOM     91  O   UNL A   1      44.677  25.013  37.774  1.00  0.00    -0.744 OA
ENDBRANCH  84  88
ENDBRANCH  58  81
ENDBRANCH  32  33
ENDBRANCH  24  27
ENDBRANCH  22  23
ENDBRANCH   1  22
TORSDOF 17
ENDMDL
MODEL 2
REMARK VINA RESULT:     -11.5      4.905     10.117
REMARK SMILES C[C@@H]1CN([C@@H](CCS(C)(=O)=O)C(=O)NCCCNC(=O)c2ccc(-c3c4nc(c(-c5cc(S(=O)(=O)[O-])ccc5F)c5ccc([nH]5)c(-c5cc(S(=O)(=O)[O-])ccc5F)c5nc(c(-c6cc(S(=O)(=O)[O-])ccc6F)c6ccc3[nH]6)C=C5)C=C4)cc2)S(=O)(=O)C1
REMARK SMILES IDX 16 1 15 2 14 3 12 4 13 5 5 7 4 8 1 9 2 10 3 11 87 12 84 13
REMARK SMILES IDX 85 14 86 15 6 16 7 17 8 18 9 19 10 20 11 21 17 22 18 23
REMARK SMILES IDX 19 24 20 26 21 27 22 28 83 29 23 30 82 31 24 32 25 33 26 34
REMARK SMILES IDX 76 35 27 36 81 37 75 38 77 39 28 40 80 41 74 42 73 43 29 45
REMARK SMILES IDX 61 46 41 47 60 48 42 49 45 50 59 51 78 52 43 53 44 54 58 56
REMARK SMILES IDX 79 57 46 58 30 59 31 60 39 61 32 62 38 63 40 64 37 65 33 66
REMARK SMILES IDX 34 67 35 68 36 69 62 70 63 71 71 72 64 73 70 74 72 75 69 76
REMARK SMILES IDX 65 77 66 78 67 79 68 80 47 81 48 82 56 83 49 84 55 85 57 86
REMARK SMILES IDX 54 87 50 88 51 89 52 90 53 91
REMARK H PARENT 14 6 18 25 77 44 45 55
REMARK Flexibility Score: inf
ROOT
ATOM      1  C   UNL A   1      36.843  21.848  24.280  1.00  0.00     0.042 C 
ENDROOT
BRANCH   1   2
ATOM      2  C   UNL A   1      36.376  23.173  23.728  1.00  0.00     0.117 C 
BRANCH   2   3
ATOM      3  N   UNL A   1      35.115  23.073  23.037  1.00  0.00    -0.355 N 
ATOM      4  C   UNL A   1      33.857  23.077  23.529  1.00  0.00     0.238 C 
ATOM      5  O   UNL A   1      32.934  23.172  22.708  1.00  0.00    -0.273 OA
ATOM      6  H   UNL A   1      35.182  22.987  22.058  1.00  0.00     0.163 HD
BRANCH   4   7
ATOM      7  C   UNL A   1      33.528  23.090  25.018  1.00  0.00     0.163 C 
BRANCH   7   8
ATOM      8  N   UNL A   1      32.994  24.254  25.802  1.00  0.00    -0.189 NA
ATOM      9  C   UNL A   1      33.267  28.010  26.242  1.00  0.00     0.010 C 
ATOM     10  C   UNL A   1      32.924  26.545  26.434  1.00  0.00     0.017 C 
ATOM     11  C   UNL A   1      33.602  25.576  25.454  1.00  0.00     0.107 C 
ATOM     12  C   UNL A   1      31.435  26.289  26.260  1.00  0.00     0.159 C 
ATOM     13  S   UNL A   1      31.313  24.534  26.002  1.00  0.00     0.215 S 
ATOM     14  O   UNL A   1      30.654  24.314  24.736  1.00  0.00    -0.212 OA
ATOM     15  O   UNL A   1      30.908  23.942  27.250  1.00  0.00    -0.212 OA
ENDBRANCH   7   8
BRANCH   7  16
ATOM     16  C   UNL A   1      32.877  21.752  25.488  1.00  0.00     0.046 C 
BRANCH  16  17
ATOM     17  C   UNL A   1      33.741  20.501  25.631  1.00  0.00     0.139 C 
BRANCH  17  18
ATOM     18  S   UNL A   1      33.205  19.068  24.678  1.00  0.00     0.147 S 
ATOM     19  C   UNL A   1      32.425  19.712  23.230  1.00  0.00     0.158 C 
ATOM     20  O   UNL A   1      34.399  18.371  24.240  1.00  0.00    -0.229 OA
ATOM     21  O   UNL A   1      32.155  18.362  25.381  1.00  0.00    -0.229 OA
ENDBRANCH  17  18
ENDBRANCH  16  17
ENDBRANCH   7  16
ENDBRANCH   4   7
ENDBRANCH   2   3
ENDBRANCH   1   2
BRANCH   1  22
ATOM     22  C   UNL A   1      37.387  22.058  25.676  1.00  0.00     0.118 C 
BRANCH  22  23
ATOM     23  N   UNL A   1      38.478  21.122  25.984  1.00  0.00    -0.352 N 
ATOM     24  C   UNL A   1      39.751  21.356  26.447  1.00  0.00     0.251 C 
ATOM     25  H   UNL A   1      38.262  20.174  25.835  1.00  0.00     0.163 HD
ATOM     26  O   UNL A   1      40.600  20.472  26.410  1.00  0.00    -0.269 OA
BRANCH  24  27
ATOM     27  C   UNL A   1      40.087  22.695  26.960  1.00  0.00     0.039 A 
ATOM     28  C   UNL A   1      40.992  22.838  28.010  1.00  0.00     0.014 A 
ATOM     29  C   UNL A   1      39.544  23.816  26.339  1.00  0.00     0.014 A 
ATOM     30  C   UNL A   1      41.419  24.118  28.365  1.00  0.00     0.010 A 
ATOM     31  C   UNL A   1      40.122  25.050  26.549  1.00  0.00     0.010 A 
ATOM     32  C   UNL A   1      41.032  25.228  27.595  1.00  0.00    -0.014 A 
BRANCH  32  33
ATOM     33  C   UNL A   1      41.512  26.600  27.888  1.00  0.00     0.031 A 
ATOM     34  C   UNL A   1      42.919  26.984  27.512  1.00  0.00     0.074 A 
ATOM     35  C   UNL A   1      40.722  27.457  28.564  1.00  0.00     0.049 A 
ATOM     36  N   UNL A   1      43.579  28.082  27.779  1.00  0.00    -0.248 NA
ATOM     37  C   UNL A   1      43.714  25.972  26.797  1.00  0.00     0.031 C 
ATOM     38  C   UNL A   1      39.372  27.162  29.049  1.00  0.00     0.029 A 
ATOM     39  N   UNL A   1      40.943  28.748  28.964  1.00  0.00    -0.354 N 
ATOM     40  C   UNL A   1      44.865  27.872  27.290  1.00  0.00     0.074 A 
ATOM     41  C   UNL A   1      44.922  26.507  26.824  1.00  0.00     0.031 C 
ATOM     42  C   UNL A   1      38.868  28.256  29.641  1.00  0.00     0.029 A 
ATOM     43  C   UNL A   1      39.881  29.307  29.635  1.00  0.00     0.049 A 
ATOM     44  H   UNL A   1      41.783  29.230  28.789  1.00  0.00     0.167 HD
ATOM     45  C   UNL A   1      45.890  28.753  27.193  1.00  0.00     0.034 A 
ATOM     46  C   UNL A   1      39.745  30.524  30.195  1.00  0.00     0.034 A 
ATOM     47  C   UNL A   1      45.796  30.116  27.649  1.00  0.00     0.049 A 
ATOM     48  C   UNL A   1      40.893  31.493  30.089  1.00  0.00     0.074 A 
ATOM     49  C   UNL A   1      46.733  31.126  27.551  1.00  0.00     0.029 A 
ATOM     50  N   UNL A   1      44.693  30.657  28.302  1.00  0.00    -0.354 N 
ATOM     51  N   UNL A   1      42.080  31.310  29.557  1.00  0.00    -0.248 NA
ATOM     52  C   UNL A   1      40.679  32.833  30.644  1.00  0.00     0.031 C 
ATOM     53  C   UNL A   1      46.234  32.249  28.219  1.00  0.00     0.029 A 
ATOM     54  C   UNL A   1      44.944  31.974  28.649  1.00  0.00     0.049 A 
ATOM     55  H   UNL A   1      43.856  30.174  28.492  1.00  0.00     0.167 HD
ATOM     56  C   UNL A   1      42.750  32.522  29.694  1.00  0.00     0.074 A 
ATOM     57  C   UNL A   1      41.822  33.431  30.342  1.00  0.00     0.031 C 
ATOM     58  C   UNL A   1      44.011  32.858  29.315  1.00  0.00     0.034 A 
BRANCH  45  59
ATOM     59  C   UNL A   1      47.185  28.242  26.597  1.00  0.00     0.023 A 
ATOM     60  C   UNL A   1      47.421  28.267  25.210  1.00  0.00     0.031 A 
ATOM     61  C   UNL A   1      48.160  27.643  27.412  1.00  0.00     0.131 A 
ATOM     62  C   UNL A   1      48.533  27.599  24.673  1.00  0.00     0.055 A 
ATOM     63  C   UNL A   1      49.321  27.078  26.880  1.00  0.00     0.041 A 
ATOM     64  F   UNL A   1      47.988  27.565  28.741  1.00  0.00    -0.206 F 
ATOM     65  C   UNL A   1      49.501  27.030  25.501  1.00  0.00     0.022 A 
BRANCH  62  66
ATOM     66  S   UNL A   1      48.579  27.302  22.883  1.00  0.00     0.124 S 
ATOM     67  O   UNL A   1      48.285  25.872  22.814  1.00  0.00    -0.237 OA
ATOM     68  O   UNL A   1      47.535  28.192  22.387  1.00  0.00    -0.237 OA
ATOM     69  O   UNL A   1      49.943  27.667  22.509  1.00  0.00    -0.744 OA
ENDBRANCH  62  66
ENDBRANCH  45  59
BRANCH  46  70
ATOM     70  C   UNL A   1      38.485  30.876  30.911  1.00  0.00     0.023 A 
ATOM     71  C   UNL A   1      37.430  31.535  30.260  1.00  0.00     0.031 A 
ATOM     72  C   UNL A   1      38.317  30.543  32.268  1.00  0.00     0.131 A 
ATOM     73  C   UNL A   1      36.266  31.864  30.974  1.00  0.00     0.055 A 
ATOM     74  C   UNL A   1      37.137  30.824  32.957  1.00  0.00     0.041 A 
ATOM     75  F   UNL A   1      39.292  29.907  32.936  1.00  0.00    -0.206 F 
ATOM     76  C   UNL A   1      36.106  31.497  32.312  1.00  0.00     0.022 A 
BRANCH  73  77
ATOM     77  S   UNL A   1      34.978  32.837  30.144  1.00  0.00     0.124 S 
ATOM     78  O   UNL A   1      34.545  31.923  29.093  1.00  0.00    -0.237 OA
ATOM     79  O   UNL A   1      34.026  33.069  31.226  1.00  0.00    -0.237 OA
ATOM     80  O   UNL A   1      35.694  34.025  29.683  1.00  0.00    -0.744 OA
ENDBRANCH  73  77
ENDBRANCH  46  70
BRANCH  58  81
ATOM     81  C   UNL A   1      44.445  34.283  29.559  1.00  0.00     0.023 A 
ATOM     82  C   UNL A   1      44.349  35.268  28.562  1.00  0.00     0.031 A 
ATOM     83  C   UNL A   1      44.963  34.658  30.812  1.00  0.00     0.131 A 
ATOM     84  C   UNL A   1      44.819  36.566  28.816  1.00  0.00     0.055 A 
ATOM     85  C   UNL A   1      45.360  35.967  31.083  1.00  0.00     0.041 A 
ATOM     86  F   UNL A   1      45.084  33.755  31.800  1.00  0.00    -0.206 F 
ATOM     87  C   UNL A   1      45.303  36.926  30.077  1.00  0.00     0.022 A 
BRANCH  84  88
ATOM     88  S   UNL A   1      44.894  37.748  27.444  1.00  0.00     0.124 S 
ATOM     89  O   UNL A   1      43.493  37.828  27.039  1.00  0.00    -0.237 OA
ATOM     90  O   UNL A   1      45.441  38.939  28.085  1.00  0.00    -0.237 OA
ATOM     91  O   UNL A   1      45.781  37.099  26.481  1.00  0.00    -0.744 OA
ENDBRANCH  84  88
ENDBRANCH  58  81
ENDBRANCH  32  33
ENDBRANCH  24  27
ENDBRANCH  22  23
ENDBRANCH   1  22
TORSDOF 17
ENDMDL
MODEL 3
REMARK VINA RESULT:     -11.5      2.885      8.266
REMARK SMILES C[C@@H]1CN([C@@H](CCS(C)(=O)=O)C(=O)NCCCNC(=O)c2ccc(-c3c4nc(c(-c5cc(S(=O)(=O)[O-])ccc5F)c5ccc([nH]5)c(-c5cc(S(=O)(=O)[O-])ccc5F)c5nc(c(-c6cc(S(=O)(=O)[O-])ccc6F)c6ccc3[nH]6)C=C5)C=C4)cc2)S(=O)(=O)C1
REMARK SMILES IDX 16 1 15 2 14 3 12 4 13 5 5 7 4 8 1 9 2 10 3 11 87 12 84 13
REMARK SMILES IDX 85 14 86 15 6 16 7 17 8 18 9 19 10 20 11 21 17 22 18 23
REMARK SMILES IDX 19 24 20 26 21 27 22 28 83 29 23 30 82 31 24 32 25 33 26 34
REMARK SMILES IDX 76 35 27 36 81 37 75 38 77 39 28 40 80 41 74 42 73 43 29 45
REMARK SMILES IDX 61 46 41 47 60 48 42 49 45 50 59 51 78 52 43 53 44 54 58 56
REMARK SMILES IDX 79 57 46 58 30 59 31 60 39 61 32 62 38 63 40 64 37 65 33 66
REMARK SMILES IDX 34 67 35 68 36 69 62 70 63 71 71 72 64 73 70 74 72 75 69 76
REMARK SMILES IDX 65 77 66 78 67 79 68 80 47 81 48 82 56 83 49 84 55 85 57 86
REMARK SMILES IDX 54 87 50 88 51 89 52 90 53 91
REMARK H PARENT 14 6 18 25 77 44 45 55
REMARK Flexibility Score: inf
ROOT
ATOM      1  C   UNL A   1      31.979  31.407  26.706  1.00  0.00     0.042 C 
ENDROOT
BRANCH   1   2
ATOM      2  C   UNL A   1      32.369  29.967  26.482  1.00  0.00     0.117 C 
BRANCH   2   3
ATOM      3  N   UNL A   1      33.162  29.786  25.293  1.00  0.00    -0.355 N 
ATOM      4  C   UNL A   1      32.853  29.163  24.134  1.00  0.00     0.238 C 
ATOM      5  O   UNL A   1      33.640  29.314  23.189  1.00  0.00    -0.273 OA
ATOM      6  H   UNL A   1      34.066  30.175  25.330  1.00  0.00     0.163 HD
BRANCH   4   7
ATOM      7  C   UNL A   1      31.552  28.402  23.901  1.00  0.00     0.163 C 
BRANCH   7   8
ATOM      8  N   UNL A   1      31.210  27.040  24.431  1.00  0.00    -0.189 NA
ATOM      9  C   UNL A   1      30.787  23.406  23.436  1.00  0.00     0.010 C 
ATOM     10  C   UNL A   1      30.773  24.713  24.204  1.00  0.00     0.017 C 
ATOM     11  C   UNL A   1      31.208  25.950  23.404  1.00  0.00     0.107 C 
ATOM     12  C   UNL A   1      31.718  24.674  25.396  1.00  0.00     0.159 C 
ATOM     13  S   UNL A   1      31.957  26.382  25.829  1.00  0.00     0.215 S 
ATOM     14  O   UNL A   1      33.373  26.663  25.772  1.00  0.00    -0.212 OA
ATOM     15  O   UNL A   1      31.111  26.662  26.960  1.00  0.00    -0.212 OA
ENDBRANCH   7   8
BRANCH   7  16
ATOM     16  C   UNL A   1      30.307  29.343  23.931  1.00  0.00     0.046 C 
BRANCH  16  17
ATOM     17  C   UNL A   1      29.720  29.860  22.619  1.00  0.00     0.139 C 
BRANCH  17  18
ATOM     18  S   UNL A   1      28.387  31.063  22.780  1.00  0.00     0.147 S 
ATOM     19  C   UNL A   1      28.087  31.677  21.152  1.00  0.00     0.158 C 
ATOM     20  O   UNL A   1      27.198  30.335  23.182  1.00  0.00    -0.229 OA
ATOM     21  O   UNL A   1      28.837  32.214  23.534  1.00  0.00    -0.229 OA
ENDBRANCH  17  18
ENDBRANCH  16  17
ENDBRANCH   7  16
ENDBRANCH   4   7
ENDBRANCH   2   3
ENDBRANCH   1   2
BRANCH   1  22
ATOM     22  C   UNL A   1      33.084  32.106  27.468  1.00  0.00     0.118 C 
BRANCH  22  23
ATOM     23  N   UNL A   1      32.820  33.544  27.619  1.00  0.00    -0.352 N 
ATOM     24  C   UNL A   1      33.262  34.439  28.565  1.00  0.00     0.251 C 
ATOM     25  H   UNL A   1      32.230  33.930  26.933  1.00  0.00     0.163 HD
ATOM     26  O   UNL A   1      32.739  35.543  28.671  1.00  0.00    -0.269 OA
BRANCH  24  27
ATOM     27  C   UNL A   1      34.354  34.038  29.468  1.00  0.00     0.039 A 
ATOM     28  C   UNL A   1      34.091  33.233  30.574  1.00  0.00     0.014 A 
ATOM     29  C   UNL A   1      35.659  34.415  29.164  1.00  0.00     0.014 A 
ATOM     30  C   UNL A   1      35.161  32.732  31.315  1.00  0.00     0.010 A 
ATOM     31  C   UNL A   1      36.710  33.754  29.764  1.00  0.00     0.010 A 
ATOM     32  C   UNL A   1      36.480  32.940  30.877  1.00  0.00    -0.014 A 
BRANCH  32  33
ATOM     33  C   UNL A   1      37.650  32.372  31.589  1.00  0.00     0.031 A 
ATOM     34  C   UNL A   1      38.425  31.247  30.954  1.00  0.00     0.074 A 
ATOM     35  C   UNL A   1      37.954  32.802  32.829  1.00  0.00     0.049 A 
ATOM     36  N   UNL A   1      39.400  30.529  31.447  1.00  0.00    -0.248 NA
ATOM     37  C   UNL A   1      38.001  30.829  29.606  1.00  0.00     0.031 C 
ATOM     38  C   UNL A   1      37.222  33.830  33.573  1.00  0.00     0.029 A 
ATOM     39  N   UNL A   1      38.956  32.425  33.684  1.00  0.00    -0.354 N 
ATOM     40  C   UNL A   1      39.678  29.565  30.483  1.00  0.00     0.074 A 
ATOM     41  C   UNL A   1      38.694  29.717  29.438  1.00  0.00     0.031 C 
ATOM     42  C   UNL A   1      37.827  34.033  34.754  1.00  0.00     0.029 A 
ATOM     43  C   UNL A   1      38.948  33.108  34.877  1.00  0.00     0.049 A 
ATOM     44  H   UNL A   1      39.619  31.731  33.464  1.00  0.00     0.167 HD
ATOM     45  C   UNL A   1      40.693  28.666  30.448  1.00  0.00     0.034 A 
ATOM     46  C   UNL A   1      39.746  32.990  35.956  1.00  0.00     0.034 A 
ATOM     47  C   UNL A   1      41.672  28.553  31.498  1.00  0.00     0.049 A 
ATOM     48  C   UNL A   1      40.865  31.983  35.911  1.00  0.00     0.074 A 
ATOM     49  C   UNL A   1      42.783  27.734  31.557  1.00  0.00     0.029 A 
ATOM     50  N   UNL A   1      41.649  29.279  32.685  1.00  0.00    -0.354 N 
ATOM     51  N   UNL A   1      41.168  31.126  34.961  1.00  0.00    -0.248 NA
ATOM     52  C   UNL A   1      41.758  31.937  37.072  1.00  0.00     0.031 C 
ATOM     53  C   UNL A   1      43.380  27.902  32.811  1.00  0.00     0.029 A 
ATOM     54  C   UNL A   1      42.702  28.897  33.498  1.00  0.00     0.049 A 
ATOM     55  H   UNL A   1      40.979  29.964  32.913  1.00  0.00     0.167 HD
ATOM     56  C   UNL A   1      42.302  30.452  35.403  1.00  0.00     0.074 A 
ATOM     57  C   UNL A   1      42.637  31.019  36.695  1.00  0.00     0.031 C 
ATOM     58  C   UNL A   1      43.007  29.462  34.796  1.00  0.00     0.034 A 
BRANCH  45  59
ATOM     59  C   UNL A   1      40.755  27.742  29.251  1.00  0.00     0.023 A 
ATOM     60  C   UNL A   1      41.699  27.925  28.223  1.00  0.00     0.031 A 
ATOM     61  C   UNL A   1      39.807  26.717  29.089  1.00  0.00     0.131 A 
ATOM     62  C   UNL A   1      41.597  27.187  27.034  1.00  0.00     0.055 A 
ATOM     63  C   UNL A   1      39.782  25.909  27.950  1.00  0.00     0.041 A 
ATOM     64  F   UNL A   1      38.865  26.502  30.021  1.00  0.00    -0.206 F 
ATOM     65  C   UNL A   1      40.663  26.159  26.902  1.00  0.00     0.022 A 
BRANCH  62  66
ATOM     66  S   UNL A   1      42.556  27.734  25.593  1.00  0.00     0.124 S 
ATOM     67  O   UNL A   1      42.490  26.556  24.731  1.00  0.00    -0.237 OA
ATOM     68  O   UNL A   1      41.806  28.900  25.139  1.00  0.00    -0.237 OA
ATOM     69  O   UNL A   1      43.877  28.016  26.148  1.00  0.00    -0.744 OA
ENDBRANCH  62  66
ENDBRANCH  45  59
BRANCH  46  70
ATOM     70  C   UNL A   1      39.499  33.834  37.160  1.00  0.00     0.023 A 
ATOM     71  C   UNL A   1      38.827  33.330  38.285  1.00  0.00     0.031 A 
ATOM     72  C   UNL A   1      39.949  35.167  37.203  1.00  0.00     0.131 A 
ATOM     73  C   UNL A   1      38.599  34.162  39.393  1.00  0.00     0.055 A 
ATOM     74  C   UNL A   1      39.769  35.972  38.328  1.00  0.00     0.041 A 
ATOM     75  F   UNL A   1      40.603  35.696  36.157  1.00  0.00    -0.206 F 
ATOM     76  C   UNL A   1      39.082  35.472  39.429  1.00  0.00     0.022 A 
BRANCH  73  77
ATOM     77  S   UNL A   1      37.608  33.527  40.774  1.00  0.00     0.124 S 
ATOM     78  O   UNL A   1      38.544  32.612  41.416  1.00  0.00    -0.237 OA
ATOM     79  O   UNL A   1      37.293  34.746  41.510  1.00  0.00    -0.237 OA
ATOM     80  O   UNL A   1      36.470  32.892  40.111  1.00  0.00    -0.744 OA
ENDBRANCH  73  77
ENDBRANCH  46  70
BRANCH  58  81
ATOM     81  C   UNL A   1      44.235  28.955  35.511  1.00  0.00     0.023 A 
ATOM     82  C   UNL A   1      44.175  27.889  36.425  1.00  0.00     0.031 A 
ATOM     83  C   UNL A   1      45.487  29.551  35.272  1.00  0.00     0.131 A 
ATOM     84  C   UNL A   1      45.333  27.491  37.109  1.00  0.00     0.055 A 
ATOM     85  C   UNL A   1      46.648  29.102  35.901  1.00  0.00     0.041 A 
ATOM     86  F   UNL A   1      45.602  30.579  34.414  1.00  0.00    -0.206 F 
ATOM     87  C   UNL A   1      46.572  28.076  36.836  1.00  0.00     0.022 A 
BRANCH  84  88
ATOM     88  S   UNL A   1      45.179  26.273  38.443  1.00  0.00     0.124 S 
ATOM     89  O   UNL A   1      44.641  25.115  37.734  1.00  0.00    -0.237 OA
ATOM     90  O   UNL A   1      46.554  26.148  38.915  1.00  0.00    -0.237 OA
ATOM     91  O   UNL A   1      44.256  26.908  39.382  1.00  0.00    -0.744 OA
ENDBRANCH  84  88
ENDBRANCH  58  81
ENDBRANCH  32  33
ENDBRANCH  24  27
ENDBRANCH  22  23
ENDBRANCH   1  22
TORSDOF 17
ENDMDL
