MODEL 1
REMARK VINA RESULT:     -12.7      0.000      0.000
REMARK SMILES COc1cc(C)cc2c1O[C@H](C(F)(F)F)C(C(=O)NCCCNC(=O)c1ccc(-c3c4nc(c(-c5cc(S(=O)(=O)[O-])ccc5F)c5ccc([nH]5)c(-c5cc(S(=O)(=O)[O-])ccc5F)c5nc(c(-c6cc(S(=O)(=O)[O-])ccc6F)c6ccc3[nH]6)C=C5)C=C4)cc1)=C2
REMARK SMILES IDX 22 1 21 2 20 3 19 4 17 5 18 6 16 8 3 9 4 10 9 11 5 12 8 13
REMARK SMILES IDX 10 14 6 15 7 16 89 17 11 18 2 19 1 20 12 21 13 22 14 23
REMARK SMILES IDX 15 24 23 25 24 26 25 28 26 29 27 30 88 31 28 32 87 33 29 34
REMARK SMILES IDX 30 35 31 36 81 37 32 38 86 39 80 40 82 41 33 42 85 43 79 44
REMARK SMILES IDX 78 45 34 47 66 48 46 49 65 50 47 51 50 52 64 53 83 54 48 55
REMARK SMILES IDX 49 56 63 58 84 59 51 60 35 61 36 62 44 63 37 64 43 65 45 66
REMARK SMILES IDX 42 67 38 68 39 69 40 70 41 71 67 72 68 73 76 74 69 75 75 76
REMARK SMILES IDX 77 77 74 78 70 79 71 80 72 81 73 82 52 83 53 84 61 85 54 86
REMARK SMILES IDX 60 87 62 88 59 89 55 90 56 91 57 92 58 93
REMARK H PARENT 19 7 23 27 82 46 50 57
REMARK Flexibility Score: inf
ROOT
ATOM      1  C   UNL A   1      33.054  32.547  27.276  1.00  0.00     0.118 C 
ENDROOT
BRANCH   1   2
ATOM      2  C   UNL A   1      31.811  31.770  26.861  1.00  0.00     0.042 C 
BRANCH   2   3
ATOM      3  C   UNL A   1      32.055  30.269  26.803  1.00  0.00     0.118 C 
BRANCH   3   4
ATOM      4  N   UNL A   1      32.669  29.864  25.547  1.00  0.00    -0.352 N 
ATOM      5  C   UNL A   1      32.965  28.705  24.914  1.00  0.00     0.251 C 
ATOM      6  O   UNL A   1      33.509  28.836  23.812  1.00  0.00    -0.270 OA
ATOM      7  H   UNL A   1      32.943  30.644  25.013  1.00  0.00     0.163 HD
BRANCH   5   8
ATOM      8  C   UNL A   1      32.679  27.338  25.438  1.00  0.00     0.067 C 
ATOM      9  C   UNL A   1      32.105  23.494  27.016  1.00  0.00     0.161 A 
ATOM     10  C   UNL A   1      33.083  22.515  26.836  1.00  0.00     0.054 A 
ATOM     11  C   UNL A   1      32.317  24.794  26.553  1.00  0.00     0.169 A 
ATOM     12  C   UNL A   1      34.301  22.842  26.228  1.00  0.00    -0.047 A 
ATOM     13  C   UNL A   1      33.524  25.133  25.941  1.00  0.00     0.021 A 
ATOM     14  O   UNL A   1      31.334  25.722  26.767  1.00  0.00    -0.471 OA
ATOM     15  C   UNL A   1      35.366  21.805  26.029  1.00  0.00     0.044 C 
ATOM     16  C   UNL A   1      34.517  24.158  25.787  1.00  0.00     0.015 A 
ATOM     17  C   UNL A   1      33.735  26.503  25.490  1.00  0.00     0.025 C 
ATOM     18  C   UNL A   1      31.319  26.851  25.854  1.00  0.00     0.314 C 
BRANCH   9  19
ATOM     19  O   UNL A   1      30.888  23.171  27.558  1.00  0.00    -0.493 OA
ATOM     20  C   UNL A   1      30.017  22.624  26.569  1.00  0.00     0.278 C 
ENDBRANCH   9  19
BRANCH  18  21
ATOM     21  C   UNL A   1      30.410  26.524  24.653  1.00  0.00     0.429 C 
ATOM     22  F   UNL A   1      29.258  25.943  25.069  1.00  0.00    -0.167 F 
ATOM     23  F   UNL A   1      30.049  27.632  23.961  1.00  0.00    -0.167 F 
ATOM     24  F   UNL A   1      30.992  25.688  23.763  1.00  0.00    -0.167 F 
ENDBRANCH  18  21
ENDBRANCH   5   8
ENDBRANCH   3   4
ENDBRANCH   2   3
ENDBRANCH   1   2
BRANCH   1  25
ATOM     25  N   UNL A   1      32.741  33.917  27.678  1.00  0.00    -0.352 N 
ATOM     26  C   UNL A   1      33.203  34.664  28.736  1.00  0.00     0.251 C 
ATOM     27  H   UNL A   1      32.094  34.379  27.097  1.00  0.00     0.163 HD
ATOM     28  O   UNL A   1      32.633  35.714  29.027  1.00  0.00    -0.269 OA
BRANCH  26  29
ATOM     29  C   UNL A   1      34.359  34.197  29.529  1.00  0.00     0.039 A 
ATOM     30  C   UNL A   1      35.652  34.591  29.186  1.00  0.00     0.014 A 
ATOM     31  C   UNL A   1      34.153  33.354  30.625  1.00  0.00     0.014 A 
ATOM     32  C   UNL A   1      36.740  33.985  29.798  1.00  0.00     0.010 A 
ATOM     33  C   UNL A   1      35.252  32.833  31.316  1.00  0.00     0.010 A 
ATOM     34  C   UNL A   1      36.556  33.100  30.873  1.00  0.00    -0.014 A 
BRANCH  34  35
ATOM     35  C   UNL A   1      37.750  32.479  31.508  1.00  0.00     0.031 A 
ATOM     36  C   UNL A   1      38.195  32.894  32.885  1.00  0.00     0.074 A 
ATOM     37  C   UNL A   1      38.383  31.479  30.863  1.00  0.00     0.049 A 
ATOM     38  N   UNL A   1      39.182  32.423  33.604  1.00  0.00    -0.248 NA
ATOM     39  C   UNL A   1      37.443  33.975  33.542  1.00  0.00     0.031 C 
ATOM     40  C   UNL A   1      38.027  30.990  29.530  1.00  0.00     0.029 A 
ATOM     41  N   UNL A   1      39.422  30.668  31.245  1.00  0.00    -0.354 N 
ATOM     42  C   UNL A   1      39.184  33.161  34.783  1.00  0.00     0.074 A 
ATOM     43  C   UNL A   1      38.119  34.133  34.672  1.00  0.00     0.031 C 
ATOM     44  C   UNL A   1      38.776  29.920  29.238  1.00  0.00     0.029 A 
ATOM     45  C   UNL A   1      39.729  29.694  30.321  1.00  0.00     0.049 A 
ATOM     46  H   UNL A   1      39.902  30.771  32.098  1.00  0.00     0.167 HD
ATOM     47  C   UNL A   1      39.990  33.027  35.862  1.00  0.00     0.034 A 
ATOM     48  C   UNL A   1      40.675  28.733  30.333  1.00  0.00     0.034 A 
ATOM     49  C   UNL A   1      41.028  32.033  35.967  1.00  0.00     0.049 A 
ATOM     50  C   UNL A   1      41.574  28.623  31.535  1.00  0.00     0.074 A 
ATOM     51  C   UNL A   1      41.888  31.805  37.027  1.00  0.00     0.029 A 
ATOM     52  N   UNL A   1      41.340  31.096  34.991  1.00  0.00    -0.354 N 
ATOM     53  N   UNL A   1      41.545  29.316  32.650  1.00  0.00    -0.248 NA
ATOM     54  C   UNL A   1      42.638  27.613  31.486  1.00  0.00     0.031 C 
ATOM     55  C   UNL A   1      42.754  30.771  36.672  1.00  0.00     0.029 A 
ATOM     56  C   UNL A   1      42.394  30.304  35.417  1.00  0.00     0.049 A 
ATOM     57  H   UNL A   1      40.879  31.007  34.126  1.00  0.00     0.167 HD
ATOM     58  C   UNL A   1      42.578  28.818  33.438  1.00  0.00     0.074 A 
ATOM     59  C   UNL A   1      43.191  27.742  32.686  1.00  0.00     0.031 C 
ATOM     60  C   UNL A   1      42.988  29.225  34.666  1.00  0.00     0.034 A 
BRANCH  47  61
ATOM     61  C   UNL A   1      39.796  33.955  37.037  1.00  0.00     0.023 A 
ATOM     62  C   UNL A   1      39.175  33.485  38.209  1.00  0.00     0.031 A 
ATOM     63  C   UNL A   1      40.098  35.325  36.947  1.00  0.00     0.131 A 
ATOM     64  C   UNL A   1      38.839  34.386  39.229  1.00  0.00     0.055 A 
ATOM     65  C   UNL A   1      39.796  36.211  37.982  1.00  0.00     0.041 A 
ATOM     66  F   UNL A   1      40.694  35.822  35.850  1.00  0.00    -0.206 F 
ATOM     67  C   UNL A   1      39.152  35.745  39.124  1.00  0.00     0.022 A 
BRANCH  64  68
ATOM     68  S   UNL A   1      37.929  33.841  40.700  1.00  0.00     0.124 S 
ATOM     69  O   UNL A   1      37.592  35.116  41.332  1.00  0.00    -0.237 OA
ATOM     70  O   UNL A   1      36.804  33.120  40.113  1.00  0.00    -0.237 OA
ATOM     71  O   UNL A   1      38.894  33.025  41.428  1.00  0.00    -0.744 OA
ENDBRANCH  64  68
ENDBRANCH  47  61
BRANCH  48  72
ATOM     72  C   UNL A   1      40.774  27.791  29.179  1.00  0.00     0.023 A 
ATOM     73  C   UNL A   1      41.711  28.004  28.150  1.00  0.00     0.031 A 
ATOM     74  C   UNL A   1      39.863  26.733  29.030  1.00  0.00     0.131 A 
ATOM     75  C   UNL A   1      41.660  27.227  26.986  1.00  0.00     0.055 A 
ATOM     76  C   UNL A   1      39.867  25.910  27.902  1.00  0.00     0.041 A 
ATOM     77  F   UNL A   1      38.942  26.494  29.977  1.00  0.00    -0.206 F 
ATOM     78  C   UNL A   1      40.755  26.170  26.863  1.00  0.00     0.022 A 
BRANCH  75  79
ATOM     79  S   UNL A   1      42.656  27.668  25.534  1.00  0.00     0.124 S 
ATOM     80  O   UNL A   1      43.980  27.850  26.119  1.00  0.00    -0.237 OA
ATOM     81  O   UNL A   1      42.496  26.487  24.689  1.00  0.00    -0.237 OA
ATOM     82  O   UNL A   1      42.013  28.878  25.031  1.00  0.00    -0.744 OA
ENDBRANCH  75  79
ENDBRANCH  48  72
BRANCH  60  83
ATOM     83  C   UNL A   1      44.161  28.519  35.301  1.00  0.00     0.023 A 
ATOM     84  C   UNL A   1      43.942  27.516  36.263  1.00  0.00     0.031 A 
ATOM     85  C   UNL A   1      45.480  28.948  35.071  1.00  0.00     0.131 A 
ATOM     86  C   UNL A   1      45.022  27.003  36.991  1.00  0.00     0.055 A 
ATOM     87  C   UNL A   1      46.558  28.400  35.766  1.00  0.00     0.041 A 
ATOM     88  F   UNL A   1      45.737  29.910  34.170  1.00  0.00    -0.206 F 
ATOM     89  C   UNL A   1      46.330  27.435  36.743  1.00  0.00     0.022 A 
BRANCH  86  90
ATOM     90  S   UNL A   1      44.762  25.827  38.349  1.00  0.00     0.124 S 
ATOM     91  O   UNL A   1      44.071  24.734  37.671  1.00  0.00    -0.237 OA
ATOM     92  O   UNL A   1      46.130  25.535  38.769  1.00  0.00    -0.237 OA
ATOM     93  O   UNL A   1      43.956  26.572  39.309  1.00  0.00    -0.744 OA
ENDBRANCH  86  90
ENDBRANCH  60  83
ENDBRANCH  34  35
ENDBRANCH  26  29
ENDBRANCH   1  25
TORSDOF 15
ENDMDL
MODEL 2
REMARK VINA RESULT:     -12.6      1.650      2.071
REMARK SMILES COc1cc(C)cc2c1O[C@H](C(F)(F)F)C(C(=O)NCCCNC(=O)c1ccc(-c3c4nc(c(-c5cc(S(=O)(=O)[O-])ccc5F)c5ccc([nH]5)c(-c5cc(S(=O)(=O)[O-])ccc5F)c5nc(c(-c6cc(S(=O)(=O)[O-])ccc6F)c6ccc3[nH]6)C=C5)C=C4)cc1)=C2
REMARK SMILES IDX 22 1 21 2 20 3 19 4 17 5 18 6 16 8 3 9 4 10 9 11 5 12 8 13
REMARK SMILES IDX 10 14 6 15 7 16 89 17 11 18 2 19 1 20 12 21 13 22 14 23
REMARK SMILES IDX 15 24 23 25 24 26 25 28 26 29 27 30 88 31 28 32 87 33 29 34
REMARK SMILES IDX 30 35 31 36 81 37 32 38 86 39 80 40 82 41 33 42 85 43 79 44
REMARK SMILES IDX 78 45 34 47 66 48 46 49 65 50 47 51 50 52 64 53 83 54 48 55
REMARK SMILES IDX 49 56 63 58 84 59 51 60 35 61 36 62 44 63 37 64 43 65 45 66
REMARK SMILES IDX 42 67 38 68 39 69 40 70 41 71 67 72 68 73 76 74 69 75 75 76
REMARK SMILES IDX 77 77 74 78 70 79 71 80 72 81 73 82 52 83 53 84 61 85 54 86
REMARK SMILES IDX 60 87 62 88 59 89 55 90 56 91 57 92 58 93
REMARK H PARENT 19 7 23 27 82 46 50 57
REMARK Flexibility Score: inf
ROOT
ATOM      1  C   UNL A   1      32.444  32.258  26.847  1.00  0.00     0.118 C 
ENDROOT
BRANCH   1   2
ATOM      2  C   UNL A   1      31.133  31.951  26.134  1.00  0.00     0.042 C 
BRANCH   2   3
ATOM      3  C   UNL A   1      31.025  30.492  25.716  1.00  0.00     0.118 C 
BRANCH   3   4
ATOM      4  N   UNL A   1      32.077  30.111  24.785  1.00  0.00    -0.352 N 
ATOM      5  C   UNL A   1      32.750  28.985  24.454  1.00  0.00     0.251 C 
ATOM      6  O   UNL A   1      33.598  29.126  23.565  1.00  0.00    -0.270 OA
ATOM      7  H   UNL A   1      32.379  30.881  24.251  1.00  0.00     0.163 HD
BRANCH   5   8
ATOM      8  C   UNL A   1      32.536  27.640  25.062  1.00  0.00     0.067 C 
ATOM      9  C   UNL A   1      32.164  23.877  26.878  1.00  0.00     0.161 A 
ATOM     10  C   UNL A   1      33.193  22.942  26.759  1.00  0.00     0.054 A 
ATOM     11  C   UNL A   1      32.307  25.155  26.335  1.00  0.00     0.169 A 
ATOM     12  C   UNL A   1      34.393  23.295  26.130  1.00  0.00    -0.047 A 
ATOM     13  C   UNL A   1      33.496  25.519  25.702  1.00  0.00     0.021 A 
ATOM     14  O   UNL A   1      31.276  26.041  26.491  1.00  0.00    -0.471 OA
ATOM     15  C   UNL A   1      35.512  22.305  25.995  1.00  0.00     0.044 C 
ATOM     16  C   UNL A   1      34.539  24.591  25.607  1.00  0.00     0.015 A 
ATOM     17  C   UNL A   1      33.635  26.868  25.165  1.00  0.00     0.025 C 
ATOM     18  C   UNL A   1      31.203  27.108  25.509  1.00  0.00     0.314 C 
BRANCH   9  19
ATOM     19  O   UNL A   1      30.964  23.524  27.440  1.00  0.00    -0.493 OA
ATOM     20  C   UNL A   1      30.222  22.672  26.570  1.00  0.00     0.278 C 
ENDBRANCH   9  19
BRANCH  18  21
ATOM     21  C   UNL A   1      30.316  26.659  24.332  1.00  0.00     0.429 C 
ATOM     22  F   UNL A   1      29.532  27.681  23.906  1.00  0.00    -0.167 F 
ATOM     23  F   UNL A   1      31.042  26.263  23.258  1.00  0.00    -0.167 F 
ATOM     24  F   UNL A   1      29.503  25.626  24.648  1.00  0.00    -0.167 F 
ENDBRANCH  18  21
ENDBRANCH   5   8
ENDBRANCH   3   4
ENDBRANCH   2   3
ENDBRANCH   1   2
BRANCH   1  25
ATOM     25  N   UNL A   1      32.457  33.600  27.426  1.00  0.00    -0.352 N 
ATOM     26  C   UNL A   1      33.274  34.151  28.385  1.00  0.00     0.251 C 
ATOM     27  H   UNL A   1      31.769  34.208  27.071  1.00  0.00     0.163 HD
ATOM     28  O   UNL A   1      32.964  35.224  28.898  1.00  0.00    -0.269 OA
BRANCH  26  29
ATOM     29  C   UNL A   1      34.500  33.445  28.813  1.00  0.00     0.039 A 
ATOM     30  C   UNL A   1      34.412  32.210  29.455  1.00  0.00     0.014 A 
ATOM     31  C   UNL A   1      35.751  34.020  28.573  1.00  0.00     0.014 A 
ATOM     32  C   UNL A   1      35.543  31.657  30.038  1.00  0.00     0.010 A 
ATOM     33  C   UNL A   1      36.905  33.400  29.064  1.00  0.00     0.010 A 
ATOM     34  C   UNL A   1      36.805  32.242  29.850  1.00  0.00    -0.014 A 
BRANCH  34  35
ATOM     35  C   UNL A   1      37.994  31.612  30.484  1.00  0.00     0.031 A 
ATOM     36  C   UNL A   1      38.362  31.920  31.911  1.00  0.00     0.074 A 
ATOM     37  C   UNL A   1      38.696  30.696  29.786  1.00  0.00     0.049 A 
ATOM     38  N   UNL A   1      39.336  31.425  32.632  1.00  0.00    -0.248 NA
ATOM     39  C   UNL A   1      37.539  32.911  32.624  1.00  0.00     0.031 C 
ATOM     40  C   UNL A   1      38.418  30.315  28.400  1.00  0.00     0.029 A 
ATOM     41  N   UNL A   1      39.750  29.894  30.144  1.00  0.00    -0.354 N 
ATOM     42  C   UNL A   1      39.257  32.056  33.869  1.00  0.00     0.074 A 
ATOM     43  C   UNL A   1      38.159  32.994  33.793  1.00  0.00     0.031 C 
ATOM     44  C   UNL A   1      39.222  29.303  28.052  1.00  0.00     0.029 A 
ATOM     45  C   UNL A   1      40.136  29.017  29.154  1.00  0.00     0.049 A 
ATOM     46  H   UNL A   1      40.188  29.940  31.024  1.00  0.00     0.167 HD
ATOM     47  C   UNL A   1      40.020  31.857  34.969  1.00  0.00     0.034 A 
ATOM     48  C   UNL A   1      41.119  28.095  29.128  1.00  0.00     0.034 A 
ATOM     49  C   UNL A   1      41.093  30.896  35.036  1.00  0.00     0.049 A 
ATOM     50  C   UNL A   1      41.969  27.913  30.357  1.00  0.00     0.074 A 
ATOM     51  C   UNL A   1      41.915  30.608  36.111  1.00  0.00     0.029 A 
ATOM     52  N   UNL A   1      41.484  30.061  33.999  1.00  0.00    -0.354 N 
ATOM     53  N   UNL A   1      41.864  28.504  31.525  1.00  0.00    -0.248 NA
ATOM     54  C   UNL A   1      43.075  26.952  30.270  1.00  0.00     0.031 C 
ATOM     55  C   UNL A   1      42.837  29.642  35.709  1.00  0.00     0.029 A 
ATOM     56  C   UNL A   1      42.551  29.275  34.403  1.00  0.00     0.049 A 
ATOM     57  H   UNL A   1      41.066  30.032  33.108  1.00  0.00     0.167 HD
ATOM     58  C   UNL A   1      42.881  27.977  32.314  1.00  0.00     0.074 A 
ATOM     59  C   UNL A   1      43.569  26.995  31.501  1.00  0.00     0.031 C 
ATOM     60  C   UNL A   1      43.221  28.289  33.590  1.00  0.00     0.034 A 
BRANCH  47  61
ATOM     61  C   UNL A   1      39.738  32.670  36.209  1.00  0.00     0.023 A 
ATOM     62  C   UNL A   1      38.812  32.203  37.161  1.00  0.00     0.031 A 
ATOM     63  C   UNL A   1      40.276  33.958  36.380  1.00  0.00     0.131 A 
ATOM     64  C   UNL A   1      38.422  33.034  38.219  1.00  0.00     0.055 A 
ATOM     65  C   UNL A   1      39.912  34.767  37.458  1.00  0.00     0.041 A 
ATOM     66  F   UNL A   1      41.165  34.448  35.501  1.00  0.00    -0.206 F 
ATOM     67  C   UNL A   1      38.972  34.310  38.376  1.00  0.00     0.022 A 
BRANCH  64  68
ATOM     68  S   UNL A   1      37.142  32.516  39.396  1.00  0.00     0.124 S 
ATOM     69  O   UNL A   1      37.339  33.468  40.489  1.00  0.00    -0.237 OA
ATOM     70  O   UNL A   1      35.921  32.704  38.619  1.00  0.00    -0.237 OA
ATOM     71  O   UNL A   1      37.489  31.134  39.707  1.00  0.00    -0.744 OA
ENDBRANCH  64  68
ENDBRANCH  47  61
BRANCH  48  72
ATOM     72  C   UNL A   1      41.307  27.263  27.903  1.00  0.00     0.023 A 
ATOM     73  C   UNL A   1      40.896  25.917  27.872  1.00  0.00     0.031 A 
ATOM     74  C   UNL A   1      41.997  27.765  26.788  1.00  0.00     0.131 A 
ATOM     75  C   UNL A   1      41.253  25.100  26.792  1.00  0.00     0.055 A 
ATOM     76  C   UNL A   1      42.282  26.968  25.677  1.00  0.00     0.041 A 
ATOM     77  F   UNL A   1      42.420  29.039  26.771  1.00  0.00    -0.206 F 
ATOM     78  C   UNL A   1      41.928  25.622  25.686  1.00  0.00     0.022 A 
BRANCH  75  79
ATOM     79  S   UNL A   1      40.995  23.305  26.862  1.00  0.00     0.124 S 
ATOM     80  O   UNL A   1      39.562  23.196  26.607  1.00  0.00    -0.237 OA
ATOM     81  O   UNL A   1      41.864  22.834  25.788  1.00  0.00    -0.237 OA
ATOM     82  O   UNL A   1      41.428  22.948  28.209  1.00  0.00    -0.744 OA
ENDBRANCH  75  79
ENDBRANCH  48  72
BRANCH  60  83
ATOM     83  C   UNL A   1      44.393  27.574  34.216  1.00  0.00     0.023 A 
ATOM     84  C   UNL A   1      44.186  26.391  34.950  1.00  0.00     0.031 A 
ATOM     85  C   UNL A   1      45.677  28.145  34.218  1.00  0.00     0.131 A 
ATOM     86  C   UNL A   1      45.237  25.839  35.691  1.00  0.00     0.055 A 
ATOM     87  C   UNL A   1      46.734  27.566  34.920  1.00  0.00     0.041 A 
ATOM     88  F   UNL A   1      45.920  29.279  33.540  1.00  0.00    -0.206 F 
ATOM     89  C   UNL A   1      46.512  26.416  35.674  1.00  0.00     0.022 A 
BRANCH  86  90
ATOM     90  S   UNL A   1      44.969  24.410  36.776  1.00  0.00     0.124 S 
ATOM     91  O   UNL A   1      44.146  24.987  37.835  1.00  0.00    -0.237 OA
ATOM     92  O   UNL A   1      44.280  23.476  35.889  1.00  0.00    -0.237 OA
ATOM     93  O   UNL A   1      46.315  24.016  37.178  1.00  0.00    -0.744 OA
ENDBRANCH  86  90
ENDBRANCH  60  83
ENDBRANCH  34  35
ENDBRANCH  26  29
ENDBRANCH   1  25
TORSDOF 15
ENDMDL
MODEL 3
REMARK VINA RESULT:     -12.5      6.075     10.279
REMARK SMILES COc1cc(C)cc2c1O[C@H](C(F)(F)F)C(C(=O)NCCCNC(=O)c1ccc(-c3c4nc(c(-c5cc(S(=O)(=O)[O-])ccc5F)c5ccc([nH]5)c(-c5cc(S(=O)(=O)[O-])ccc5F)c5nc(c(-c6cc(S(=O)(=O)[O-])ccc6F)c6ccc3[nH]6)C=C5)C=C4)cc1)=C2
REMARK SMILES IDX 22 1 21 2 20 3 19 4 17 5 18 6 16 8 3 9 4 10 9 11 5 12 8 13
REMARK SMILES IDX 10 14 6 15 7 16 89 17 11 18 2 19 1 20 12 21 13 22 14 23
REMARK SMILES IDX 15 24 23 25 24 26 25 28 26 29 27 30 88 31 28 32 87 33 29 34
REMARK SMILES IDX 30 35 31 36 81 37 32 38 86 39 80 40 82 41 33 42 85 43 79 44
REMARK SMILES IDX 78 45 34 47 66 48 46 49 65 50 47 51 50 52 64 53 83 54 48 55
REMARK SMILES IDX 49 56 63 58 84 59 51 60 35 61 36 62 44 63 37 64 43 65 45 66
REMARK SMILES IDX 42 67 38 68 39 69 40 70 41 71 67 72 68 73 76 74 69 75 75 76
REMARK SMILES IDX 77 77 74 78 70 79 71 80 72 81 73 82 52 83 53 84 61 85 54 86
REMARK SMILES IDX 60 87 62 88 59 89 55 90 56 91 57 92 58 93
REMARK H PARENT 19 7 23 27 82 46 50 57
REMARK Flexibility Score: inf
ROOT
ATOM      1  C   UNL A   1      39.523  20.228  26.021  1.00  0.00     0.118 C 
ENDROOT
BRANCH   1   2
ATOM      2  C   UNL A   1      38.374  19.810  25.112  1.00  0.00     0.042 C 
BRANCH   2   3
ATOM      3  C   UNL A   1      37.422  20.957  24.811  1.00  0.00     0.118 C 
BRANCH   3   4
ATOM      4  N   UNL A   1      36.264  20.952  25.693  1.00  0.00    -0.352 N 
ATOM      5  C   UNL A   1      35.124  21.665  25.839  1.00  0.00     0.251 C 
ATOM      6  O   UNL A   1      34.391  21.294  26.763  1.00  0.00    -0.270 OA
ATOM      7  H   UNL A   1      36.328  20.235  26.364  1.00  0.00     0.163 HD
BRANCH   5   8
ATOM      8  C   UNL A   1      34.710  22.816  24.986  1.00  0.00     0.067 C 
ATOM      9  C   UNL A   1      33.705  26.198  22.716  1.00  0.00     0.161 A 
ATOM     10  C   UNL A   1      33.377  27.394  23.357  1.00  0.00     0.054 A 
ATOM     11  C   UNL A   1      34.106  25.087  23.461  1.00  0.00     0.169 A 
ATOM     12  C   UNL A   1      33.491  27.499  24.749  1.00  0.00    -0.047 A 
ATOM     13  C   UNL A   1      34.219  25.176  24.849  1.00  0.00     0.021 A 
ATOM     14  O   UNL A   1      34.431  23.942  22.785  1.00  0.00    -0.471 OA
ATOM     15  C   UNL A   1      33.146  28.776  25.455  1.00  0.00     0.044 C 
ATOM     16  C   UNL A   1      33.918  26.384  25.489  1.00  0.00     0.015 A 
ATOM     17  C   UNL A   1      34.665  24.012  25.604  1.00  0.00     0.025 C 
ATOM     18  C   UNL A   1      34.314  22.707  23.539  1.00  0.00     0.314 C 
BRANCH   9  19
ATOM     19  O   UNL A   1      33.543  26.067  21.361  1.00  0.00    -0.493 OA
ATOM     20  C   UNL A   1      32.176  25.829  21.030  1.00  0.00     0.278 C 
ENDBRANCH   9  19
BRANCH  18  21
ATOM     21  C   UNL A   1      32.900  22.125  23.350  1.00  0.00     0.429 C 
ATOM     22  F   UNL A   1      32.448  22.363  22.095  1.00  0.00    -0.167 F 
ATOM     23  F   UNL A   1      32.867  20.781  23.519  1.00  0.00    -0.167 F 
ATOM     24  F   UNL A   1      31.997  22.642  24.214  1.00  0.00    -0.167 F 
ENDBRANCH  18  21
ENDBRANCH   5   8
ENDBRANCH   3   4
ENDBRANCH   2   3
ENDBRANCH   1   2
BRANCH   1  25
ATOM     25  N   UNL A   1      40.567  19.207  26.098  1.00  0.00    -0.352 N 
ATOM     26  C   UNL A   1      41.936  19.330  26.114  1.00  0.00     0.251 C 
ATOM     27  H   UNL A   1      40.235  18.282  26.148  1.00  0.00     0.163 HD
ATOM     28  O   UNL A   1      42.633  18.332  25.945  1.00  0.00    -0.269 OA
BRANCH  26  29
ATOM     29  C   UNL A   1      42.562  20.655  26.306  1.00  0.00     0.039 A 
ATOM     30  C   UNL A   1      42.720  21.179  27.589  1.00  0.00     0.014 A 
ATOM     31  C   UNL A   1      42.996  21.385  25.195  1.00  0.00     0.014 A 
ATOM     32  C   UNL A   1      43.111  22.500  27.748  1.00  0.00     0.010 A 
ATOM     33  C   UNL A   1      43.499  22.679  25.369  1.00  0.00     0.010 A 
ATOM     34  C   UNL A   1      43.508  23.269  26.642  1.00  0.00    -0.014 A 
BRANCH  34  35
ATOM     35  C   UNL A   1      43.929  24.679  26.857  1.00  0.00     0.031 A 
ATOM     36  C   UNL A   1      42.966  25.697  27.408  1.00  0.00     0.074 A 
ATOM     37  C   UNL A   1      45.214  25.017  26.626  1.00  0.00     0.049 A 
ATOM     38  N   UNL A   1      43.181  26.955  27.701  1.00  0.00    -0.248 NA
ATOM     39  C   UNL A   1      41.585  25.255  27.661  1.00  0.00     0.031 C 
ATOM     40  C   UNL A   1      46.233  24.105  26.103  1.00  0.00     0.029 A 
ATOM     41  N   UNL A   1      45.895  26.190  26.833  1.00  0.00    -0.354 N 
ATOM     42  C   UNL A   1      41.964  27.457  28.149  1.00  0.00     0.074 A 
ATOM     43  C   UNL A   1      41.006  26.379  28.062  1.00  0.00     0.031 C 
ATOM     44  C   UNL A   1      47.420  24.724  26.104  1.00  0.00     0.029 A 
ATOM     45  C   UNL A   1      47.239  26.104  26.543  1.00  0.00     0.049 A 
ATOM     46  H   UNL A   1      45.465  27.013  27.158  1.00  0.00     0.167 HD
ATOM     47  C   UNL A   1      41.681  28.700  28.606  1.00  0.00     0.034 A 
ATOM     48  C   UNL A   1      48.216  27.031  26.610  1.00  0.00     0.034 A 
ATOM     49  C   UNL A   1      42.657  29.755  28.714  1.00  0.00     0.049 A 
ATOM     50  C   UNL A   1      47.867  28.411  27.098  1.00  0.00     0.074 A 
ATOM     51  C   UNL A   1      42.472  31.045  29.181  1.00  0.00     0.029 A 
ATOM     52  N   UNL A   1      43.996  29.645  28.366  1.00  0.00    -0.354 N 
ATOM     53  N   UNL A   1      46.715  28.861  27.540  1.00  0.00    -0.248 NA
ATOM     54  C   UNL A   1      48.938  29.415  27.092  1.00  0.00     0.031 C 
ATOM     55  C   UNL A   1      43.681  31.729  29.063  1.00  0.00     0.029 A 
ATOM     56  C   UNL A   1      44.642  30.851  28.587  1.00  0.00     0.049 A 
ATOM     57  H   UNL A   1      44.423  28.830  28.014  1.00  0.00     0.167 HD
ATOM     58  C   UNL A   1      46.926  30.194  27.874  1.00  0.00     0.074 A 
ATOM     59  C   UNL A   1      48.325  30.469  27.616  1.00  0.00     0.031 C 
ATOM     60  C   UNL A   1      46.040  31.110  28.339  1.00  0.00     0.034 A 
BRANCH  47  61
ATOM     61  C   UNL A   1      40.270  29.011  29.045  1.00  0.00     0.023 A 
ATOM     62  C   UNL A   1      39.924  28.931  30.407  1.00  0.00     0.031 A 
ATOM     63  C   UNL A   1      39.247  29.249  28.110  1.00  0.00     0.131 A 
ATOM     64  C   UNL A   1      38.582  29.049  30.792  1.00  0.00     0.055 A 
ATOM     65  C   UNL A   1      37.917  29.404  28.504  1.00  0.00     0.041 A 
ATOM     66  F   UNL A   1      39.528  29.337  26.800  1.00  0.00    -0.206 F 
ATOM     67  C   UNL A   1      37.578  29.291  29.848  1.00  0.00     0.022 A 
BRANCH  64  68
ATOM     68  S   UNL A   1      38.079  28.830  32.521  1.00  0.00     0.124 S 
ATOM     69  O   UNL A   1      38.195  27.382  32.685  1.00  0.00    -0.237 OA
ATOM     70  O   UNL A   1      39.079  29.621  33.232  1.00  0.00    -0.237 OA
ATOM     71  O   UNL A   1      36.717  29.351  32.559  1.00  0.00    -0.744 OA
ENDBRANCH  64  68
ENDBRANCH  47  61
BRANCH  48  72
ATOM     72  C   UNL A   1      49.611  26.650  26.238  1.00  0.00     0.023 A 
ATOM     73  C   UNL A   1      50.194  27.115  25.044  1.00  0.00     0.031 A 
ATOM     74  C   UNL A   1      50.338  25.729  27.010  1.00  0.00     0.131 A 
ATOM     75  C   UNL A   1      51.422  26.595  24.616  1.00  0.00     0.055 A 
ATOM     76  C   UNL A   1      51.599  25.273  26.620  1.00  0.00     0.041 A 
ATOM     77  F   UNL A   1      49.822  25.246  28.151  1.00  0.00    -0.206 F 
ATOM     78  C   UNL A   1      52.137  25.690  25.405  1.00  0.00     0.022 A 
BRANCH  75  79
ATOM     79  S   UNL A   1      52.051  26.954  22.952  1.00  0.00     0.124 S 
ATOM     80  O   UNL A   1      52.582  28.304  23.114  1.00  0.00    -0.237 OA
ATOM     81  O   UNL A   1      53.046  25.900  22.773  1.00  0.00    -0.237 OA
ATOM     82  O   UNL A   1      50.867  26.836  22.106  1.00  0.00    -0.744 OA
ENDBRANCH  75  79
ENDBRANCH  48  72
BRANCH  60  83
ATOM     83  C   UNL A   1      46.529  32.511  28.608  1.00  0.00     0.023 A 
ATOM     84  C   UNL A   1      46.595  33.448  27.560  1.00  0.00     0.031 A 
ATOM     85  C   UNL A   1      47.072  32.866  29.856  1.00  0.00     0.131 A 
ATOM     86  C   UNL A   1      47.229  34.678  27.765  1.00  0.00     0.055 A 
ATOM     87  C   UNL A   1      47.661  34.112  30.069  1.00  0.00     0.041 A 
ATOM     88  F   UNL A   1      47.041  32.002  30.883  1.00  0.00    -0.206 F 
ATOM     89  C   UNL A   1      47.757  35.019  29.016  1.00  0.00     0.022 A 
BRANCH  86  90
ATOM     90  S   UNL A   1      47.477  35.844  26.397  1.00  0.00     0.124 S 
ATOM     91  O   UNL A   1      46.135  36.394  26.224  1.00  0.00    -0.237 OA
ATOM     92  O   UNL A   1      48.462  36.767  26.954  1.00  0.00    -0.237 OA
ATOM     93  O   UNL A   1      47.951  35.006  25.302  1.00  0.00    -0.744 OA
ENDBRANCH  86  90
ENDBRANCH  60  83
ENDBRANCH  34  35
ENDBRANCH  26  29
ENDBRANCH   1  25
TORSDOF 15
ENDMDL
