MODEL 1
REMARK VINA RESULT:     -11.8      0.000      0.000
REMARK SMILES O=C(NCCCNC(=O)[C@]1(C2CCCC2)CCOc2ccccc21)c1ccc(-c2c3nc(c(-c4cc(S(=O)(=O)[O-])ccc4F)c4ccc([nH]4)c(-c4cc(S(=O)(=O)[O-])ccc4F)c4nc(c(-c5cc(S(=O)(=O)[O-])ccc5F)c5ccc2[nH]5)C=C4)C=C3)cc1
REMARK SMILES IDX 4 1 3 2 1 3 2 4 25 6 26 7 87 8 27 9 86 10 28 11 29 12 30 13
REMARK SMILES IDX 80 14 31 15 85 16 79 17 81 18 32 19 84 20 78 21 77 22 33 24
REMARK SMILES IDX 65 25 45 26 64 27 46 28 49 29 63 30 82 31 47 32 48 33 62 35
REMARK SMILES IDX 83 36 50 37 34 38 35 39 43 40 36 41 42 42 44 43 41 44 37 45
REMARK SMILES IDX 38 46 39 47 40 48 66 49 67 50 75 51 68 52 74 53 76 54 73 55
REMARK SMILES IDX 69 56 70 57 71 58 72 59 51 60 52 61 60 62 53 63 59 64 61 65
REMARK SMILES IDX 58 66 54 67 55 68 56 69 57 70 5 71 6 72 7 73 8 74 9 76 10 77
REMARK SMILES IDX 16 78 24 79 17 80 19 81 23 82 18 83 20 84 22 85 21 86 11 87
REMARK SMILES IDX 12 88 15 89 13 90 14 91
REMARK H PARENT 3 5 81 23 49 34 7 75
REMARK Flexibility Score: inf
ROOT
ATOM      1  C   UNL A   1      32.722  30.098  26.083  1.00  0.00     0.118 C 
ENDROOT
BRANCH   1   2
ATOM      2  N   UNL A   1      32.645  31.528  26.371  1.00  0.00    -0.352 N 
ATOM      3  O   UNL A   1      32.868  33.380  27.626  1.00  0.00    -0.269 OA
ATOM      4  C   UNL A   1      33.295  32.269  27.327  1.00  0.00     0.251 C 
ATOM      5  H   UNL A   1      32.033  32.038  25.793  1.00  0.00     0.163 HD
BRANCH   4   6
ATOM      6  C   UNL A   1      34.513  31.737  27.971  1.00  0.00     0.039 A 
ATOM      7  C   UNL A   1      35.599  32.579  28.213  1.00  0.00     0.014 A 
ATOM      8  C   UNL A   1      34.546  30.406  28.397  1.00  0.00     0.014 A 
ATOM      9  C   UNL A   1      36.764  32.065  28.762  1.00  0.00     0.010 A 
ATOM     10  C   UNL A   1      35.686  29.914  29.040  1.00  0.00     0.010 A 
ATOM     11  C   UNL A   1      36.810  30.737  29.214  1.00  0.00    -0.014 A 
BRANCH  11  12
ATOM     12  C   UNL A   1      38.017  30.268  29.937  1.00  0.00     0.031 A 
ATOM     13  C   UNL A   1      38.280  30.683  31.355  1.00  0.00     0.074 A 
ATOM     14  C   UNL A   1      38.856  29.425  29.302  1.00  0.00     0.049 A 
ATOM     15  N   UNL A   1      39.279  30.361  32.136  1.00  0.00    -0.248 NA
ATOM     16  C   UNL A   1      37.298  31.584  31.977  1.00  0.00     0.031 C 
ATOM     17  C   UNL A   1      38.687  28.954  27.923  1.00  0.00     0.029 A 
ATOM     18  N   UNL A   1      39.995  28.795  29.727  1.00  0.00    -0.354 N 
ATOM     19  C   UNL A   1      39.057  31.025  33.337  1.00  0.00     0.074 A 
ATOM     20  C   UNL A   1      37.844  31.799  33.165  1.00  0.00     0.031 C 
ATOM     21  C   UNL A   1      39.651  28.069  27.638  1.00  0.00     0.029 A 
ATOM     22  C   UNL A   1      40.555  27.971  28.776  1.00  0.00     0.049 A 
ATOM     23  H   UNL A   1      40.378  28.919  30.625  1.00  0.00     0.167 HD
ATOM     24  C   UNL A   1      39.794  30.980  34.474  1.00  0.00     0.034 A 
ATOM     25  C   UNL A   1      41.684  27.240  28.807  1.00  0.00     0.034 A 
ATOM     26  C   UNL A   1      41.004  30.202  34.614  1.00  0.00     0.049 A 
ATOM     27  C   UNL A   1      42.517  27.263  30.058  1.00  0.00     0.074 A 
ATOM     28  C   UNL A   1      41.823  30.073  35.723  1.00  0.00     0.029 A 
ATOM     29  N   UNL A   1      41.576  29.429  33.610  1.00  0.00    -0.354 N 
ATOM     30  N   UNL A   1      42.292  27.895  31.188  1.00  0.00    -0.248 NA
ATOM     31  C   UNL A   1      43.755  26.476  30.041  1.00  0.00     0.031 C 
ATOM     32  C   UNL A   1      42.924  29.287  35.368  1.00  0.00     0.029 A 
ATOM     33  C   UNL A   1      42.753  28.851  34.064  1.00  0.00     0.049 A 
ATOM     34  H   UNL A   1      41.202  29.309  32.708  1.00  0.00     0.167 HD
ATOM     35  C   UNL A   1      43.351  27.560  32.025  1.00  0.00     0.074 A 
ATOM     36  C   UNL A   1      44.200  26.655  31.276  1.00  0.00     0.031 C 
ATOM     37  C   UNL A   1      43.599  27.963  33.298  1.00  0.00     0.034 A 
BRANCH  24  38
ATOM     38  C   UNL A   1      39.337  31.832  35.637  1.00  0.00     0.023 A 
ATOM     39  C   UNL A   1      38.633  31.288  36.725  1.00  0.00     0.031 A 
ATOM     40  C   UNL A   1      39.594  33.214  35.648  1.00  0.00     0.131 A 
ATOM     41  C   UNL A   1      38.155  32.128  37.743  1.00  0.00     0.055 A 
ATOM     42  C   UNL A   1      39.186  34.033  36.703  1.00  0.00     0.041 A 
ATOM     43  F   UNL A   1      40.241  33.797  34.627  1.00  0.00    -0.206 F 
ATOM     44  C   UNL A   1      38.449  33.493  37.752  1.00  0.00     0.022 A 
BRANCH  41  45
ATOM     45  S   UNL A   1      37.024  31.435  38.981  1.00  0.00     0.124 S 
ATOM     46  O   UNL A   1      35.882  32.340  38.876  1.00  0.00    -0.237 OA
ATOM     47  O   UNL A   1      36.812  30.079  38.491  1.00  0.00    -0.237 OA
ATOM     48  O   UNL A   1      37.778  31.539  40.229  1.00  0.00    -0.744 OA
ENDBRANCH  41  45
ENDBRANCH  24  38
BRANCH  25  49
ATOM     49  C   UNL A   1      42.109  26.461  27.609  1.00  0.00     0.023 A 
ATOM     50  C   UNL A   1      41.805  25.097  27.487  1.00  0.00     0.031 A 
ATOM     51  C   UNL A   1      42.854  27.065  26.579  1.00  0.00     0.131 A 
ATOM     52  C   UNL A   1      42.280  24.371  26.382  1.00  0.00     0.055 A 
ATOM     53  C   UNL A   1      43.271  26.354  25.454  1.00  0.00     0.041 A 
ATOM     54  F   UNL A   1      43.172  28.368  26.644  1.00  0.00    -0.206 F 
ATOM     55  C   UNL A   1      42.996  24.994  25.358  1.00  0.00     0.022 A 
BRANCH  52  56
ATOM     56  S   UNL A   1      42.025  22.576  26.351  1.00  0.00     0.124 S 
ATOM     57  O   UNL A   1      40.572  22.481  26.399  1.00  0.00    -0.237 OA
ATOM     58  O   UNL A   1      42.653  22.203  25.088  1.00  0.00    -0.237 OA
ATOM     59  O   UNL A   1      42.721  22.115  27.551  1.00  0.00    -0.744 OA
ENDBRANCH  52  56
ENDBRANCH  25  49
BRANCH  37  60
ATOM     60  C   UNL A   1      44.821  27.384  33.966  1.00  0.00     0.023 A 
ATOM     61  C   UNL A   1      44.761  26.202  34.726  1.00  0.00     0.031 A 
ATOM     62  C   UNL A   1      46.061  28.040  33.862  1.00  0.00     0.131 A 
ATOM     63  C   UNL A   1      45.902  25.747  35.403  1.00  0.00     0.055 A 
ATOM     64  C   UNL A   1      47.209  27.546  34.482  1.00  0.00     0.041 A 
ATOM     65  F   UNL A   1      46.175  29.176  33.154  1.00  0.00    -0.206 F 
ATOM     66  C   UNL A   1      47.129  26.402  35.270  1.00  0.00     0.022 A 
BRANCH  63  67
ATOM     67  S   UNL A   1      45.737  24.348  36.543  1.00  0.00     0.124 S 
ATOM     68  O   UNL A   1      45.148  24.982  37.718  1.00  0.00    -0.237 OA
ATOM     69  O   UNL A   1      44.864  23.442  35.802  1.00  0.00    -0.237 OA
ATOM     70  O   UNL A   1      47.111  23.881  36.715  1.00  0.00    -0.744 OA
ENDBRANCH  63  67
ENDBRANCH  37  60
ENDBRANCH  11  12
ENDBRANCH   4   6
ENDBRANCH   1   2
BRANCH   1  71
ATOM     71  C   UNL A   1      31.490  29.354  26.594  1.00  0.00     0.042 C 
BRANCH  71  72
ATOM     72  C   UNL A   1      31.853  28.203  27.525  1.00  0.00     0.117 C 
BRANCH  72  73
ATOM     73  N   UNL A   1      31.028  27.041  27.270  1.00  0.00    -0.355 N 
ATOM     74  C   UNL A   1      30.919  26.129  26.282  1.00  0.00     0.231 C 
ATOM     75  H   UNL A   1      30.386  26.876  27.998  1.00  0.00     0.163 HD
ATOM     76  O   UNL A   1      30.014  25.304  26.501  1.00  0.00    -0.274 OA
BRANCH  74  77
ATOM     77  C   UNL A   1      31.815  25.993  24.984  1.00  0.00     0.084 C 
ATOM     78  C   UNL A   1      33.314  26.300  25.185  1.00  0.00     0.064 C 
ATOM     79  C   UNL A   1      31.290  27.005  23.930  1.00  0.00     0.010 A 
ATOM     80  C   UNL A   1      34.028  26.671  23.897  1.00  0.00     0.231 C 
ATOM     81  C   UNL A   1      32.154  27.910  23.286  1.00  0.00     0.123 A 
ATOM     82  C   UNL A   1      29.913  27.144  23.662  1.00  0.00     0.009 A 
ATOM     83  O   UNL A   1      33.518  27.901  23.403  1.00  0.00    -0.493 OA
ATOM     84  C   UNL A   1      31.663  28.953  22.493  1.00  0.00     0.047 A 
ATOM     85  C   UNL A   1      29.422  28.188  22.869  1.00  0.00     0.001 A 
ATOM     86  C   UNL A   1      30.297  29.103  22.297  1.00  0.00     0.004 A 
BRANCH  77  87
ATOM     87  C   UNL A   1      31.589  24.482  24.550  1.00  0.00     0.009 C 
ATOM     88  C   UNL A   1      31.717  24.101  23.072  1.00  0.00     0.005 C 
ATOM     89  C   UNL A   1      32.579  23.485  25.211  1.00  0.00     0.005 C 
ATOM     90  C   UNL A   1      31.774  22.580  23.101  1.00  0.00     0.000 C 
ATOM     91  C   UNL A   1      32.669  22.269  24.291  1.00  0.00     0.000 C 
ENDBRANCH  77  87
ENDBRANCH  74  77
ENDBRANCH  72  73
ENDBRANCH  71  72
ENDBRANCH   1  71
TORSDOF 14
ENDMDL
MODEL 2
REMARK VINA RESULT:     -11.8      1.227      7.721
REMARK SMILES O=C(NCCCNC(=O)[C@]1(C2CCCC2)CCOc2ccccc21)c1ccc(-c2c3nc(c(-c4cc(S(=O)(=O)[O-])ccc4F)c4ccc([nH]4)c(-c4cc(S(=O)(=O)[O-])ccc4F)c4nc(c(-c5cc(S(=O)(=O)[O-])ccc5F)c5ccc2[nH]5)C=C4)C=C3)cc1
REMARK SMILES IDX 4 1 3 2 1 3 2 4 25 6 26 7 87 8 27 9 86 10 28 11 29 12 30 13
REMARK SMILES IDX 80 14 31 15 85 16 79 17 81 18 32 19 84 20 78 21 77 22 33 24
REMARK SMILES IDX 65 25 45 26 64 27 46 28 49 29 63 30 82 31 47 32 48 33 62 35
REMARK SMILES IDX 83 36 50 37 34 38 35 39 43 40 36 41 42 42 44 43 41 44 37 45
REMARK SMILES IDX 38 46 39 47 40 48 66 49 67 50 75 51 68 52 74 53 76 54 73 55
REMARK SMILES IDX 69 56 70 57 71 58 72 59 51 60 52 61 60 62 53 63 59 64 61 65
REMARK SMILES IDX 58 66 54 67 55 68 56 69 57 70 5 71 6 72 7 73 8 74 9 76 10 77
REMARK SMILES IDX 16 78 24 79 17 80 19 81 23 82 18 83 20 84 22 85 21 86 11 87
REMARK SMILES IDX 12 88 15 89 13 90 14 91
REMARK H PARENT 3 5 81 23 49 34 7 75
REMARK Flexibility Score: inf
ROOT
ATOM      1  C   UNL A   1      32.824  28.933  25.370  1.00  0.00     0.118 C 
ENDROOT
BRANCH   1   2
ATOM      2  N   UNL A   1      32.381  30.297  25.648  1.00  0.00    -0.352 N 
ATOM      3  O   UNL A   1      32.000  32.107  26.924  1.00  0.00    -0.269 OA
ATOM      4  C   UNL A   1      32.708  31.133  26.686  1.00  0.00     0.251 C 
ATOM      5  H   UNL A   1      31.753  30.674  24.991  1.00  0.00     0.163 HD
BRANCH   4   6
ATOM      6  C   UNL A   1      33.917  30.871  27.493  1.00  0.00     0.039 A 
ATOM      7  C   UNL A   1      34.157  29.592  27.996  1.00  0.00     0.014 A 
ATOM      8  C   UNL A   1      34.852  31.892  27.692  1.00  0.00     0.014 A 
ATOM      9  C   UNL A   1      35.261  29.362  28.804  1.00  0.00     0.010 A 
ATOM     10  C   UNL A   1      36.013  31.633  28.426  1.00  0.00     0.010 A 
ATOM     11  C   UNL A   1      36.219  30.369  29.000  1.00  0.00    -0.014 A 
BRANCH  11  12
ATOM     12  C   UNL A   1      37.462  30.039  29.739  1.00  0.00     0.031 A 
ATOM     13  C   UNL A   1      38.550  29.227  29.100  1.00  0.00     0.074 A 
ATOM     14  C   UNL A   1      37.609  30.521  30.989  1.00  0.00     0.049 A 
ATOM     15  N   UNL A   1      39.701  28.855  29.599  1.00  0.00    -0.248 NA
ATOM     16  C   UNL A   1      38.315  28.765  27.724  1.00  0.00     0.031 C 
ATOM     17  C   UNL A   1      36.612  31.328  31.700  1.00  0.00     0.029 A 
ATOM     18  N   UNL A   1      38.651  30.432  31.875  1.00  0.00    -0.354 N 
ATOM     19  C   UNL A   1      40.325  28.107  28.607  1.00  0.00     0.074 A 
ATOM     20  C   UNL A   1      39.404  28.048  27.490  1.00  0.00     0.031 C 
ATOM     21  C   UNL A   1      37.112  31.706  32.884  1.00  0.00     0.029 A 
ATOM     22  C   UNL A   1      38.426  31.101  33.057  1.00  0.00     0.049 A 
ATOM     23  H   UNL A   1      39.479  29.936  31.685  1.00  0.00     0.167 HD
ATOM     24  C   UNL A   1      41.555  27.535  28.630  1.00  0.00     0.034 A 
ATOM     25  C   UNL A   1      39.182  31.196  34.166  1.00  0.00     0.034 A 
ATOM     26  C   UNL A   1      42.450  27.607  29.762  1.00  0.00     0.049 A 
ATOM     27  C   UNL A   1      40.511  30.495  34.187  1.00  0.00     0.074 A 
ATOM     28  C   UNL A   1      43.722  27.075  29.890  1.00  0.00     0.029 A 
ATOM     29  N   UNL A   1      42.165  28.240  30.967  1.00  0.00    -0.354 N 
ATOM     30  N   UNL A   1      41.089  29.792  33.239  1.00  0.00    -0.248 NA
ATOM     31  C   UNL A   1      41.292  30.598  35.425  1.00  0.00     0.031 C 
ATOM     32  C   UNL A   1      44.173  27.321  31.191  1.00  0.00     0.029 A 
ATOM     33  C   UNL A   1      43.222  28.082  31.852  1.00  0.00     0.049 A 
ATOM     34  H   UNL A   1      41.334  28.729  31.163  1.00  0.00     0.167 HD
ATOM     35  C   UNL A   1      42.314  29.390  33.761  1.00  0.00     0.074 A 
ATOM     36  C   UNL A   1      42.398  29.947  35.097  1.00  0.00     0.031 C 
ATOM     37  C   UNL A   1      43.282  28.630  33.189  1.00  0.00     0.034 A 
BRANCH  24  38
ATOM     38  C   UNL A   1      41.979  26.744  27.414  1.00  0.00     0.023 A 
ATOM     39  C   UNL A   1      41.747  25.361  27.310  1.00  0.00     0.031 A 
ATOM     40  C   UNL A   1      42.643  27.379  26.349  1.00  0.00     0.131 A 
ATOM     41  C   UNL A   1      42.232  24.649  26.201  1.00  0.00     0.055 A 
ATOM     42  C   UNL A   1      43.051  26.680  25.211  1.00  0.00     0.041 A 
ATOM     43  F   UNL A   1      42.914  28.692  26.399  1.00  0.00    -0.206 F 
ATOM     44  C   UNL A   1      42.859  25.303  25.139  1.00  0.00     0.022 A 
BRANCH  41  45
ATOM     45  S   UNL A   1      42.155  22.836  26.232  1.00  0.00     0.124 S 
ATOM     46  O   UNL A   1      40.719  22.604  26.365  1.00  0.00    -0.237 OA
ATOM     47  O   UNL A   1      42.746  22.473  24.950  1.00  0.00    -0.237 OA
ATOM     48  O   UNL A   1      42.947  22.481  27.409  1.00  0.00    -0.744 OA
ENDBRANCH  41  45
ENDBRANCH  24  38
BRANCH  25  49
ATOM     49  C   UNL A   1      38.685  31.949  35.353  1.00  0.00     0.023 A 
ATOM     50  C   UNL A   1      38.187  31.278  36.480  1.00  0.00     0.031 A 
ATOM     51  C   UNL A   1      38.672  33.356  35.364  1.00  0.00     0.131 A 
ATOM     52  C   UNL A   1      37.659  32.013  37.554  1.00  0.00     0.055 A 
ATOM     53  C   UNL A   1      38.203  34.082  36.459  1.00  0.00     0.041 A 
ATOM     54  F   UNL A   1      39.137  34.049  34.312  1.00  0.00    -0.206 F 
ATOM     55  C   UNL A   1      37.679  33.409  37.558  1.00  0.00     0.022 A 
BRANCH  52  56
ATOM     56  S   UNL A   1      36.859  31.113  38.909  1.00  0.00     0.124 S 
ATOM     57  O   UNL A   1      35.601  31.835  39.044  1.00  0.00    -0.237 OA
ATOM     58  O   UNL A   1      36.770  29.762  38.364  1.00  0.00    -0.237 OA
ATOM     59  O   UNL A   1      37.794  31.274  40.021  1.00  0.00    -0.744 OA
ENDBRANCH  52  56
ENDBRANCH  25  49
BRANCH  37  60
ATOM     60  C   UNL A   1      44.533  28.400  34.000  1.00  0.00     0.023 A 
ATOM     61  C   UNL A   1      44.632  27.346  34.926  1.00  0.00     0.031 A 
ATOM     62  C   UNL A   1      45.633  29.265  33.863  1.00  0.00     0.131 A 
ATOM     63  C   UNL A   1      45.779  27.222  35.723  1.00  0.00     0.055 A 
ATOM     64  C   UNL A   1      46.799  29.096  34.611  1.00  0.00     0.041 A 
ATOM     65  F   UNL A   1      45.591  30.292  32.998  1.00  0.00    -0.206 F 
ATOM     66  C   UNL A   1      46.870  28.079  35.558  1.00  0.00     0.022 A 
BRANCH  63  67
ATOM     67  S   UNL A   1      45.786  25.989  37.053  1.00  0.00     0.124 S 
ATOM     68  O   UNL A   1      44.395  25.549  37.066  1.00  0.00    -0.237 OA
ATOM     69  O   UNL A   1      46.759  25.014  36.569  1.00  0.00    -0.237 OA
ATOM     70  O   UNL A   1      46.206  26.752  38.226  1.00  0.00    -0.744 OA
ENDBRANCH  63  67
ENDBRANCH  37  60
ENDBRANCH  11  12
ENDBRANCH   4   6
ENDBRANCH   1   2
BRANCH   1  71
ATOM     71  C   UNL A   1      31.727  27.913  25.671  1.00  0.00     0.042 C 
BRANCH  71  72
ATOM     72  C   UNL A   1      32.037  27.076  26.906  1.00  0.00     0.117 C 
BRANCH  72  73
ATOM     73  N   UNL A   1      31.249  25.861  26.928  1.00  0.00    -0.355 N 
ATOM     74  C   UNL A   1      31.349  24.632  26.381  1.00  0.00     0.231 C 
ATOM     75  H   UNL A   1      30.438  25.957  27.479  1.00  0.00     0.163 HD
ATOM     76  O   UNL A   1      30.380  23.908  26.672  1.00  0.00    -0.274 OA
BRANCH  74  77
ATOM     77  C   UNL A   1      32.534  24.053  25.505  1.00  0.00     0.084 C 
ATOM     78  C   UNL A   1      33.948  24.291  26.075  1.00  0.00     0.064 C 
ATOM     79  C   UNL A   1      32.489  24.748  24.117  1.00  0.00     0.010 A 
ATOM     80  C   UNL A   1      35.039  24.213  25.021  1.00  0.00     0.231 C 
ATOM     81  C   UNL A   1      33.631  25.356  23.562  1.00  0.00     0.123 A 
ATOM     82  C   UNL A   1      31.280  24.907  23.409  1.00  0.00     0.009 A 
ATOM     83  O   UNL A   1      34.889  25.278  24.095  1.00  0.00    -0.493 OA
ATOM     84  C   UNL A   1      33.552  26.154  22.416  1.00  0.00     0.047 A 
ATOM     85  C   UNL A   1      31.201  25.706  22.263  1.00  0.00     0.001 A 
ATOM     86  C   UNL A   1      32.335  26.343  21.774  1.00  0.00     0.004 A 
BRANCH  77  87
ATOM     87  C   UNL A   1      32.196  22.503  25.427  1.00  0.00     0.009 C 
ATOM     88  C   UNL A   1      32.372  21.766  24.096  1.00  0.00     0.005 C 
ATOM     89  C   UNL A   1      33.054  21.627  26.379  1.00  0.00     0.005 C 
ATOM     90  C   UNL A   1      32.289  20.298  24.490  1.00  0.00     0.000 C 
ATOM     91  C   UNL A   1      33.085  20.220  25.784  1.00  0.00     0.000 C 
ENDBRANCH  77  87
ENDBRANCH  74  77
ENDBRANCH  72  73
ENDBRANCH  71  72
ENDBRANCH   1  71
TORSDOF 14
ENDMDL
MODEL 3
REMARK VINA RESULT:     -11.8      1.667      2.087
REMARK SMILES O=C(NCCCNC(=O)[C@]1(C2CCCC2)CCOc2ccccc21)c1ccc(-c2c3nc(c(-c4cc(S(=O)(=O)[O-])ccc4F)c4ccc([nH]4)c(-c4cc(S(=O)(=O)[O-])ccc4F)c4nc(c(-c5cc(S(=O)(=O)[O-])ccc5F)c5ccc2[nH]5)C=C4)C=C3)cc1
REMARK SMILES IDX 4 1 3 2 1 3 2 4 25 6 26 7 87 8 27 9 86 10 28 11 29 12 30 13
REMARK SMILES IDX 80 14 31 15 85 16 79 17 81 18 32 19 84 20 78 21 77 22 33 24
REMARK SMILES IDX 65 25 45 26 64 27 46 28 49 29 63 30 82 31 47 32 48 33 62 35
REMARK SMILES IDX 83 36 50 37 34 38 35 39 43 40 36 41 42 42 44 43 41 44 37 45
REMARK SMILES IDX 38 46 39 47 40 48 66 49 67 50 75 51 68 52 74 53 76 54 73 55
REMARK SMILES IDX 69 56 70 57 71 58 72 59 51 60 52 61 60 62 53 63 59 64 61 65
REMARK SMILES IDX 58 66 54 67 55 68 56 69 57 70 5 71 6 72 7 73 8 74 9 76 10 77
REMARK SMILES IDX 16 78 24 79 17 80 19 81 23 82 18 83 20 84 22 85 21 86 11 87
REMARK SMILES IDX 12 88 15 89 13 90 14 91
REMARK H PARENT 3 5 81 23 49 34 7 75
REMARK Flexibility Score: inf
ROOT
ATOM      1  C   UNL A   1      33.637  29.516  26.486  1.00  0.00     0.118 C 
ENDROOT
BRANCH   1   2
ATOM      2  N   UNL A   1      33.633  30.917  26.899  1.00  0.00    -0.352 N 
ATOM      3  O   UNL A   1      34.015  32.646  28.283  1.00  0.00    -0.269 OA
ATOM      4  C   UNL A   1      34.378  31.553  27.861  1.00  0.00     0.251 C 
ATOM      5  H   UNL A   1      33.001  31.494  26.413  1.00  0.00     0.163 HD
BRANCH   4   6
ATOM      6  C   UNL A   1      35.620  30.931  28.364  1.00  0.00     0.039 A 
ATOM      7  C   UNL A   1      36.861  31.425  27.960  1.00  0.00     0.014 A 
ATOM      8  C   UNL A   1      35.545  29.892  29.297  1.00  0.00     0.014 A 
ATOM      9  C   UNL A   1      38.025  30.801  28.386  1.00  0.00     0.010 A 
ATOM     10  C   UNL A   1      36.722  29.329  29.801  1.00  0.00     0.010 A 
ATOM     11  C   UNL A   1      37.971  29.770  29.336  1.00  0.00    -0.014 A 
BRANCH  11  12
ATOM     12  C   UNL A   1      39.241  29.235  29.884  1.00  0.00     0.031 A 
ATOM     13  C   UNL A   1      39.840  29.796  31.141  1.00  0.00     0.074 A 
ATOM     14  C   UNL A   1      39.827  28.201  29.247  1.00  0.00     0.049 A 
ATOM     15  N   UNL A   1      40.937  29.442  31.760  1.00  0.00    -0.248 NA
ATOM     16  C   UNL A   1      39.118  30.905  31.783  1.00  0.00     0.031 C 
ATOM     17  C   UNL A   1      39.321  27.577  28.020  1.00  0.00     0.029 A 
ATOM     18  N   UNL A   1      40.951  27.477  29.545  1.00  0.00    -0.354 N 
ATOM     19  C   UNL A   1      41.047  30.288  32.858  1.00  0.00     0.074 A 
ATOM     20  C   UNL A   1      39.922  31.198  32.795  1.00  0.00     0.031 C 
ATOM     21  C   UNL A   1      40.097  26.532  27.704  1.00  0.00     0.029 A 
ATOM     22  C   UNL A   1      41.202  26.460  28.652  1.00  0.00     0.049 A 
ATOM     23  H   UNL A   1      41.524  27.665  30.322  1.00  0.00     0.167 HD
ATOM     24  C   UNL A   1      41.995  30.292  33.827  1.00  0.00     0.034 A 
ATOM     25  C   UNL A   1      42.222  25.585  28.586  1.00  0.00     0.034 A 
ATOM     26  C   UNL A   1      43.111  29.374  33.860  1.00  0.00     0.049 A 
ATOM     27  C   UNL A   1      43.295  25.657  29.636  1.00  0.00     0.074 A 
ATOM     28  C   UNL A   1      44.124  29.280  34.799  1.00  0.00     0.029 A 
ATOM     29  N   UNL A   1      43.369  28.397  32.904  1.00  0.00    -0.354 N 
ATOM     30  N   UNL A   1      43.383  26.462  30.671  1.00  0.00    -0.248 NA
ATOM     31  C   UNL A   1      44.404  24.705  29.513  1.00  0.00     0.031 C 
ATOM     32  C   UNL A   1      45.029  28.302  34.374  1.00  0.00     0.029 A 
ATOM     33  C   UNL A   1      44.541  27.722  33.215  1.00  0.00     0.049 A 
ATOM     34  H   UNL A   1      42.803  28.212  32.121  1.00  0.00     0.167 HD
ATOM     35  C   UNL A   1      44.549  26.094  31.335  1.00  0.00     0.074 A 
ATOM     36  C   UNL A   1      45.114  24.984  30.596  1.00  0.00     0.031 C 
ATOM     37  C   UNL A   1      45.102  26.626  32.456  1.00  0.00     0.034 A 
BRANCH  24  38
ATOM     38  C   UNL A   1      41.892  31.351  34.901  1.00  0.00     0.023 A 
ATOM     39  C   UNL A   1      40.849  31.352  35.844  1.00  0.00     0.031 A 
ATOM     40  C   UNL A   1      42.841  32.385  34.973  1.00  0.00     0.131 A 
ATOM     41  C   UNL A   1      40.743  32.400  36.772  1.00  0.00     0.055 A 
ATOM     42  C   UNL A   1      42.776  33.381  35.949  1.00  0.00     0.041 A 
ATOM     43  F   UNL A   1      43.847  32.452  34.087  1.00  0.00    -0.206 F 
ATOM     44  C   UNL A   1      41.714  33.401  36.848  1.00  0.00     0.022 A 
BRANCH  41  45
ATOM     45  S   UNL A   1      39.242  32.514  37.786  1.00  0.00     0.124 S 
ATOM     46  O   UNL A   1      38.735  33.833  37.415  1.00  0.00    -0.237 OA
ATOM     47  O   UNL A   1      38.461  31.374  37.322  1.00  0.00    -0.237 OA
ATOM     48  O   UNL A   1      39.745  32.412  39.155  1.00  0.00    -0.744 OA
ENDBRANCH  41  45
ENDBRANCH  24  38
BRANCH  25  49
ATOM     49  C   UNL A   1      42.295  24.597  27.472  1.00  0.00     0.023 A 
ATOM     50  C   UNL A   1      41.517  23.430  27.485  1.00  0.00     0.031 A 
ATOM     51  C   UNL A   1      43.172  24.792  26.388  1.00  0.00     0.131 A 
ATOM     52  C   UNL A   1      41.660  22.483  26.458  1.00  0.00     0.055 A 
ATOM     53  C   UNL A   1      43.265  23.877  25.339  1.00  0.00     0.041 A 
ATOM     54  F   UNL A   1      43.940  25.892  26.324  1.00  0.00    -0.206 F 
ATOM     55  C   UNL A   1      42.515  22.707  25.378  1.00  0.00     0.022 A 
BRANCH  52  56
ATOM     56  S   UNL A   1      40.774  20.907  26.604  1.00  0.00     0.124 S 
ATOM     57  O   UNL A   1      39.475  21.243  26.036  1.00  0.00    -0.237 OA
ATOM     58  O   UNL A   1      41.612  20.015  25.811  1.00  0.00    -0.237 OA
ATOM     59  O   UNL A   1      40.779  20.649  28.043  1.00  0.00    -0.744 OA
ENDBRANCH  52  56
ENDBRANCH  25  49
BRANCH  37  60
ATOM     60  C   UNL A   1      46.362  25.974  32.965  1.00  0.00     0.023 A 
ATOM     61  C   UNL A   1      46.326  24.890  33.860  1.00  0.00     0.031 A 
ATOM     62  C   UNL A   1      47.621  26.461  32.568  1.00  0.00     0.131 A 
ATOM     63  C   UNL A   1      47.521  24.370  34.378  1.00  0.00     0.055 A 
ATOM     64  C   UNL A   1      48.808  25.895  33.034  1.00  0.00     0.041 A 
ATOM     65  F   UNL A   1      47.715  27.498  31.720  1.00  0.00    -0.206 F 
ATOM     66  C   UNL A   1      48.762  24.854  33.956  1.00  0.00     0.022 A 
BRANCH  63  67
ATOM     67  S   UNL A   1      47.432  23.122  35.689  1.00  0.00     0.124 S 
ATOM     68  O   UNL A   1      48.499  22.202  35.307  1.00  0.00    -0.237 OA
ATOM     69  O   UNL A   1      47.673  23.914  36.892  1.00  0.00    -0.237 OA
ATOM     70  O   UNL A   1      46.078  22.586  35.562  1.00  0.00    -0.744 OA
ENDBRANCH  63  67
ENDBRANCH  37  60
ENDBRANCH  11  12
ENDBRANCH   4   6
ENDBRANCH   1   2
BRANCH   1  71
ATOM     71  C   UNL A   1      32.961  28.622  27.525  1.00  0.00     0.042 C 
BRANCH  71  72
ATOM     72  C   UNL A   1      31.528  28.273  27.143  1.00  0.00     0.117 C 
BRANCH  72  73
ATOM     73  N   UNL A   1      31.299  26.845  27.214  1.00  0.00    -0.355 N 
ATOM     74  C   UNL A   1      31.407  25.804  26.364  1.00  0.00     0.231 C 
ATOM     75  H   UNL A   1      30.986  26.565  28.105  1.00  0.00     0.163 HD
ATOM     76  O   UNL A   1      31.059  24.730  26.888  1.00  0.00    -0.274 OA
BRANCH  74  77
ATOM     77  C   UNL A   1      31.951  25.818  24.877  1.00  0.00     0.084 C 
ATOM     78  C   UNL A   1      33.361  26.418  24.699  1.00  0.00     0.064 C 
ATOM     79  C   UNL A   1      30.987  26.683  24.021  1.00  0.00     0.010 A 
ATOM     80  C   UNL A   1      33.636  26.894  23.283  1.00  0.00     0.231 C 
ATOM     81  C   UNL A   1      31.464  27.726  23.205  1.00  0.00     0.123 A 
ATOM     82  C   UNL A   1      29.588  26.543  24.116  1.00  0.00     0.009 A 
ATOM     83  O   UNL A   1      32.787  27.988  22.971  1.00  0.00    -0.493 OA
ATOM     84  C   UNL A   1      30.592  28.635  22.594  1.00  0.00     0.047 A 
ATOM     85  C   UNL A   1      28.716  27.452  23.505  1.00  0.00     0.001 A 
ATOM     86  C   UNL A   1      29.219  28.508  22.756  1.00  0.00     0.004 A 
BRANCH  77  87
ATOM     87  C   UNL A   1      31.922  24.282  24.471  1.00  0.00     0.009 C 
ATOM     88  C   UNL A   1      31.741  23.902  22.998  1.00  0.00     0.005 C 
ATOM     89  C   UNL A   1      33.223  23.515  24.829  1.00  0.00     0.005 C 
ATOM     90  C   UNL A   1      32.101  22.422  22.968  1.00  0.00     0.000 C 
ATOM     91  C   UNL A   1      33.312  22.320  23.883  1.00  0.00     0.000 C 
ENDBRANCH  77  87
ENDBRANCH  74  77
ENDBRANCH  72  73
ENDBRANCH  71  72
ENDBRANCH   1  71
TORSDOF 14
ENDMDL
