MODEL 1
REMARK VINA RESULT:     -13.0      0.000      0.000
REMARK SMILES Cc1ccc(S(=O)(=O)N2CCN(C(=O)[C@H]3CCCC[C@@H]3C(=O)NCCCNC(=O)c3ccc(-c4c5nc(c(-c6cc(S(=O)(=O)[O-])ccc6F)c6ccc([nH]6)c(-c6cc(S(=O)(=O)[O-])ccc6F)c6nc(c(-c7cc(S(=O)(=O)[O-])ccc7F)c7ccc4[nH]7)C=C6)C=C5)cc3)CC2)cc1C
REMARK SMILES IDX 25 1 24 2 23 3 21 4 22 5 20 7 15 8 16 9 17 10 19 11 18 12
REMARK SMILES IDX 13 13 9 14 10 15 94 16 11 17 93 18 12 19 14 20 6 21 7 22
REMARK SMILES IDX 8 23 5 24 1 25 2 26 3 27 96 28 4 29 95 30 97 31 26 32 27 33
REMARK SMILES IDX 28 34 29 36 30 37 31 38 92 39 32 40 91 41 33 42 34 43 35 44
REMARK SMILES IDX 85 45 36 46 90 47 84 48 86 49 37 50 89 51 83 52 82 53 38 55
REMARK SMILES IDX 70 56 50 57 69 58 51 59 54 60 68 61 87 62 52 63 53 64 67 66
REMARK SMILES IDX 88 67 55 68 39 69 40 70 48 71 41 72 47 73 49 74 46 75 42 76
REMARK SMILES IDX 43 77 44 78 45 79 71 80 72 81 80 82 73 83 79 84 81 85 78 86
REMARK SMILES IDX 74 87 75 88 76 89 77 90 56 91 57 92 65 93 58 94 64 95 66 96
REMARK SMILES IDX 63 97 59 98 60 99 61 100 62 101
REMARK H PARENT 23 6 27 35 86 54 54 65
REMARK Flexibility Score: inf
ROOT
ATOM      1  C   UNL A   1      31.650  31.550  27.247  1.00  0.00     0.042 C 
ENDROOT
BRANCH   1   2
ATOM      2  C   UNL A   1      31.211  31.085  25.878  1.00  0.00     0.117 C 
BRANCH   2   3
ATOM      3  N   UNL A   1      30.671  32.141  25.049  1.00  0.00    -0.356 N 
ATOM      4  C   UNL A   1      29.618  32.099  24.194  1.00  0.00     0.223 C 
ATOM      5  O   UNL A   1      29.359  33.132  23.572  1.00  0.00    -0.275 OA
ATOM      6  H   UNL A   1      31.132  33.008  25.113  1.00  0.00     0.163 HD
BRANCH   4   7
ATOM      7  C   UNL A   1      28.858  30.794  23.972  1.00  0.00     0.091 C 
ATOM      8  C   UNL A   1      29.700  29.840  23.062  1.00  0.00     0.091 C 
ATOM      9  C   UNL A   1      29.657  30.380  21.611  1.00  0.00     0.014 C 
ATOM     10  C   UNL A   1      28.253  30.560  21.059  1.00  0.00     0.001 C 
ATOM     11  C   UNL A   1      27.433  30.916  23.379  1.00  0.00     0.014 C 
ATOM     12  C   UNL A   1      27.431  31.458  21.961  1.00  0.00     0.001 C 
BRANCH   8  13
ATOM     13  C   UNL A   1      29.172  28.421  23.313  1.00  0.00     0.226 C 
ATOM     14  N   UNL A   1      31.544  25.152  24.604  1.00  0.00    -0.194 NA
ATOM     15  C   UNL A   1      30.516  24.982  23.561  1.00  0.00     0.124 C 
ATOM     16  C   UNL A   1      32.170  26.492  24.643  1.00  0.00     0.124 C 
ATOM     17  C   UNL A   1      29.449  26.060  23.689  1.00  0.00     0.136 C 
ATOM     18  C   UNL A   1      31.136  27.627  24.671  1.00  0.00     0.136 C 
ATOM     19  N   UNL A   1      30.011  27.420  23.752  1.00  0.00    -0.340 N 
ATOM     20  O   UNL A   1      27.975  28.163  23.137  1.00  0.00    -0.275 OA
BRANCH  14  21
ATOM     21  S   UNL A   1      31.753  24.014  25.816  1.00  0.00     0.243 S 
ATOM     22  O   UNL A   1      30.706  23.026  25.688  1.00  0.00    -0.207 OA
ATOM     23  O   UNL A   1      31.949  24.747  27.053  1.00  0.00    -0.207 OA
BRANCH  21  24
ATOM     24  C   UNL A   1      33.286  23.167  25.492  1.00  0.00     0.082 A 
ATOM     25  C   UNL A   1      36.999  21.074  24.786  1.00  0.00     0.044 C 
ATOM     26  C   UNL A   1      35.734  21.846  25.037  1.00  0.00    -0.048 A 
ATOM     27  C   UNL A   1      34.524  21.252  24.679  1.00  0.00     0.005 A 
ATOM     28  C   UNL A   1      35.718  23.124  25.632  1.00  0.00    -0.047 A 
ATOM     29  C   UNL A   1      33.321  21.908  24.917  1.00  0.00     0.022 A 
ATOM     30  C   UNL A   1      34.488  23.783  25.841  1.00  0.00     0.025 A 
ATOM     31  C   UNL A   1      36.970  23.830  26.070  1.00  0.00     0.044 C 
ENDBRANCH  21  24
ENDBRANCH  14  21
ENDBRANCH   8  13
ENDBRANCH   4   7
ENDBRANCH   2   3
ENDBRANCH   1   2
BRANCH   1  32
ATOM     32  C   UNL A   1      32.908  32.393  27.250  1.00  0.00     0.118 C 
BRANCH  32  33
ATOM     33  N   UNL A   1      32.668  33.794  27.557  1.00  0.00    -0.352 N 
ATOM     34  C   UNL A   1      33.230  34.593  28.527  1.00  0.00     0.251 C 
ATOM     35  H   UNL A   1      32.001  34.239  26.985  1.00  0.00     0.163 HD
ATOM     36  O   UNL A   1      32.773  35.715  28.723  1.00  0.00    -0.269 OA
BRANCH  34  37
ATOM     37  C   UNL A   1      34.345  34.081  29.354  1.00  0.00     0.039 A 
ATOM     38  C   UNL A   1      34.059  33.282  30.462  1.00  0.00     0.014 A 
ATOM     39  C   UNL A   1      35.673  34.360  29.026  1.00  0.00     0.014 A 
ATOM     40  C   UNL A   1      35.105  32.705  31.187  1.00  0.00     0.010 A 
ATOM     41  C   UNL A   1      36.704  33.673  29.656  1.00  0.00     0.010 A 
ATOM     42  C   UNL A   1      36.436  32.855  30.761  1.00  0.00    -0.014 A 
BRANCH  42  43
ATOM     43  C   UNL A   1      37.561  32.205  31.484  1.00  0.00     0.031 A 
ATOM     44  C   UNL A   1      38.331  31.086  30.828  1.00  0.00     0.074 A 
ATOM     45  C   UNL A   1      37.860  32.584  32.743  1.00  0.00     0.049 A 
ATOM     46  N   UNL A   1      39.311  30.363  31.305  1.00  0.00    -0.248 NA
ATOM     47  C   UNL A   1      37.918  30.706  29.467  1.00  0.00     0.031 C 
ATOM     48  C   UNL A   1      37.153  33.616  33.507  1.00  0.00     0.029 A 
ATOM     49  N   UNL A   1      38.837  32.151  33.605  1.00  0.00    -0.354 N 
ATOM     50  C   UNL A   1      39.619  29.438  30.312  1.00  0.00     0.074 A 
ATOM     51  C   UNL A   1      38.666  29.638  29.244  1.00  0.00     0.031 C 
ATOM     52  C   UNL A   1      37.748  33.767  34.701  1.00  0.00     0.029 A 
ATOM     53  C   UNL A   1      38.843  32.809  34.814  1.00  0.00     0.049 A 
ATOM     54  H   UNL A   1      39.474  31.436  33.378  1.00  0.00     0.167 HD
ATOM     55  C   UNL A   1      40.624  28.529  30.278  1.00  0.00     0.034 A 
ATOM     56  C   UNL A   1      39.636  32.654  35.893  1.00  0.00     0.034 A 
ATOM     57  C   UNL A   1      41.578  28.357  31.345  1.00  0.00     0.049 A 
ATOM     58  C   UNL A   1      40.735  31.623  35.841  1.00  0.00     0.074 A 
ATOM     59  C   UNL A   1      42.669  27.508  31.396  1.00  0.00     0.029 A 
ATOM     60  N   UNL A   1      41.549  29.039  32.556  1.00  0.00    -0.354 N 
ATOM     61  N   UNL A   1      41.051  30.798  34.868  1.00  0.00    -0.248 NA
ATOM     62  C   UNL A   1      41.595  31.513  37.025  1.00  0.00     0.031 C 
ATOM     63  C   UNL A   1      43.251  27.619  32.663  1.00  0.00     0.029 A 
ATOM     64  C   UNL A   1      42.582  28.605  33.372  1.00  0.00     0.049 A 
ATOM     65  H   UNL A   1      40.892  29.730  32.799  1.00  0.00     0.167 HD
ATOM     66  C   UNL A   1      42.169  30.096  35.313  1.00  0.00     0.074 A 
ATOM     67  C   UNL A   1      42.480  30.610  36.632  1.00  0.00     0.031 C 
ATOM     68  C   UNL A   1      42.875  29.118  34.690  1.00  0.00     0.034 A 
BRANCH  55  69
ATOM     69  C   UNL A   1      40.723  27.645  29.055  1.00  0.00     0.023 A 
ATOM     70  C   UNL A   1      41.682  27.874  28.051  1.00  0.00     0.031 A 
ATOM     71  C   UNL A   1      39.829  26.576  28.876  1.00  0.00     0.131 A 
ATOM     72  C   UNL A   1      41.669  27.101  26.880  1.00  0.00     0.055 A 
ATOM     73  C   UNL A   1      39.881  25.752  27.749  1.00  0.00     0.041 A 
ATOM     74  F   UNL A   1      38.876  26.321  29.786  1.00  0.00    -0.206 F 
ATOM     75  C   UNL A   1      40.794  26.024  26.734  1.00  0.00     0.022 A 
BRANCH  72  76
ATOM     76  S   UNL A   1      42.701  27.628  25.484  1.00  0.00     0.124 S 
ATOM     77  O   UNL A   1      42.680  26.439  24.636  1.00  0.00    -0.237 OA
ATOM     78  O   UNL A   1      41.977  28.788  24.976  1.00  0.00    -0.237 OA
ATOM     79  O   UNL A   1      43.993  27.920  26.103  1.00  0.00    -0.744 OA
ENDBRANCH  72  76
ENDBRANCH  55  69
BRANCH  56  80
ATOM     80  C   UNL A   1      39.425  33.485  37.115  1.00  0.00     0.023 A 
ATOM     81  C   UNL A   1      40.179  34.648  37.342  1.00  0.00     0.031 A 
ATOM     82  C   UNL A   1      38.497  33.102  38.101  1.00  0.00     0.131 A 
ATOM     83  C   UNL A   1      40.031  35.356  38.545  1.00  0.00     0.055 A 
ATOM     84  C   UNL A   1      38.310  33.844  39.268  1.00  0.00     0.041 A 
ATOM     85  F   UNL A   1      37.747  32.000  37.936  1.00  0.00    -0.206 F 
ATOM     86  C   UNL A   1      39.091  34.970  39.503  1.00  0.00     0.022 A 
BRANCH  83  87
ATOM     87  S   UNL A   1      41.160  36.735  38.887  1.00  0.00     0.124 S 
ATOM     88  O   UNL A   1      40.226  37.814  39.185  1.00  0.00    -0.237 OA
ATOM     89  O   UNL A   1      41.930  36.223  40.014  1.00  0.00    -0.237 OA
ATOM     90  O   UNL A   1      41.905  36.881  37.638  1.00  0.00    -0.744 OA
ENDBRANCH  83  87
ENDBRANCH  56  80
BRANCH  68  91
ATOM     91  C   UNL A   1      44.088  28.579  35.413  1.00  0.00     0.023 A 
ATOM     92  C   UNL A   1      43.994  27.518  36.330  1.00  0.00     0.031 A 
ATOM     93  C   UNL A   1      45.354  29.151  35.190  1.00  0.00     0.131 A 
ATOM     94  C   UNL A   1      45.132  27.109  37.041  1.00  0.00     0.055 A 
ATOM     95  C   UNL A   1      46.495  28.688  35.846  1.00  0.00     0.041 A 
ATOM     96  F   UNL A   1      45.503  30.169  34.328  1.00  0.00    -0.206 F 
ATOM     97  C   UNL A   1      46.385  27.673  36.791  1.00  0.00     0.022 A 
BRANCH  94  98
ATOM     98  S   UNL A   1      44.930  25.909  38.388  1.00  0.00     0.124 S 
ATOM     99  O   UNL A   1      44.254  24.807  37.711  1.00  0.00    -0.237 OA
ATOM    100  O   UNL A   1      46.308  25.660  38.793  1.00  0.00    -0.237 OA
ATOM    101  O   UNL A   1      44.117  26.628  39.367  1.00  0.00    -0.744 OA
ENDBRANCH  94  98
ENDBRANCH  68  91
ENDBRANCH  42  43
ENDBRANCH  34  37
ENDBRANCH  32  33
ENDBRANCH   1  32
TORSDOF 16
ENDMDL
MODEL 2
REMARK VINA RESULT:     -12.6      1.914      7.533
REMARK SMILES Cc1ccc(S(=O)(=O)N2CCN(C(=O)[C@H]3CCCC[C@@H]3C(=O)NCCCNC(=O)c3ccc(-c4c5nc(c(-c6cc(S(=O)(=O)[O-])ccc6F)c6ccc([nH]6)c(-c6cc(S(=O)(=O)[O-])ccc6F)c6nc(c(-c7cc(S(=O)(=O)[O-])ccc7F)c7ccc4[nH]7)C=C6)C=C5)cc3)CC2)cc1C
REMARK SMILES IDX 25 1 24 2 23 3 21 4 22 5 20 7 15 8 16 9 17 10 19 11 18 12
REMARK SMILES IDX 13 13 9 14 10 15 94 16 11 17 93 18 12 19 14 20 6 21 7 22
REMARK SMILES IDX 8 23 5 24 1 25 2 26 3 27 96 28 4 29 95 30 97 31 26 32 27 33
REMARK SMILES IDX 28 34 29 36 30 37 31 38 92 39 32 40 91 41 33 42 34 43 35 44
REMARK SMILES IDX 85 45 36 46 90 47 84 48 86 49 37 50 89 51 83 52 82 53 38 55
REMARK SMILES IDX 70 56 50 57 69 58 51 59 54 60 68 61 87 62 52 63 53 64 67 66
REMARK SMILES IDX 88 67 55 68 39 69 40 70 48 71 41 72 47 73 49 74 46 75 42 76
REMARK SMILES IDX 43 77 44 78 45 79 71 80 72 81 80 82 73 83 79 84 81 85 78 86
REMARK SMILES IDX 74 87 75 88 76 89 77 90 56 91 57 92 65 93 58 94 64 95 66 96
REMARK SMILES IDX 63 97 59 98 60 99 61 100 62 101
REMARK H PARENT 23 6 27 35 86 54 54 65
REMARK Flexibility Score: inf
ROOT
ATOM      1  C   UNL A   1      31.625  31.801  27.170  1.00  0.00     0.042 C 
ENDROOT
BRANCH   1   2
ATOM      2  C   UNL A   1      30.922  31.250  25.951  1.00  0.00     0.117 C 
BRANCH   2   3
ATOM      3  N   UNL A   1      30.488  32.268  25.019  1.00  0.00    -0.356 N 
ATOM      4  C   UNL A   1      29.531  32.193  24.060  1.00  0.00     0.223 C 
ATOM      5  O   UNL A   1      29.353  33.195  23.363  1.00  0.00    -0.275 OA
ATOM      6  H   UNL A   1      30.950  33.134  25.090  1.00  0.00     0.163 HD
BRANCH   4   7
ATOM      7  C   UNL A   1      28.782  30.884  23.821  1.00  0.00     0.091 C 
ATOM      8  C   UNL A   1      29.719  29.862  23.097  1.00  0.00     0.091 C 
ATOM      9  C   UNL A   1      29.883  30.305  21.622  1.00  0.00     0.014 C 
ATOM     10  C   UNL A   1      28.569  30.463  20.874  1.00  0.00     0.001 C 
ATOM     11  C   UNL A   1      27.452  30.982  23.034  1.00  0.00     0.014 C 
ATOM     12  C   UNL A   1      27.652  31.429  21.597  1.00  0.00     0.001 C 
BRANCH   8  13
ATOM     13  C   UNL A   1      29.134  28.469  23.366  1.00  0.00     0.226 C 
ATOM     14  N   UNL A   1      31.351  25.147  24.791  1.00  0.00    -0.194 NA
ATOM     15  C   UNL A   1      30.345  24.990  23.725  1.00  0.00     0.124 C 
ATOM     16  C   UNL A   1      32.024  26.465  24.817  1.00  0.00     0.124 C 
ATOM     17  C   UNL A   1      29.315  26.109  23.800  1.00  0.00     0.136 C 
ATOM     18  C   UNL A   1      31.032  27.637  24.792  1.00  0.00     0.136 C 
ATOM     19  N   UNL A   1      29.924  27.449  23.848  1.00  0.00    -0.340 N 
ATOM     20  O   UNL A   1      27.933  28.249  23.164  1.00  0.00    -0.275 OA
BRANCH  14  21
ATOM     21  S   UNL A   1      31.487  24.031  26.033  1.00  0.00     0.243 S 
ATOM     22  O   UNL A   1      30.398  23.089  25.910  1.00  0.00    -0.207 OA
ATOM     23  O   UNL A   1      31.696  24.784  27.256  1.00  0.00    -0.207 OA
BRANCH  21  24
ATOM     24  C   UNL A   1      32.985  23.108  25.757  1.00  0.00     0.082 A 
ATOM     25  C   UNL A   1      36.664  20.929  25.130  1.00  0.00     0.044 C 
ATOM     26  C   UNL A   1      35.384  21.700  25.299  1.00  0.00    -0.048 A 
ATOM     27  C   UNL A   1      34.618  21.456  26.438  1.00  0.00     0.005 A 
ATOM     28  C   UNL A   1      34.940  22.665  24.371  1.00  0.00    -0.047 A 
ATOM     29  C   UNL A   1      33.441  22.163  26.660  1.00  0.00     0.022 A 
ATOM     30  C   UNL A   1      33.730  23.353  24.603  1.00  0.00     0.025 A 
ATOM     31  C   UNL A   1      35.711  23.010  23.129  1.00  0.00     0.044 C 
ENDBRANCH  21  24
ENDBRANCH  14  21
ENDBRANCH   8  13
ENDBRANCH   4   7
ENDBRANCH   2   3
ENDBRANCH   1   2
BRANCH   1  32
ATOM     32  C   UNL A   1      32.703  32.821  26.866  1.00  0.00     0.118 C 
BRANCH  32  33
ATOM     33  N   UNL A   1      32.596  34.034  27.662  1.00  0.00    -0.352 N 
ATOM     34  C   UNL A   1      33.328  34.437  28.756  1.00  0.00     0.251 C 
ATOM     35  H   UNL A   1      31.893  34.661  27.376  1.00  0.00     0.163 HD
ATOM     36  O   UNL A   1      32.974  35.430  29.385  1.00  0.00    -0.269 OA
BRANCH  34  37
ATOM     37  C   UNL A   1      34.503  33.650  29.192  1.00  0.00     0.039 A 
ATOM     38  C   UNL A   1      35.784  34.141  28.934  1.00  0.00     0.014 A 
ATOM     39  C   UNL A   1      34.348  32.445  29.879  1.00  0.00     0.014 A 
ATOM     40  C   UNL A   1      36.898  33.461  29.435  1.00  0.00     0.010 A 
ATOM     41  C   UNL A   1      35.442  31.851  30.496  1.00  0.00     0.010 A 
ATOM     42  C   UNL A   1      36.735  32.336  30.262  1.00  0.00    -0.014 A 
BRANCH  42  43
ATOM     43  C   UNL A   1      37.904  31.630  30.851  1.00  0.00     0.031 A 
ATOM     44  C   UNL A   1      38.355  31.961  32.252  1.00  0.00     0.074 A 
ATOM     45  C   UNL A   1      38.586  30.730  30.115  1.00  0.00     0.049 A 
ATOM     46  N   UNL A   1      39.373  31.492  32.927  1.00  0.00    -0.248 NA
ATOM     47  C   UNL A   1      37.580  32.982  32.975  1.00  0.00     0.031 C 
ATOM     48  C   UNL A   1      38.281  30.364  28.729  1.00  0.00     0.029 A 
ATOM     49  N   UNL A   1      39.675  29.953  30.426  1.00  0.00    -0.354 N 
ATOM     50  C   UNL A   1      39.367  32.170  34.142  1.00  0.00     0.074 A 
ATOM     51  C   UNL A   1      38.297  33.140  34.075  1.00  0.00     0.031 C 
ATOM     52  C   UNL A   1      39.131  29.405  28.329  1.00  0.00     0.029 A 
ATOM     53  C   UNL A   1      40.075  29.123  29.404  1.00  0.00     0.049 A 
ATOM     54  H   UNL A   1      40.127  29.988  31.300  1.00  0.00     0.167 HD
ATOM     55  C   UNL A   1      40.156  31.979  35.227  1.00  0.00     0.034 A 
ATOM     56  C   UNL A   1      41.092  28.239  29.340  1.00  0.00     0.034 A 
ATOM     57  C   UNL A   1      41.207  30.993  35.283  1.00  0.00     0.049 A 
ATOM     58  C   UNL A   1      41.970  28.057  30.552  1.00  0.00     0.074 A 
ATOM     59  C   UNL A   1      42.032  30.673  36.346  1.00  0.00     0.029 A 
ATOM     60  N   UNL A   1      41.585  30.173  34.227  1.00  0.00    -0.354 N 
ATOM     61  N   UNL A   1      41.912  28.664  31.716  1.00  0.00    -0.248 NA
ATOM     62  C   UNL A   1      43.043  27.060  30.447  1.00  0.00     0.031 C 
ATOM     63  C   UNL A   1      42.958  29.721  35.911  1.00  0.00     0.029 A 
ATOM     64  C   UNL A   1      42.654  29.375  34.603  1.00  0.00     0.049 A 
ATOM     65  H   UNL A   1      41.158  30.161  33.340  1.00  0.00     0.167 HD
ATOM     66  C   UNL A   1      42.919  28.096  32.492  1.00  0.00     0.074 A 
ATOM     67  C   UNL A   1      43.553  27.086  31.668  1.00  0.00     0.031 C 
ATOM     68  C   UNL A   1      43.285  28.379  33.769  1.00  0.00     0.034 A 
BRANCH  55  69
ATOM     69  C   UNL A   1      39.921  32.870  36.426  1.00  0.00     0.023 A 
ATOM     70  C   UNL A   1      39.164  32.440  37.531  1.00  0.00     0.031 A 
ATOM     71  C   UNL A   1      40.436  34.177  36.453  1.00  0.00     0.131 A 
ATOM     72  C   UNL A   1      38.874  33.334  38.574  1.00  0.00     0.055 A 
ATOM     73  C   UNL A   1      40.220  35.032  37.537  1.00  0.00     0.041 A 
ATOM     74  F   UNL A   1      41.145  34.655  35.419  1.00  0.00    -0.206 F 
ATOM     75  C   UNL A   1      39.421  34.618  38.598  1.00  0.00     0.022 A 
BRANCH  72  76
ATOM     76  S   UNL A   1      37.642  32.847  39.813  1.00  0.00     0.124 S 
ATOM     77  O   UNL A   1      37.724  33.955  40.761  1.00  0.00    -0.237 OA
ATOM     78  O   UNL A   1      36.416  32.770  39.026  1.00  0.00    -0.237 OA
ATOM     79  O   UNL A   1      38.144  31.569  40.314  1.00  0.00    -0.744 OA
ENDBRANCH  72  76
ENDBRANCH  55  69
BRANCH  56  80
ATOM     80  C   UNL A   1      41.342  27.461  28.091  1.00  0.00     0.023 A 
ATOM     81  C   UNL A   1      41.017  26.097  28.007  1.00  0.00     0.031 A 
ATOM     82  C   UNL A   1      41.954  28.059  26.974  1.00  0.00     0.131 A 
ATOM     83  C   UNL A   1      41.354  25.365  26.858  1.00  0.00     0.055 A 
ATOM     84  C   UNL A   1      42.231  27.341  25.810  1.00  0.00     0.041 A 
ATOM     85  F   UNL A   1      42.284  29.361  26.997  1.00  0.00    -0.206 F 
ATOM     86  C   UNL A   1      41.944  25.982  25.752  1.00  0.00     0.022 A 
BRANCH  83  87
ATOM     87  S   UNL A   1      41.099  23.569  26.865  1.00  0.00     0.124 S 
ATOM     88  O   UNL A   1      41.589  23.206  28.189  1.00  0.00    -0.237 OA
ATOM     89  O   UNL A   1      39.658  23.467  26.663  1.00  0.00    -0.237 OA
ATOM     90  O   UNL A   1      41.918  23.105  25.747  1.00  0.00    -0.744 OA
ENDBRANCH  83  87
ENDBRANCH  56  80
BRANCH  68  91
ATOM     91  C   UNL A   1      44.394  27.544  34.367  1.00  0.00     0.023 A 
ATOM     92  C   UNL A   1      44.156  26.264  34.896  1.00  0.00     0.031 A 
ATOM     93  C   UNL A   1      45.706  28.049  34.422  1.00  0.00     0.131 A 
ATOM     94  C   UNL A   1      45.198  25.562  35.519  1.00  0.00     0.055 A 
ATOM     95  C   UNL A   1      46.754  27.313  34.976  1.00  0.00     0.041 A 
ATOM     96  F   UNL A   1      45.992  29.267  33.935  1.00  0.00    -0.206 F 
ATOM     97  C   UNL A   1      46.499  26.069  35.545  1.00  0.00     0.022 A 
BRANCH  94  98
ATOM     98  S   UNL A   1      44.805  24.027  36.404  1.00  0.00     0.124 S 
ATOM     99  O   UNL A   1      44.802  24.472  37.794  1.00  0.00    -0.237 OA
ATOM    100  O   UNL A   1      43.505  23.670  35.846  1.00  0.00    -0.237 OA
ATOM    101  O   UNL A   1      45.902  23.133  36.042  1.00  0.00    -0.744 OA
ENDBRANCH  94  98
ENDBRANCH  68  91
ENDBRANCH  42  43
ENDBRANCH  34  37
ENDBRANCH  32  33
ENDBRANCH   1  32
TORSDOF 16
ENDMDL
MODEL 3
REMARK VINA RESULT:     -12.4      1.792      2.152
REMARK SMILES Cc1ccc(S(=O)(=O)N2CCN(C(=O)[C@H]3CCCC[C@@H]3C(=O)NCCCNC(=O)c3ccc(-c4c5nc(c(-c6cc(S(=O)(=O)[O-])ccc6F)c6ccc([nH]6)c(-c6cc(S(=O)(=O)[O-])ccc6F)c6nc(c(-c7cc(S(=O)(=O)[O-])ccc7F)c7ccc4[nH]7)C=C6)C=C5)cc3)CC2)cc1C
REMARK SMILES IDX 25 1 24 2 23 3 21 4 22 5 20 7 15 8 16 9 17 10 19 11 18 12
REMARK SMILES IDX 13 13 9 14 10 15 94 16 11 17 93 18 12 19 14 20 6 21 7 22
REMARK SMILES IDX 8 23 5 24 1 25 2 26 3 27 96 28 4 29 95 30 97 31 26 32 27 33
REMARK SMILES IDX 28 34 29 36 30 37 31 38 92 39 32 40 91 41 33 42 34 43 35 44
REMARK SMILES IDX 85 45 36 46 90 47 84 48 86 49 37 50 89 51 83 52 82 53 38 55
REMARK SMILES IDX 70 56 50 57 69 58 51 59 54 60 68 61 87 62 52 63 53 64 67 66
REMARK SMILES IDX 88 67 55 68 39 69 40 70 48 71 41 72 47 73 49 74 46 75 42 76
REMARK SMILES IDX 43 77 44 78 45 79 71 80 72 81 80 82 73 83 79 84 81 85 78 86
REMARK SMILES IDX 74 87 75 88 76 89 77 90 56 91 57 92 65 93 58 94 64 95 66 96
REMARK SMILES IDX 63 97 59 98 60 99 61 100 62 101
REMARK H PARENT 23 6 27 35 86 54 54 65
REMARK Flexibility Score: inf
ROOT
ATOM      1  C   UNL A   1      31.452  31.781  27.193  1.00  0.00     0.042 C 
ENDROOT
BRANCH   1   2
ATOM      2  C   UNL A   1      31.053  31.290  25.820  1.00  0.00     0.117 C 
BRANCH   2   3
ATOM      3  N   UNL A   1      30.529  32.329  24.960  1.00  0.00    -0.356 N 
ATOM      4  C   UNL A   1      29.494  32.269  24.084  1.00  0.00     0.223 C 
ATOM      5  O   UNL A   1      29.246  33.289  23.436  1.00  0.00    -0.275 OA
ATOM      6  H   UNL A   1      30.987  33.198  25.017  1.00  0.00     0.163 HD
BRANCH   4   7
ATOM      7  C   UNL A   1      28.741  30.959  23.871  1.00  0.00     0.091 C 
ATOM      8  C   UNL A   1      29.622  29.971  23.037  1.00  0.00     0.091 C 
ATOM      9  C   UNL A   1      29.652  30.459  21.568  1.00  0.00     0.014 C 
ATOM     10  C   UNL A   1      28.277  30.622  20.942  1.00  0.00     0.001 C 
ATOM     11  C   UNL A   1      27.346  31.063  23.206  1.00  0.00     0.014 C 
ATOM     12  C   UNL A   1      27.416  31.554  21.772  1.00  0.00     0.001 C 
BRANCH   8  13
ATOM     13  C   UNL A   1      29.077  28.563  23.313  1.00  0.00     0.226 C 
ATOM     14  N   UNL A   1      31.430  25.257  24.545  1.00  0.00    -0.194 NA
ATOM     15  C   UNL A   1      30.367  25.101  23.536  1.00  0.00     0.124 C 
ATOM     16  C   UNL A   1      32.081  26.586  24.557  1.00  0.00     0.124 C 
ATOM     17  C   UNL A   1      29.324  26.199  23.691  1.00  0.00     0.136 C 
ATOM     18  C   UNL A   1      31.069  27.740  24.612  1.00  0.00     0.136 C 
ATOM     19  N   UNL A   1      29.911  27.549  23.730  1.00  0.00    -0.340 N 
ATOM     20  O   UNL A   1      27.871  28.325  23.176  1.00  0.00    -0.275 OA
BRANCH  14  21
ATOM     21  S   UNL A   1      31.657  24.122  25.755  1.00  0.00     0.243 S 
ATOM     22  O   UNL A   1      30.650  23.096  25.602  1.00  0.00    -0.207 OA
ATOM     23  O   UNL A   1      31.801  24.855  27.000  1.00  0.00    -0.207 OA
BRANCH  21  24
ATOM     24  C   UNL A   1      33.226  23.333  25.459  1.00  0.00     0.082 A 
ATOM     25  C   UNL A   1      37.023  21.433  24.653  1.00  0.00     0.044 C 
ATOM     26  C   UNL A   1      35.682  22.048  24.945  1.00  0.00    -0.048 A 
ATOM     27  C   UNL A   1      35.626  23.426  25.155  1.00  0.00     0.005 A 
ATOM     28  C   UNL A   1      34.488  21.300  24.994  1.00  0.00    -0.047 A 
ATOM     29  C   UNL A   1      34.408  24.051  25.398  1.00  0.00     0.022 A 
ATOM     30  C   UNL A   1      33.266  21.952  25.267  1.00  0.00     0.025 A 
ATOM     31  C   UNL A   1      34.449  19.818  24.758  1.00  0.00     0.044 C 
ENDBRANCH  21  24
ENDBRANCH  14  21
ENDBRANCH   8  13
ENDBRANCH   4   7
ENDBRANCH   2   3
ENDBRANCH   1   2
BRANCH   1  32
ATOM     32  C   UNL A   1      32.718  32.611  27.220  1.00  0.00     0.118 C 
BRANCH  32  33
ATOM     33  N   UNL A   1      32.493  34.001  27.582  1.00  0.00    -0.352 N 
ATOM     34  C   UNL A   1      33.111  34.773  28.540  1.00  0.00     0.251 C 
ATOM     35  H   UNL A   1      31.792  34.460  27.066  1.00  0.00     0.163 HD
ATOM     36  O   UNL A   1      32.664  35.886  28.798  1.00  0.00    -0.269 OA
BRANCH  34  37
ATOM     37  C   UNL A   1      34.276  34.241  29.282  1.00  0.00     0.039 A 
ATOM     38  C   UNL A   1      34.059  33.456  30.415  1.00  0.00     0.014 A 
ATOM     39  C   UNL A   1      35.580  34.488  28.851  1.00  0.00     0.014 A 
ATOM     40  C   UNL A   1      35.146  32.859  31.061  1.00  0.00     0.010 A 
ATOM     41  C   UNL A   1      36.641  33.783  29.404  1.00  0.00     0.010 A 
ATOM     42  C   UNL A   1      36.442  32.978  30.533  1.00  0.00    -0.014 A 
BRANCH  42  43
ATOM     43  C   UNL A   1      37.606  32.307  31.172  1.00  0.00     0.031 A 
ATOM     44  C   UNL A   1      38.389  31.269  30.407  1.00  0.00     0.074 A 
ATOM     45  C   UNL A   1      37.929  32.593  32.449  1.00  0.00     0.049 A 
ATOM     46  N   UNL A   1      39.403  30.541  30.799  1.00  0.00    -0.248 NA
ATOM     47  C   UNL A   1      37.949  30.986  29.031  1.00  0.00     0.031 C 
ATOM     48  C   UNL A   1      37.214  33.539  33.312  1.00  0.00     0.029 A 
ATOM     49  N   UNL A   1      38.942  32.124  33.248  1.00  0.00    -0.354 N 
ATOM     50  C   UNL A   1      39.709  29.708  29.727  1.00  0.00     0.074 A 
ATOM     51  C   UNL A   1      38.721  29.963  28.703  1.00  0.00     0.031 C 
ATOM     52  C   UNL A   1      37.838  33.612  34.498  1.00  0.00     0.029 A 
ATOM     53  C   UNL A   1      38.963  32.683  34.505  1.00  0.00     0.049 A 
ATOM     54  H   UNL A   1      39.593  31.449  32.947  1.00  0.00     0.167 HD
ATOM     55  C   UNL A   1      40.739  28.837  29.593  1.00  0.00     0.034 A 
ATOM     56  C   UNL A   1      39.791  32.466  35.547  1.00  0.00     0.034 A 
ATOM     57  C   UNL A   1      41.726  28.610  30.618  1.00  0.00     0.049 A 
ATOM     58  C   UNL A   1      40.918  31.478  35.383  1.00  0.00     0.074 A 
ATOM     59  C   UNL A   1      42.843  27.794  30.572  1.00  0.00     0.029 A 
ATOM     60  N   UNL A   1      41.713  29.192  31.880  1.00  0.00    -0.354 N 
ATOM     61  N   UNL A   1      41.230  30.744  34.339  1.00  0.00    -0.248 NA
ATOM     62  C   UNL A   1      41.814  31.300  36.532  1.00  0.00     0.031 C 
ATOM     63  C   UNL A   1      43.457  27.821  31.828  1.00  0.00     0.029 A 
ATOM     64  C   UNL A   1      42.780  28.725  32.632  1.00  0.00     0.049 A 
ATOM     65  H   UNL A   1      41.042  29.840  32.195  1.00  0.00     0.167 HD
ATOM     66  C   UNL A   1      42.379  30.043  34.697  1.00  0.00     0.074 A 
ATOM     67  C   UNL A   1      42.712  30.459  36.044  1.00  0.00     0.031 C 
ATOM     68  C   UNL A   1      43.096  29.140  33.979  1.00  0.00     0.034 A 
BRANCH  55  69
ATOM     69  C   UNL A   1      40.828  28.057  28.301  1.00  0.00     0.023 A 
ATOM     70  C   UNL A   1      40.238  26.788  28.159  1.00  0.00     0.031 A 
ATOM     71  C   UNL A   1      41.538  28.576  27.205  1.00  0.00     0.131 A 
ATOM     72  C   UNL A   1      40.438  26.048  26.984  1.00  0.00     0.055 A 
ATOM     73  C   UNL A   1      41.656  27.872  26.003  1.00  0.00     0.041 A 
ATOM     74  F   UNL A   1      42.145  29.770  27.285  1.00  0.00    -0.206 F 
ATOM     75  C   UNL A   1      41.119  26.593  25.894  1.00  0.00     0.022 A 
BRANCH  72  76
ATOM     76  S   UNL A   1      39.937  24.305  26.962  1.00  0.00     0.124 S 
ATOM     77  O   UNL A   1      39.581  24.083  28.362  1.00  0.00    -0.237 OA
ATOM     78  O   UNL A   1      38.829  24.306  26.014  1.00  0.00    -0.237 OA
ATOM     79  O   UNL A   1      41.141  23.607  26.516  1.00  0.00    -0.744 OA
ENDBRANCH  72  76
ENDBRANCH  55  69
BRANCH  56  80
ATOM     80  C   UNL A   1      39.591  33.190  36.837  1.00  0.00     0.023 A 
ATOM     81  C   UNL A   1      38.844  32.621  37.882  1.00  0.00     0.031 A 
ATOM     82  C   UNL A   1      40.106  34.485  37.029  1.00  0.00     0.131 A 
ATOM     83  C   UNL A   1      38.588  33.363  39.046  1.00  0.00     0.055 A 
ATOM     84  C   UNL A   1      39.900  35.195  38.213  1.00  0.00     0.041 A 
ATOM     85  F   UNL A   1      40.829  35.078  36.065  1.00  0.00    -0.206 F 
ATOM     86  C   UNL A   1      39.124  34.640  39.225  1.00  0.00     0.022 A 
BRANCH  83  87
ATOM     87  S   UNL A   1      37.458  32.672  40.286  1.00  0.00     0.124 S 
ATOM     88  O   UNL A   1      36.185  32.702  39.575  1.00  0.00    -0.237 OA
ATOM     89  O   UNL A   1      38.034  31.352  40.518  1.00  0.00    -0.237 OA
ATOM     90  O   UNL A   1      37.571  33.606  41.405  1.00  0.00    -0.744 OA
ENDBRANCH  83  87
ENDBRANCH  56  80
BRANCH  68  91
ATOM     91  C   UNL A   1      44.343  28.583  34.624  1.00  0.00     0.023 A 
ATOM     92  C   UNL A   1      44.319  27.407  35.392  1.00  0.00     0.031 A 
ATOM     93  C   UNL A   1      45.572  29.253  34.479  1.00  0.00     0.131 A 
ATOM     94  C   UNL A   1      45.484  26.976  36.044  1.00  0.00     0.055 A 
ATOM     95  C   UNL A   1      46.743  28.776  35.068  1.00  0.00     0.041 A 
ATOM     96  F   UNL A   1      45.655  30.383  33.759  1.00  0.00    -0.206 F 
ATOM     97  C   UNL A   1      46.700  27.641  35.871  1.00  0.00     0.022 A 
BRANCH  94  98
ATOM     98  S   UNL A   1      45.363  25.599  37.220  1.00  0.00     0.124 S 
ATOM     99  O   UNL A   1      46.556  24.821  36.899  1.00  0.00    -0.237 OA
ATOM    100  O   UNL A   1      45.376  26.286  38.507  1.00  0.00    -0.237 OA
ATOM    101  O   UNL A   1      44.095  24.961  36.871  1.00  0.00    -0.744 OA
ENDBRANCH  94  98
ENDBRANCH  68  91
ENDBRANCH  42  43
ENDBRANCH  34  37
ENDBRANCH  32  33
ENDBRANCH   1  32
TORSDOF 16
ENDMDL
