MODEL 1
REMARK VINA RESULT:     -12.5      0.000      0.000
REMARK SMILES Cc1cc(C(=O)N2C[C@@H](C(=O)NCCCNC(=O)c3ccc(-c4c5nc(c(-c6cc(S(=O)(=O)[O-])ccc6F)c6ccc([nH]6)c(-c6cc(S(=O)(=O)[O-])ccc6F)c6nc(c(-c7cc(S(=O)(=O)[O-])ccc7F)c7ccc4[nH]7)C=C6)C=C5)cc3)[C@H](C3CC3)C2)sc1C
REMARK SMILES IDX 14 1 13 2 12 3 10 4 11 5 9 7 7 8 8 9 86 10 82 11 5 12 6 13
REMARK SMILES IDX 4 14 1 15 2 16 3 17 88 18 87 19 89 20 83 21 84 22 85 23
REMARK SMILES IDX 15 24 16 25 17 26 18 28 19 29 20 30 81 31 21 32 80 33 22 34
REMARK SMILES IDX 23 35 24 36 74 37 25 38 79 39 73 40 75 41 26 42 78 43 72 44
REMARK SMILES IDX 71 45 27 47 59 48 39 49 58 50 40 51 43 52 57 53 76 54 41 55
REMARK SMILES IDX 42 56 56 58 77 59 44 60 28 61 29 62 37 63 30 64 36 65 38 66
REMARK SMILES IDX 35 67 31 68 32 69 33 70 34 71 60 72 61 73 69 74 62 75 68 76
REMARK SMILES IDX 70 77 67 78 63 79 64 80 65 81 66 82 45 83 46 84 54 85 47 86
REMARK SMILES IDX 53 87 55 88 52 89 48 90 49 91 50 92 51 93
REMARK H PARENT 12 6 16 27 75 46 43 57
REMARK Flexibility Score: inf
ROOT
ATOM      1  C   UNL A   1      33.652  28.944  24.213  1.00  0.00     0.042 C 
ENDROOT
BRANCH   1   2
ATOM      2  C   UNL A   1      32.721  28.852  23.021  1.00  0.00     0.117 C 
BRANCH   2   3
ATOM      3  N   UNL A   1      33.157  27.912  22.005  1.00  0.00    -0.356 N 
ATOM      4  C   UNL A   1      33.001  26.557  21.949  1.00  0.00     0.225 C 
ATOM      5  O   UNL A   1      33.324  25.984  20.906  1.00  0.00    -0.275 OA
ATOM      6  H   UNL A   1      33.636  28.310  21.242  1.00  0.00     0.163 HD
BRANCH   4   7
ATOM      7  C   UNL A   1      32.459  25.795  23.143  1.00  0.00     0.103 C 
ATOM      8  N   UNL A   1      32.020  23.655  23.923  1.00  0.00    -0.337 N 
ATOM      9  C   UNL A   1      32.969  24.355  23.084  1.00  0.00     0.133 C 
ATOM     10  C   UNL A   1      30.700  24.197  23.707  1.00  0.00     0.124 C 
ATOM     11  C   UNL A   1      30.919  25.613  23.117  1.00  0.00     0.026 C 
BRANCH   8  12
ATOM     12  C   UNL A   1      32.203  22.634  24.840  1.00  0.00     0.263 C 
ATOM     13  O   UNL A   1      32.045  22.880  26.039  1.00  0.00    -0.268 OA
BRANCH  12  14
ATOM     14  C   UNL A   1      32.667  21.317  24.409  1.00  0.00     0.093 A 
ATOM     15  C   UNL A   1      32.211  18.297  22.197  1.00  0.00     0.045 C 
ATOM     16  C   UNL A   1      32.657  19.264  23.244  1.00  0.00    -0.037 A 
ATOM     17  C   UNL A   1      32.202  20.622  23.306  1.00  0.00     0.029 A 
ATOM     18  C   UNL A   1      33.515  18.986  24.294  1.00  0.00     0.005 A 
ATOM     19  S   UNL A   1      33.657  20.307  25.367  1.00  0.00    -0.135 S 
ATOM     20  C   UNL A   1      34.232  17.712  24.604  1.00  0.00     0.056 C 
ENDBRANCH  12  14
ENDBRANCH   8  12
BRANCH  11  21
ATOM     21  C   UNL A   1      30.053  26.604  23.865  1.00  0.00    -0.005 C 
ATOM     22  C   UNL A   1      29.268  27.723  23.224  1.00  0.00     0.004 C 
ATOM     23  C   UNL A   1      28.551  26.543  23.825  1.00  0.00     0.004 C 
ENDBRANCH  11  21
ENDBRANCH   4   7
ENDBRANCH   2   3
ENDBRANCH   1   2
BRANCH   1  24
ATOM     24  C   UNL A   1      32.935  28.941  25.555  1.00  0.00     0.118 C 
BRANCH  24  25
ATOM     25  N   UNL A   1      32.505  30.267  25.982  1.00  0.00    -0.352 N 
ATOM     26  C   UNL A   1      33.041  31.140  26.903  1.00  0.00     0.251 C 
ATOM     27  H   UNL A   1      31.692  30.596  25.536  1.00  0.00     0.163 HD
ATOM     28  O   UNL A   1      32.403  32.134  27.226  1.00  0.00    -0.269 OA
BRANCH  26  29
ATOM     29  C   UNL A   1      34.357  30.863  27.521  1.00  0.00     0.039 A 
ATOM     30  C   UNL A   1      35.259  31.914  27.709  1.00  0.00     0.014 A 
ATOM     31  C   UNL A   1      34.704  29.573  27.922  1.00  0.00     0.014 A 
ATOM     32  C   UNL A   1      36.461  31.684  28.387  1.00  0.00     0.010 A 
ATOM     33  C   UNL A   1      35.838  29.370  28.698  1.00  0.00     0.010 A 
ATOM     34  C   UNL A   1      36.734  30.421  28.937  1.00  0.00    -0.014 A 
BRANCH  34  35
ATOM     35  C   UNL A   1      37.956  30.159  29.745  1.00  0.00     0.031 A 
ATOM     36  C   UNL A   1      39.035  29.265  29.193  1.00  0.00     0.074 A 
ATOM     37  C   UNL A   1      38.053  30.649  30.997  1.00  0.00     0.049 A 
ATOM     38  N   UNL A   1      40.098  28.785  29.784  1.00  0.00    -0.248 NA
ATOM     39  C   UNL A   1      38.870  28.816  27.801  1.00  0.00     0.031 C 
ATOM     40  C   UNL A   1      37.054  31.491  31.660  1.00  0.00     0.029 A 
ATOM     41  N   UNL A   1      39.036  30.499  31.944  1.00  0.00    -0.354 N 
ATOM     42  C   UNL A   1      40.717  27.968  28.844  1.00  0.00     0.074 A 
ATOM     43  C   UNL A   1      39.865  27.953  27.675  1.00  0.00     0.031 C 
ATOM     44  C   UNL A   1      37.487  31.805  32.891  1.00  0.00     0.029 A 
ATOM     45  C   UNL A   1      38.767  31.146  33.129  1.00  0.00     0.049 A 
ATOM     46  H   UNL A   1      39.856  29.979  31.789  1.00  0.00     0.167 HD
ATOM     47  C   UNL A   1      41.905  27.319  28.931  1.00  0.00     0.034 A 
ATOM     48  C   UNL A   1      39.465  31.189  34.282  1.00  0.00     0.034 A 
ATOM     49  C   UNL A   1      42.754  27.361  30.095  1.00  0.00     0.049 A 
ATOM     50  C   UNL A   1      40.774  30.441  34.363  1.00  0.00     0.074 A 
ATOM     51  C   UNL A   1      43.989  26.765  30.285  1.00  0.00     0.029 A 
ATOM     52  N   UNL A   1      42.460  28.049  31.265  1.00  0.00    -0.354 N 
ATOM     53  N   UNL A   1      41.358  29.695  33.452  1.00  0.00    -0.248 NA
ATOM     54  C   UNL A   1      41.523  30.550  35.621  1.00  0.00     0.031 C 
ATOM     55  C   UNL A   1      44.416  27.050  31.587  1.00  0.00     0.029 A 
ATOM     56  C   UNL A   1      43.482  27.880  32.185  1.00  0.00     0.049 A 
ATOM     57  H   UNL A   1      41.645  28.578  31.418  1.00  0.00     0.167 HD
ATOM     58  C   UNL A   1      42.560  29.280  34.018  1.00  0.00     0.074 A 
ATOM     59  C   UNL A   1      42.624  29.871  35.338  1.00  0.00     0.031 C 
ATOM     60  C   UNL A   1      43.527  28.482  33.496  1.00  0.00     0.034 A 
BRANCH  47  61
ATOM     61  C   UNL A   1      42.340  26.510  27.732  1.00  0.00     0.023 A 
ATOM     62  C   UNL A   1      41.892  25.192  27.538  1.00  0.00     0.031 A 
ATOM     63  C   UNL A   1      43.236  27.044  26.790  1.00  0.00     0.131 A 
ATOM     64  C   UNL A   1      42.400  24.425  26.479  1.00  0.00     0.055 A 
ATOM     65  C   UNL A   1      43.673  26.305  25.688  1.00  0.00     0.041 A 
ATOM     66  F   UNL A   1      43.716  28.290  26.933  1.00  0.00    -0.206 F 
ATOM     67  C   UNL A   1      43.268  24.981  25.536  1.00  0.00     0.022 A 
BRANCH  64  68
ATOM     68  S   UNL A   1      42.025  22.652  26.438  1.00  0.00     0.124 S 
ATOM     69  O   UNL A   1      40.564  22.661  26.458  1.00  0.00    -0.237 OA
ATOM     70  O   UNL A   1      42.645  22.226  25.190  1.00  0.00    -0.237 OA
ATOM     71  O   UNL A   1      42.654  22.141  27.654  1.00  0.00    -0.744 OA
ENDBRANCH  64  68
ENDBRANCH  47  61
BRANCH  48  72
ATOM     72  C   UNL A   1      38.956  31.951  35.459  1.00  0.00     0.023 A 
ATOM     73  C   UNL A   1      38.398  31.284  36.561  1.00  0.00     0.031 A 
ATOM     74  C   UNL A   1      38.957  33.357  35.473  1.00  0.00     0.131 A 
ATOM     75  C   UNL A   1      37.805  32.020  37.600  1.00  0.00     0.055 A 
ATOM     76  C   UNL A   1      38.420  34.085  36.537  1.00  0.00     0.041 A 
ATOM     77  F   UNL A   1      39.483  34.048  34.449  1.00  0.00    -0.206 F 
ATOM     78  C   UNL A   1      37.823  33.416  37.601  1.00  0.00     0.022 A 
BRANCH  75  79
ATOM     79  S   UNL A   1      36.903  31.122  38.892  1.00  0.00     0.124 S 
ATOM     80  O   UNL A   1      36.774  29.796  38.297  1.00  0.00    -0.237 OA
ATOM     81  O   UNL A   1      37.815  31.230  40.026  1.00  0.00    -0.237 OA
ATOM     82  O   UNL A   1      35.656  31.873  39.020  1.00  0.00    -0.744 OA
ENDBRANCH  75  79
ENDBRANCH  48  72
BRANCH  60  83
ATOM     83  C   UNL A   1      44.757  28.260  34.339  1.00  0.00     0.023 A 
ATOM     84  C   UNL A   1      44.858  27.179  35.232  1.00  0.00     0.031 A 
ATOM     85  C   UNL A   1      45.840  29.153  34.253  1.00  0.00     0.131 A 
ATOM     86  C   UNL A   1      45.992  27.052  36.047  1.00  0.00     0.055 A 
ATOM     87  C   UNL A   1      46.991  28.986  35.023  1.00  0.00     0.041 A 
ATOM     88  F   UNL A   1      45.796  30.202  33.415  1.00  0.00    -0.206 F 
ATOM     89  C   UNL A   1      47.066  27.938  35.937  1.00  0.00     0.022 A 
BRANCH  86  90
ATOM     90  S   UNL A   1      46.007  25.759  37.318  1.00  0.00     0.124 S 
ATOM     91  O   UNL A   1      46.560  24.622  36.588  1.00  0.00    -0.237 OA
ATOM     92  O   UNL A   1      46.869  26.337  38.343  1.00  0.00    -0.237 OA
ATOM     93  O   UNL A   1      44.600  25.630  37.693  1.00  0.00    -0.744 OA
ENDBRANCH  86  90
ENDBRANCH  60  83
ENDBRANCH  34  35
ENDBRANCH  26  29
ENDBRANCH  24  25
ENDBRANCH   1  24
TORSDOF 16
ENDMDL
MODEL 2
REMARK VINA RESULT:     -12.3      2.343      3.180
REMARK SMILES Cc1cc(C(=O)N2C[C@@H](C(=O)NCCCNC(=O)c3ccc(-c4c5nc(c(-c6cc(S(=O)(=O)[O-])ccc6F)c6ccc([nH]6)c(-c6cc(S(=O)(=O)[O-])ccc6F)c6nc(c(-c7cc(S(=O)(=O)[O-])ccc7F)c7ccc4[nH]7)C=C6)C=C5)cc3)[C@H](C3CC3)C2)sc1C
REMARK SMILES IDX 14 1 13 2 12 3 10 4 11 5 9 7 7 8 8 9 86 10 82 11 5 12 6 13
REMARK SMILES IDX 4 14 1 15 2 16 3 17 88 18 87 19 89 20 83 21 84 22 85 23
REMARK SMILES IDX 15 24 16 25 17 26 18 28 19 29 20 30 81 31 21 32 80 33 22 34
REMARK SMILES IDX 23 35 24 36 74 37 25 38 79 39 73 40 75 41 26 42 78 43 72 44
REMARK SMILES IDX 71 45 27 47 59 48 39 49 58 50 40 51 43 52 57 53 76 54 41 55
REMARK SMILES IDX 42 56 56 58 77 59 44 60 28 61 29 62 37 63 30 64 36 65 38 66
REMARK SMILES IDX 35 67 31 68 32 69 33 70 34 71 60 72 61 73 69 74 62 75 68 76
REMARK SMILES IDX 70 77 67 78 63 79 64 80 65 81 66 82 45 83 46 84 54 85 47 86
REMARK SMILES IDX 53 87 55 88 52 89 48 90 49 91 50 92 51 93
REMARK H PARENT 12 6 16 27 75 46 43 57
REMARK Flexibility Score: inf
ROOT
ATOM      1  C   UNL A   1      31.803  31.574  26.803  1.00  0.00     0.042 C 
ENDROOT
BRANCH   1   2
ATOM      2  C   UNL A   1      32.004  30.071  26.789  1.00  0.00     0.117 C 
BRANCH   2   3
ATOM      3  N   UNL A   1      33.067  29.628  25.906  1.00  0.00    -0.356 N 
ATOM      4  C   UNL A   1      33.253  28.415  25.310  1.00  0.00     0.225 C 
ATOM      5  O   UNL A   1      34.155  28.318  24.474  1.00  0.00    -0.275 OA
ATOM      6  H   UNL A   1      33.757  30.302  25.708  1.00  0.00     0.163 HD
BRANCH   4   7
ATOM      7  C   UNL A   1      32.379  27.233  25.681  1.00  0.00     0.103 C 
ATOM      8  N   UNL A   1      32.358  24.916  25.792  1.00  0.00    -0.337 N 
ATOM      9  C   UNL A   1      33.275  26.024  25.957  1.00  0.00     0.133 C 
ATOM     10  C   UNL A   1      31.462  25.195  24.696  1.00  0.00     0.124 C 
ATOM     11  C   UNL A   1      31.481  26.734  24.520  1.00  0.00     0.026 C 
BRANCH   8  12
ATOM     12  C   UNL A   1      32.230  23.733  26.502  1.00  0.00     0.263 C 
ATOM     13  O   UNL A   1      31.508  23.719  27.502  1.00  0.00    -0.268 OA
BRANCH  12  14
ATOM     14  C   UNL A   1      33.007  22.553  26.132  1.00  0.00     0.093 A 
ATOM     15  C   UNL A   1      36.338  21.029  25.237  1.00  0.00     0.045 C 
ATOM     16  C   UNL A   1      34.886  21.284  25.476  1.00  0.00    -0.037 A 
ATOM     17  C   UNL A   1      34.388  22.480  26.091  1.00  0.00     0.029 A 
ATOM     18  C   UNL A   1      33.844  20.448  25.114  1.00  0.00     0.005 A 
ATOM     19  S   UNL A   1      32.322  21.161  25.416  1.00  0.00    -0.135 S 
ATOM     20  C   UNL A   1      33.906  19.102  24.468  1.00  0.00     0.056 C 
ENDBRANCH  12  14
ENDBRANCH   8  12
BRANCH  11  21
ATOM     21  C   UNL A   1      30.057  27.243  24.428  1.00  0.00    -0.005 C 
ATOM     22  C   UNL A   1      29.398  27.741  23.165  1.00  0.00     0.004 C 
ATOM     23  C   UNL A   1      28.961  26.439  23.784  1.00  0.00     0.004 C 
ENDBRANCH  11  21
ENDBRANCH   4   7
ENDBRANCH   2   3
ENDBRANCH   1   2
BRANCH   1  24
ATOM     24  C   UNL A   1      33.014  32.351  27.295  1.00  0.00     0.118 C 
BRANCH  24  25
ATOM     25  N   UNL A   1      32.711  33.737  27.635  1.00  0.00    -0.352 N 
ATOM     26  C   UNL A   1      33.212  34.558  28.621  1.00  0.00     0.251 C 
ATOM     27  H   UNL A   1      32.032  34.158  27.061  1.00  0.00     0.163 HD
ATOM     28  O   UNL A   1      32.676  35.639  28.828  1.00  0.00    -0.269 OA
BRANCH  26  29
ATOM     29  C   UNL A   1      34.362  34.124  29.445  1.00  0.00     0.039 A 
ATOM     30  C   UNL A   1      34.132  33.353  30.589  1.00  0.00     0.014 A 
ATOM     31  C   UNL A   1      35.667  34.467  29.094  1.00  0.00     0.014 A 
ATOM     32  C   UNL A   1      35.215  32.849  31.315  1.00  0.00     0.010 A 
ATOM     33  C   UNL A   1      36.740  33.869  29.743  1.00  0.00     0.010 A 
ATOM     34  C   UNL A   1      36.529  33.056  30.866  1.00  0.00    -0.014 A 
BRANCH  34  35
ATOM     35  C   UNL A   1      37.704  32.459  31.556  1.00  0.00     0.031 A 
ATOM     36  C   UNL A   1      38.436  31.308  30.917  1.00  0.00     0.074 A 
ATOM     37  C   UNL A   1      38.054  32.889  32.785  1.00  0.00     0.049 A 
ATOM     38  N   UNL A   1      39.379  30.548  31.410  1.00  0.00    -0.248 NA
ATOM     39  C   UNL A   1      38.018  30.937  29.555  1.00  0.00     0.031 C 
ATOM     40  C   UNL A   1      37.394  33.966  33.527  1.00  0.00     0.029 A 
ATOM     41  N   UNL A   1      39.045  32.465  33.635  1.00  0.00    -0.354 N 
ATOM     42  C   UNL A   1      39.654  29.602  30.428  1.00  0.00     0.074 A 
ATOM     43  C   UNL A   1      38.721  29.835  29.347  1.00  0.00     0.031 C 
ATOM     44  C   UNL A   1      38.016  34.136  34.706  1.00  0.00     0.029 A 
ATOM     45  C   UNL A   1      39.082  33.147  34.829  1.00  0.00     0.049 A 
ATOM     46  H   UNL A   1      39.672  31.740  33.409  1.00  0.00     0.167 HD
ATOM     47  C   UNL A   1      40.620  28.650  30.410  1.00  0.00     0.034 A 
ATOM     48  C   UNL A   1      39.874  32.983  35.907  1.00  0.00     0.034 A 
ATOM     49  C   UNL A   1      41.558  28.444  31.485  1.00  0.00     0.049 A 
ATOM     50  C   UNL A   1      40.928  31.903  35.874  1.00  0.00     0.074 A 
ATOM     51  C   UNL A   1      42.594  27.529  31.565  1.00  0.00     0.029 A 
ATOM     52  N   UNL A   1      41.580  29.174  32.667  1.00  0.00    -0.354 N 
ATOM     53  N   UNL A   1      41.193  31.036  34.923  1.00  0.00    -0.248 NA
ATOM     54  C   UNL A   1      41.798  31.788  37.051  1.00  0.00     0.031 C 
ATOM     55  C   UNL A   1      43.208  27.671  32.814  1.00  0.00     0.029 A 
ATOM     56  C   UNL A   1      42.601  28.720  33.486  1.00  0.00     0.049 A 
ATOM     57  H   UNL A   1      40.961  29.905  32.890  1.00  0.00     0.167 HD
ATOM     58  C   UNL A   1      42.284  30.299  35.377  1.00  0.00     0.074 A 
ATOM     59  C   UNL A   1      42.636  30.835  36.674  1.00  0.00     0.031 C 
ATOM     60  C   UNL A   1      42.938  29.272  34.776  1.00  0.00     0.034 A 
BRANCH  47  61
ATOM     61  C   UNL A   1      40.696  27.765  29.188  1.00  0.00     0.023 A 
ATOM     62  C   UNL A   1      41.635  28.004  28.170  1.00  0.00     0.031 A 
ATOM     63  C   UNL A   1      39.803  26.693  29.019  1.00  0.00     0.131 A 
ATOM     64  C   UNL A   1      41.608  27.239  26.995  1.00  0.00     0.055 A 
ATOM     65  C   UNL A   1      39.837  25.878  27.885  1.00  0.00     0.041 A 
ATOM     66  F   UNL A   1      38.870  26.428  29.948  1.00  0.00    -0.206 F 
ATOM     67  C   UNL A   1      40.732  26.159  26.856  1.00  0.00     0.022 A 
BRANCH  64  68
ATOM     68  S   UNL A   1      42.632  27.767  25.596  1.00  0.00     0.124 S 
ATOM     69  O   UNL A   1      42.620  26.571  24.756  1.00  0.00    -0.237 OA
ATOM     70  O   UNL A   1      41.896  28.916  25.081  1.00  0.00    -0.237 OA
ATOM     71  O   UNL A   1      43.920  28.075  26.211  1.00  0.00    -0.744 OA
ENDBRANCH  64  68
ENDBRANCH  47  61
BRANCH  48  72
ATOM     72  C   UNL A   1      39.712  33.844  37.116  1.00  0.00     0.023 A 
ATOM     73  C   UNL A   1      39.048  33.365  38.256  1.00  0.00     0.031 A 
ATOM     74  C   UNL A   1      40.158  35.178  37.126  1.00  0.00     0.131 A 
ATOM     75  C   UNL A   1      38.788  34.229  39.332  1.00  0.00     0.055 A 
ATOM     76  C   UNL A   1      39.951  36.016  38.224  1.00  0.00     0.041 A 
ATOM     77  F   UNL A   1      40.805  35.687  36.067  1.00  0.00    -0.206 F 
ATOM     78  C   UNL A   1      39.247  35.548  39.329  1.00  0.00     0.022 A 
BRANCH  75  79
ATOM     79  S   UNL A   1      37.737  33.635  40.686  1.00  0.00     0.124 S 
ATOM     80  O   UNL A   1      37.320  34.887  41.308  1.00  0.00    -0.237 OA
ATOM     81  O   UNL A   1      36.703  32.901  39.964  1.00  0.00    -0.237 OA
ATOM     82  O   UNL A   1      38.644  32.813  41.483  1.00  0.00    -0.744 OA
ENDBRANCH  75  79
ENDBRANCH  48  72
BRANCH  60  83
ATOM     83  C   UNL A   1      44.136  28.711  35.499  1.00  0.00     0.023 A 
ATOM     84  C   UNL A   1      44.010  27.694  36.462  1.00  0.00     0.031 A 
ATOM     85  C   UNL A   1      45.421  29.211  35.226  1.00  0.00     0.131 A 
ATOM     86  C   UNL A   1      45.143  27.252  37.160  1.00  0.00     0.055 A 
ATOM     87  C   UNL A   1      46.552  28.724  35.881  1.00  0.00     0.041 A 
ATOM     88  F   UNL A   1      45.597  30.181  34.315  1.00  0.00    -0.206 F 
ATOM     89  C   UNL A   1      46.415  27.748  36.865  1.00  0.00     0.022 A 
BRANCH  86  90
ATOM     90  S   UNL A   1      44.919  26.078  38.524  1.00  0.00     0.124 S 
ATOM     91  O   UNL A   1      44.178  26.877  39.495  1.00  0.00    -0.237 OA
ATOM     92  O   UNL A   1      44.174  24.997  37.888  1.00  0.00    -0.237 OA
ATOM     93  O   UNL A   1      46.287  25.741  38.914  1.00  0.00    -0.744 OA
ENDBRANCH  86  90
ENDBRANCH  60  83
ENDBRANCH  34  35
ENDBRANCH  26  29
ENDBRANCH  24  25
ENDBRANCH   1  24
TORSDOF 16
ENDMDL
MODEL 3
REMARK VINA RESULT:     -12.1      2.239      7.934
REMARK SMILES Cc1cc(C(=O)N2C[C@@H](C(=O)NCCCNC(=O)c3ccc(-c4c5nc(c(-c6cc(S(=O)(=O)[O-])ccc6F)c6ccc([nH]6)c(-c6cc(S(=O)(=O)[O-])ccc6F)c6nc(c(-c7cc(S(=O)(=O)[O-])ccc7F)c7ccc4[nH]7)C=C6)C=C5)cc3)[C@H](C3CC3)C2)sc1C
REMARK SMILES IDX 14 1 13 2 12 3 10 4 11 5 9 7 7 8 8 9 86 10 82 11 5 12 6 13
REMARK SMILES IDX 4 14 1 15 2 16 3 17 88 18 87 19 89 20 83 21 84 22 85 23
REMARK SMILES IDX 15 24 16 25 17 26 18 28 19 29 20 30 81 31 21 32 80 33 22 34
REMARK SMILES IDX 23 35 24 36 74 37 25 38 79 39 73 40 75 41 26 42 78 43 72 44
REMARK SMILES IDX 71 45 27 47 59 48 39 49 58 50 40 51 43 52 57 53 76 54 41 55
REMARK SMILES IDX 42 56 56 58 77 59 44 60 28 61 29 62 37 63 30 64 36 65 38 66
REMARK SMILES IDX 35 67 31 68 32 69 33 70 34 71 60 72 61 73 69 74 62 75 68 76
REMARK SMILES IDX 70 77 67 78 63 79 64 80 65 81 66 82 45 83 46 84 54 85 47 86
REMARK SMILES IDX 53 87 55 88 52 89 48 90 49 91 50 92 51 93
REMARK H PARENT 12 6 16 27 75 46 43 57
REMARK Flexibility Score: inf
ROOT
ATOM      1  C   UNL A   1      30.893  31.636  25.722  1.00  0.00     0.042 C 
ENDROOT
BRANCH   1   2
ATOM      2  C   UNL A   1      31.138  30.301  25.048  1.00  0.00     0.117 C 
BRANCH   2   3
ATOM      3  N   UNL A   1      30.349  30.095  23.846  1.00  0.00    -0.356 N 
ATOM      4  C   UNL A   1      30.175  28.962  23.104  1.00  0.00     0.225 C 
ATOM      5  O   UNL A   1      29.332  28.990  22.205  1.00  0.00    -0.275 OA
ATOM      6  H   UNL A   1      29.870  30.889  23.518  1.00  0.00     0.163 HD
BRANCH   4   7
ATOM      7  C   UNL A   1      31.006  27.725  23.383  1.00  0.00     0.103 C 
ATOM      8  N   UNL A   1      31.874  25.821  22.381  1.00  0.00    -0.337 N 
ATOM      9  C   UNL A   1      31.566  27.198  22.061  1.00  0.00     0.133 C 
ATOM     10  C   UNL A   1      30.848  25.291  23.248  1.00  0.00     0.124 C 
ATOM     11  C   UNL A   1      30.175  26.523  23.904  1.00  0.00     0.026 C 
BRANCH   8  12
ATOM     12  C   UNL A   1      32.942  25.021  22.010  1.00  0.00     0.263 C 
ATOM     13  O   UNL A   1      33.286  25.005  20.825  1.00  0.00    -0.268 OA
BRANCH  12  14
ATOM     14  C   UNL A   1      33.588  24.141  22.981  1.00  0.00     0.093 A 
ATOM     15  C   UNL A   1      36.530  23.415  25.225  1.00  0.00     0.045 C 
ATOM     16  C   UNL A   1      35.268  23.336  24.430  1.00  0.00    -0.037 A 
ATOM     17  C   UNL A   1      34.708  24.455  23.730  1.00  0.00     0.029 A 
ATOM     18  C   UNL A   1      34.505  22.199  24.228  1.00  0.00     0.005 A 
ATOM     19  S   UNL A   1      33.225  22.478  23.133  1.00  0.00    -0.135 S 
ATOM     20  C   UNL A   1      34.709  20.825  24.779  1.00  0.00     0.056 C 
ENDBRANCH  12  14
ENDBRANCH   8  12
BRANCH  11  21
ATOM     21  C   UNL A   1      30.073  26.298  25.398  1.00  0.00    -0.005 C 
ATOM     22  C   UNL A   1      30.242  24.965  26.085  1.00  0.00     0.004 C 
ATOM     23  C   UNL A   1      31.282  26.041  26.252  1.00  0.00     0.004 C 
ENDBRANCH  11  21
ENDBRANCH   4   7
ENDBRANCH   2   3
ENDBRANCH   1   2
BRANCH   1  24
ATOM     24  C   UNL A   1      31.783  31.887  26.929  1.00  0.00     0.118 C 
BRANCH  24  25
ATOM     25  N   UNL A   1      32.027  33.303  27.182  1.00  0.00    -0.352 N 
ATOM     26  C   UNL A   1      33.038  33.940  27.867  1.00  0.00     0.251 C 
ATOM     27  H   UNL A   1      31.353  33.908  26.796  1.00  0.00     0.163 HD
ATOM     28  O   UNL A   1      32.938  35.138  28.100  1.00  0.00    -0.269 OA
BRANCH  26  29
ATOM     29  C   UNL A   1      34.213  33.180  28.347  1.00  0.00     0.039 A 
ATOM     30  C   UNL A   1      35.484  33.756  28.256  1.00  0.00     0.014 A 
ATOM     31  C   UNL A   1      34.068  31.904  28.891  1.00  0.00     0.014 A 
ATOM     32  C   UNL A   1      36.587  33.092  28.802  1.00  0.00     0.010 A 
ATOM     33  C   UNL A   1      35.140  31.302  29.538  1.00  0.00     0.010 A 
ATOM     34  C   UNL A   1      36.415  31.885  29.498  1.00  0.00    -0.014 A 
BRANCH  34  35
ATOM     35  C   UNL A   1      37.546  31.194  30.174  1.00  0.00     0.031 A 
ATOM     36  C   UNL A   1      37.903  31.564  31.590  1.00  0.00     0.074 A 
ATOM     37  C   UNL A   1      38.299  30.308  29.492  1.00  0.00     0.049 A 
ATOM     38  N   UNL A   1      38.935  31.201  32.307  1.00  0.00    -0.248 NA
ATOM     39  C   UNL A   1      36.999  32.502  32.274  1.00  0.00     0.031 C 
ATOM     40  C   UNL A   1      38.080  29.900  28.102  1.00  0.00     0.029 A 
ATOM     41  N   UNL A   1      39.411  29.597  29.871  1.00  0.00    -0.354 N 
ATOM     42  C   UNL A   1      38.813  31.878  33.516  1.00  0.00     0.074 A 
ATOM     43  C   UNL A   1      37.652  32.734  33.401  1.00  0.00     0.031 C 
ATOM     44  C   UNL A   1      39.008  28.993  27.756  1.00  0.00     0.029 A 
ATOM     45  C   UNL A   1      39.920  28.792  28.877  1.00  0.00     0.049 A 
ATOM     46  H   UNL A   1      39.805  29.656  30.770  1.00  0.00     0.167 HD
ATOM     47  C   UNL A   1      39.574  31.770  34.633  1.00  0.00     0.034 A 
ATOM     48  C   UNL A   1      41.008  27.997  28.866  1.00  0.00     0.034 A 
ATOM     49  C   UNL A   1      40.714  30.896  34.740  1.00  0.00     0.049 A 
ATOM     50  C   UNL A   1      41.853  27.908  30.114  1.00  0.00     0.074 A 
ATOM     51  C   UNL A   1      41.542  30.685  35.830  1.00  0.00     0.029 A 
ATOM     52  N   UNL A   1      41.183  30.077  33.720  1.00  0.00    -0.354 N 
ATOM     53  N   UNL A   1      41.705  28.535  31.259  1.00  0.00    -0.248 NA
ATOM     54  C   UNL A   1      43.003  26.997  30.073  1.00  0.00     0.031 C 
ATOM     55  C   UNL A   1      42.540  29.779  35.453  1.00  0.00     0.029 A 
ATOM     56  C   UNL A   1      42.295  29.371  34.151  1.00  0.00     0.049 A 
ATOM     57  H   UNL A   1      40.783  30.009  32.824  1.00  0.00     0.167 HD
ATOM     58  C   UNL A   1      42.722  28.063  32.084  1.00  0.00     0.074 A 
ATOM     59  C   UNL A   1      43.463  27.089  31.311  1.00  0.00     0.031 C 
ATOM     60  C   UNL A   1      43.018  28.401  33.365  1.00  0.00     0.034 A 
BRANCH  47  61
ATOM     61  C   UNL A   1      39.189  32.625  35.817  1.00  0.00     0.023 A 
ATOM     62  C   UNL A   1      39.610  33.962  35.921  1.00  0.00     0.031 A 
ATOM     63  C   UNL A   1      38.423  32.095  36.870  1.00  0.00     0.131 A 
ATOM     64  C   UNL A   1      39.335  34.698  37.083  1.00  0.00     0.055 A 
ATOM     65  C   UNL A   1      38.077  32.859  37.986  1.00  0.00     0.041 A 
ATOM     66  F   UNL A   1      38.009  30.818  36.837  1.00  0.00    -0.206 F 
ATOM     67  C   UNL A   1      38.548  34.164  38.106  1.00  0.00     0.022 A 
BRANCH  64  68
ATOM     68  S   UNL A   1      40.143  36.305  37.300  1.00  0.00     0.124 S 
ATOM     69  O   UNL A   1      39.999  36.887  35.967  1.00  0.00    -0.237 OA
ATOM     70  O   UNL A   1      39.347  36.921  38.354  1.00  0.00    -0.237 OA
ATOM     71  O   UNL A   1      41.511  35.954  37.674  1.00  0.00    -0.744 OA
ENDBRANCH  64  68
ENDBRANCH  47  61
BRANCH  48  72
ATOM     72  C   UNL A   1      41.380  27.223  27.645  1.00  0.00     0.023 A 
ATOM     73  C   UNL A   1      41.189  25.833  27.589  1.00  0.00     0.031 A 
ATOM     74  C   UNL A   1      41.991  27.848  26.544  1.00  0.00     0.131 A 
ATOM     75  C   UNL A   1      41.664  25.104  26.487  1.00  0.00     0.055 A 
ATOM     76  C   UNL A   1      42.407  27.126  25.423  1.00  0.00     0.041 A 
ATOM     77  F   UNL A   1      42.192  29.175  26.540  1.00  0.00    -0.206 F 
ATOM     78  C   UNL A   1      42.260  25.743  25.398  1.00  0.00     0.022 A 
BRANCH  75  79
ATOM     79  S   UNL A   1      41.597  23.292  26.553  1.00  0.00     0.124 S 
ATOM     80  O   UNL A   1      40.178  23.040  26.327  1.00  0.00    -0.237 OA
ATOM     81  O   UNL A   1      42.497  22.919  25.468  1.00  0.00    -0.237 OA
ATOM     82  O   UNL A   1      42.080  22.984  27.897  1.00  0.00    -0.744 OA
ENDBRANCH  75  79
ENDBRANCH  48  72
BRANCH  60  83
ATOM     83  C   UNL A   1      44.157  27.662  34.019  1.00  0.00     0.023 A 
ATOM     84  C   UNL A   1      43.958  26.449  34.702  1.00  0.00     0.031 A 
ATOM     85  C   UNL A   1      45.460  28.188  33.966  1.00  0.00     0.131 A 
ATOM     86  C   UNL A   1      45.035  25.833  35.356  1.00  0.00     0.055 A 
ATOM     87  C   UNL A   1      46.538  27.538  34.568  1.00  0.00     0.041 A 
ATOM     88  F   UNL A   1      45.705  29.342  33.327  1.00  0.00    -0.206 F 
ATOM     89  C   UNL A   1      46.326  26.360  35.279  1.00  0.00     0.022 A 
BRANCH  86  90
ATOM     90  S   UNL A   1      44.708  24.375  36.383  1.00  0.00     0.124 S 
ATOM     91  O   UNL A   1      43.802  23.605  35.537  1.00  0.00    -0.237 OA
ATOM     92  O   UNL A   1      46.043  23.813  36.563  1.00  0.00    -0.237 OA
ATOM     93  O   UNL A   1      44.104  24.934  37.591  1.00  0.00    -0.744 OA
ENDBRANCH  86  90
ENDBRANCH  60  83
ENDBRANCH  34  35
ENDBRANCH  26  29
ENDBRANCH  24  25
ENDBRANCH   1  24
TORSDOF 16
ENDMDL
