MODEL 1
REMARK VINA RESULT:     -10.4      0.000      0.000
REMARK SMILES O=C(CNc1nc(-c2ccccc2)c(-c2ccccc2)s1)NCCCNC(=O)c1ccc(-c2c3nc(c(-c4cc(S(=O)(=O)[O-])ccc4F)c4ccc([nH]4)c(-c4cc(S(=O)(=O)[O-])ccc4F)c4nc(c(-c5cc(S(=O)(=O)[O-])ccc5F)c5ccc2[nH]5)C=C4)C=C3)cc1
REMARK SMILES IDX 24 1 23 2 22 3 1 4 2 5 3 7 4 8 5 10 6 11 21 12 7 13 14 14
REMARK SMILES IDX 8 15 9 16 13 17 10 18 12 19 11 20 15 21 16 22 20 23 17 24
REMARK SMILES IDX 19 25 18 26 25 27 26 28 27 29 28 31 29 32 30 33 91 34 31 35
REMARK SMILES IDX 90 36 32 37 33 38 34 39 84 40 35 41 89 42 83 43 85 44 36 45
REMARK SMILES IDX 88 46 82 47 81 48 37 50 69 51 49 52 68 53 50 54 53 55 67 56
REMARK SMILES IDX 86 57 51 58 52 59 66 61 87 62 54 63 38 64 39 65 47 66 40 67
REMARK SMILES IDX 46 68 48 69 45 70 41 71 42 72 43 73 44 74 70 75 71 76 79 77
REMARK SMILES IDX 72 78 78 79 80 80 77 81 73 82 74 83 75 84 76 85 55 86 56 87
REMARK SMILES IDX 64 88 57 89 63 90 65 91 62 92 58 93 59 94 60 95 61 96
REMARK H PARENT 22 6 4 9 26 30 85 49 53 60
REMARK Flexibility Score: inf
ROOT
ATOM      1  C   UNL A   1      34.201  33.817  29.492  1.00  0.00     0.042 C 
ENDROOT
BRANCH   1   2
ATOM      2  C   UNL A   1      33.638  35.222  29.307  1.00  0.00     0.117 C 
BRANCH   2   3
ATOM      3  N   UNL A   1      33.822  36.063  30.471  1.00  0.00    -0.355 N 
ATOM      4  O   UNL A   1      32.036  35.277  31.699  1.00  0.00    -0.273 OA
ATOM      5  C   UNL A   1      33.028  35.995  31.602  1.00  0.00     0.239 C 
ATOM      6  H   UNL A   1      34.555  36.720  30.457  1.00  0.00     0.163 HD
BRANCH   5   7
ATOM      7  C   UNL A   1      33.503  36.925  32.732  1.00  0.00     0.215 C 
BRANCH   7   8
ATOM      8  N   UNL A   1      34.138  36.122  33.769  1.00  0.00    -0.352 N 
ATOM      9  H   UNL A   1      33.823  36.204  34.699  1.00  0.00     0.163 HD
BRANCH   8  10
ATOM     10  C   UNL A   1      35.143  35.275  33.493  1.00  0.00     0.184 A 
ATOM     11  N   UNL A   1      36.067  35.451  32.579  1.00  0.00    -0.220 NA
ATOM     12  S   UNL A   1      35.248  33.799  34.369  1.00  0.00    -0.096 S 
ATOM     13  C   UNL A   1      36.899  34.341  32.528  1.00  0.00     0.091 A 
ATOM     14  C   UNL A   1      36.576  33.312  33.399  1.00  0.00     0.064 A 
BRANCH  13  15
ATOM     15  C   UNL A   1      38.048  34.303  31.636  1.00  0.00     0.002 A 
ATOM     16  C   UNL A   1      39.341  34.557  32.110  1.00  0.00     0.010 A 
ATOM     17  C   UNL A   1      37.849  34.081  30.268  1.00  0.00     0.010 A 
ATOM     18  C   UNL A   1      40.415  34.627  31.220  1.00  0.00     0.001 A 
ATOM     19  C   UNL A   1      38.923  34.156  29.379  1.00  0.00     0.001 A 
ATOM     20  C   UNL A   1      40.205  34.436  29.855  1.00  0.00     0.000 A 
ENDBRANCH  13  15
BRANCH  14  21
ATOM     21  C   UNL A   1      37.187  32.001  33.612  1.00  0.00    -0.006 A 
ATOM     22  C   UNL A   1      36.741  30.885  32.889  1.00  0.00     0.009 A 
ATOM     23  C   UNL A   1      38.264  31.853  34.496  1.00  0.00     0.009 A 
ATOM     24  C   UNL A   1      37.364  29.645  33.047  1.00  0.00     0.001 A 
ATOM     25  C   UNL A   1      38.885  30.613  34.652  1.00  0.00     0.001 A 
ATOM     26  C   UNL A   1      38.437  29.511  33.926  1.00  0.00     0.000 A 
ENDBRANCH  14  21
ENDBRANCH   8  10
ENDBRANCH   7   8
ENDBRANCH   5   7
ENDBRANCH   2   3
ENDBRANCH   1   2
BRANCH   1  27
ATOM     27  C   UNL A   1      34.751  33.167  28.223  1.00  0.00     0.118 C 
BRANCH  27  28
ATOM     28  N   UNL A   1      34.007  31.984  27.815  1.00  0.00    -0.352 N 
ATOM     29  C   UNL A   1      34.406  30.681  27.658  1.00  0.00     0.251 C 
ATOM     30  H   UNL A   1      33.056  32.147  27.618  1.00  0.00     0.163 HD
ATOM     31  O   UNL A   1      33.605  29.884  27.165  1.00  0.00    -0.269 OA
BRANCH  29  32
ATOM     32  C   UNL A   1      35.763  30.216  28.039  1.00  0.00     0.039 A 
ATOM     33  C   UNL A   1      35.920  29.564  29.268  1.00  0.00     0.014 A 
ATOM     34  C   UNL A   1      36.891  30.465  27.250  1.00  0.00     0.014 A 
ATOM     35  C   UNL A   1      37.184  29.133  29.684  1.00  0.00     0.010 A 
ATOM     36  C   UNL A   1      38.140  29.969  27.632  1.00  0.00     0.010 A 
ATOM     37  C   UNL A   1      38.306  29.311  28.861  1.00  0.00    -0.014 A 
BRANCH  37  38
ATOM     38  C   UNL A   1      39.654  28.851  29.295  1.00  0.00     0.031 A 
ATOM     39  C   UNL A   1      40.421  29.622  30.338  1.00  0.00     0.074 A 
ATOM     40  C   UNL A   1      40.206  27.756  28.734  1.00  0.00     0.049 A 
ATOM     41  N   UNL A   1      41.616  29.399  30.826  1.00  0.00    -0.248 NA
ATOM     42  C   UNL A   1      39.766  30.819  30.886  1.00  0.00     0.031 C 
ATOM     43  C   UNL A   1      39.585  26.941  27.687  1.00  0.00     0.029 A 
ATOM     44  N   UNL A   1      41.410  27.137  28.962  1.00  0.00    -0.354 N 
ATOM     45  C   UNL A   1      41.861  30.431  31.727  1.00  0.00     0.074 A 
ATOM     46  C   UNL A   1      40.715  31.315  31.665  1.00  0.00     0.031 C 
ATOM     47  C   UNL A   1      40.401  25.918  27.384  1.00  0.00     0.029 A 
ATOM     48  C   UNL A   1      41.618  26.022  28.185  1.00  0.00     0.049 A 
ATOM     49  H   UNL A   1      42.065  27.463  29.621  1.00  0.00     0.167 HD
ATOM     50  C   UNL A   1      42.926  30.614  32.546  1.00  0.00     0.034 A 
ATOM     51  C   UNL A   1      42.668  25.178  28.121  1.00  0.00     0.034 A 
ATOM     52  C   UNL A   1      44.058  29.719  32.608  1.00  0.00     0.049 A 
ATOM     53  C   UNL A   1      43.844  25.402  29.038  1.00  0.00     0.074 A 
ATOM     54  C   UNL A   1      45.171  29.789  33.428  1.00  0.00     0.029 A 
ATOM     55  N   UNL A   1      44.225  28.590  31.815  1.00  0.00    -0.354 N 
ATOM     56  N   UNL A   1      44.038  26.358  29.916  1.00  0.00    -0.248 NA
ATOM     57  C   UNL A   1      44.932  24.419  28.968  1.00  0.00     0.031 C 
ATOM     58  C   UNL A   1      46.037  28.742  33.090  1.00  0.00     0.029 A 
ATOM     59  C   UNL A   1      45.430  27.970  32.113  1.00  0.00     0.049 A 
ATOM     60  H   UNL A   1      43.581  28.276  31.139  1.00  0.00     0.167 HD
ATOM     61  C   UNL A   1      45.254  26.068  30.531  1.00  0.00     0.074 A 
ATOM     62  C   UNL A   1      45.738  24.841  29.931  1.00  0.00     0.031 C 
ATOM     63  C   UNL A   1      45.907  26.749  31.508  1.00  0.00     0.034 A 
BRANCH  50  64
ATOM     64  C   UNL A   1      42.924  31.848  33.423  1.00  0.00     0.023 A 
ATOM     65  C   UNL A   1      42.401  31.824  34.729  1.00  0.00     0.031 A 
ATOM     66  C   UNL A   1      43.418  33.070  32.937  1.00  0.00     0.131 A 
ATOM     67  C   UNL A   1      42.306  33.013  35.468  1.00  0.00     0.055 A 
ATOM     68  C   UNL A   1      43.402  34.233  33.712  1.00  0.00     0.041 A 
ATOM     69  F   UNL A   1      43.913  33.163  31.693  1.00  0.00    -0.206 F 
ATOM     70  C   UNL A   1      42.828  34.212  34.979  1.00  0.00     0.022 A 
BRANCH  67  71
ATOM     71  S   UNL A   1      41.350  32.999  37.010  1.00  0.00     0.124 S 
ATOM     72  O   UNL A   1      40.217  33.854  36.662  1.00  0.00    -0.237 OA
ATOM     73  O   UNL A   1      41.051  31.582  37.185  1.00  0.00    -0.237 OA
ATOM     74  O   UNL A   1      42.271  33.569  37.990  1.00  0.00    -0.744 OA
ENDBRANCH  67  71
ENDBRANCH  50  64
BRANCH  51  75
ATOM     75  C   UNL A   1      42.662  24.035  27.161  1.00  0.00     0.023 A 
ATOM     76  C   UNL A   1      41.987  22.842  27.458  1.00  0.00     0.031 A 
ATOM     77  C   UNL A   1      43.376  24.106  25.951  1.00  0.00     0.131 A 
ATOM     78  C   UNL A   1      42.079  21.748  26.584  1.00  0.00     0.055 A 
ATOM     79  C   UNL A   1      43.421  23.033  25.059  1.00  0.00     0.041 A 
ATOM     80  F   UNL A   1      44.034  25.226  25.615  1.00  0.00    -0.206 F 
ATOM     81  C   UNL A   1      42.781  21.840  25.381  1.00  0.00     0.022 A 
BRANCH  78  82
ATOM     82  S   UNL A   1      41.339  20.170  27.086  1.00  0.00     0.124 S 
ATOM     83  O   UNL A   1      40.798  20.498  28.400  1.00  0.00    -0.237 OA
ATOM     84  O   UNL A   1      40.360  19.945  26.027  1.00  0.00    -0.237 OA
ATOM     85  O   UNL A   1      42.473  19.248  27.089  1.00  0.00    -0.744 OA
ENDBRANCH  78  82
ENDBRANCH  51  75
BRANCH  63  86
ATOM     86  C   UNL A   1      47.188  26.141  32.029  1.00  0.00     0.023 A 
ATOM     87  C   UNL A   1      48.430  26.379  31.414  1.00  0.00     0.031 A 
ATOM     88  C   UNL A   1      47.158  25.288  33.147  1.00  0.00     0.131 A 
ATOM     89  C   UNL A   1      49.578  25.718  31.879  1.00  0.00     0.055 A 
ATOM     90  C   UNL A   1      48.313  24.685  33.644  1.00  0.00     0.041 A 
ATOM     91  F   UNL A   1      46.000  25.025  33.773  1.00  0.00    -0.206 F 
ATOM     92  C   UNL A   1      49.530  24.885  33.000  1.00  0.00     0.022 A 
BRANCH  89  93
ATOM     93  S   UNL A   1      51.118  25.876  30.934  1.00  0.00     0.124 S 
ATOM     94  O   UNL A   1      51.316  27.322  30.914  1.00  0.00    -0.237 OA
ATOM     95  O   UNL A   1      52.061  25.114  31.745  1.00  0.00    -0.237 OA
ATOM     96  O   UNL A   1      50.790  25.277  29.641  1.00  0.00    -0.744 OA
ENDBRANCH  89  93
ENDBRANCH  63  86
ENDBRANCH  37  38
ENDBRANCH  29  32
ENDBRANCH  27  28
ENDBRANCH   1  27
TORSDOF 17
ENDMDL
MODEL 2
REMARK VINA RESULT:     -10.0      1.943      2.318
REMARK SMILES O=C(CNc1nc(-c2ccccc2)c(-c2ccccc2)s1)NCCCNC(=O)c1ccc(-c2c3nc(c(-c4cc(S(=O)(=O)[O-])ccc4F)c4ccc([nH]4)c(-c4cc(S(=O)(=O)[O-])ccc4F)c4nc(c(-c5cc(S(=O)(=O)[O-])ccc5F)c5ccc2[nH]5)C=C4)C=C3)cc1
REMARK SMILES IDX 24 1 23 2 22 3 1 4 2 5 3 7 4 8 5 10 6 11 21 12 7 13 14 14
REMARK SMILES IDX 8 15 9 16 13 17 10 18 12 19 11 20 15 21 16 22 20 23 17 24
REMARK SMILES IDX 19 25 18 26 25 27 26 28 27 29 28 31 29 32 30 33 91 34 31 35
REMARK SMILES IDX 90 36 32 37 33 38 34 39 84 40 35 41 89 42 83 43 85 44 36 45
REMARK SMILES IDX 88 46 82 47 81 48 37 50 69 51 49 52 68 53 50 54 53 55 67 56
REMARK SMILES IDX 86 57 51 58 52 59 66 61 87 62 54 63 38 64 39 65 47 66 40 67
REMARK SMILES IDX 46 68 48 69 45 70 41 71 42 72 43 73 44 74 70 75 71 76 79 77
REMARK SMILES IDX 72 78 78 79 80 80 77 81 73 82 74 83 75 84 76 85 55 86 56 87
REMARK SMILES IDX 64 88 57 89 63 90 65 91 62 92 58 93 59 94 60 95 61 96
REMARK H PARENT 22 6 4 9 26 30 85 49 53 60
REMARK Flexibility Score: inf
ROOT
ATOM      1  C   UNL A   1      34.653  34.602  28.668  1.00  0.00     0.042 C 
ENDROOT
BRANCH   1   2
ATOM      2  C   UNL A   1      33.578  35.606  29.073  1.00  0.00     0.117 C 
BRANCH   2   3
ATOM      3  N   UNL A   1      33.898  36.316  30.293  1.00  0.00    -0.355 N 
ATOM      4  O   UNL A   1      31.772  36.366  31.182  1.00  0.00    -0.273 OA
ATOM      5  C   UNL A   1      32.973  36.606  31.280  1.00  0.00     0.239 C 
ATOM      6  H   UNL A   1      34.829  36.610  30.428  1.00  0.00     0.163 HD
BRANCH   5   7
ATOM      7  C   UNL A   1      33.595  37.276  32.516  1.00  0.00     0.215 C 
BRANCH   7   8
ATOM      8  N   UNL A   1      33.849  36.259  33.528  1.00  0.00    -0.352 N 
ATOM      9  H   UNL A   1      33.185  36.118  34.243  1.00  0.00     0.163 HD
BRANCH   8  10
ATOM     10  C   UNL A   1      34.963  35.508  33.515  1.00  0.00     0.184 A 
ATOM     11  N   UNL A   1      35.847  35.463  32.548  1.00  0.00    -0.220 NA
ATOM     12  S   UNL A   1      35.281  34.473  34.851  1.00  0.00    -0.096 S 
ATOM     13  C   UNL A   1      36.828  34.528  32.848  1.00  0.00     0.091 A 
ATOM     14  C   UNL A   1      36.659  33.848  34.044  1.00  0.00     0.064 A 
BRANCH  13  15
ATOM     15  C   UNL A   1      37.966  34.322  31.965  1.00  0.00     0.002 A 
ATOM     16  C   UNL A   1      39.275  34.560  32.403  1.00  0.00     0.010 A 
ATOM     17  C   UNL A   1      37.744  33.951  30.633  1.00  0.00     0.010 A 
ATOM     18  C   UNL A   1      40.343  34.466  31.510  1.00  0.00     0.001 A 
ATOM     19  C   UNL A   1      38.814  33.862  29.740  1.00  0.00     0.001 A 
ATOM     20  C   UNL A   1      40.112  34.126  30.177  1.00  0.00     0.000 A 
ENDBRANCH  13  15
BRANCH  14  21
ATOM     21  C   UNL A   1      37.451  32.793  34.674  1.00  0.00    -0.006 A 
ATOM     22  C   UNL A   1      38.109  33.030  35.890  1.00  0.00     0.009 A 
ATOM     23  C   UNL A   1      37.517  31.515  34.103  1.00  0.00     0.009 A 
ATOM     24  C   UNL A   1      38.815  32.006  36.523  1.00  0.00     0.001 A 
ATOM     25  C   UNL A   1      38.224  30.493  34.738  1.00  0.00     0.001 A 
ATOM     26  C   UNL A   1      38.870  30.738  35.948  1.00  0.00     0.000 A 
ENDBRANCH  14  21
ENDBRANCH   8  10
ENDBRANCH   7   8
ENDBRANCH   5   7
ENDBRANCH   2   3
ENDBRANCH   1   2
BRANCH   1  27
ATOM     27  C   UNL A   1      34.496  33.206  29.270  1.00  0.00     0.118 C 
BRANCH  27  28
ATOM     28  N   UNL A   1      33.963  32.232  28.330  1.00  0.00    -0.352 N 
ATOM     29  C   UNL A   1      34.499  31.067  27.842  1.00  0.00     0.251 C 
ATOM     30  H   UNL A   1      33.065  32.445  27.985  1.00  0.00     0.163 HD
ATOM     31  O   UNL A   1      33.894  30.483  26.940  1.00  0.00    -0.269 OA
BRANCH  29  32
ATOM     32  C   UNL A   1      35.779  30.510  28.347  1.00  0.00     0.039 A 
ATOM     33  C   UNL A   1      36.972  30.976  27.784  1.00  0.00     0.014 A 
ATOM     34  C   UNL A   1      35.827  29.498  29.311  1.00  0.00     0.014 A 
ATOM     35  C   UNL A   1      38.202  30.462  28.209  1.00  0.00     0.010 A 
ATOM     36  C   UNL A   1      37.058  29.038  29.786  1.00  0.00     0.010 A 
ATOM     37  C   UNL A   1      38.261  29.502  29.230  1.00  0.00    -0.014 A 
BRANCH  37  38
ATOM     38  C   UNL A   1      39.567  28.953  29.690  1.00  0.00     0.031 A 
ATOM     39  C   UNL A   1      40.309  29.608  30.826  1.00  0.00     0.074 A 
ATOM     40  C   UNL A   1      40.103  27.881  29.071  1.00  0.00     0.049 A 
ATOM     41  N   UNL A   1      41.468  29.297  31.351  1.00  0.00    -0.248 NA
ATOM     42  C   UNL A   1      39.674  30.786  31.435  1.00  0.00     0.031 C 
ATOM     43  C   UNL A   1      39.506  27.177  27.935  1.00  0.00     0.029 A 
ATOM     44  N   UNL A   1      41.270  27.196  29.307  1.00  0.00    -0.354 N 
ATOM     45  C   UNL A   1      41.707  30.246  32.341  1.00  0.00     0.074 A 
ATOM     46  C   UNL A   1      40.601  31.180  32.295  1.00  0.00     0.031 C 
ATOM     47  C   UNL A   1      40.295  26.147  27.591  1.00  0.00     0.029 A 
ATOM     48  C   UNL A   1      41.473  26.136  28.455  1.00  0.00     0.049 A 
ATOM     49  H   UNL A   1      41.902  27.443  30.020  1.00  0.00     0.167 HD
ATOM     50  C   UNL A   1      42.736  30.320  33.222  1.00  0.00     0.034 A 
ATOM     51  C   UNL A   1      42.491  25.256  28.375  1.00  0.00     0.034 A 
ATOM     52  C   UNL A   1      43.827  29.375  33.267  1.00  0.00     0.049 A 
ATOM     53  C   UNL A   1      43.627  25.358  29.362  1.00  0.00     0.074 A 
ATOM     54  C   UNL A   1      44.899  29.334  34.143  1.00  0.00     0.029 A 
ATOM     55  N   UNL A   1      43.990  28.305  32.396  1.00  0.00    -0.354 N 
ATOM     56  N   UNL A   1      43.814  26.235  30.321  1.00  0.00    -0.248 NA
ATOM     57  C   UNL A   1      44.678  24.338  29.266  1.00  0.00     0.031 C 
ATOM     58  C   UNL A   1      45.739  28.280  33.764  1.00  0.00     0.029 A 
ATOM     59  C   UNL A   1      45.153  27.612  32.701  1.00  0.00     0.049 A 
ATOM     60  H   UNL A   1      43.370  28.071  31.668  1.00  0.00     0.167 HD
ATOM     61  C   UNL A   1      44.984  25.847  30.967  1.00  0.00     0.074 A 
ATOM     62  C   UNL A   1      45.450  24.650  30.297  1.00  0.00     0.031 C 
ATOM     63  C   UNL A   1      45.613  26.422  32.025  1.00  0.00     0.034 A 
BRANCH  50  64
ATOM     64  C   UNL A   1      42.737  31.481  34.192  1.00  0.00     0.023 A 
ATOM     65  C   UNL A   1      43.100  32.779  33.788  1.00  0.00     0.031 A 
ATOM     66  C   UNL A   1      42.405  31.284  35.544  1.00  0.00     0.131 A 
ATOM     67  C   UNL A   1      43.205  33.806  34.740  1.00  0.00     0.055 A 
ATOM     68  C   UNL A   1      42.426  32.331  36.468  1.00  0.00     0.041 A 
ATOM     69  F   UNL A   1      42.069  30.066  35.995  1.00  0.00    -0.206 F 
ATOM     70  C   UNL A   1      42.844  33.597  36.072  1.00  0.00     0.022 A 
BRANCH  67  71
ATOM     71  S   UNL A   1      43.970  35.373  34.240  1.00  0.00     0.124 S 
ATOM     72  O   UNL A   1      43.437  35.543  32.890  1.00  0.00    -0.237 OA
ATOM     73  O   UNL A   1      43.471  36.304  35.246  1.00  0.00    -0.237 OA
ATOM     74  O   UNL A   1      45.402  35.092  34.304  1.00  0.00    -0.744 OA
ENDBRANCH  67  71
ENDBRANCH  50  64
BRANCH  51  75
ATOM     75  C   UNL A   1      42.490  24.192  27.329  1.00  0.00     0.023 A 
ATOM     76  C   UNL A   1      41.828  22.972  27.535  1.00  0.00     0.031 A 
ATOM     77  C   UNL A   1      43.195  24.363  26.124  1.00  0.00     0.131 A 
ATOM     78  C   UNL A   1      41.924  21.951  26.577  1.00  0.00     0.055 A 
ATOM     79  C   UNL A   1      43.245  23.364  25.150  1.00  0.00     0.041 A 
ATOM     80  F   UNL A   1      43.842  25.513  25.873  1.00  0.00    -0.206 F 
ATOM     81  C   UNL A   1      42.618  22.143  25.381  1.00  0.00     0.022 A 
BRANCH  78  82
ATOM     82  S   UNL A   1      41.202  20.331  26.959  1.00  0.00     0.124 S 
ATOM     83  O   UNL A   1      40.847  20.486  28.365  1.00  0.00    -0.237 OA
ATOM     84  O   UNL A   1      40.087  20.269  26.019  1.00  0.00    -0.237 OA
ATOM     85  O   UNL A   1      42.295  19.399  26.689  1.00  0.00    -0.744 OA
ENDBRANCH  78  82
ENDBRANCH  51  75
BRANCH  63  86
ATOM     86  C   UNL A   1      46.841  25.722  32.557  1.00  0.00     0.023 A 
ATOM     87  C   UNL A   1      46.773  24.794  33.612  1.00  0.00     0.031 A 
ATOM     88  C   UNL A   1      48.106  26.010  32.013  1.00  0.00     0.131 A 
ATOM     89  C   UNL A   1      47.953  24.240  34.133  1.00  0.00     0.055 A 
ATOM     90  C   UNL A   1      49.269  25.407  32.493  1.00  0.00     0.041 A 
ATOM     91  F   UNL A   1      48.232  26.889  31.005  1.00  0.00    -0.206 F 
ATOM     92  C   UNL A   1      49.198  24.528  33.570  1.00  0.00     0.022 A 
BRANCH  89  93
ATOM     93  S   UNL A   1      47.849  23.219  35.629  1.00  0.00     0.124 S 
ATOM     94  O   UNL A   1      48.613  22.037  35.243  1.00  0.00    -0.237 OA
ATOM     95  O   UNL A   1      48.466  24.076  36.634  1.00  0.00    -0.237 OA
ATOM     96  O   UNL A   1      46.413  23.001  35.797  1.00  0.00    -0.744 OA
ENDBRANCH  89  93
ENDBRANCH  63  86
ENDBRANCH  37  38
ENDBRANCH  29  32
ENDBRANCH  27  28
ENDBRANCH   1  27
TORSDOF 17
ENDMDL
MODEL 3
REMARK VINA RESULT:      -9.7      4.656      7.521
REMARK SMILES O=C(CNc1nc(-c2ccccc2)c(-c2ccccc2)s1)NCCCNC(=O)c1ccc(-c2c3nc(c(-c4cc(S(=O)(=O)[O-])ccc4F)c4ccc([nH]4)c(-c4cc(S(=O)(=O)[O-])ccc4F)c4nc(c(-c5cc(S(=O)(=O)[O-])ccc5F)c5ccc2[nH]5)C=C4)C=C3)cc1
REMARK SMILES IDX 24 1 23 2 22 3 1 4 2 5 3 7 4 8 5 10 6 11 21 12 7 13 14 14
REMARK SMILES IDX 8 15 9 16 13 17 10 18 12 19 11 20 15 21 16 22 20 23 17 24
REMARK SMILES IDX 19 25 18 26 25 27 26 28 27 29 28 31 29 32 30 33 91 34 31 35
REMARK SMILES IDX 90 36 32 37 33 38 34 39 84 40 35 41 89 42 83 43 85 44 36 45
REMARK SMILES IDX 88 46 82 47 81 48 37 50 69 51 49 52 68 53 50 54 53 55 67 56
REMARK SMILES IDX 86 57 51 58 52 59 66 61 87 62 54 63 38 64 39 65 47 66 40 67
REMARK SMILES IDX 46 68 48 69 45 70 41 71 42 72 43 73 44 74 70 75 71 76 79 77
REMARK SMILES IDX 72 78 78 79 80 80 77 81 73 82 74 83 75 84 76 85 55 86 56 87
REMARK SMILES IDX 64 88 57 89 63 90 65 91 62 92 58 93 59 94 60 95 61 96
REMARK H PARENT 22 6 4 9 26 30 85 49 53 60
REMARK Flexibility Score: inf
ROOT
ATOM      1  C   UNL A   1      32.196  29.019  27.244  1.00  0.00     0.042 C 
ENDROOT
BRANCH   1   2
ATOM      2  C   UNL A   1      32.144  27.566  26.785  1.00  0.00     0.117 C 
BRANCH   2   3
ATOM      3  N   UNL A   1      31.477  27.398  25.512  1.00  0.00    -0.355 N 
ATOM      4  O   UNL A   1      29.877  25.889  26.204  1.00  0.00    -0.273 OA
ATOM      5  C   UNL A   1      30.362  26.601  25.327  1.00  0.00     0.239 C 
ATOM      6  H   UNL A   1      31.838  27.879  24.732  1.00  0.00     0.163 HD
BRANCH   5   7
ATOM      7  C   UNL A   1      29.789  26.681  23.901  1.00  0.00     0.215 C 
BRANCH   7   8
ATOM      8  N   UNL A   1      30.739  26.077  22.975  1.00  0.00    -0.352 N 
ATOM      9  H   UNL A   1      30.821  26.444  22.065  1.00  0.00     0.163 HD
BRANCH   8  10
ATOM     10  C   UNL A   1      31.506  25.032  23.329  1.00  0.00     0.184 A 
ATOM     11  N   UNL A   1      32.798  25.068  23.551  1.00  0.00    -0.220 NA
ATOM     12  S   UNL A   1      30.776  23.483  23.482  1.00  0.00    -0.096 S 
ATOM     13  C   UNL A   1      33.266  23.790  23.826  1.00  0.00     0.091 A 
ATOM     14  C   UNL A   1      32.313  22.783  23.783  1.00  0.00     0.064 A 
BRANCH  13  15
ATOM     15  C   UNL A   1      34.661  23.556  24.168  1.00  0.00     0.002 A 
ATOM     16  C   UNL A   1      35.529  22.919  23.273  1.00  0.00     0.010 A 
ATOM     17  C   UNL A   1      35.123  23.907  25.443  1.00  0.00     0.010 A 
ATOM     18  C   UNL A   1      36.831  22.602  23.663  1.00  0.00     0.001 A 
ATOM     19  C   UNL A   1      36.425  23.585  25.832  1.00  0.00     0.001 A 
ATOM     20  C   UNL A   1      37.276  22.927  24.944  1.00  0.00     0.000 A 
ENDBRANCH  13  15
BRANCH  14  21
ATOM     21  C   UNL A   1      32.425  21.339  23.984  1.00  0.00    -0.006 A 
ATOM     22  C   UNL A   1      32.270  20.459  22.904  1.00  0.00     0.009 A 
ATOM     23  C   UNL A   1      32.747  20.820  25.245  1.00  0.00     0.009 A 
ATOM     24  C   UNL A   1      32.438  19.084  23.083  1.00  0.00     0.001 A 
ATOM     25  C   UNL A   1      32.914  19.445  25.421  1.00  0.00     0.001 A 
ATOM     26  C   UNL A   1      32.762  18.579  24.340  1.00  0.00     0.000 A 
ENDBRANCH  14  21
ENDBRANCH   8  10
ENDBRANCH   7   8
ENDBRANCH   5   7
ENDBRANCH   2   3
ENDBRANCH   1   2
BRANCH   1  27
ATOM     27  C   UNL A   1      33.168  29.909  26.471  1.00  0.00     0.118 C 
BRANCH  27  28
ATOM     28  N   UNL A   1      33.096  31.310  26.857  1.00  0.00    -0.352 N 
ATOM     29  C   UNL A   1      33.902  32.060  27.675  1.00  0.00     0.251 C 
ATOM     30  H   UNL A   1      32.340  31.803  26.464  1.00  0.00     0.163 HD
ATOM     31  O   UNL A   1      33.543  33.207  27.951  1.00  0.00    -0.269 OA
BRANCH  29  32
ATOM     32  C   UNL A   1      35.165  31.529  28.246  1.00  0.00     0.039 A 
ATOM     33  C   UNL A   1      35.133  30.281  28.880  1.00  0.00     0.014 A 
ATOM     34  C   UNL A   1      36.360  32.255  28.229  1.00  0.00     0.014 A 
ATOM     35  C   UNL A   1      36.292  29.751  29.457  1.00  0.00     0.010 A 
ATOM     36  C   UNL A   1      37.532  31.693  28.740  1.00  0.00     0.010 A 
ATOM     37  C   UNL A   1      37.511  30.442  29.376  1.00  0.00    -0.014 A 
BRANCH  37  38
ATOM     38  C   UNL A   1      38.750  29.882  29.984  1.00  0.00     0.031 A 
ATOM     39  C   UNL A   1      39.203  30.343  31.346  1.00  0.00     0.074 A 
ATOM     40  C   UNL A   1      39.486  28.980  29.305  1.00  0.00     0.049 A 
ATOM     41  N   UNL A   1      40.265  29.998  32.030  1.00  0.00    -0.248 NA
ATOM     42  C   UNL A   1      38.362  31.348  32.014  1.00  0.00     0.031 C 
ATOM     43  C   UNL A   1      39.179  28.477  27.964  1.00  0.00     0.029 A 
ATOM     44  N   UNL A   1      40.643  28.323  29.646  1.00  0.00    -0.354 N 
ATOM     45  C   UNL A   1      40.227  30.749  33.201  1.00  0.00     0.074 A 
ATOM     46  C   UNL A   1      39.071  31.616  33.100  1.00  0.00     0.031 C 
ATOM     47  C   UNL A   1      40.107  27.575  27.609  1.00  0.00     0.029 A 
ATOM     48  C   UNL A   1      41.097  27.459  28.677  1.00  0.00     0.049 A 
ATOM     49  H   UNL A   1      41.105  28.460  30.504  1.00  0.00     0.167 HD
ATOM     50  C   UNL A   1      41.061  30.705  34.270  1.00  0.00     0.034 A 
ATOM     51  C   UNL A   1      42.186  26.664  28.647  1.00  0.00     0.034 A 
ATOM     52  C   UNL A   1      42.203  29.827  34.365  1.00  0.00     0.049 A 
ATOM     53  C   UNL A   1      43.102  26.634  29.846  1.00  0.00     0.074 A 
ATOM     54  C   UNL A   1      43.090  29.673  35.417  1.00  0.00     0.029 A 
ATOM     55  N   UNL A   1      42.622  28.954  33.368  1.00  0.00    -0.354 N 
ATOM     56  N   UNL A   1      43.025  27.318  30.964  1.00  0.00    -0.248 NA
ATOM     57  C   UNL A   1      44.239  25.706  29.784  1.00  0.00     0.031 C 
ATOM     58  C   UNL A   1      44.077  28.757  35.034  1.00  0.00     0.029 A 
ATOM     59  C   UNL A   1      43.764  28.277  33.773  1.00  0.00     0.049 A 
ATOM     60  H   UNL A   1      42.174  28.834  32.500  1.00  0.00     0.167 HD
ATOM     61  C   UNL A   1      44.083  26.873  31.754  1.00  0.00     0.074 A 
ATOM     62  C   UNL A   1      44.771  25.853  30.988  1.00  0.00     0.031 C 
ATOM     63  C   UNL A   1      44.447  27.265  33.002  1.00  0.00     0.034 A 
BRANCH  50  64
ATOM     64  C   UNL A   1      40.775  31.656  35.412  1.00  0.00     0.023 A 
ATOM     65  C   UNL A   1      39.647  31.499  36.238  1.00  0.00     0.031 A 
ATOM     66  C   UNL A   1      41.621  32.751  35.658  1.00  0.00     0.131 A 
ATOM     67  C   UNL A   1      39.350  32.468  37.210  1.00  0.00     0.055 A 
ATOM     68  C   UNL A   1      41.367  33.663  36.686  1.00  0.00     0.041 A 
ATOM     69  F   UNL A   1      42.702  32.966  34.893  1.00  0.00    -0.206 F 
ATOM     70  C   UNL A   1      40.216  33.534  37.457  1.00  0.00     0.022 A 
BRANCH  67  71
ATOM     71  S   UNL A   1      37.736  32.397  38.036  1.00  0.00     0.124 S 
ATOM     72  O   UNL A   1      37.468  30.961  38.037  1.00  0.00    -0.237 OA
ATOM     73  O   UNL A   1      38.019  32.996  39.336  1.00  0.00    -0.237 OA
ATOM     74  O   UNL A   1      36.868  33.183  37.162  1.00  0.00    -0.744 OA
ENDBRANCH  67  71
ENDBRANCH  50  64
BRANCH  51  75
ATOM     75  C   UNL A   1      42.477  25.824  27.450  1.00  0.00     0.023 A 
ATOM     76  C   UNL A   1      42.051  24.488  27.380  1.00  0.00     0.031 A 
ATOM     77  C   UNL A   1      43.230  26.332  26.376  1.00  0.00     0.131 A 
ATOM     78  C   UNL A   1      42.422  23.690  26.287  1.00  0.00     0.055 A 
ATOM     79  C   UNL A   1      43.552  25.550  25.265  1.00  0.00     0.041 A 
ATOM     80  F   UNL A   1      43.657  27.605  26.389  1.00  0.00    -0.206 F 
ATOM     81  C   UNL A   1      43.159  24.215  25.224  1.00  0.00     0.022 A 
BRANCH  78  82
ATOM     82  S   UNL A   1      42.001  21.926  26.318  1.00  0.00     0.124 S 
ATOM     83  O   UNL A   1      42.374  21.554  27.677  1.00  0.00    -0.237 OA
ATOM     84  O   UNL A   1      40.571  21.952  26.028  1.00  0.00    -0.237 OA
ATOM     85  O   UNL A   1      42.838  21.359  25.262  1.00  0.00    -0.744 OA
ENDBRANCH  78  82
ENDBRANCH  51  75
BRANCH  63  86
ATOM     86  C   UNL A   1      45.610  26.540  33.637  1.00  0.00     0.023 A 
ATOM     87  C   UNL A   1      45.430  25.394  34.432  1.00  0.00     0.031 A 
ATOM     88  C   UNL A   1      46.920  27.023  33.463  1.00  0.00     0.131 A 
ATOM     89  C   UNL A   1      46.532  24.810  35.076  1.00  0.00     0.055 A 
ATOM     90  C   UNL A   1      48.019  26.400  34.055  1.00  0.00     0.041 A 
ATOM     91  F   UNL A   1      47.151  28.114  32.716  1.00  0.00    -0.206 F 
ATOM     92  C   UNL A   1      47.827  25.296  34.880  1.00  0.00     0.022 A 
BRANCH  89  93
ATOM     93  S   UNL A   1      46.237  23.470  36.264  1.00  0.00     0.124 S 
ATOM     94  O   UNL A   1      46.088  24.202  37.518  1.00  0.00    -0.237 OA
ATOM     95  O   UNL A   1      45.026  22.850  35.740  1.00  0.00    -0.237 OA
ATOM     96  O   UNL A   1      47.444  22.652  36.163  1.00  0.00    -0.744 OA
ENDBRANCH  89  93
ENDBRANCH  63  86
ENDBRANCH  37  38
ENDBRANCH  29  32
ENDBRANCH  27  28
ENDBRANCH   1  27
TORSDOF 17
ENDMDL
