MODEL 1
REMARK VINA RESULT:     -11.9      0.000      0.000
REMARK SMILES CCOc1cc([C@@H]([NH3+])C(=O)NCCCNC(=O)c2ccc(-c3c4nc(c(-c5cc(S(=O)(=O)[O-])ccc5F)c5ccc([nH]5)c(-c5cc(S(=O)(=O)[O-])ccc5F)c5nc(c(-c6cc(S(=O)(=O)[O-])ccc6F)c6ccc3[nH]6)C=C5)C=C4)cc2)ccc1OCc1ccccc1
REMARK SMILES IDX 12 1 11 2 9 3 10 4 7 6 6 7 4 8 5 9 83 10 82 11 81 12 3 13
REMARK SMILES IDX 2 14 1 15 84 16 85 17 86 18 87 19 91 20 88 21 90 22 89 23
REMARK SMILES IDX 8 24 13 28 14 29 15 30 16 31 17 33 18 34 19 35 80 36 20 37
REMARK SMILES IDX 79 38 21 39 22 40 23 41 73 42 24 43 78 44 72 45 74 46 25 47
REMARK SMILES IDX 77 48 71 49 70 50 26 52 58 53 38 54 57 55 39 56 42 57 56 58
REMARK SMILES IDX 75 59 40 60 41 61 55 63 76 64 43 65 27 66 28 67 36 68 29 69
REMARK SMILES IDX 35 70 37 71 34 72 30 73 31 74 32 75 33 76 59 77 60 78 68 79
REMARK SMILES IDX 61 80 67 81 69 82 66 83 62 84 63 85 64 86 65 87 44 88 45 89
REMARK SMILES IDX 53 90 46 91 52 92 54 93 51 94 47 95 48 96 49 97 50 98
REMARK H PARENT 11 5 8 25 8 26 8 27 15 32 74 51 42 62
REMARK Flexibility Score: inf
ROOT
ATOM      1  C   UNL A   1      32.002  30.429  26.036  1.00  0.00     0.118 C 
ENDROOT
BRANCH   1   2
ATOM      2  N   UNL A   1      31.855  29.433  27.078  1.00  0.00    -0.351 N 
ATOM      3  C   UNL A   1      31.652  28.090  26.957  1.00  0.00     0.283 C 
ATOM      4  O   UNL A   1      31.410  27.462  27.996  1.00  0.00    -0.268 OA
ATOM      5  H   UNL A   1      31.909  29.773  28.000  1.00  0.00     0.163 HD
BRANCH   3   6
ATOM      6  C   UNL A   1      31.745  27.354  25.596  1.00  0.00     0.302 C 
BRANCH   6   7
ATOM      7  C   UNL A   1      32.100  25.879  25.703  1.00  0.00     0.023 A 
ATOM      8  C   UNL A   1      33.612  23.958  25.977  1.00  0.00     0.161 A 
ATOM      9  C   UNL A   1      33.396  25.353  25.932  1.00  0.00     0.061 A 
ATOM     10  C   UNL A   1      32.525  23.095  25.776  1.00  0.00     0.161 A 
ATOM     11  C   UNL A   1      31.237  23.611  25.639  1.00  0.00     0.051 A 
ATOM     12  C   UNL A   1      31.030  24.980  25.582  1.00  0.00     0.014 A 
BRANCH   8  13
ATOM     13  O   UNL A   1      34.811  23.414  26.355  1.00  0.00    -0.490 OA
BRANCH  13  14
ATOM     14  C   UNL A   1      35.669  22.945  25.307  1.00  0.00     0.226 C 
ATOM     15  C   UNL A   1      37.020  23.646  25.454  1.00  0.00     0.049 C 
ENDBRANCH  13  14
ENDBRANCH   8  13
BRANCH  10  16
ATOM     16  O   UNL A   1      32.543  21.741  25.612  1.00  0.00    -0.485 OA
BRANCH  16  17
ATOM     17  C   UNL A   1      32.438  21.190  24.297  1.00  0.00     0.265 C 
BRANCH  17  18
ATOM     18  C   UNL A   1      33.019  19.815  23.968  1.00  0.00    -0.011 A 
ATOM     19  C   UNL A   1      34.140  19.238  24.585  1.00  0.00     0.007 A 
ATOM     20  C   UNL A   1      32.314  19.014  23.054  1.00  0.00     0.007 A 
ATOM     21  C   UNL A   1      34.499  17.904  24.362  1.00  0.00     0.000 A 
ATOM     22  C   UNL A   1      32.697  17.694  22.799  1.00  0.00     0.000 A 
ATOM     23  C   UNL A   1      33.773  17.128  23.473  1.00  0.00     0.000 A 
ENDBRANCH  17  18
ENDBRANCH  16  17
ENDBRANCH  10  16
ENDBRANCH   6   7
BRANCH   6  24
ATOM     24  N   UNL A   1      30.608  27.657  24.706  1.00  0.00    -0.343 N 
ATOM     25  H   UNL A   1      30.960  27.954  23.796  1.00  0.00     0.345 HD
ATOM     26  H   UNL A   1      30.047  28.405  25.113  1.00  0.00     0.345 HD
ATOM     27  H   UNL A   1      30.033  26.823  24.593  1.00  0.00     0.345 HD
ENDBRANCH   6  24
ENDBRANCH   3   6
ENDBRANCH   1   2
BRANCH   1  28
ATOM     28  C   UNL A   1      31.676  31.819  26.560  1.00  0.00     0.042 C 
BRANCH  28  29
ATOM     29  C   UNL A   1      32.847  32.459  27.291  1.00  0.00     0.118 C 
BRANCH  29  30
ATOM     30  N   UNL A   1      32.600  33.865  27.587  1.00  0.00    -0.352 N 
ATOM     31  C   UNL A   1      33.121  34.654  28.584  1.00  0.00     0.251 C 
ATOM     32  H   UNL A   1      31.966  34.315  26.983  1.00  0.00     0.163 HD
ATOM     33  O   UNL A   1      32.603  35.735  28.834  1.00  0.00    -0.269 OA
BRANCH  31  34
ATOM     34  C   UNL A   1      34.290  34.182  29.360  1.00  0.00     0.039 A 
ATOM     35  C   UNL A   1      34.084  33.409  30.505  1.00  0.00     0.014 A 
ATOM     36  C   UNL A   1      35.586  34.511  28.958  1.00  0.00     0.014 A 
ATOM     37  C   UNL A   1      35.184  32.907  31.207  1.00  0.00     0.010 A 
ATOM     38  C   UNL A   1      36.676  33.940  29.605  1.00  0.00     0.010 A 
ATOM     39  C   UNL A   1      36.488  33.137  30.741  1.00  0.00    -0.014 A 
BRANCH  39  40
ATOM     40  C   UNL A   1      37.683  32.580  31.428  1.00  0.00     0.031 A 
ATOM     41  C   UNL A   1      38.442  31.446  30.790  1.00  0.00     0.074 A 
ATOM     42  C   UNL A   1      38.028  33.026  32.653  1.00  0.00     0.049 A 
ATOM     43  N   UNL A   1      39.404  30.710  31.281  1.00  0.00    -0.248 NA
ATOM     44  C   UNL A   1      38.035  31.070  29.426  1.00  0.00     0.031 C 
ATOM     45  C   UNL A   1      37.363  34.114  33.375  1.00  0.00     0.029 A 
ATOM     46  N   UNL A   1      39.013  32.613  33.514  1.00  0.00    -0.354 N 
ATOM     47  C   UNL A   1      39.696  29.764  30.303  1.00  0.00     0.074 A 
ATOM     48  C   UNL A   1      38.770  29.990  29.214  1.00  0.00     0.031 C 
ATOM     49  C   UNL A   1      37.979  34.299  34.555  1.00  0.00     0.029 A 
ATOM     50  C   UNL A   1      39.038  33.306  34.704  1.00  0.00     0.049 A 
ATOM     51  H   UNL A   1      39.643  31.887  33.301  1.00  0.00     0.167 HD
ATOM     52  C   UNL A   1      40.656  28.806  30.310  1.00  0.00     0.034 A 
ATOM     53  C   UNL A   1      39.813  33.145  35.796  1.00  0.00     0.034 A 
ATOM     54  C   UNL A   1      41.581  28.615  31.402  1.00  0.00     0.049 A 
ATOM     55  C   UNL A   1      40.838  32.038  35.799  1.00  0.00     0.074 A 
ATOM     56  C   UNL A   1      42.631  27.718  31.492  1.00  0.00     0.029 A 
ATOM     57  N   UNL A   1      41.559  29.322  32.598  1.00  0.00    -0.354 N 
ATOM     58  N   UNL A   1      41.118  31.166  34.858  1.00  0.00    -0.248 NA
ATOM     59  C   UNL A   1      41.652  31.897  37.013  1.00  0.00     0.031 C 
ATOM     60  C   UNL A   1      43.188  27.825  32.771  1.00  0.00     0.029 A 
ATOM     61  C   UNL A   1      42.552  28.855  33.445  1.00  0.00     0.049 A 
ATOM     62  H   UNL A   1      40.931  30.049  32.811  1.00  0.00     0.167 HD
ATOM     63  C   UNL A   1      42.172  30.402  35.351  1.00  0.00     0.074 A 
ATOM     64  C   UNL A   1      42.475  30.916  36.671  1.00  0.00     0.031 C 
ATOM     65  C   UNL A   1      42.840  29.377  34.762  1.00  0.00     0.034 A 
BRANCH  52  66
ATOM     66  C   UNL A   1      40.723  27.871  29.123  1.00  0.00     0.023 A 
ATOM     67  C   UNL A   1      41.668  28.036  28.097  1.00  0.00     0.031 A 
ATOM     68  C   UNL A   1      39.802  26.815  29.003  1.00  0.00     0.131 A 
ATOM     69  C   UNL A   1      41.619  27.215  26.959  1.00  0.00     0.055 A 
ATOM     70  C   UNL A   1      39.817  25.943  27.911  1.00  0.00     0.041 A 
ATOM     71  F   UNL A   1      38.859  26.618  29.937  1.00  0.00    -0.206 F 
ATOM     72  C   UNL A   1      40.719  26.152  26.873  1.00  0.00     0.022 A 
BRANCH  69  73
ATOM     73  S   UNL A   1      42.636  27.662  25.525  1.00  0.00     0.124 S 
ATOM     74  O   UNL A   1      42.505  26.472  24.688  1.00  0.00    -0.237 OA
ATOM     75  O   UNL A   1      41.975  28.865  25.033  1.00  0.00    -0.237 OA
ATOM     76  O   UNL A   1      43.965  27.867  26.097  1.00  0.00    -0.744 OA
ENDBRANCH  69  73
ENDBRANCH  52  66
BRANCH  53  77
ATOM     77  C   UNL A   1      39.653  34.035  36.983  1.00  0.00     0.023 A 
ATOM     78  C   UNL A   1      39.073  33.561  38.169  1.00  0.00     0.031 A 
ATOM     79  C   UNL A   1      40.031  35.388  36.939  1.00  0.00     0.131 A 
ATOM     80  C   UNL A   1      38.855  34.441  39.242  1.00  0.00     0.055 A 
ATOM     81  C   UNL A   1      39.877  36.243  38.030  1.00  0.00     0.041 A 
ATOM     82  F   UNL A   1      40.554  35.906  35.820  1.00  0.00    -0.206 F 
ATOM     83  C   UNL A   1      39.274  35.772  39.190  1.00  0.00     0.022 A 
BRANCH  80  84
ATOM     84  S   UNL A   1      37.922  33.845  40.678  1.00  0.00     0.124 S 
ATOM     85  O   UNL A   1      38.901  32.977  41.323  1.00  0.00    -0.237 OA
ATOM     86  O   UNL A   1      37.608  35.089  41.372  1.00  0.00    -0.237 OA
ATOM     87  O   UNL A   1      36.778  33.161  40.079  1.00  0.00    -0.744 OA
ENDBRANCH  80  84
ENDBRANCH  53  77
BRANCH  65  88
ATOM     88  C   UNL A   1      44.013  28.791  35.512  1.00  0.00     0.023 A 
ATOM     89  C   UNL A   1      43.873  27.701  36.387  1.00  0.00     0.031 A 
ATOM     90  C   UNL A   1      45.297  29.340  35.341  1.00  0.00     0.131 A 
ATOM     91  C   UNL A   1      44.988  27.225  37.096  1.00  0.00     0.055 A 
ATOM     92  C   UNL A   1      46.414  28.821  35.996  1.00  0.00     0.041 A 
ATOM     93  F   UNL A   1      45.489  30.386  34.521  1.00  0.00    -0.206 F 
ATOM     94  C   UNL A   1      46.260  27.765  36.889  1.00  0.00     0.022 A 
BRANCH  91  95
ATOM     95  S   UNL A   1      44.739  25.952  38.363  1.00  0.00     0.124 S 
ATOM     96  O   UNL A   1      46.064  25.864  38.968  1.00  0.00    -0.237 OA
ATOM     97  O   UNL A   1      43.695  26.540  39.196  1.00  0.00    -0.237 OA
ATOM     98  O   UNL A   1      44.329  24.777  37.593  1.00  0.00    -0.744 OA
ENDBRANCH  91  95
ENDBRANCH  65  88
ENDBRANCH  39  40
ENDBRANCH  31  34
ENDBRANCH  29  30
ENDBRANCH  28  29
ENDBRANCH   1  28
TORSDOF 20
ENDMDL
MODEL 2
REMARK VINA RESULT:     -11.7      4.852     11.235
REMARK SMILES CCOc1cc([C@@H]([NH3+])C(=O)NCCCNC(=O)c2ccc(-c3c4nc(c(-c5cc(S(=O)(=O)[O-])ccc5F)c5ccc([nH]5)c(-c5cc(S(=O)(=O)[O-])ccc5F)c5nc(c(-c6cc(S(=O)(=O)[O-])ccc6F)c6ccc3[nH]6)C=C5)C=C4)cc2)ccc1OCc1ccccc1
REMARK SMILES IDX 12 1 11 2 9 3 10 4 7 6 6 7 4 8 5 9 83 10 82 11 81 12 3 13
REMARK SMILES IDX 2 14 1 15 84 16 85 17 86 18 87 19 91 20 88 21 90 22 89 23
REMARK SMILES IDX 8 24 13 28 14 29 15 30 16 31 17 33 18 34 19 35 80 36 20 37
REMARK SMILES IDX 79 38 21 39 22 40 23 41 73 42 24 43 78 44 72 45 74 46 25 47
REMARK SMILES IDX 77 48 71 49 70 50 26 52 58 53 38 54 57 55 39 56 42 57 56 58
REMARK SMILES IDX 75 59 40 60 41 61 55 63 76 64 43 65 27 66 28 67 36 68 29 69
REMARK SMILES IDX 35 70 37 71 34 72 30 73 31 74 32 75 33 76 59 77 60 78 68 79
REMARK SMILES IDX 61 80 67 81 69 82 66 83 62 84 63 85 64 86 65 87 44 88 45 89
REMARK SMILES IDX 53 90 46 91 52 92 54 93 51 94 47 95 48 96 49 97 50 98
REMARK H PARENT 11 5 8 25 8 26 8 27 15 32 74 51 42 62
REMARK Flexibility Score: inf
ROOT
ATOM      1  C   UNL A   1      33.292  35.094  28.752  1.00  0.00     0.118 C 
ENDROOT
BRANCH   1   2
ATOM      2  N   UNL A   1      33.435  36.253  29.610  1.00  0.00    -0.351 N 
ATOM      3  C   UNL A   1      33.219  36.357  30.952  1.00  0.00     0.283 C 
ATOM      4  O   UNL A   1      33.268  37.492  31.444  1.00  0.00    -0.268 OA
ATOM      5  H   UNL A   1      33.729  37.079  29.162  1.00  0.00     0.163 HD
BRANCH   3   6
ATOM      6  C   UNL A   1      32.954  35.121  31.850  1.00  0.00     0.302 C 
BRANCH   6   7
ATOM      7  C   UNL A   1      34.210  34.396  32.307  1.00  0.00     0.023 A 
ATOM      8  C   UNL A   1      36.288  33.115  32.001  1.00  0.00     0.161 A 
ATOM      9  C   UNL A   1      35.175  33.794  31.459  1.00  0.00     0.061 A 
ATOM     10  C   UNL A   1      36.421  33.029  33.395  1.00  0.00     0.161 A 
ATOM     11  C   UNL A   1      35.522  33.696  34.226  1.00  0.00     0.051 A 
ATOM     12  C   UNL A   1      34.422  34.351  33.693  1.00  0.00     0.014 A 
BRANCH   8  13
ATOM     13  O   UNL A   1      37.321  32.663  31.222  1.00  0.00    -0.490 OA
BRANCH  13  14
ATOM     14  C   UNL A   1      37.955  33.622  30.366  1.00  0.00     0.226 C 
ATOM     15  C   UNL A   1      38.825  34.529  31.237  1.00  0.00     0.049 C 
ENDBRANCH  13  14
ENDBRANCH   8  13
BRANCH  10  16
ATOM     16  O   UNL A   1      37.312  32.287  34.113  1.00  0.00    -0.485 OA
BRANCH  16  17
ATOM     17  C   UNL A   1      37.679  32.707  35.428  1.00  0.00     0.265 C 
BRANCH  17  18
ATOM     18  C   UNL A   1      38.700  33.824  35.645  1.00  0.00    -0.011 A 
ATOM     19  C   UNL A   1      39.552  34.349  34.661  1.00  0.00     0.007 A 
ATOM     20  C   UNL A   1      38.713  34.457  36.900  1.00  0.00     0.007 A 
ATOM     21  C   UNL A   1      40.325  35.493  34.888  1.00  0.00     0.000 A 
ATOM     22  C   UNL A   1      39.517  35.576  37.140  1.00  0.00     0.000 A 
ATOM     23  C   UNL A   1      40.302  36.112  36.127  1.00  0.00     0.000 A 
ENDBRANCH  17  18
ENDBRANCH  16  17
ENDBRANCH  10  16
ENDBRANCH   6   7
BRANCH   6  24
ATOM     24  N   UNL A   1      31.970  35.391  32.915  1.00  0.00    -0.343 N 
ATOM     25  H   UNL A   1      31.113  35.757  32.501  1.00  0.00     0.345 HD
ATOM     26  H   UNL A   1      32.352  36.077  33.565  1.00  0.00     0.345 HD
ATOM     27  H   UNL A   1      31.764  34.527  33.415  1.00  0.00     0.345 HD
ENDBRANCH   6  24
ENDBRANCH   3   6
ENDBRANCH   1   2
BRANCH   1  28
ATOM     28  C   UNL A   1      34.544  34.877  27.915  1.00  0.00     0.042 C 
BRANCH  28  29
ATOM     29  C   UNL A   1      35.203  33.532  28.187  1.00  0.00     0.118 C 
BRANCH  29  30
ATOM     30  N   UNL A   1      34.334  32.419  27.826  1.00  0.00    -0.352 N 
ATOM     31  C   UNL A   1      34.616  31.076  27.755  1.00  0.00     0.251 C 
ATOM     32  H   UNL A   1      33.408  32.667  27.599  1.00  0.00     0.163 HD
ATOM     33  O   UNL A   1      33.837  30.322  27.186  1.00  0.00    -0.269 OA
BRANCH  31  34
ATOM     34  C   UNL A   1      35.867  30.555  28.350  1.00  0.00     0.039 A 
ATOM     35  C   UNL A   1      35.811  29.856  29.558  1.00  0.00     0.014 A 
ATOM     36  C   UNL A   1      37.094  30.766  27.717  1.00  0.00     0.014 A 
ATOM     37  C   UNL A   1      36.980  29.306  30.094  1.00  0.00     0.010 A 
ATOM     38  C   UNL A   1      38.239  30.145  28.205  1.00  0.00     0.010 A 
ATOM     39  C   UNL A   1      38.196  29.414  29.403  1.00  0.00    -0.014 A 
BRANCH  39  40
ATOM     40  C   UNL A   1      39.452  28.802  29.911  1.00  0.00     0.031 A 
ATOM     41  C   UNL A   1      40.100  29.363  31.150  1.00  0.00     0.074 A 
ATOM     42  C   UNL A   1      40.050  27.813  29.217  1.00  0.00     0.049 A 
ATOM     43  N   UNL A   1      41.267  29.093  31.671  1.00  0.00    -0.248 NA
ATOM     44  C   UNL A   1      39.342  30.395  31.876  1.00  0.00     0.031 C 
ATOM     45  C   UNL A   1      39.522  27.193  27.999  1.00  0.00     0.029 A 
ATOM     46  N   UNL A   1      41.242  27.164  29.426  1.00  0.00    -0.354 N 
ATOM     47  C   UNL A   1      41.399  29.941  32.766  1.00  0.00     0.074 A 
ATOM     48  C   UNL A   1      40.214  30.771  32.797  1.00  0.00     0.031 C 
ATOM     49  C   UNL A   1      40.371  26.236  27.589  1.00  0.00     0.029 A 
ATOM     50  C   UNL A   1      41.532  26.215  28.472  1.00  0.00     0.049 A 
ATOM     51  H   UNL A   1      41.834  27.360  30.188  1.00  0.00     0.167 HD
ATOM     52  C   UNL A   1      42.410  30.010  33.668  1.00  0.00     0.034 A 
ATOM     53  C   UNL A   1      42.619  25.432  28.318  1.00  0.00     0.034 A 
ATOM     54  C   UNL A   1      43.574  29.157  33.625  1.00  0.00     0.049 A 
ATOM     55  C   UNL A   1      43.754  25.565  29.304  1.00  0.00     0.074 A 
ATOM     56  C   UNL A   1      44.629  29.097  34.518  1.00  0.00     0.029 A 
ATOM     57  N   UNL A   1      43.842  28.224  32.631  1.00  0.00    -0.354 N 
ATOM     58  N   UNL A   1      43.855  26.356  30.347  1.00  0.00    -0.248 NA
ATOM     59  C   UNL A   1      44.919  24.699  29.089  1.00  0.00     0.031 C 
ATOM     60  C   UNL A   1      45.572  28.192  34.020  1.00  0.00     0.029 A 
ATOM     61  C   UNL A   1      45.063  27.613  32.868  1.00  0.00     0.049 A 
ATOM     62  H   UNL A   1      43.250  28.026  31.870  1.00  0.00     0.167 HD
ATOM     63  C   UNL A   1      45.077  26.048  30.939  1.00  0.00     0.074 A 
ATOM     64  C   UNL A   1      45.674  25.002  30.135  1.00  0.00     0.031 C 
ATOM     65  C   UNL A   1      45.648  26.571  32.054  1.00  0.00     0.034 A 
BRANCH  52  66
ATOM     66  C   UNL A   1      42.320  31.069  34.743  1.00  0.00     0.023 A 
ATOM     67  C   UNL A   1      42.990  32.301  34.635  1.00  0.00     0.031 A 
ATOM     68  C   UNL A   1      41.575  30.830  35.912  1.00  0.00     0.131 A 
ATOM     69  C   UNL A   1      42.971  33.207  35.707  1.00  0.00     0.055 A 
ATOM     70  C   UNL A   1      41.485  31.775  36.937  1.00  0.00     0.041 A 
ATOM     71  F   UNL A   1      40.932  29.665  36.087  1.00  0.00    -0.206 F 
ATOM     72  C   UNL A   1      42.200  32.964  36.845  1.00  0.00     0.022 A 
BRANCH  69  73
ATOM     73  S   UNL A   1      44.101  34.625  35.661  1.00  0.00     0.124 S 
ATOM     74  O   UNL A   1      43.633  35.412  36.799  1.00  0.00    -0.237 OA
ATOM     75  O   UNL A   1      45.407  33.993  35.816  1.00  0.00    -0.237 OA
ATOM     76  O   UNL A   1      43.847  35.224  34.352  1.00  0.00    -0.744 OA
ENDBRANCH  69  73
ENDBRANCH  52  66
BRANCH  53  77
ATOM     77  C   UNL A   1      42.707  24.461  27.188  1.00  0.00     0.023 A 
ATOM     78  C   UNL A   1      42.114  23.192  27.278  1.00  0.00     0.031 A 
ATOM     79  C   UNL A   1      43.427  24.761  26.019  1.00  0.00     0.131 A 
ATOM     80  C   UNL A   1      42.284  22.265  26.236  1.00  0.00     0.055 A 
ATOM     81  C   UNL A   1      43.536  23.864  24.957  1.00  0.00     0.041 A 
ATOM     82  F   UNL A   1      44.047  25.941  25.894  1.00  0.00    -0.206 F 
ATOM     83  C   UNL A   1      42.971  22.599  25.067  1.00  0.00     0.022 A 
BRANCH  80  84
ATOM     84  S   UNL A   1      41.677  20.573  26.473  1.00  0.00     0.124 S 
ATOM     85  O   UNL A   1      42.419  19.849  25.446  1.00  0.00    -0.237 OA
ATOM     86  O   UNL A   1      42.061  20.304  27.854  1.00  0.00    -0.237 OA
ATOM     87  O   UNL A   1      40.240  20.692  26.239  1.00  0.00    -0.744 OA
ENDBRANCH  80  84
ENDBRANCH  53  77
BRANCH  65  88
ATOM     88  C   UNL A   1      46.956  25.969  32.511  1.00  0.00     0.023 A 
ATOM     89  C   UNL A   1      47.014  24.952  33.479  1.00  0.00     0.031 A 
ATOM     90  C   UNL A   1      48.167  26.425  31.959  1.00  0.00     0.131 A 
ATOM     91  C   UNL A   1      48.259  24.459  33.901  1.00  0.00     0.055 A 
ATOM     92  C   UNL A   1      49.397  25.886  32.333  1.00  0.00     0.041 A 
ATOM     93  F   UNL A   1      48.171  27.399  31.034  1.00  0.00    -0.206 F 
ATOM     94  C   UNL A   1      49.449  24.905  33.319  1.00  0.00     0.022 A 
BRANCH  91  95
ATOM     95  S   UNL A   1      48.312  23.294  35.289  1.00  0.00     0.124 S 
ATOM     96  O   UNL A   1      49.014  22.157  34.704  1.00  0.00    -0.237 OA
ATOM     97  O   UNL A   1      49.047  24.046  36.301  1.00  0.00    -0.237 OA
ATOM     98  O   UNL A   1      46.900  23.060  35.596  1.00  0.00    -0.744 OA
ENDBRANCH  91  95
ENDBRANCH  65  88
ENDBRANCH  39  40
ENDBRANCH  31  34
ENDBRANCH  29  30
ENDBRANCH  28  29
ENDBRANCH   1  28
TORSDOF 20
ENDMDL
MODEL 3
REMARK VINA RESULT:     -11.4      4.738      8.755
REMARK SMILES CCOc1cc([C@@H]([NH3+])C(=O)NCCCNC(=O)c2ccc(-c3c4nc(c(-c5cc(S(=O)(=O)[O-])ccc5F)c5ccc([nH]5)c(-c5cc(S(=O)(=O)[O-])ccc5F)c5nc(c(-c6cc(S(=O)(=O)[O-])ccc6F)c6ccc3[nH]6)C=C5)C=C4)cc2)ccc1OCc1ccccc1
REMARK SMILES IDX 12 1 11 2 9 3 10 4 7 6 6 7 4 8 5 9 83 10 82 11 81 12 3 13
REMARK SMILES IDX 2 14 1 15 84 16 85 17 86 18 87 19 91 20 88 21 90 22 89 23
REMARK SMILES IDX 8 24 13 28 14 29 15 30 16 31 17 33 18 34 19 35 80 36 20 37
REMARK SMILES IDX 79 38 21 39 22 40 23 41 73 42 24 43 78 44 72 45 74 46 25 47
REMARK SMILES IDX 77 48 71 49 70 50 26 52 58 53 38 54 57 55 39 56 42 57 56 58
REMARK SMILES IDX 75 59 40 60 41 61 55 63 76 64 43 65 27 66 28 67 36 68 29 69
REMARK SMILES IDX 35 70 37 71 34 72 30 73 31 74 32 75 33 76 59 77 60 78 68 79
REMARK SMILES IDX 61 80 67 81 69 82 66 83 62 84 63 85 64 86 65 87 44 88 45 89
REMARK SMILES IDX 53 90 46 91 52 92 54 93 51 94 47 95 48 96 49 97 50 98
REMARK H PARENT 11 5 8 25 8 26 8 27 15 32 74 51 42 62
REMARK Flexibility Score: inf
ROOT
ATOM      1  C   UNL A   1      32.752  34.902  28.656  1.00  0.00     0.118 C 
ENDROOT
BRANCH   1   2
ATOM      2  N   UNL A   1      32.951  36.136  29.389  1.00  0.00    -0.351 N 
ATOM      3  C   UNL A   1      32.902  36.351  30.734  1.00  0.00     0.283 C 
ATOM      4  O   UNL A   1      32.962  37.526  31.119  1.00  0.00    -0.268 OA
ATOM      5  H   UNL A   1      33.149  36.929  28.839  1.00  0.00     0.163 HD
BRANCH   3   6
ATOM      6  C   UNL A   1      32.808  35.191  31.758  1.00  0.00     0.302 C 
BRANCH   6   7
ATOM      7  C   UNL A   1      34.153  34.664  32.235  1.00  0.00     0.023 A 
ATOM      8  C   UNL A   1      36.588  34.333  32.133  1.00  0.00     0.161 A 
ATOM      9  C   UNL A   1      35.405  34.907  31.617  1.00  0.00     0.061 A 
ATOM     10  C   UNL A   1      36.506  33.503  33.261  1.00  0.00     0.161 A 
ATOM     11  C   UNL A   1      35.290  33.336  33.921  1.00  0.00     0.051 A 
ATOM     12  C   UNL A   1      34.127  33.890  33.405  1.00  0.00     0.014 A 
BRANCH   8  13
ATOM     13  O   UNL A   1      37.830  34.671  31.665  1.00  0.00    -0.490 OA
BRANCH  13  14
ATOM     14  C   UNL A   1      38.126  34.329  30.304  1.00  0.00     0.226 C 
ATOM     15  C   UNL A   1      39.637  34.124  30.187  1.00  0.00     0.049 C 
ENDBRANCH  13  14
ENDBRANCH   8  13
BRANCH  10  16
ATOM     16  O   UNL A   1      37.484  32.726  33.808  1.00  0.00    -0.485 OA
BRANCH  16  17
ATOM     17  C   UNL A   1      38.108  33.135  35.027  1.00  0.00     0.265 C 
BRANCH  17  18
ATOM     18  C   UNL A   1      39.156  34.248  35.044  1.00  0.00    -0.011 A 
ATOM     19  C   UNL A   1      39.303  35.210  36.055  1.00  0.00     0.007 A 
ATOM     20  C   UNL A   1      40.124  34.243  34.025  1.00  0.00     0.007 A 
ATOM     21  C   UNL A   1      40.399  36.079  36.092  1.00  0.00     0.000 A 
ATOM     22  C   UNL A   1      41.198  35.139  34.040  1.00  0.00     0.000 A 
ATOM     23  C   UNL A   1      41.352  36.039  35.087  1.00  0.00     0.000 A 
ENDBRANCH  17  18
ENDBRANCH  16  17
ENDBRANCH  10  16
ENDBRANCH   6   7
BRANCH   6  24
ATOM     24  N   UNL A   1      31.828  35.455  32.829  1.00  0.00    -0.343 N 
ATOM     25  H   UNL A   1      32.279  35.974  33.582  1.00  0.00     0.345 HD
ATOM     26  H   UNL A   1      31.475  34.570  33.192  1.00  0.00     0.345 HD
ATOM     27  H   UNL A   1      31.053  36.002  32.454  1.00  0.00     0.345 HD
ENDBRANCH   6  24
ENDBRANCH   3   6
ENDBRANCH   1   2
BRANCH   1  28
ATOM     28  C   UNL A   1      34.084  34.279  28.265  1.00  0.00     0.042 C 
BRANCH  28  29
ATOM     29  C   UNL A   1      34.303  32.916  28.904  1.00  0.00     0.118 C 
BRANCH  29  30
ATOM     30  N   UNL A   1      33.854  31.832  28.037  1.00  0.00    -0.352 N 
ATOM     31  C   UNL A   1      34.543  30.733  27.583  1.00  0.00     0.251 C 
ATOM     32  H   UNL A   1      32.920  31.899  27.733  1.00  0.00     0.163 HD
ATOM     33  O   UNL A   1      34.086  30.071  26.660  1.00  0.00    -0.269 OA
BRANCH  31  34
ATOM     34  C   UNL A   1      35.838  30.371  28.200  1.00  0.00     0.039 A 
ATOM     35  C   UNL A   1      35.850  29.605  29.368  1.00  0.00     0.014 A 
ATOM     36  C   UNL A   1      37.040  30.794  27.627  1.00  0.00     0.014 A 
ATOM     37  C   UNL A   1      37.070  29.206  29.922  1.00  0.00     0.010 A 
ATOM     38  C   UNL A   1      38.248  30.324  28.128  1.00  0.00     0.010 A 
ATOM     39  C   UNL A   1      38.277  29.529  29.285  1.00  0.00    -0.014 A 
BRANCH  39  40
ATOM     40  C   UNL A   1      39.594  29.082  29.811  1.00  0.00     0.031 A 
ATOM     41  C   UNL A   1      40.303  27.930  29.149  1.00  0.00     0.074 A 
ATOM     42  C   UNL A   1      40.102  29.645  30.926  1.00  0.00     0.049 A 
ATOM     43  N   UNL A   1      41.369  27.279  29.534  1.00  0.00    -0.248 NA
ATOM     44  C   UNL A   1      39.708  27.424  27.902  1.00  0.00     0.031 C 
ATOM     45  C   UNL A   1      39.502  30.763  31.660  1.00  0.00     0.029 A 
ATOM     46  N   UNL A   1      41.231  29.347  31.647  1.00  0.00    -0.354 N 
ATOM     47  C   UNL A   1      41.554  26.267  28.598  1.00  0.00     0.074 A 
ATOM     48  C   UNL A   1      40.457  26.360  27.659  1.00  0.00     0.031 C 
ATOM     49  C   UNL A   1      40.285  31.072  32.708  1.00  0.00     0.029 A 
ATOM     50  C   UNL A   1      41.406  30.140  32.760  1.00  0.00     0.049 A 
ATOM     51  H   UNL A   1      41.859  28.632  31.392  1.00  0.00     0.167 HD
ATOM     52  C   UNL A   1      42.554  25.353  28.524  1.00  0.00     0.034 A 
ATOM     53  C   UNL A   1      42.350  30.104  33.721  1.00  0.00     0.034 A 
ATOM     54  C   UNL A   1      43.647  25.293  29.464  1.00  0.00     0.049 A 
ATOM     55  C   UNL A   1      43.422  29.045  33.645  1.00  0.00     0.074 A 
ATOM     56  C   UNL A   1      44.746  24.451  29.453  1.00  0.00     0.029 A 
ATOM     57  N   UNL A   1      43.776  26.098  30.590  1.00  0.00    -0.354 N 
ATOM     58  N   UNL A   1      43.597  28.108  32.742  1.00  0.00    -0.248 NA
ATOM     59  C   UNL A   1      44.423  29.040  34.719  1.00  0.00     0.031 C 
ATOM     60  C   UNL A   1      45.490  24.689  30.613  1.00  0.00     0.029 A 
ATOM     61  C   UNL A   1      44.914  25.745  31.299  1.00  0.00     0.049 A 
ATOM     62  H   UNL A   1      43.151  26.814  30.845  1.00  0.00     0.167 HD
ATOM     63  C   UNL A   1      44.755  27.432  33.117  1.00  0.00     0.074 A 
ATOM     64  C   UNL A   1      45.233  28.069  34.326  1.00  0.00     0.031 C 
ATOM     65  C   UNL A   1      45.376  26.389  32.508  1.00  0.00     0.034 A 
BRANCH  52  66
ATOM     66  C   UNL A   1      42.483  24.324  27.418  1.00  0.00     0.023 A 
ATOM     67  C   UNL A   1      41.771  23.121  27.565  1.00  0.00     0.031 A 
ATOM     68  C   UNL A   1      43.166  24.537  26.208  1.00  0.00     0.131 A 
ATOM     69  C   UNL A   1      41.828  22.144  26.557  1.00  0.00     0.055 A 
ATOM     70  C   UNL A   1      43.143  23.601  25.171  1.00  0.00     0.041 A 
ATOM     71  F   UNL A   1      43.884  25.655  26.014  1.00  0.00    -0.206 F 
ATOM     72  C   UNL A   1      42.485  22.389  25.350  1.00  0.00     0.022 A 
BRANCH  69  73
ATOM     73  S   UNL A   1      41.173  20.491  26.916  1.00  0.00     0.124 S 
ATOM     74  O   UNL A   1      40.037  20.419  26.000  1.00  0.00    -0.237 OA
ATOM     75  O   UNL A   1      42.305  19.628  26.599  1.00  0.00    -0.237 OA
ATOM     76  O   UNL A   1      40.817  20.563  28.332  1.00  0.00    -0.744 OA
ENDBRANCH  69  73
ENDBRANCH  52  66
BRANCH  53  77
ATOM     77  C   UNL A   1      42.332  31.085  34.847  1.00  0.00     0.023 A 
ATOM     78  C   UNL A   1      43.270  32.125  34.914  1.00  0.00     0.031 A 
ATOM     79  C   UNL A   1      41.411  30.970  35.902  1.00  0.00     0.131 A 
ATOM     80  C   UNL A   1      43.286  32.983  36.027  1.00  0.00     0.055 A 
ATOM     81  C   UNL A   1      41.384  31.864  36.972  1.00  0.00     0.041 A 
ATOM     82  F   UNL A   1      40.518  29.972  35.912  1.00  0.00    -0.206 F 
ATOM     83  C   UNL A   1      42.336  32.873  37.045  1.00  0.00     0.022 A 
BRANCH  80  84
ATOM     84  S   UNL A   1      44.634  34.186  36.176  1.00  0.00     0.124 S 
ATOM     85  O   UNL A   1      44.139  35.049  37.243  1.00  0.00    -0.237 OA
ATOM     86  O   UNL A   1      45.767  33.331  36.513  1.00  0.00    -0.237 OA
ATOM     87  O   UNL A   1      44.690  34.799  34.851  1.00  0.00    -0.744 OA
ENDBRANCH  80  84
ENDBRANCH  53  77
BRANCH  65  88
ATOM     88  C   UNL A   1      46.682  25.917  33.103  1.00  0.00     0.023 A 
ATOM     89  C   UNL A   1      46.743  24.883  34.051  1.00  0.00     0.031 A 
ATOM     90  C   UNL A   1      47.890  26.521  32.705  1.00  0.00     0.131 A 
ATOM     91  C   UNL A   1      47.979  24.515  34.606  1.00  0.00     0.055 A 
ATOM     92  C   UNL A   1      49.122  26.107  33.210  1.00  0.00     0.041 A 
ATOM     93  F   UNL A   1      47.891  27.519  31.806  1.00  0.00    -0.206 F 
ATOM     94  C   UNL A   1      49.170  25.107  34.176  1.00  0.00     0.022 A 
BRANCH  91  95
ATOM     95  S   UNL A   1      48.003  23.318  35.968  1.00  0.00     0.124 S 
ATOM     96  O   UNL A   1      47.675  24.158  37.115  1.00  0.00    -0.237 OA
ATOM     97  O   UNL A   1      46.977  22.363  35.563  1.00  0.00    -0.237 OA
ATOM     98  O   UNL A   1      49.372  22.802  35.948  1.00  0.00    -0.744 OA
ENDBRANCH  91  95
ENDBRANCH  65  88
ENDBRANCH  39  40
ENDBRANCH  31  34
ENDBRANCH  29  30
ENDBRANCH  28  29
ENDBRANCH   1  28
TORSDOF 20
ENDMDL
