MODEL 1
REMARK VINA RESULT:     -12.0      0.000      0.000
REMARK SMILES O=Cc1ccc(-c2ccc(C(=O)NCCCNC(=O)c3ccc(-c4c5nc(c(-c6cc(S(=O)(=O)[O-])ccc6F)c6ccc([nH]6)c(-c6cc(S(=O)(=O)[O-])ccc6F)c6nc(c(-c7cc(S(=O)(=O)[O-])ccc7F)c7ccc4[nH]7)C=C6)C=C5)cc3)cn2)cc1
REMARK SMILES IDX 15 1 14 2 13 3 11 4 12 5 10 7 7 8 8 9 84 10 9 11 83 12 6 13
REMARK SMILES IDX 3 14 4 15 86 16 5 17 85 18 2 19 1 20 16 21 17 22 18 23 19 25
REMARK SMILES IDX 20 26 21 27 82 28 22 29 81 30 23 31 24 32 25 33 75 34 26 35
REMARK SMILES IDX 80 36 74 37 76 38 27 39 79 40 73 41 72 42 28 44 60 45 40 46
REMARK SMILES IDX 59 47 41 48 44 49 58 50 77 51 42 52 43 53 57 55 78 56 45 57
REMARK SMILES IDX 29 58 30 59 38 60 31 61 37 62 39 63 36 64 32 65 33 66 34 67
REMARK SMILES IDX 35 68 61 69 62 70 70 71 63 72 69 73 71 74 68 75 64 76 65 77
REMARK SMILES IDX 66 78 67 79 46 80 47 81 55 82 48 83 54 84 56 85 53 86 49 87
REMARK SMILES IDX 50 88 51 89 52 90
REMARK H PARENT 13 6 17 24 76 43 44 54
REMARK Flexibility Score: inf
ROOT
ATOM      1  C   UNL A   1      33.795  28.354  24.679  1.00  0.00     0.042 C 
ENDROOT
BRANCH   1   2
ATOM      2  C   UNL A   1      32.594  27.565  24.155  1.00  0.00     0.118 C 
BRANCH   2   3
ATOM      3  N   UNL A   1      31.628  27.303  25.209  1.00  0.00    -0.352 N 
ATOM      4  C   UNL A   1      31.312  26.168  25.909  1.00  0.00     0.252 C 
ATOM      5  O   UNL A   1      30.502  26.271  26.830  1.00  0.00    -0.269 OA
ATOM      6  H   UNL A   1      31.101  28.092  25.469  1.00  0.00     0.163 HD
BRANCH   4   7
ATOM      7  C   UNL A   1      31.921  24.842  25.644  1.00  0.00     0.058 A 
ATOM      8  C   UNL A   1      32.807  22.295  25.022  1.00  0.00     0.070 A 
ATOM      9  C   UNL A   1      33.643  23.157  25.726  1.00  0.00     0.030 A 
ATOM     10  N   UNL A   1      31.580  22.666  24.594  1.00  0.00    -0.255 NA
ATOM     11  C   UNL A   1      33.203  24.448  26.014  1.00  0.00     0.018 A 
ATOM     12  C   UNL A   1      31.169  23.923  24.916  1.00  0.00     0.125 A 
BRANCH   8  13
ATOM     13  C   UNL A   1      33.245  20.943  24.676  1.00  0.00     0.000 A 
ATOM     14  C   UNL A   1      34.030  18.290  24.202  1.00  0.00     0.014 A 
ATOM     15  C   UNL A   1      34.938  19.192  24.761  1.00  0.00     0.012 A 
ATOM     16  C   UNL A   1      32.745  18.707  23.850  1.00  0.00     0.012 A 
ATOM     17  C   UNL A   1      34.547  20.515  24.986  1.00  0.00     0.011 A 
ATOM     18  C   UNL A   1      32.356  20.027  24.089  1.00  0.00     0.011 A 
BRANCH  14  19
ATOM     19  C   UNL A   1      34.435  16.885  24.004  1.00  0.00     0.260 C 
ATOM     20  O   UNL A   1      34.054  16.224  23.045  1.00  0.00    -0.298 OA
ENDBRANCH  14  19
ENDBRANCH   8  13
ENDBRANCH   4   7
ENDBRANCH   2   3
ENDBRANCH   1   2
BRANCH   1  21
ATOM     21  C   UNL A   1      33.739  28.617  26.182  1.00  0.00     0.118 C 
BRANCH  21  22
ATOM     22  N   UNL A   1      33.668  30.040  26.477  1.00  0.00    -0.352 N 
ATOM     23  C   UNL A   1      34.415  30.804  27.338  1.00  0.00     0.251 C 
ATOM     24  H   UNL A   1      32.975  30.533  25.980  1.00  0.00     0.163 HD
ATOM     25  O   UNL A   1      34.020  31.931  27.625  1.00  0.00    -0.269 OA
BRANCH  23  26
ATOM     26  C   UNL A   1      35.672  30.284  27.925  1.00  0.00     0.039 A 
ATOM     27  C   UNL A   1      35.636  29.723  29.205  1.00  0.00     0.014 A 
ATOM     28  C   UNL A   1      36.891  30.397  27.250  1.00  0.00     0.014 A 
ATOM     29  C   UNL A   1      36.809  29.235  29.786  1.00  0.00     0.010 A 
ATOM     30  C   UNL A   1      38.046  29.845  27.800  1.00  0.00     0.010 A 
ATOM     31  C   UNL A   1      38.020  29.265  29.078  1.00  0.00    -0.014 A 
BRANCH  31  32
ATOM     32  C   UNL A   1      39.268  28.705  29.659  1.00  0.00     0.031 A 
ATOM     33  C   UNL A   1      39.890  29.343  30.872  1.00  0.00     0.074 A 
ATOM     34  C   UNL A   1      39.879  27.671  29.048  1.00  0.00     0.049 A 
ATOM     35  N   UNL A   1      41.018  29.059  31.471  1.00  0.00    -0.248 NA
ATOM     36  C   UNL A   1      39.161  30.473  31.467  1.00  0.00     0.031 C 
ATOM     37  C   UNL A   1      39.396  27.004  27.836  1.00  0.00     0.029 A 
ATOM     38  N   UNL A   1      41.043  27.011  29.347  1.00  0.00    -0.354 N 
ATOM     39  C   UNL A   1      41.148  29.989  32.498  1.00  0.00     0.074 A 
ATOM     40  C   UNL A   1      40.007  30.877  32.401  1.00  0.00     0.031 C 
ATOM     41  C   UNL A   1      40.252  26.026  27.502  1.00  0.00     0.029 A 
ATOM     42  C   UNL A   1      41.366  26.023  28.447  1.00  0.00     0.049 A 
ATOM     43  H   UNL A   1      41.597  27.226  30.133  1.00  0.00     0.167 HD
ATOM     44  C   UNL A   1      42.117  30.081  33.443  1.00  0.00     0.034 A 
ATOM     45  C   UNL A   1      42.443  25.217  28.376  1.00  0.00     0.034 A 
ATOM     46  C   UNL A   1      43.235  29.172  33.531  1.00  0.00     0.049 A 
ATOM     47  C   UNL A   1      43.507  25.331  29.437  1.00  0.00     0.074 A 
ATOM     48  C   UNL A   1      44.231  29.119  34.491  1.00  0.00     0.029 A 
ATOM     49  N   UNL A   1      43.516  28.165  32.615  1.00  0.00    -0.354 N 
ATOM     50  N   UNL A   1      43.579  26.170  30.445  1.00  0.00    -0.248 NA
ATOM     51  C   UNL A   1      44.623  24.381  29.361  1.00  0.00     0.031 C 
ATOM     52  C   UNL A   1      45.150  28.132  34.118  1.00  0.00     0.029 A 
ATOM     53  C   UNL A   1      44.688  27.511  32.967  1.00  0.00     0.049 A 
ATOM     54  H   UNL A   1      42.964  27.947  31.830  1.00  0.00     0.167 HD
ATOM     55  C   UNL A   1      44.738  25.831  31.137  1.00  0.00     0.074 A 
ATOM     56  C   UNL A   1      45.321  24.702  30.440  1.00  0.00     0.031 C 
ATOM     57  C   UNL A   1      45.269  26.399  32.251  1.00  0.00     0.034 A 
BRANCH  44  58
ATOM     58  C   UNL A   1      42.022  31.223  34.431  1.00  0.00     0.023 A 
ATOM     59  C   UNL A   1      41.036  31.259  35.433  1.00  0.00     0.031 A 
ATOM     60  C   UNL A   1      42.905  32.314  34.344  1.00  0.00     0.131 A 
ATOM     61  C   UNL A   1      40.900  32.394  36.245  1.00  0.00     0.055 A 
ATOM     62  C   UNL A   1      42.821  33.402  35.215  1.00  0.00     0.041 A 
ATOM     63  F   UNL A   1      43.857  32.350  33.398  1.00  0.00    -0.206 F 
ATOM     64  C   UNL A   1      41.802  33.457  36.160  1.00  0.00     0.022 A 
BRANCH  61  65
ATOM     65  S   UNL A   1      39.428  32.534  37.297  1.00  0.00     0.124 S 
ATOM     66  O   UNL A   1      38.851  33.794  36.831  1.00  0.00    -0.237 OA
ATOM     67  O   UNL A   1      38.684  31.326  36.960  1.00  0.00    -0.237 OA
ATOM     68  O   UNL A   1      39.977  32.573  38.651  1.00  0.00    -0.744 OA
ENDBRANCH  61  65
ENDBRANCH  44  58
BRANCH  45  69
ATOM     69  C   UNL A   1      42.579  24.248  27.252  1.00  0.00     0.023 A 
ATOM     70  C   UNL A   1      41.994  22.974  27.314  1.00  0.00     0.031 A 
ATOM     71  C   UNL A   1      43.311  24.582  26.098  1.00  0.00     0.131 A 
ATOM     72  C   UNL A   1      42.180  22.067  26.260  1.00  0.00     0.055 A 
ATOM     73  C   UNL A   1      43.452  23.694  25.031  1.00  0.00     0.041 A 
ATOM     74  F   UNL A   1      43.881  25.793  25.984  1.00  0.00    -0.206 F 
ATOM     75  C   UNL A   1      42.894  22.424  25.113  1.00  0.00     0.022 A 
BRANCH  72  76
ATOM     76  S   UNL A   1      41.526  20.384  26.433  1.00  0.00     0.124 S 
ATOM     77  O   UNL A   1      41.915  20.053  27.799  1.00  0.00    -0.237 OA
ATOM     78  O   UNL A   1      40.100  20.589  26.202  1.00  0.00    -0.237 OA
ATOM     79  O   UNL A   1      42.222  19.639  25.387  1.00  0.00    -0.744 OA
ENDBRANCH  72  76
ENDBRANCH  45  69
BRANCH  57  80
ATOM     80  C   UNL A   1      46.530  25.776  32.801  1.00  0.00     0.023 A 
ATOM     81  C   UNL A   1      46.492  24.689  33.692  1.00  0.00     0.031 A 
ATOM     82  C   UNL A   1      47.788  26.286  32.434  1.00  0.00     0.131 A 
ATOM     83  C   UNL A   1      47.685  24.183  34.228  1.00  0.00     0.055 A 
ATOM     84  C   UNL A   1      48.974  25.738  32.923  1.00  0.00     0.041 A 
ATOM     85  F   UNL A   1      47.884  27.325  31.590  1.00  0.00    -0.206 F 
ATOM     86  C   UNL A   1      48.927  24.690  33.836  1.00  0.00     0.022 A 
BRANCH  83  87
ATOM     87  S   UNL A   1      47.590  22.913  35.519  1.00  0.00     0.124 S 
ATOM     88  O   UNL A   1      48.149  21.748  34.840  1.00  0.00    -0.237 OA
ATOM     89  O   UNL A   1      48.408  23.485  36.583  1.00  0.00    -0.237 OA
ATOM     90  O   UNL A   1      46.161  22.829  35.815  1.00  0.00    -0.744 OA
ENDBRANCH  83  87
ENDBRANCH  57  80
ENDBRANCH  31  32
ENDBRANCH  23  26
ENDBRANCH  21  22
ENDBRANCH   1  21
TORSDOF 15
ENDMDL
MODEL 2
REMARK VINA RESULT:     -11.9      3.446      8.977
REMARK SMILES O=Cc1ccc(-c2ccc(C(=O)NCCCNC(=O)c3ccc(-c4c5nc(c(-c6cc(S(=O)(=O)[O-])ccc6F)c6ccc([nH]6)c(-c6cc(S(=O)(=O)[O-])ccc6F)c6nc(c(-c7cc(S(=O)(=O)[O-])ccc7F)c7ccc4[nH]7)C=C6)C=C5)cc3)cn2)cc1
REMARK SMILES IDX 15 1 14 2 13 3 11 4 12 5 10 7 7 8 8 9 84 10 9 11 83 12 6 13
REMARK SMILES IDX 3 14 4 15 86 16 5 17 85 18 2 19 1 20 16 21 17 22 18 23 19 25
REMARK SMILES IDX 20 26 21 27 82 28 22 29 81 30 23 31 24 32 25 33 75 34 26 35
REMARK SMILES IDX 80 36 74 37 76 38 27 39 79 40 73 41 72 42 28 44 60 45 40 46
REMARK SMILES IDX 59 47 41 48 44 49 58 50 77 51 42 52 43 53 57 55 78 56 45 57
REMARK SMILES IDX 29 58 30 59 38 60 31 61 37 62 39 63 36 64 32 65 33 66 34 67
REMARK SMILES IDX 35 68 61 69 62 70 70 71 63 72 69 73 71 74 68 75 64 76 65 77
REMARK SMILES IDX 66 78 67 79 46 80 47 81 55 82 48 83 54 84 56 85 53 86 49 87
REMARK SMILES IDX 50 88 51 89 52 90
REMARK H PARENT 13 6 17 24 76 43 44 54
REMARK Flexibility Score: inf
ROOT
ATOM      1  C   UNL A   1      31.431  31.903  26.553  1.00  0.00     0.042 C 
ENDROOT
BRANCH   1   2
ATOM      2  C   UNL A   1      31.565  30.493  25.976  1.00  0.00     0.118 C 
BRANCH   2   3
ATOM      3  N   UNL A   1      30.862  30.367  24.711  1.00  0.00    -0.352 N 
ATOM      4  C   UNL A   1      30.814  29.364  23.778  1.00  0.00     0.252 C 
ATOM      5  O   UNL A   1      30.040  29.500  22.831  1.00  0.00    -0.269 OA
ATOM      6  H   UNL A   1      30.315  31.152  24.480  1.00  0.00     0.163 HD
BRANCH   4   7
ATOM      7  C   UNL A   1      31.611  28.117  23.871  1.00  0.00     0.058 A 
ATOM      8  C   UNL A   1      33.327  25.958  24.107  1.00  0.00     0.070 A 
ATOM      9  C   UNL A   1      31.998  25.740  23.753  1.00  0.00     0.030 A 
ATOM     10  N   UNL A   1      33.811  27.190  24.377  1.00  0.00    -0.255 NA
ATOM     11  C   UNL A   1      31.131  26.828  23.661  1.00  0.00     0.018 A 
ATOM     12  C   UNL A   1      32.946  28.234  24.251  1.00  0.00     0.125 A 
BRANCH   8  13
ATOM     13  C   UNL A   1      34.259  24.838  24.242  1.00  0.00     0.000 A 
ATOM     14  C   UNL A   1      36.181  22.799  24.388  1.00  0.00     0.014 A 
ATOM     15  C   UNL A   1      35.282  22.828  23.320  1.00  0.00     0.012 A 
ATOM     16  C   UNL A   1      36.111  23.760  25.399  1.00  0.00     0.012 A 
ATOM     17  C   UNL A   1      34.320  23.839  23.256  1.00  0.00     0.011 A 
ATOM     18  C   UNL A   1      35.155  24.775  25.322  1.00  0.00     0.011 A 
BRANCH  14  19
ATOM     19  C   UNL A   1      37.221  21.753  24.430  1.00  0.00     0.260 C 
ATOM     20  O   UNL A   1      37.944  21.588  25.405  1.00  0.00    -0.298 OA
ENDBRANCH  14  19
ENDBRANCH   8  13
ENDBRANCH   4   7
ENDBRANCH   2   3
ENDBRANCH   1   2
BRANCH   1  21
ATOM     21  C   UNL A   1      32.722  32.432  27.173  1.00  0.00     0.118 C 
BRANCH  21  22
ATOM     22  N   UNL A   1      32.597  33.827  27.569  1.00  0.00    -0.352 N 
ATOM     23  C   UNL A   1      33.208  34.516  28.587  1.00  0.00     0.251 C 
ATOM     24  H   UNL A   1      31.977  34.360  27.021  1.00  0.00     0.163 HD
ATOM     25  O   UNL A   1      32.766  35.616  28.905  1.00  0.00    -0.269 OA
BRANCH  23  26
ATOM     26  C   UNL A   1      34.374  33.946  29.301  1.00  0.00     0.039 A 
ATOM     27  C   UNL A   1      34.151  33.009  30.314  1.00  0.00     0.014 A 
ATOM     28  C   UNL A   1      35.677  34.370  29.021  1.00  0.00     0.014 A 
ATOM     29  C   UNL A   1      35.233  32.464  31.011  1.00  0.00     0.010 A 
ATOM     30  C   UNL A   1      36.758  33.773  29.667  1.00  0.00     0.010 A 
ATOM     31  C   UNL A   1      36.547  32.820  30.675  1.00  0.00    -0.014 A 
BRANCH  31  32
ATOM     32  C   UNL A   1      37.712  32.214  31.370  1.00  0.00     0.031 A 
ATOM     33  C   UNL A   1      38.485  31.098  30.720  1.00  0.00     0.074 A 
ATOM     34  C   UNL A   1      38.025  32.618  32.617  1.00  0.00     0.049 A 
ATOM     35  N   UNL A   1      39.471  30.383  31.199  1.00  0.00    -0.248 NA
ATOM     36  C   UNL A   1      38.068  30.714  29.363  1.00  0.00     0.031 C 
ATOM     37  C   UNL A   1      37.316  33.656  33.369  1.00  0.00     0.029 A 
ATOM     38  N   UNL A   1      39.004  32.195  33.480  1.00  0.00    -0.354 N 
ATOM     39  C   UNL A   1      39.776  29.448  30.214  1.00  0.00     0.074 A 
ATOM     40  C   UNL A   1      38.832  29.657  29.136  1.00  0.00     0.031 C 
ATOM     41  C   UNL A   1      37.889  33.794  34.575  1.00  0.00     0.029 A 
ATOM     42  C   UNL A   1      38.976  32.828  34.701  1.00  0.00     0.049 A 
ATOM     43  H   UNL A   1      39.665  31.503  33.248  1.00  0.00     0.167 HD
ATOM     44  C   UNL A   1      40.763  28.518  30.204  1.00  0.00     0.034 A 
ATOM     45  C   UNL A   1      39.725  32.641  35.804  1.00  0.00     0.034 A 
ATOM     46  C   UNL A   1      41.705  28.340  31.285  1.00  0.00     0.049 A 
ATOM     47  C   UNL A   1      40.820  31.605  35.772  1.00  0.00     0.074 A 
ATOM     48  C   UNL A   1      42.793  27.487  31.350  1.00  0.00     0.029 A 
ATOM     49  N   UNL A   1      41.662  29.018  32.498  1.00  0.00    -0.354 N 
ATOM     50  N   UNL A   1      41.143  30.778  34.806  1.00  0.00    -0.248 NA
ATOM     51  C   UNL A   1      41.659  31.491  36.971  1.00  0.00     0.031 C 
ATOM     52  C   UNL A   1      43.362  27.596  32.624  1.00  0.00     0.029 A 
ATOM     53  C   UNL A   1      42.680  28.575  33.330  1.00  0.00     0.049 A 
ATOM     54  H   UNL A   1      41.004  29.712  32.733  1.00  0.00     0.167 HD
ATOM     55  C   UNL A   1      42.240  30.059  35.273  1.00  0.00     0.074 A 
ATOM     56  C   UNL A   1      42.531  30.565  36.600  1.00  0.00     0.031 C 
ATOM     57  C   UNL A   1      42.946  29.075  34.659  1.00  0.00     0.034 A 
BRANCH  44  58
ATOM     58  C   UNL A   1      40.847  27.603  29.002  1.00  0.00     0.023 A 
ATOM     59  C   UNL A   1      41.805  27.792  27.990  1.00  0.00     0.031 A 
ATOM     60  C   UNL A   1      39.929  26.550  28.844  1.00  0.00     0.131 A 
ATOM     61  C   UNL A   1      41.767  27.003  26.830  1.00  0.00     0.055 A 
ATOM     62  C   UNL A   1      39.953  25.710  27.729  1.00  0.00     0.041 A 
ATOM     63  F   UNL A   1      38.977  26.328  29.765  1.00  0.00    -0.206 F 
ATOM     64  C   UNL A   1      40.863  25.947  26.703  1.00  0.00     0.022 A 
BRANCH  61  65
ATOM     65  S   UNL A   1      42.805  27.486  25.422  1.00  0.00     0.124 S 
ATOM     66  O   UNL A   1      42.794  26.267  24.616  1.00  0.00    -0.237 OA
ATOM     67  O   UNL A   1      42.078  28.624  24.871  1.00  0.00    -0.237 OA
ATOM     68  O   UNL A   1      44.092  27.803  26.038  1.00  0.00    -0.744 OA
ENDBRANCH  61  65
ENDBRANCH  44  58
BRANCH  45  69
ATOM     69  C   UNL A   1      39.455  33.436  37.036  1.00  0.00     0.023 A 
ATOM     70  C   UNL A   1      40.137  34.635  37.293  1.00  0.00     0.031 A 
ATOM     71  C   UNL A   1      38.512  32.996  37.983  1.00  0.00     0.131 A 
ATOM     72  C   UNL A   1      39.894  35.335  38.485  1.00  0.00     0.055 A 
ATOM     73  C   UNL A   1      38.238  33.722  39.143  1.00  0.00     0.041 A 
ATOM     74  F   UNL A   1      37.823  31.861  37.779  1.00  0.00    -0.206 F 
ATOM     75  C   UNL A   1      38.939  34.894  39.405  1.00  0.00     0.022 A 
BRANCH  72  76
ATOM     76  S   UNL A   1      40.890  36.806  38.848  1.00  0.00     0.124 S 
ATOM     77  O   UNL A   1      41.581  36.404  40.068  1.00  0.00    -0.237 OA
ATOM     78  O   UNL A   1      41.715  36.917  37.649  1.00  0.00    -0.237 OA
ATOM     79  O   UNL A   1      39.892  37.861  39.013  1.00  0.00    -0.744 OA
ENDBRANCH  72  76
ENDBRANCH  45  69
BRANCH  57  80
ATOM     80  C   UNL A   1      44.127  28.510  35.411  1.00  0.00     0.023 A 
ATOM     81  C   UNL A   1      43.982  27.463  36.338  1.00  0.00     0.031 A 
ATOM     82  C   UNL A   1      45.415  29.036  35.202  1.00  0.00     0.131 A 
ATOM     83  C   UNL A   1      45.096  27.012  37.062  1.00  0.00     0.055 A 
ATOM     84  C   UNL A   1      46.529  28.541  35.881  1.00  0.00     0.041 A 
ATOM     85  F   UNL A   1      45.611  30.039  34.332  1.00  0.00    -0.206 F 
ATOM     86  C   UNL A   1      46.372  27.532  36.826  1.00  0.00     0.022 A 
BRANCH  83  87
ATOM     87  S   UNL A   1      44.842  25.798  38.385  1.00  0.00     0.124 S 
ATOM     88  O   UNL A   1      44.002  26.539  39.320  1.00  0.00    -0.237 OA
ATOM     89  O   UNL A   1      44.195  24.697  37.680  1.00  0.00    -0.237 OA
ATOM     90  O   UNL A   1      46.196  25.518  38.859  1.00  0.00    -0.744 OA
ENDBRANCH  83  87
ENDBRANCH  57  80
ENDBRANCH  31  32
ENDBRANCH  23  26
ENDBRANCH  21  22
ENDBRANCH   1  21
TORSDOF 15
ENDMDL
MODEL 3
REMARK VINA RESULT:     -11.9      5.122      8.119
REMARK SMILES O=Cc1ccc(-c2ccc(C(=O)NCCCNC(=O)c3ccc(-c4c5nc(c(-c6cc(S(=O)(=O)[O-])ccc6F)c6ccc([nH]6)c(-c6cc(S(=O)(=O)[O-])ccc6F)c6nc(c(-c7cc(S(=O)(=O)[O-])ccc7F)c7ccc4[nH]7)C=C6)C=C5)cc3)cn2)cc1
REMARK SMILES IDX 15 1 14 2 13 3 11 4 12 5 10 7 7 8 8 9 84 10 9 11 83 12 6 13
REMARK SMILES IDX 3 14 4 15 86 16 5 17 85 18 2 19 1 20 16 21 17 22 18 23 19 25
REMARK SMILES IDX 20 26 21 27 82 28 22 29 81 30 23 31 24 32 25 33 75 34 26 35
REMARK SMILES IDX 80 36 74 37 76 38 27 39 79 40 73 41 72 42 28 44 60 45 40 46
REMARK SMILES IDX 59 47 41 48 44 49 58 50 77 51 42 52 43 53 57 55 78 56 45 57
REMARK SMILES IDX 29 58 30 59 38 60 31 61 37 62 39 63 36 64 32 65 33 66 34 67
REMARK SMILES IDX 35 68 61 69 62 70 70 71 63 72 69 73 71 74 68 75 64 76 65 77
REMARK SMILES IDX 66 78 67 79 46 80 47 81 55 82 48 83 54 84 56 85 53 86 49 87
REMARK SMILES IDX 50 88 51 89 52 90
REMARK H PARENT 13 6 17 24 76 43 44 54
REMARK Flexibility Score: inf
ROOT
ATOM      1  C   UNL A   1      35.403  21.826  24.631  1.00  0.00     0.042 C 
ENDROOT
BRANCH   1   2
ATOM      2  C   UNL A   1      33.993  21.412  25.053  1.00  0.00     0.118 C 
BRANCH   2   3
ATOM      3  N   UNL A   1      33.759  21.678  26.463  1.00  0.00    -0.352 N 
ATOM      4  C   UNL A   1      33.079  22.675  27.113  1.00  0.00     0.252 C 
ATOM      5  O   UNL A   1      32.965  22.586  28.335  1.00  0.00    -0.269 OA
ATOM      6  H   UNL A   1      34.167  21.015  27.065  1.00  0.00     0.163 HD
BRANCH   4   7
ATOM      7  C   UNL A   1      32.444  23.823  26.422  1.00  0.00     0.058 A 
ATOM      8  C   UNL A   1      31.009  25.821  25.154  1.00  0.00     0.070 A 
ATOM      9  C   UNL A   1      32.386  25.958  25.305  1.00  0.00     0.030 A 
ATOM     10  N   UNL A   1      30.331  24.756  25.637  1.00  0.00    -0.255 NA
ATOM     11  C   UNL A   1      33.101  24.961  25.967  1.00  0.00     0.018 A 
ATOM     12  C   UNL A   1      31.062  23.788  26.254  1.00  0.00     0.125 A 
BRANCH   8  13
ATOM     13  C   UNL A   1      30.221  26.859  24.490  1.00  0.00     0.000 A 
ATOM     14  C   UNL A   1      28.782  28.781  23.037  1.00  0.00     0.014 A 
ATOM     15  C   UNL A   1      30.090  29.054  23.441  1.00  0.00     0.012 A 
ATOM     16  C   UNL A   1      28.174  27.570  23.377  1.00  0.00     0.012 A 
ATOM     17  C   UNL A   1      30.800  28.099  24.173  1.00  0.00     0.011 A 
ATOM     18  C   UNL A   1      28.894  26.614  24.098  1.00  0.00     0.011 A 
BRANCH  14  19
ATOM     19  C   UNL A   1      28.050  29.776  22.230  1.00  0.00     0.260 C 
ATOM     20  O   UNL A   1      28.367  30.045  21.077  1.00  0.00    -0.298 OA
ENDBRANCH  14  19
ENDBRANCH   8  13
ENDBRANCH   4   7
ENDBRANCH   2   3
ENDBRANCH   1   2
BRANCH   1  21
ATOM     21  C   UNL A   1      36.360  22.009  25.807  1.00  0.00     0.118 C 
BRANCH  21  22
ATOM     22  N   UNL A   1      37.342  20.936  25.873  1.00  0.00    -0.352 N 
ATOM     23  C   UNL A   1      38.707  20.993  26.002  1.00  0.00     0.251 C 
ATOM     24  H   UNL A   1      36.968  20.027  25.817  1.00  0.00     0.163 HD
ATOM     25  O   UNL A   1      39.365  19.981  25.777  1.00  0.00    -0.269 OA
BRANCH  23  26
ATOM     26  C   UNL A   1      39.384  22.250  26.396  1.00  0.00     0.039 A 
ATOM     27  C   UNL A   1      40.413  22.194  27.341  1.00  0.00     0.014 A 
ATOM     28  C   UNL A   1      38.976  23.487  25.886  1.00  0.00     0.014 A 
ATOM     29  C   UNL A   1      41.062  23.366  27.737  1.00  0.00     0.010 A 
ATOM     30  C   UNL A   1      39.671  24.645  26.228  1.00  0.00     0.010 A 
ATOM     31  C   UNL A   1      40.716  24.599  27.164  1.00  0.00    -0.014 A 
BRANCH  31  32
ATOM     32  C   UNL A   1      41.428  25.849  27.536  1.00  0.00     0.031 A 
ATOM     33  C   UNL A   1      40.717  26.921  28.317  1.00  0.00     0.074 A 
ATOM     34  C   UNL A   1      42.689  26.048  27.104  1.00  0.00     0.049 A 
ATOM     35  N   UNL A   1      41.134  28.113  28.659  1.00  0.00    -0.248 NA
ATOM     36  C   UNL A   1      39.340  26.623  28.737  1.00  0.00     0.031 C 
ATOM     37  C   UNL A   1      43.463  25.102  26.297  1.00  0.00     0.029 A 
ATOM     38  N   UNL A   1      43.536  27.115  27.266  1.00  0.00    -0.354 N 
ATOM     39  C   UNL A   1      40.065  28.717  29.312  1.00  0.00     0.074 A 
ATOM     40  C   UNL A   1      38.965  27.776  29.268  1.00  0.00     0.031 C 
ATOM     41  C   UNL A   1      44.671  25.627  26.043  1.00  0.00     0.029 A 
ATOM     42  C   UNL A   1      44.745  26.962  26.628  1.00  0.00     0.049 A 
ATOM     43  H   UNL A   1      43.300  27.916  27.788  1.00  0.00     0.167 HD
ATOM     44  C   UNL A   1      40.013  29.935  29.909  1.00  0.00     0.034 A 
ATOM     45  C   UNL A   1      45.788  27.806  26.511  1.00  0.00     0.034 A 
ATOM     46  C   UNL A   1      41.129  30.849  29.957  1.00  0.00     0.049 A 
ATOM     47  C   UNL A   1      45.714  29.152  27.185  1.00  0.00     0.074 A 
ATOM     48  C   UNL A   1      41.218  32.071  30.601  1.00  0.00     0.029 A 
ATOM     49  N   UNL A   1      42.350  30.649  29.321  1.00  0.00    -0.354 N 
ATOM     50  N   UNL A   1      44.721  29.681  27.862  1.00  0.00    -0.248 NA
ATOM     51  C   UNL A   1      46.905  30.005  27.094  1.00  0.00     0.031 C 
ATOM     52  C   UNL A   1      42.459  32.641  30.297  1.00  0.00     0.029 A 
ATOM     53  C   UNL A   1      43.181  31.741  29.528  1.00  0.00     0.049 A 
ATOM     54  H   UNL A   1      42.589  29.849  28.800  1.00  0.00     0.167 HD
ATOM     55  C   UNL A   1      45.177  30.922  28.297  1.00  0.00     0.074 A 
ATOM     56  C   UNL A   1      46.540  31.052  27.819  1.00  0.00     0.031 C 
ATOM     57  C   UNL A   1      44.531  31.866  29.029  1.00  0.00     0.034 A 
BRANCH  44  58
ATOM     58  C   UNL A   1      38.696  30.354  30.525  1.00  0.00     0.023 A 
ATOM     59  C   UNL A   1      37.772  31.154  29.830  1.00  0.00     0.031 A 
ATOM     60  C   UNL A   1      38.377  29.981  31.843  1.00  0.00     0.131 A 
ATOM     61  C   UNL A   1      36.623  31.627  30.481  1.00  0.00     0.055 A 
ATOM     62  C   UNL A   1      37.188  30.382  32.456  1.00  0.00     0.041 A 
ATOM     63  F   UNL A   1      39.225  29.234  32.568  1.00  0.00    -0.206 F 
ATOM     64  C   UNL A   1      36.312  31.227  31.782  1.00  0.00     0.022 A 
BRANCH  61  65
ATOM     65  S   UNL A   1      35.631  32.907  29.662  1.00  0.00     0.124 S 
ATOM     66  O   UNL A   1      36.542  33.360  28.613  1.00  0.00    -0.237 OA
ATOM     67  O   UNL A   1      34.460  32.161  29.216  1.00  0.00    -0.237 OA
ATOM     68  O   UNL A   1      35.384  33.881  30.724  1.00  0.00    -0.744 OA
ENDBRANCH  61  65
ENDBRANCH  44  58
BRANCH  45  69
ATOM     69  C   UNL A   1      46.982  27.412  25.710  1.00  0.00     0.023 A 
ATOM     70  C   UNL A   1      47.113  27.789  24.365  1.00  0.00     0.031 A 
ATOM     71  C   UNL A   1      48.008  26.637  26.281  1.00  0.00     0.131 A 
ATOM     72  C   UNL A   1      48.227  27.363  23.624  1.00  0.00     0.055 A 
ATOM     73  C   UNL A   1      49.137  26.256  25.554  1.00  0.00     0.041 A 
ATOM     74  F   UNL A   1      47.936  26.259  27.568  1.00  0.00    -0.206 F 
ATOM     75  C   UNL A   1      49.245  26.610  24.214  1.00  0.00     0.022 A 
BRANCH  72  76
ATOM     76  S   UNL A   1      48.297  27.755  21.855  1.00  0.00     0.124 S 
ATOM     77  O   UNL A   1      48.518  26.438  21.267  1.00  0.00    -0.237 OA
ATOM     78  O   UNL A   1      46.984  28.349  21.624  1.00  0.00    -0.237 OA
ATOM     79  O   UNL A   1      49.423  28.680  21.756  1.00  0.00    -0.744 OA
ENDBRANCH  72  76
ENDBRANCH  45  69
BRANCH  57  80
ATOM     80  C   UNL A   1      45.313  33.107  29.387  1.00  0.00     0.023 A 
ATOM     81  C   UNL A   1      45.287  34.257  28.578  1.00  0.00     0.031 A 
ATOM     82  C   UNL A   1      46.103  33.133  30.550  1.00  0.00     0.131 A 
ATOM     83  C   UNL A   1      46.079  35.365  28.914  1.00  0.00     0.055 A 
ATOM     84  C   UNL A   1      46.840  34.261  30.911  1.00  0.00     0.041 A 
ATOM     85  F   UNL A   1      46.169  32.062  31.356  1.00  0.00    -0.206 F 
ATOM     86  C   UNL A   1      46.842  35.381  30.085  1.00  0.00     0.022 A 
BRANCH  83  87
ATOM     87  S   UNL A   1      46.173  36.754  27.752  1.00  0.00     0.124 S 
ATOM     88  O   UNL A   1      47.441  36.499  27.076  1.00  0.00    -0.237 OA
ATOM     89  O   UNL A   1      44.971  36.569  26.945  1.00  0.00    -0.237 OA
ATOM     90  O   UNL A   1      46.160  37.930  28.620  1.00  0.00    -0.744 OA
ENDBRANCH  83  87
ENDBRANCH  57  80
ENDBRANCH  31  32
ENDBRANCH  23  26
ENDBRANCH  21  22
ENDBRANCH   1  21
TORSDOF 15
ENDMDL
