MODEL 1
REMARK VINA RESULT:     -12.3      0.000      0.000
REMARK SMILES C[C@H]1SCCC[C@]1(Nc1ccc(Cl)cc1)C(=O)NCCCNC(=O)c1ccc(-c2c3nc(c(-c4cc(S(=O)(=O)[O-])ccc4F)c4ccc([nH]4)c(-c4cc(S(=O)(=O)[O-])ccc4F)c4nc(c(-c5cc(S(=O)(=O)[O-])ccc5F)c5ccc2[nH]5)C=C4)C=C3)cc1
REMARK SMILES IDX 20 1 19 2 18 3 16 4 17 5 7 7 1 8 2 9 3 10 4 11 6 12 5 13
REMARK SMILES IDX 8 14 9 16 10 17 15 18 11 19 14 20 12 21 13 22 21 23 22 24
REMARK SMILES IDX 23 25 24 27 25 28 26 29 87 30 27 31 86 32 28 33 29 34 30 35
REMARK SMILES IDX 80 36 31 37 85 38 79 39 81 40 32 41 84 42 78 43 77 44 33 46
REMARK SMILES IDX 65 47 45 48 64 49 46 50 49 51 63 52 82 53 47 54 48 55 62 57
REMARK SMILES IDX 83 58 50 59 34 60 35 61 43 62 36 63 42 64 44 65 41 66 37 67
REMARK SMILES IDX 38 68 39 69 40 70 66 71 67 72 75 73 68 74 74 75 76 76 73 77
REMARK SMILES IDX 69 78 70 79 71 80 72 81 51 82 52 83 60 84 53 85 59 86 61 87
REMARK SMILES IDX 58 88 54 89 55 90 56 91 57 92
REMARK H PARENT 18 6 8 15 22 26 81 45 49 56
REMARK Flexibility Score: inf
ROOT
ATOM      1  C   UNL A   1      32.958  29.128  24.002  1.00  0.00     0.042 C 
ENDROOT
BRANCH   1   2
ATOM      2  C   UNL A   1      32.101  27.994  23.458  1.00  0.00     0.117 C 
BRANCH   2   3
ATOM      3  N   UNL A   1      32.809  27.194  22.468  1.00  0.00    -0.354 N 
ATOM      4  C   UNL A   1      33.147  25.874  22.427  1.00  0.00     0.246 C 
ATOM      5  O   UNL A   1      33.650  25.506  21.355  1.00  0.00    -0.272 OA
ATOM      6  H   UNL A   1      33.099  27.704  21.678  1.00  0.00     0.163 HD
BRANCH   4   7
ATOM      7  C   UNL A   1      32.980  24.865  23.623  1.00  0.00     0.128 C 
ATOM      8  C   UNL A   1      30.412  24.454  23.088  1.00  0.00     0.022 C 
ATOM      9  C   UNL A   1      31.479  24.870  24.093  1.00  0.00     0.078 C 
ATOM     10  S   UNL A   1      31.205  23.785  25.560  1.00  0.00    -0.156 SA
ATOM     11  C   UNL A   1      32.294  24.657  26.702  1.00  0.00     0.070 C 
ATOM     12  C   UNL A   1      33.842  25.415  24.814  1.00  0.00     0.040 C 
ATOM     13  C   UNL A   1      33.711  24.682  26.154  1.00  0.00     0.014 C 
BRANCH   7  14
ATOM     14  N   UNL A   1      33.446  23.484  23.314  1.00  0.00    -0.370 N 
ATOM     15  H   UNL A   1      32.929  22.993  22.636  1.00  0.00     0.161 HD
BRANCH  14  16
ATOM     16  C   UNL A   1      34.520  22.809  23.865  1.00  0.00     0.035 A 
ATOM     17  C   UNL A   1      35.857  23.071  23.544  1.00  0.00     0.027 A 
ATOM     18  C   UNL A   1      34.255  21.667  24.641  1.00  0.00     0.027 A 
ATOM     19  C   UNL A   1      36.884  22.195  23.921  1.00  0.00     0.022 A 
ATOM     20  C   UNL A   1      35.270  20.773  25.000  1.00  0.00     0.022 A 
ATOM     21  C   UNL A   1      36.581  21.035  24.624  1.00  0.00     0.041 A 
ATOM     22  Cl  UNL A   1      37.826  19.908  24.992  1.00  0.00    -0.084 Cl
ENDBRANCH  14  16
ENDBRANCH   7  14
ENDBRANCH   4   7
ENDBRANCH   2   3
ENDBRANCH   1   2
BRANCH   1  23
ATOM     23  C   UNL A   1      32.903  29.234  25.518  1.00  0.00     0.118 C 
BRANCH  23  24
ATOM     24  N   UNL A   1      32.498  30.561  25.959  1.00  0.00    -0.352 N 
ATOM     25  C   UNL A   1      33.028  31.355  26.947  1.00  0.00     0.251 C 
ATOM     26  H   UNL A   1      31.731  30.946  25.478  1.00  0.00     0.163 HD
ATOM     27  O   UNL A   1      32.391  32.339  27.332  1.00  0.00    -0.269 OA
BRANCH  25  28
ATOM     28  C   UNL A   1      34.327  31.021  27.573  1.00  0.00     0.039 A 
ATOM     29  C   UNL A   1      35.217  32.050  27.889  1.00  0.00     0.014 A 
ATOM     30  C   UNL A   1      34.677  29.696  27.845  1.00  0.00     0.014 A 
ATOM     31  C   UNL A   1      36.413  31.757  28.551  1.00  0.00     0.010 A 
ATOM     32  C   UNL A   1      35.814  29.418  28.598  1.00  0.00     0.010 A 
ATOM     33  C   UNL A   1      36.699  30.444  28.957  1.00  0.00    -0.014 A 
BRANCH  33  34
ATOM     34  C   UNL A   1      37.916  30.118  29.750  1.00  0.00     0.031 A 
ATOM     35  C   UNL A   1      38.934  29.149  29.207  1.00  0.00     0.074 A 
ATOM     36  C   UNL A   1      38.069  30.639  30.984  1.00  0.00     0.049 A 
ATOM     37  N   UNL A   1      40.002  28.660  29.782  1.00  0.00    -0.248 NA
ATOM     38  C   UNL A   1      38.696  28.633  27.850  1.00  0.00     0.031 C 
ATOM     39  C   UNL A   1      37.131  31.555  31.637  1.00  0.00     0.029 A 
ATOM     40  N   UNL A   1      39.060  30.465  31.917  1.00  0.00    -0.354 N 
ATOM     41  C   UNL A   1      40.554  27.770  28.867  1.00  0.00     0.074 A 
ATOM     42  C   UNL A   1      39.664  27.739  27.726  1.00  0.00     0.031 C 
ATOM     43  C   UNL A   1      37.605  31.883  32.849  1.00  0.00     0.029 A 
ATOM     44  C   UNL A   1      38.851  31.162  33.085  1.00  0.00     0.049 A 
ATOM     45  H   UNL A   1      39.849  29.895  31.765  1.00  0.00     0.167 HD
ATOM     46  C   UNL A   1      41.709  27.064  28.957  1.00  0.00     0.034 A 
ATOM     47  C   UNL A   1      39.568  31.200  34.226  1.00  0.00     0.034 A 
ATOM     48  C   UNL A   1      42.595  27.124  30.094  1.00  0.00     0.049 A 
ATOM     49  C   UNL A   1      40.832  30.382  34.316  1.00  0.00     0.074 A 
ATOM     50  C   UNL A   1      43.824  26.509  30.263  1.00  0.00     0.029 A 
ATOM     51  N   UNL A   1      42.343  27.832  31.263  1.00  0.00    -0.354 N 
ATOM     52  N   UNL A   1      41.369  29.590  33.416  1.00  0.00    -0.248 NA
ATOM     53  C   UNL A   1      41.586  30.466  35.573  1.00  0.00     0.031 C 
ATOM     54  C   UNL A   1      44.278  26.785  31.557  1.00  0.00     0.029 A 
ATOM     55  C   UNL A   1      43.373  27.635  32.171  1.00  0.00     0.049 A 
ATOM     56  H   UNL A   1      41.550  28.392  31.424  1.00  0.00     0.167 HD
ATOM     57  C   UNL A   1      42.536  29.097  33.994  1.00  0.00     0.074 A 
ATOM     58  C   UNL A   1      42.635  29.700  35.308  1.00  0.00     0.031 C 
ATOM     59  C   UNL A   1      43.444  28.225  33.487  1.00  0.00     0.034 A 
BRANCH  46  60
ATOM     60  C   UNL A   1      42.062  26.155  27.804  1.00  0.00     0.023 A 
ATOM     61  C   UNL A   1      41.618  24.821  27.749  1.00  0.00     0.031 A 
ATOM     62  C   UNL A   1      42.873  26.619  26.753  1.00  0.00     0.131 A 
ATOM     63  C   UNL A   1      42.049  23.979  26.713  1.00  0.00     0.055 A 
ATOM     64  C   UNL A   1      43.231  25.799  25.681  1.00  0.00     0.041 A 
ATOM     65  F   UNL A   1      43.345  27.875  26.758  1.00  0.00    -0.206 F 
ATOM     66  C   UNL A   1      42.832  24.466  25.664  1.00  0.00     0.022 A 
BRANCH  63  67
ATOM     67  S   UNL A   1      41.693  22.205  26.836  1.00  0.00     0.124 S 
ATOM     68  O   UNL A   1      40.253  22.210  27.080  1.00  0.00    -0.237 OA
ATOM     69  O   UNL A   1      42.118  21.707  25.533  1.00  0.00    -0.237 OA
ATOM     70  O   UNL A   1      42.509  21.769  27.968  1.00  0.00    -0.744 OA
ENDBRANCH  63  67
ENDBRANCH  46  60
BRANCH  47  71
ATOM     71  C   UNL A   1      39.107  32.020  35.383  1.00  0.00     0.023 A 
ATOM     72  C   UNL A   1      38.481  31.424  36.489  1.00  0.00     0.031 A 
ATOM     73  C   UNL A   1      39.250  33.420  35.383  1.00  0.00     0.131 A 
ATOM     74  C   UNL A   1      37.980  32.227  37.527  1.00  0.00     0.055 A 
ATOM     75  C   UNL A   1      38.799  34.209  36.443  1.00  0.00     0.041 A 
ATOM     76  F   UNL A   1      39.844  34.042  34.351  1.00  0.00    -0.206 F 
ATOM     77  C   UNL A   1      38.147  33.613  37.518  1.00  0.00     0.022 A 
BRANCH  74  78
ATOM     78  S   UNL A   1      37.028  31.436  38.853  1.00  0.00     0.124 S 
ATOM     79  O   UNL A   1      35.817  32.247  38.874  1.00  0.00    -0.237 OA
ATOM     80  O   UNL A   1      36.881  30.074  38.349  1.00  0.00    -0.237 OA
ATOM     81  O   UNL A   1      37.894  31.574  40.022  1.00  0.00    -0.744 OA
ENDBRANCH  74  78
ENDBRANCH  47  71
BRANCH  59  82
ATOM     82  C   UNL A   1      44.632  27.895  34.356  1.00  0.00     0.023 A 
ATOM     83  C   UNL A   1      44.610  26.810  35.249  1.00  0.00     0.031 A 
ATOM     84  C   UNL A   1      45.795  28.684  34.299  1.00  0.00     0.131 A 
ATOM     85  C   UNL A   1      45.709  26.575  36.089  1.00  0.00     0.055 A 
ATOM     86  C   UNL A   1      46.909  28.407  35.094  1.00  0.00     0.041 A 
ATOM     87  F   UNL A   1      45.869  29.734  33.467  1.00  0.00    -0.206 F 
ATOM     88  C   UNL A   1      46.865  27.355  36.004  1.00  0.00     0.022 A 
BRANCH  85  89
ATOM     89  S   UNL A   1      45.572  25.288  37.360  1.00  0.00     0.124 S 
ATOM     90  O   UNL A   1      44.201  24.825  37.176  1.00  0.00    -0.237 OA
ATOM     91  O   UNL A   1      46.620  24.350  36.969  1.00  0.00    -0.237 OA
ATOM     92  O   UNL A   1      45.822  26.009  38.606  1.00  0.00    -0.744 OA
ENDBRANCH  85  89
ENDBRANCH  59  82
ENDBRANCH  33  34
ENDBRANCH  25  28
ENDBRANCH  23  24
ENDBRANCH   1  23
TORSDOF 15
ENDMDL
MODEL 2
REMARK VINA RESULT:     -12.3      5.447     10.354
REMARK SMILES C[C@H]1SCCC[C@]1(Nc1ccc(Cl)cc1)C(=O)NCCCNC(=O)c1ccc(-c2c3nc(c(-c4cc(S(=O)(=O)[O-])ccc4F)c4ccc([nH]4)c(-c4cc(S(=O)(=O)[O-])ccc4F)c4nc(c(-c5cc(S(=O)(=O)[O-])ccc5F)c5ccc2[nH]5)C=C4)C=C3)cc1
REMARK SMILES IDX 20 1 19 2 18 3 16 4 17 5 7 7 1 8 2 9 3 10 4 11 6 12 5 13
REMARK SMILES IDX 8 14 9 16 10 17 15 18 11 19 14 20 12 21 13 22 21 23 22 24
REMARK SMILES IDX 23 25 24 27 25 28 26 29 87 30 27 31 86 32 28 33 29 34 30 35
REMARK SMILES IDX 80 36 31 37 85 38 79 39 81 40 32 41 84 42 78 43 77 44 33 46
REMARK SMILES IDX 65 47 45 48 64 49 46 50 49 51 63 52 82 53 47 54 48 55 62 57
REMARK SMILES IDX 83 58 50 59 34 60 35 61 43 62 36 63 42 64 44 65 41 66 37 67
REMARK SMILES IDX 38 68 39 69 40 70 66 71 67 72 75 73 68 74 74 75 76 76 73 77
REMARK SMILES IDX 69 78 70 79 71 80 72 81 51 82 52 83 60 84 53 85 59 86 61 87
REMARK SMILES IDX 58 88 54 89 55 90 56 91 57 92
REMARK H PARENT 18 6 8 15 22 26 81 45 49 56
REMARK Flexibility Score: inf
ROOT
ATOM      1  C   UNL A   1      35.286  21.945  25.985  1.00  0.00     0.042 C 
ENDROOT
BRANCH   1   2
ATOM      2  C   UNL A   1      34.021  22.466  25.319  1.00  0.00     0.117 C 
BRANCH   2   3
ATOM      3  N   UNL A   1      33.072  23.007  26.283  1.00  0.00    -0.354 N 
ATOM      4  C   UNL A   1      32.223  24.071  26.237  1.00  0.00     0.246 C 
ATOM      5  O   UNL A   1      31.461  24.165  27.211  1.00  0.00    -0.272 OA
ATOM      6  H   UNL A   1      33.039  22.508  27.131  1.00  0.00     0.163 HD
BRANCH   4   7
ATOM      7  C   UNL A   1      32.195  25.151  25.092  1.00  0.00     0.128 C 
ATOM      8  C   UNL A   1      30.579  23.690  23.575  1.00  0.00     0.022 C 
ATOM      9  C   UNL A   1      31.898  24.439  23.721  1.00  0.00     0.078 C 
ATOM     10  S   UNL A   1      31.942  25.615  22.300  1.00  0.00    -0.156 SA
ATOM     11  C   UNL A   1      33.667  26.114  22.464  1.00  0.00     0.070 C 
ATOM     12  C   UNL A   1      33.640  25.758  24.995  1.00  0.00     0.040 C 
ATOM     13  C   UNL A   1      33.904  26.724  23.835  1.00  0.00     0.014 C 
BRANCH   7  14
ATOM     14  N   UNL A   1      31.241  26.267  25.340  1.00  0.00    -0.370 N 
ATOM     15  H   UNL A   1      30.285  26.042  25.278  1.00  0.00     0.161 HD
BRANCH  14  16
ATOM     16  C   UNL A   1      31.536  27.582  25.649  1.00  0.00     0.035 A 
ATOM     17  C   UNL A   1      31.920  28.020  26.922  1.00  0.00     0.027 A 
ATOM     18  C   UNL A   1      31.248  28.567  24.688  1.00  0.00     0.027 A 
ATOM     19  C   UNL A   1      31.951  29.382  27.248  1.00  0.00     0.022 A 
ATOM     20  C   UNL A   1      31.251  29.929  25.011  1.00  0.00     0.022 A 
ATOM     21  C   UNL A   1      31.588  30.330  26.297  1.00  0.00     0.041 A 
ATOM     22  Cl  UNL A   1      31.521  31.993  26.728  1.00  0.00    -0.084 Cl
ENDBRANCH  14  16
ENDBRANCH   7  14
ENDBRANCH   4   7
ENDBRANCH   2   3
ENDBRANCH   1   2
BRANCH   1  23
ATOM     23  C   UNL A   1      36.485  21.939  25.051  1.00  0.00     0.118 C 
BRANCH  23  24
ATOM     24  N   UNL A   1      37.391  20.834  25.329  1.00  0.00    -0.352 N 
ATOM     25  C   UNL A   1      38.692  20.856  25.768  1.00  0.00     0.251 C 
ATOM     26  H   UNL A   1      37.014  19.937  25.180  1.00  0.00     0.163 HD
ATOM     27  O   UNL A   1      39.364  19.823  25.707  1.00  0.00    -0.269 OA
BRANCH  25  28
ATOM     28  C   UNL A   1      39.300  22.108  26.273  1.00  0.00     0.039 A 
ATOM     29  C   UNL A   1      40.396  22.035  27.136  1.00  0.00     0.014 A 
ATOM     30  C   UNL A   1      38.792  23.356  25.905  1.00  0.00     0.014 A 
ATOM     31  C   UNL A   1      41.029  23.207  27.558  1.00  0.00     0.010 A 
ATOM     32  C   UNL A   1      39.487  24.516  26.238  1.00  0.00     0.010 A 
ATOM     33  C   UNL A   1      40.611  24.457  27.072  1.00  0.00    -0.014 A 
BRANCH  33  34
ATOM     34  C   UNL A   1      41.328  25.712  27.426  1.00  0.00     0.031 A 
ATOM     35  C   UNL A   1      40.631  26.778  28.231  1.00  0.00     0.074 A 
ATOM     36  C   UNL A   1      42.577  25.922  26.964  1.00  0.00     0.049 A 
ATOM     37  N   UNL A   1      41.045  27.977  28.554  1.00  0.00    -0.248 NA
ATOM     38  C   UNL A   1      39.273  26.467  28.704  1.00  0.00     0.031 C 
ATOM     39  C   UNL A   1      43.341  24.984  26.137  1.00  0.00     0.029 A 
ATOM     40  N   UNL A   1      43.422  26.994  27.109  1.00  0.00    -0.354 N 
ATOM     41  C   UNL A   1      39.996  28.566  29.252  1.00  0.00     0.074 A 
ATOM     42  C   UNL A   1      38.904  27.617  29.246  1.00  0.00     0.031 C 
ATOM     43  C   UNL A   1      44.548  25.509  25.874  1.00  0.00     0.029 A 
ATOM     44  C   UNL A   1      44.628  26.842  26.463  1.00  0.00     0.049 A 
ATOM     45  H   UNL A   1      43.187  27.798  27.626  1.00  0.00     0.167 HD
ATOM     46  C   UNL A   1      39.956  29.777  29.863  1.00  0.00     0.034 A 
ATOM     47  C   UNL A   1      45.672  27.685  26.341  1.00  0.00     0.034 A 
ATOM     48  C   UNL A   1      41.062  30.703  29.876  1.00  0.00     0.049 A 
ATOM     49  C   UNL A   1      45.592  29.039  27.002  1.00  0.00     0.074 A 
ATOM     50  C   UNL A   1      41.157  31.923  30.523  1.00  0.00     0.029 A 
ATOM     51  N   UNL A   1      42.263  30.517  29.202  1.00  0.00    -0.354 N 
ATOM     52  N   UNL A   1      44.612  29.557  27.707  1.00  0.00    -0.248 NA
ATOM     53  C   UNL A   1      46.759  29.918  26.852  1.00  0.00     0.031 C 
ATOM     54  C   UNL A   1      42.382  32.505  30.182  1.00  0.00     0.029 A 
ATOM     55  C   UNL A   1      43.087  31.619  29.384  1.00  0.00     0.049 A 
ATOM     56  H   UNL A   1      42.496  29.721  28.672  1.00  0.00     0.167 HD
ATOM     57  C   UNL A   1      45.056  30.816  28.102  1.00  0.00     0.074 A 
ATOM     58  C   UNL A   1      46.397  30.967  27.576  1.00  0.00     0.031 C 
ATOM     59  C   UNL A   1      44.413  31.763  28.832  1.00  0.00     0.034 A 
BRANCH  46  60
ATOM     60  C   UNL A   1      38.667  30.170  30.546  1.00  0.00     0.023 A 
ATOM     61  C   UNL A   1      37.698  30.960  29.901  1.00  0.00     0.031 A 
ATOM     62  C   UNL A   1      38.410  29.768  31.868  1.00  0.00     0.131 A 
ATOM     63  C   UNL A   1      36.561  31.388  30.602  1.00  0.00     0.055 A 
ATOM     64  C   UNL A   1      37.236  30.128  32.534  1.00  0.00     0.041 A 
ATOM     65  F   UNL A   1      39.304  29.030  32.545  1.00  0.00    -0.206 F 
ATOM     66  C   UNL A   1      36.310  30.957  31.906  1.00  0.00     0.022 A 
BRANCH  63  67
ATOM     67  S   UNL A   1      35.490  32.635  29.835  1.00  0.00     0.124 S 
ATOM     68  O   UNL A   1      35.229  32.035  28.528  1.00  0.00    -0.237 OA
ATOM     69  O   UNL A   1      34.358  32.687  30.752  1.00  0.00    -0.237 OA
ATOM     70  O   UNL A   1      36.326  33.834  29.806  1.00  0.00    -0.744 OA
ENDBRANCH  63  67
ENDBRANCH  46  60
BRANCH  47  71
ATOM     71  C   UNL A   1      46.873  27.294  25.549  1.00  0.00     0.023 A 
ATOM     72  C   UNL A   1      47.066  27.772  24.243  1.00  0.00     0.031 A 
ATOM     73  C   UNL A   1      47.827  26.402  26.072  1.00  0.00     0.131 A 
ATOM     74  C   UNL A   1      48.162  27.322  23.488  1.00  0.00     0.055 A 
ATOM     75  C   UNL A   1      48.944  26.000  25.336  1.00  0.00     0.041 A 
ATOM     76  F   UNL A   1      47.693  25.916  27.316  1.00  0.00    -0.206 F 
ATOM     77  C   UNL A   1      49.108  26.451  24.029  1.00  0.00     0.022 A 
BRANCH  74  78
ATOM     78  S   UNL A   1      48.284  27.829  21.750  1.00  0.00     0.124 S 
ATOM     79  O   UNL A   1      48.279  26.542  21.064  1.00  0.00    -0.237 OA
ATOM     80  O   UNL A   1      47.086  28.647  21.589  1.00  0.00    -0.237 OA
ATOM     81  O   UNL A   1      49.547  28.561  21.698  1.00  0.00    -0.744 OA
ENDBRANCH  74  78
ENDBRANCH  47  71
BRANCH  59  82
ATOM     82  C   UNL A   1      45.172  33.036  29.118  1.00  0.00     0.023 A 
ATOM     83  C   UNL A   1      45.228  34.083  28.182  1.00  0.00     0.031 A 
ATOM     84  C   UNL A   1      45.858  33.195  30.334  1.00  0.00     0.131 A 
ATOM     85  C   UNL A   1      45.998  35.223  28.456  1.00  0.00     0.055 A 
ATOM     86  C   UNL A   1      46.573  34.358  30.627  1.00  0.00     0.041 A 
ATOM     87  F   UNL A   1      45.842  32.226  31.262  1.00  0.00    -0.206 F 
ATOM     88  C   UNL A   1      46.657  35.376  29.680  1.00  0.00     0.022 A 
BRANCH  85  89
ATOM     89  S   UNL A   1      46.204  36.468  27.153  1.00  0.00     0.124 S 
ATOM     90  O   UNL A   1      44.895  37.111  27.139  1.00  0.00    -0.237 OA
ATOM     91  O   UNL A   1      47.306  37.277  27.664  1.00  0.00    -0.237 OA
ATOM     92  O   UNL A   1      46.519  35.674  25.967  1.00  0.00    -0.744 OA
ENDBRANCH  85  89
ENDBRANCH  59  82
ENDBRANCH  33  34
ENDBRANCH  25  28
ENDBRANCH  23  24
ENDBRANCH   1  23
TORSDOF 15
ENDMDL
MODEL 3
REMARK VINA RESULT:     -12.2      1.025      7.635
REMARK SMILES C[C@H]1SCCC[C@]1(Nc1ccc(Cl)cc1)C(=O)NCCCNC(=O)c1ccc(-c2c3nc(c(-c4cc(S(=O)(=O)[O-])ccc4F)c4ccc([nH]4)c(-c4cc(S(=O)(=O)[O-])ccc4F)c4nc(c(-c5cc(S(=O)(=O)[O-])ccc5F)c5ccc2[nH]5)C=C4)C=C3)cc1
REMARK SMILES IDX 20 1 19 2 18 3 16 4 17 5 7 7 1 8 2 9 3 10 4 11 6 12 5 13
REMARK SMILES IDX 8 14 9 16 10 17 15 18 11 19 14 20 12 21 13 22 21 23 22 24
REMARK SMILES IDX 23 25 24 27 25 28 26 29 87 30 27 31 86 32 28 33 29 34 30 35
REMARK SMILES IDX 80 36 31 37 85 38 79 39 81 40 32 41 84 42 78 43 77 44 33 46
REMARK SMILES IDX 65 47 45 48 64 49 46 50 49 51 63 52 82 53 47 54 48 55 62 57
REMARK SMILES IDX 83 58 50 59 34 60 35 61 43 62 36 63 42 64 44 65 41 66 37 67
REMARK SMILES IDX 38 68 39 69 40 70 66 71 67 72 75 73 68 74 74 75 76 76 73 77
REMARK SMILES IDX 69 78 70 79 71 80 72 81 51 82 52 83 60 84 53 85 59 86 61 87
REMARK SMILES IDX 58 88 54 89 55 90 56 91 57 92
REMARK H PARENT 18 6 8 15 22 26 81 45 49 56
REMARK Flexibility Score: inf
ROOT
ATOM      1  C   UNL A   1      32.961  29.271  24.738  1.00  0.00     0.042 C 
ENDROOT
BRANCH   1   2
ATOM      2  C   UNL A   1      32.310  27.965  24.308  1.00  0.00     0.117 C 
BRANCH   2   3
ATOM      3  N   UNL A   1      33.033  27.322  23.219  1.00  0.00    -0.354 N 
ATOM      4  C   UNL A   1      33.318  26.016  22.953  1.00  0.00     0.246 C 
ATOM      5  O   UNL A   1      33.858  25.822  21.853  1.00  0.00    -0.272 OA
ATOM      6  H   UNL A   1      33.382  27.950  22.547  1.00  0.00     0.163 HD
BRANCH   4   7
ATOM      7  C   UNL A   1      33.052  24.818  23.938  1.00  0.00     0.128 C 
ATOM      8  C   UNL A   1      30.570  24.479  23.060  1.00  0.00     0.022 C 
ATOM      9  C   UNL A   1      31.510  24.729  24.232  1.00  0.00     0.078 C 
ATOM     10  S   UNL A   1      31.109  23.409  25.458  1.00  0.00    -0.156 SA
ATOM     11  C   UNL A   1      32.043  24.086  26.844  1.00  0.00     0.070 C 
ATOM     12  C   UNL A   1      33.764  25.167  25.292  1.00  0.00     0.040 C 
ATOM     13  C   UNL A   1      33.510  24.217  26.468  1.00  0.00     0.014 C 
BRANCH   7  14
ATOM     14  N   UNL A   1      33.588  23.514  23.457  1.00  0.00    -0.370 N 
ATOM     15  H   UNL A   1      33.130  23.116  22.681  1.00  0.00     0.161 HD
BRANCH  14  16
ATOM     16  C   UNL A   1      34.652  22.794  23.969  1.00  0.00     0.035 A 
ATOM     17  C   UNL A   1      35.995  23.094  23.712  1.00  0.00     0.027 A 
ATOM     18  C   UNL A   1      34.376  21.580  24.621  1.00  0.00     0.027 A 
ATOM     19  C   UNL A   1      37.019  22.192  24.028  1.00  0.00     0.022 A 
ATOM     20  C   UNL A   1      35.389  20.661  24.919  1.00  0.00     0.022 A 
ATOM     21  C   UNL A   1      36.707  20.966  24.606  1.00  0.00     0.041 A 
ATOM     22  Cl  UNL A   1      37.951  19.815  24.896  1.00  0.00    -0.084 Cl
ENDBRANCH  14  16
ENDBRANCH   7  14
ENDBRANCH   4   7
ENDBRANCH   2   3
ENDBRANCH   1   2
BRANCH   1  23
ATOM     23  C   UNL A   1      32.915  29.486  26.243  1.00  0.00     0.118 C 
BRANCH  23  24
ATOM     24  N   UNL A   1      32.840  30.896  26.593  1.00  0.00    -0.352 N 
ATOM     25  C   UNL A   1      33.640  31.636  27.431  1.00  0.00     0.251 C 
ATOM     26  H   UNL A   1      32.107  31.395  26.166  1.00  0.00     0.163 HD
ATOM     27  O   UNL A   1      33.264  32.756  27.785  1.00  0.00    -0.269 OA
BRANCH  25  28
ATOM     28  C   UNL A   1      34.918  31.087  27.937  1.00  0.00     0.039 A 
ATOM     29  C   UNL A   1      36.044  31.913  27.984  1.00  0.00     0.014 A 
ATOM     30  C   UNL A   1      35.017  29.759  28.359  1.00  0.00     0.014 A 
ATOM     31  C   UNL A   1      37.236  31.433  28.532  1.00  0.00     0.010 A 
ATOM     32  C   UNL A   1      36.170  29.317  29.000  1.00  0.00     0.010 A 
ATOM     33  C   UNL A   1      37.296  30.146  29.091  1.00  0.00    -0.014 A 
BRANCH  33  34
ATOM     34  C   UNL A   1      38.523  29.645  29.770  1.00  0.00     0.031 A 
ATOM     35  C   UNL A   1      38.918  30.194  31.116  1.00  0.00     0.074 A 
ATOM     36  C   UNL A   1      39.315  28.752  29.144  1.00  0.00     0.049 A 
ATOM     37  N   UNL A   1      39.996  29.964  31.821  1.00  0.00    -0.248 NA
ATOM     38  C   UNL A   1      37.994  31.158  31.733  1.00  0.00     0.031 C 
ATOM     39  C   UNL A   1      39.063  28.179  27.819  1.00  0.00     0.029 A 
ATOM     40  N   UNL A   1      40.501  28.177  29.529  1.00  0.00    -0.354 N 
ATOM     41  C   UNL A   1      39.888  30.763  32.954  1.00  0.00     0.074 A 
ATOM     42  C   UNL A   1      38.672  31.533  32.807  1.00  0.00     0.031 C 
ATOM     43  C   UNL A   1      40.045  27.317  27.516  1.00  0.00     0.029 A 
ATOM     44  C   UNL A   1      41.027  27.313  28.596  1.00  0.00     0.049 A 
ATOM     45  H   UNL A   1      40.935  28.365  30.392  1.00  0.00     0.167 HD
ATOM     46  C   UNL A   1      40.713  30.831  34.029  1.00  0.00     0.034 A 
ATOM     47  C   UNL A   1      42.178  26.611  28.598  1.00  0.00     0.034 A 
ATOM     48  C   UNL A   1      41.912  30.040  34.168  1.00  0.00     0.049 A 
ATOM     49  C   UNL A   1      43.095  26.727  29.789  1.00  0.00     0.074 A 
ATOM     50  C   UNL A   1      42.781  29.975  35.242  1.00  0.00     0.029 A 
ATOM     51  N   UNL A   1      42.417  29.185  33.196  1.00  0.00    -0.354 N 
ATOM     52  N   UNL A   1      42.948  27.446  30.878  1.00  0.00    -0.248 NA
ATOM     53  C   UNL A   1      44.331  25.935  29.752  1.00  0.00     0.031 C 
ATOM     54  C   UNL A   1      43.847  29.139  34.893  1.00  0.00     0.029 A 
ATOM     55  C   UNL A   1      43.607  28.620  33.632  1.00  0.00     0.049 A 
ATOM     56  H   UNL A   1      41.993  29.005  32.327  1.00  0.00     0.167 HD
ATOM     57  C   UNL A   1      44.064  27.175  31.665  1.00  0.00     0.074 A 
ATOM     58  C   UNL A   1      44.862  26.211  30.934  1.00  0.00     0.031 C 
ATOM     59  C   UNL A   1      44.402  27.678  32.879  1.00  0.00     0.034 A 
BRANCH  46  60
ATOM     60  C   UNL A   1      40.353  31.809  35.123  1.00  0.00     0.023 A 
ATOM     61  C   UNL A   1      39.443  31.476  36.143  1.00  0.00     0.031 A 
ATOM     62  C   UNL A   1      40.909  33.100  35.136  1.00  0.00     0.131 A 
ATOM     63  C   UNL A   1      39.058  32.444  37.083  1.00  0.00     0.055 A 
ATOM     64  C   UNL A   1      40.584  34.033  36.123  1.00  0.00     0.041 A 
ATOM     65  F   UNL A   1      41.768  33.484  34.178  1.00  0.00    -0.206 F 
ATOM     66  C   UNL A   1      39.641  33.713  37.095  1.00  0.00     0.022 A 
BRANCH  63  67
ATOM     67  S   UNL A   1      37.676  32.068  38.196  1.00  0.00     0.124 S 
ATOM     68  O   UNL A   1      37.400  30.672  37.861  1.00  0.00    -0.237 OA
ATOM     69  O   UNL A   1      38.256  32.306  39.512  1.00  0.00    -0.237 OA
ATOM     70  O   UNL A   1      36.640  33.015  37.789  1.00  0.00    -0.744 OA
ENDBRANCH  63  67
ENDBRANCH  46  60
BRANCH  47  71
ATOM     71  C   UNL A   1      42.546  25.755  27.433  1.00  0.00     0.023 A 
ATOM     72  C   UNL A   1      42.107  24.424  27.347  1.00  0.00     0.031 A 
ATOM     73  C   UNL A   1      43.376  26.242  26.409  1.00  0.00     0.131 A 
ATOM     74  C   UNL A   1      42.536  23.613  26.284  1.00  0.00     0.055 A 
ATOM     75  C   UNL A   1      43.756  25.448  25.325  1.00  0.00     0.041 A 
ATOM     76  F   UNL A   1      43.823  27.508  26.440  1.00  0.00    -0.206 F 
ATOM     77  C   UNL A   1      43.346  24.119  25.265  1.00  0.00     0.022 A 
BRANCH  74  78
ATOM     78  S   UNL A   1      42.087  21.856  26.297  1.00  0.00     0.124 S 
ATOM     79  O   UNL A   1      42.397  21.480  27.671  1.00  0.00    -0.237 OA
ATOM     80  O   UNL A   1      40.671  21.902  25.948  1.00  0.00    -0.237 OA
ATOM     81  O   UNL A   1      42.959  21.274  25.279  1.00  0.00    -0.744 OA
ENDBRANCH  74  78
ENDBRANCH  47  71
BRANCH  59  82
ATOM     82  C   UNL A   1      45.682  27.169  33.496  1.00  0.00     0.023 A 
ATOM     83  C   UNL A   1      45.713  25.981  34.247  1.00  0.00     0.031 A 
ATOM     84  C   UNL A   1      46.880  27.889  33.343  1.00  0.00     0.131 A 
ATOM     85  C   UNL A   1      46.907  25.576  34.862  1.00  0.00     0.055 A 
ATOM     86  C   UNL A   1      48.078  27.447  33.906  1.00  0.00     0.041 A 
ATOM     87  F   UNL A   1      46.906  29.031  32.639  1.00  0.00    -0.206 F 
ATOM     88  C   UNL A   1      48.094  26.291  34.681  1.00  0.00     0.022 A 
BRANCH  85  89
ATOM     89  S   UNL A   1      46.869  24.147  35.978  1.00  0.00     0.124 S 
ATOM     90  O   UNL A   1      45.766  23.364  35.431  1.00  0.00    -0.237 OA
ATOM     91  O   UNL A   1      48.202  23.577  35.804  1.00  0.00    -0.237 OA
ATOM     92  O   UNL A   1      46.619  24.741  37.289  1.00  0.00    -0.744 OA
ENDBRANCH  85  89
ENDBRANCH  59  82
ENDBRANCH  33  34
ENDBRANCH  25  28
ENDBRANCH  23  24
ENDBRANCH   1  23
TORSDOF 15
ENDMDL
