MODEL 1
REMARK VINA RESULT:     -12.0      0.000      0.000
REMARK SMILES CC[C@](C)(NC(=O)c1c(Cl)cccc1Cl)C(=O)NCCCNC(=O)c1ccc(-c2c3nc(c(-c4cc(S(=O)(=O)[O-])ccc4F)c4ccc([nH]4)c(-c4cc(S(=O)(=O)[O-])ccc4F)c4nc(c(-c5cc(S(=O)(=O)[O-])ccc5F)c5ccc2[nH]5)C=C4)C=C3)cc1
REMARK SMILES IDX 20 1 19 2 18 3 16 4 17 5 3 7 4 8 2 9 1 10 5 11 6 12 7 14
REMARK SMILES IDX 8 15 9 16 14 17 10 18 11 19 13 20 15 21 12 22 21 23 22 24
REMARK SMILES IDX 23 25 24 27 25 28 26 29 87 30 27 31 86 32 28 33 29 34 30 35
REMARK SMILES IDX 80 36 31 37 85 38 79 39 81 40 32 41 84 42 78 43 77 44 33 46
REMARK SMILES IDX 65 47 45 48 64 49 46 50 49 51 63 52 82 53 47 54 48 55 62 57
REMARK SMILES IDX 83 58 50 59 34 60 35 61 43 62 36 63 42 64 44 65 41 66 37 67
REMARK SMILES IDX 38 68 39 69 40 70 66 71 67 72 75 73 68 74 74 75 76 76 73 77
REMARK SMILES IDX 69 78 70 79 71 80 72 81 51 82 52 83 60 84 53 85 59 86 61 87
REMARK SMILES IDX 58 88 54 89 55 90 56 91 57 92
REMARK H PARENT 18 6 5 13 22 26 81 45 49 56
REMARK Flexibility Score: inf
ROOT
ATOM      1  C   UNL A   1      31.781  31.632  26.703  1.00  0.00     0.042 C 
ENDROOT
BRANCH   1   2
ATOM      2  C   UNL A   1      32.037  30.214  26.168  1.00  0.00     0.117 C 
BRANCH   2   3
ATOM      3  N   UNL A   1      32.900  29.971  25.013  1.00  0.00    -0.354 N 
ATOM      4  C   UNL A   1      33.093  28.927  24.137  1.00  0.00     0.245 C 
ATOM      5  O   UNL A   1      33.673  29.171  23.073  1.00  0.00    -0.272 OA
ATOM      6  H   UNL A   1      33.483  30.739  24.814  1.00  0.00     0.163 HD
BRANCH   4   7
ATOM      7  C   UNL A   1      32.518  27.526  24.400  1.00  0.00     0.116 C 
ATOM      8  C   UNL A   1      30.988  27.431  24.357  1.00  0.00     0.045 C 
BRANCH   7   9
ATOM      9  C   UNL A   1      32.965  27.121  25.849  1.00  0.00     0.035 C 
ATOM     10  C   UNL A   1      31.821  26.639  26.757  1.00  0.00     0.007 C 
ENDBRANCH   7   9
BRANCH   7  11
ATOM     11  N   UNL A   1      33.106  26.660  23.363  1.00  0.00    -0.338 N 
ATOM     12  C   UNL A   1      33.273  25.298  23.215  1.00  0.00     0.255 C 
ATOM     13  H   UNL A   1      33.461  27.171  22.600  1.00  0.00     0.164 HD
ATOM     14  O   UNL A   1      33.679  24.940  22.102  1.00  0.00    -0.269 OA
BRANCH  12  15
ATOM     15  C   UNL A   1      33.095  24.189  24.205  1.00  0.00     0.077 A 
ATOM     16  C   UNL A   1      33.979  23.823  25.245  1.00  0.00     0.055 A 
ATOM     17  C   UNL A   1      31.747  23.782  24.375  1.00  0.00     0.055 A 
ATOM     18  Cl  UNL A   1      35.637  24.233  25.429  1.00  0.00    -0.083 Cl
ATOM     19  C   UNL A   1      33.534  23.101  26.371  1.00  0.00     0.021 A 
ATOM     20  C   UNL A   1      31.308  23.119  25.536  1.00  0.00     0.021 A 
ATOM     21  Cl  UNL A   1      30.521  24.081  23.180  1.00  0.00    -0.083 Cl
ATOM     22  C   UNL A   1      32.200  22.782  26.539  1.00  0.00     0.003 A 
ENDBRANCH  12  15
ENDBRANCH   7  11
ENDBRANCH   4   7
ENDBRANCH   2   3
ENDBRANCH   1   2
BRANCH   1  23
ATOM     23  C   UNL A   1      32.912  32.494  27.259  1.00  0.00     0.118 C 
BRANCH  23  24
ATOM     24  N   UNL A   1      32.520  33.844  27.612  1.00  0.00    -0.352 N 
ATOM     25  C   UNL A   1      33.082  34.694  28.541  1.00  0.00     0.251 C 
ATOM     26  H   UNL A   1      31.746  34.204  27.121  1.00  0.00     0.163 HD
ATOM     27  O   UNL A   1      32.579  35.785  28.752  1.00  0.00    -0.269 OA
BRANCH  25  28
ATOM     28  C   UNL A   1      34.274  34.261  29.309  1.00  0.00     0.039 A 
ATOM     29  C   UNL A   1      34.079  33.610  30.530  1.00  0.00     0.014 A 
ATOM     30  C   UNL A   1      35.568  34.496  28.836  1.00  0.00     0.014 A 
ATOM     31  C   UNL A   1      35.181  33.127  31.244  1.00  0.00     0.010 A 
ATOM     32  C   UNL A   1      36.667  33.988  29.540  1.00  0.00     0.010 A 
ATOM     33  C   UNL A   1      36.483  33.278  30.737  1.00  0.00    -0.014 A 
BRANCH  33  34
ATOM     34  C   UNL A   1      37.641  32.635  31.420  1.00  0.00     0.031 A 
ATOM     35  C   UNL A   1      38.359  31.469  30.801  1.00  0.00     0.074 A 
ATOM     36  C   UNL A   1      38.018  33.082  32.636  1.00  0.00     0.049 A 
ATOM     37  N   UNL A   1      39.354  30.763  31.277  1.00  0.00    -0.248 NA
ATOM     38  C   UNL A   1      37.886  31.032  29.481  1.00  0.00     0.031 C 
ATOM     39  C   UNL A   1      37.386  34.189  33.357  1.00  0.00     0.029 A 
ATOM     40  N   UNL A   1      39.010  32.659  33.484  1.00  0.00    -0.354 N 
ATOM     41  C   UNL A   1      39.630  29.794  30.316  1.00  0.00     0.074 A 
ATOM     42  C   UNL A   1      38.661  29.979  29.254  1.00  0.00     0.031 C 
ATOM     43  C   UNL A   1      38.014  34.365  34.530  1.00  0.00     0.029 A 
ATOM     44  C   UNL A   1      39.062  33.359  34.669  1.00  0.00     0.049 A 
ATOM     45  H   UNL A   1      39.628  31.924  33.267  1.00  0.00     0.167 HD
ATOM     46  C   UNL A   1      40.606  28.851  30.316  1.00  0.00     0.034 A 
ATOM     47  C   UNL A   1      39.847  33.198  35.754  1.00  0.00     0.034 A 
ATOM     48  C   UNL A   1      41.561  28.672  31.386  1.00  0.00     0.049 A 
ATOM     49  C   UNL A   1      40.887  32.107  35.753  1.00  0.00     0.074 A 
ATOM     50  C   UNL A   1      42.621  27.783  31.456  1.00  0.00     0.029 A 
ATOM     51  N   UNL A   1      41.565  29.380  32.581  1.00  0.00    -0.354 N 
ATOM     52  N   UNL A   1      41.168  31.235  34.814  1.00  0.00    -0.248 NA
ATOM     53  C   UNL A   1      41.720  31.985  36.956  1.00  0.00     0.031 C 
ATOM     54  C   UNL A   1      43.217  27.902  32.717  1.00  0.00     0.029 A 
ATOM     55  C   UNL A   1      42.581  28.919  33.408  1.00  0.00     0.049 A 
ATOM     56  H   UNL A   1      40.938  30.104  32.809  1.00  0.00     0.167 HD
ATOM     57  C   UNL A   1      42.226  30.476  35.306  1.00  0.00     0.074 A 
ATOM     58  C   UNL A   1      42.544  31.005  36.616  1.00  0.00     0.031 C 
ATOM     59  C   UNL A   1      42.879  29.437  34.724  1.00  0.00     0.034 A 
BRANCH  46  60
ATOM     60  C   UNL A   1      40.668  27.916  29.131  1.00  0.00     0.023 A 
ATOM     61  C   UNL A   1      41.584  28.112  28.083  1.00  0.00     0.031 A 
ATOM     62  C   UNL A   1      39.788  26.821  29.040  1.00  0.00     0.131 A 
ATOM     63  C   UNL A   1      41.553  27.273  26.959  1.00  0.00     0.055 A 
ATOM     64  C   UNL A   1      39.816  25.943  27.954  1.00  0.00     0.041 A 
ATOM     65  F   UNL A   1      38.879  26.592  30.000  1.00  0.00    -0.206 F 
ATOM     66  C   UNL A   1      40.692  26.176  26.897  1.00  0.00     0.022 A 
BRANCH  63  67
ATOM     67  S   UNL A   1      42.558  27.720  25.516  1.00  0.00     0.124 S 
ATOM     68  O   UNL A   1      43.872  27.919  26.122  1.00  0.00    -0.237 OA
ATOM     69  O   UNL A   1      42.419  26.549  24.659  1.00  0.00    -0.237 OA
ATOM     70  O   UNL A   1      41.921  28.938  25.019  1.00  0.00    -0.744 OA
ENDBRANCH  63  67
ENDBRANCH  46  60
BRANCH  47  71
ATOM     71  C   UNL A   1      39.668  34.071  36.950  1.00  0.00     0.023 A 
ATOM     72  C   UNL A   1      39.078  33.580  38.125  1.00  0.00     0.031 A 
ATOM     73  C   UNL A   1      40.042  35.427  36.916  1.00  0.00     0.131 A 
ATOM     74  C   UNL A   1      38.838  34.447  39.202  1.00  0.00     0.055 A 
ATOM     75  C   UNL A   1      39.850  36.272  38.009  1.00  0.00     0.041 A 
ATOM     76  F   UNL A   1      40.611  35.947  35.817  1.00  0.00    -0.206 F 
ATOM     77  C   UNL A   1      39.232  35.786  39.157  1.00  0.00     0.022 A 
BRANCH  74  78
ATOM     78  S   UNL A   1      37.925  33.818  40.637  1.00  0.00     0.124 S 
ATOM     79  O   UNL A   1      36.809  33.128  40.001  1.00  0.00    -0.237 OA
ATOM     80  O   UNL A   1      38.921  32.969  41.281  1.00  0.00    -0.237 OA
ATOM     81  O   UNL A   1      37.572  35.030  41.375  1.00  0.00    -0.744 OA
ENDBRANCH  74  78
ENDBRANCH  47  71
BRANCH  59  82
ATOM     82  C   UNL A   1      44.026  28.831  35.496  1.00  0.00     0.023 A 
ATOM     83  C   UNL A   1      43.841  27.736  36.360  1.00  0.00     0.031 A 
ATOM     84  C   UNL A   1      45.322  29.366  35.378  1.00  0.00     0.131 A 
ATOM     85  C   UNL A   1      44.921  27.246  37.112  1.00  0.00     0.055 A 
ATOM     86  C   UNL A   1      46.404  28.837  36.084  1.00  0.00     0.041 A 
ATOM     87  F   UNL A   1      45.557  30.413  34.570  1.00  0.00    -0.206 F 
ATOM     88  C   UNL A   1      46.204  27.780  36.966  1.00  0.00     0.022 A 
BRANCH  85  89
ATOM     89  S   UNL A   1      44.610  25.956  38.349  1.00  0.00     0.124 S 
ATOM     90  O   UNL A   1      45.898  25.273  38.405  1.00  0.00    -0.237 OA
ATOM     91  O   UNL A   1      44.248  26.735  39.529  1.00  0.00    -0.237 OA
ATOM     92  O   UNL A   1      43.519  25.177  37.765  1.00  0.00    -0.744 OA
ENDBRANCH  85  89
ENDBRANCH  59  82
ENDBRANCH  33  34
ENDBRANCH  25  28
ENDBRANCH  23  24
ENDBRANCH   1  23
TORSDOF 16
ENDMDL
MODEL 2
REMARK VINA RESULT:     -11.6      5.794      8.906
REMARK SMILES CC[C@](C)(NC(=O)c1c(Cl)cccc1Cl)C(=O)NCCCNC(=O)c1ccc(-c2c3nc(c(-c4cc(S(=O)(=O)[O-])ccc4F)c4ccc([nH]4)c(-c4cc(S(=O)(=O)[O-])ccc4F)c4nc(c(-c5cc(S(=O)(=O)[O-])ccc5F)c5ccc2[nH]5)C=C4)C=C3)cc1
REMARK SMILES IDX 20 1 19 2 18 3 16 4 17 5 3 7 4 8 2 9 1 10 5 11 6 12 7 14
REMARK SMILES IDX 8 15 9 16 14 17 10 18 11 19 13 20 15 21 12 22 21 23 22 24
REMARK SMILES IDX 23 25 24 27 25 28 26 29 87 30 27 31 86 32 28 33 29 34 30 35
REMARK SMILES IDX 80 36 31 37 85 38 79 39 81 40 32 41 84 42 78 43 77 44 33 46
REMARK SMILES IDX 65 47 45 48 64 49 46 50 49 51 63 52 82 53 47 54 48 55 62 57
REMARK SMILES IDX 83 58 50 59 34 60 35 61 43 62 36 63 42 64 44 65 41 66 37 67
REMARK SMILES IDX 38 68 39 69 40 70 66 71 67 72 75 73 68 74 74 75 76 76 73 77
REMARK SMILES IDX 69 78 70 79 71 80 72 81 51 82 52 83 60 84 53 85 59 86 61 87
REMARK SMILES IDX 58 88 54 89 55 90 56 91 57 92
REMARK H PARENT 18 6 5 13 22 26 81 45 49 56
REMARK Flexibility Score: inf
ROOT
ATOM      1  C   UNL A   1      36.715  20.879  24.626  1.00  0.00     0.042 C 
ENDROOT
BRANCH   1   2
ATOM      2  C   UNL A   1      35.310  20.558  25.161  1.00  0.00     0.117 C 
BRANCH   2   3
ATOM      3  N   UNL A   1      34.804  21.150  26.398  1.00  0.00    -0.354 N 
ATOM      4  C   UNL A   1      33.937  22.171  26.712  1.00  0.00     0.245 C 
ATOM      5  O   UNL A   1      33.478  22.202  27.859  1.00  0.00    -0.272 OA
ATOM      6  H   UNL A   1      35.171  20.713  27.199  1.00  0.00     0.163 HD
BRANCH   4   7
ATOM      7  C   UNL A   1      33.454  23.182  25.660  1.00  0.00     0.116 C 
ATOM      8  C   UNL A   1      32.852  22.565  24.390  1.00  0.00     0.045 C 
BRANCH   7   9
ATOM      9  C   UNL A   1      34.714  24.009  25.218  1.00  0.00     0.035 C 
ATOM     10  C   UNL A   1      34.932  24.075  23.697  1.00  0.00     0.007 C 
ENDBRANCH   7   9
BRANCH   7  11
ATOM     11  N   UNL A   1      32.445  24.009  26.343  1.00  0.00    -0.338 N 
ATOM     12  C   UNL A   1      31.806  25.199  26.055  1.00  0.00     0.255 C 
ATOM     13  H   UNL A   1      32.161  23.625  27.204  1.00  0.00     0.164 HD
ATOM     14  O   UNL A   1      30.882  25.495  26.825  1.00  0.00    -0.269 OA
BRANCH  12  15
ATOM     15  C   UNL A   1      32.089  26.216  24.994  1.00  0.00     0.077 A 
ATOM     16  C   UNL A   1      33.111  27.193  25.000  1.00  0.00     0.055 A 
ATOM     17  C   UNL A   1      31.577  25.871  23.718  1.00  0.00     0.055 A 
ATOM     18  Cl  UNL A   1      34.028  27.770  26.332  1.00  0.00    -0.083 Cl
ATOM     19  C   UNL A   1      33.577  27.777  23.804  1.00  0.00     0.021 A 
ATOM     20  C   UNL A   1      32.100  26.417  22.531  1.00  0.00     0.021 A 
ATOM     21  Cl  UNL A   1      30.277  24.737  23.505  1.00  0.00    -0.083 Cl
ATOM     22  C   UNL A   1      33.106  27.367  22.572  1.00  0.00     0.003 A 
ENDBRANCH  12  15
ENDBRANCH   7  11
ENDBRANCH   4   7
ENDBRANCH   2   3
ENDBRANCH   1   2
BRANCH   1  23
ATOM     23  C   UNL A   1      37.773  21.544  25.503  1.00  0.00     0.118 C 
BRANCH  23  24
ATOM     24  N   UNL A   1      38.844  20.663  25.926  1.00  0.00    -0.352 N 
ATOM     25  C   UNL A   1      40.024  20.978  26.566  1.00  0.00     0.251 C 
ATOM     26  H   UNL A   1      38.711  19.707  25.729  1.00  0.00     0.163 HD
ATOM     27  O   UNL A   1      40.846  20.107  26.793  1.00  0.00    -0.269 OA
BRANCH  25  28
ATOM     28  C   UNL A   1      40.305  22.386  26.939  1.00  0.00     0.039 A 
ATOM     29  C   UNL A   1      41.157  22.632  28.019  1.00  0.00     0.014 A 
ATOM     30  C   UNL A   1      39.734  23.452  26.237  1.00  0.00     0.014 A 
ATOM     31  C   UNL A   1      41.496  23.947  28.351  1.00  0.00     0.010 A 
ATOM     32  C   UNL A   1      40.097  24.766  26.555  1.00  0.00     0.010 A 
ATOM     33  C   UNL A   1      41.000  25.025  27.599  1.00  0.00    -0.014 A 
BRANCH  33  34
ATOM     34  C   UNL A   1      41.478  26.413  27.858  1.00  0.00     0.031 A 
ATOM     35  C   UNL A   1      42.867  26.841  27.474  1.00  0.00     0.074 A 
ATOM     36  C   UNL A   1      40.662  27.282  28.489  1.00  0.00     0.049 A 
ATOM     37  N   UNL A   1      43.461  27.992  27.665  1.00  0.00    -0.248 NA
ATOM     38  C   UNL A   1      43.701  25.837  26.800  1.00  0.00     0.031 C 
ATOM     39  C   UNL A   1      39.301  26.982  28.936  1.00  0.00     0.029 A 
ATOM     40  N   UNL A   1      40.857  28.586  28.872  1.00  0.00    -0.354 N 
ATOM     41  C   UNL A   1      44.741  27.856  27.137  1.00  0.00     0.074 A 
ATOM     42  C   UNL A   1      44.847  26.491  26.661  1.00  0.00     0.031 C 
ATOM     43  C   UNL A   1      38.780  28.073  29.521  1.00  0.00     0.029 A 
ATOM     44  C   UNL A   1      39.780  29.135  29.532  1.00  0.00     0.049 A 
ATOM     45  H   UNL A   1      41.689  29.082  28.693  1.00  0.00     0.167 HD
ATOM     46  C   UNL A   1      45.726  28.785  27.046  1.00  0.00     0.034 A 
ATOM     47  C   UNL A   1      39.622  30.347  30.101  1.00  0.00     0.034 A 
ATOM     48  C   UNL A   1      45.610  30.141  27.532  1.00  0.00     0.049 A 
ATOM     49  C   UNL A   1      40.752  31.344  30.036  1.00  0.00     0.074 A 
ATOM     50  C   UNL A   1      46.530  31.172  27.438  1.00  0.00     0.029 A 
ATOM     51  N   UNL A   1      44.517  30.653  28.218  1.00  0.00    -0.354 N 
ATOM     52  N   UNL A   1      41.936  31.215  29.485  1.00  0.00    -0.248 NA
ATOM     53  C   UNL A   1      40.519  32.651  30.664  1.00  0.00     0.031 C 
ATOM     54  C   UNL A   1      46.026  32.281  28.128  1.00  0.00     0.029 A 
ATOM     55  C   UNL A   1      44.757  31.970  28.588  1.00  0.00     0.049 A 
ATOM     56  H   UNL A   1      43.691  30.155  28.414  1.00  0.00     0.167 HD
ATOM     57  C   UNL A   1      42.580  32.434  29.681  1.00  0.00     0.074 A 
ATOM     58  C   UNL A   1      41.646  33.289  30.383  1.00  0.00     0.031 C 
ATOM     59  C   UNL A   1      43.829  32.812  29.310  1.00  0.00     0.034 A 
BRANCH  46  60
ATOM     60  C   UNL A   1      47.033  28.352  26.423  1.00  0.00     0.023 A 
ATOM     61  C   UNL A   1      47.205  28.301  25.028  1.00  0.00     0.031 A 
ATOM     62  C   UNL A   1      48.118  27.971  27.234  1.00  0.00     0.131 A 
ATOM     63  C   UNL A   1      48.404  27.812  24.487  1.00  0.00     0.055 A 
ATOM     64  C   UNL A   1      49.336  27.559  26.688  1.00  0.00     0.041 A 
ATOM     65  F   UNL A   1      48.010  27.982  28.571  1.00  0.00    -0.206 F 
ATOM     66  C   UNL A   1      49.479  27.463  25.307  1.00  0.00     0.022 A 
BRANCH  63  67
ATOM     67  S   UNL A   1      48.487  27.506  22.702  1.00  0.00     0.124 S 
ATOM     68  O   UNL A   1      49.767  28.118  22.356  1.00  0.00    -0.237 OA
ATOM     69  O   UNL A   1      48.432  26.050  22.628  1.00  0.00    -0.237 OA
ATOM     70  O   UNL A   1      47.312  28.202  22.179  1.00  0.00    -0.744 OA
ENDBRANCH  63  67
ENDBRANCH  46  60
BRANCH  47  71
ATOM     71  C   UNL A   1      38.354  30.687  30.811  1.00  0.00     0.023 A 
ATOM     72  C   UNL A   1      37.329  31.395  30.165  1.00  0.00     0.031 A 
ATOM     73  C   UNL A   1      38.173  30.349  32.164  1.00  0.00     0.131 A 
ATOM     74  C   UNL A   1      36.187  31.782  30.883  1.00  0.00     0.055 A 
ATOM     75  C   UNL A   1      37.012  30.689  32.859  1.00  0.00     0.041 A 
ATOM     76  F   UNL A   1      39.122  29.672  32.828  1.00  0.00    -0.206 F 
ATOM     77  C   UNL A   1      36.016  31.422  32.221  1.00  0.00     0.022 A 
BRANCH  74  78
ATOM     78  S   UNL A   1      34.960  32.836  30.063  1.00  0.00     0.124 S 
ATOM     79  O   UNL A   1      34.419  31.932  29.053  1.00  0.00    -0.237 OA
ATOM     80  O   UNL A   1      34.067  33.175  31.165  1.00  0.00    -0.237 OA
ATOM     81  O   UNL A   1      35.757  33.946  29.544  1.00  0.00    -0.744 OA
ENDBRANCH  74  78
ENDBRANCH  47  71
BRANCH  59  82
ATOM     82  C   UNL A   1      44.240  34.229  29.630  1.00  0.00     0.023 A 
ATOM     83  C   UNL A   1      44.009  35.287  28.732  1.00  0.00     0.031 A 
ATOM     84  C   UNL A   1      44.885  34.523  30.844  1.00  0.00     0.131 A 
ATOM     85  C   UNL A   1      44.469  36.578  29.038  1.00  0.00     0.055 A 
ATOM     86  C   UNL A   1      45.288  35.820  31.169  1.00  0.00     0.041 A 
ATOM     87  F   UNL A   1      45.135  33.552  31.738  1.00  0.00    -0.206 F 
ATOM     88  C   UNL A   1      45.092  36.854  30.258  1.00  0.00     0.022 A 
BRANCH  85  89
ATOM     89  S   UNL A   1      44.317  37.879  27.783  1.00  0.00     0.124 S 
ATOM     90  O   UNL A   1      44.080  39.064  28.600  1.00  0.00    -0.237 OA
ATOM     91  O   UNL A   1      45.611  37.817  27.110  1.00  0.00    -0.237 OA
ATOM     92  O   UNL A   1      43.179  37.445  26.974  1.00  0.00    -0.744 OA
ENDBRANCH  85  89
ENDBRANCH  59  82
ENDBRANCH  33  34
ENDBRANCH  25  28
ENDBRANCH  23  24
ENDBRANCH   1  23
TORSDOF 16
ENDMDL
MODEL 3
REMARK VINA RESULT:     -11.6      2.405      3.214
REMARK SMILES CC[C@](C)(NC(=O)c1c(Cl)cccc1Cl)C(=O)NCCCNC(=O)c1ccc(-c2c3nc(c(-c4cc(S(=O)(=O)[O-])ccc4F)c4ccc([nH]4)c(-c4cc(S(=O)(=O)[O-])ccc4F)c4nc(c(-c5cc(S(=O)(=O)[O-])ccc5F)c5ccc2[nH]5)C=C4)C=C3)cc1
REMARK SMILES IDX 20 1 19 2 18 3 16 4 17 5 3 7 4 8 2 9 1 10 5 11 6 12 7 14
REMARK SMILES IDX 8 15 9 16 14 17 10 18 11 19 13 20 15 21 12 22 21 23 22 24
REMARK SMILES IDX 23 25 24 27 25 28 26 29 87 30 27 31 86 32 28 33 29 34 30 35
REMARK SMILES IDX 80 36 31 37 85 38 79 39 81 40 32 41 84 42 78 43 77 44 33 46
REMARK SMILES IDX 65 47 45 48 64 49 46 50 49 51 63 52 82 53 47 54 48 55 62 57
REMARK SMILES IDX 83 58 50 59 34 60 35 61 43 62 36 63 42 64 44 65 41 66 37 67
REMARK SMILES IDX 38 68 39 69 40 70 66 71 67 72 75 73 68 74 74 75 76 76 73 77
REMARK SMILES IDX 69 78 70 79 71 80 72 81 51 82 52 83 60 84 53 85 59 86 61 87
REMARK SMILES IDX 58 88 54 89 55 90 56 91 57 92
REMARK H PARENT 18 6 5 13 22 26 81 45 49 56
REMARK Flexibility Score: inf
ROOT
ATOM      1  C   UNL A   1      32.719  29.278  23.870  1.00  0.00     0.042 C 
ENDROOT
BRANCH   1   2
ATOM      2  C   UNL A   1      33.675  28.452  22.994  1.00  0.00     0.117 C 
BRANCH   2   3
ATOM      3  N   UNL A   1      33.181  27.501  22.001  1.00  0.00    -0.354 N 
ATOM      4  C   UNL A   1      32.627  26.241  22.041  1.00  0.00     0.245 C 
ATOM      5  O   UNL A   1      32.021  25.849  21.038  1.00  0.00    -0.272 OA
ATOM      6  H   UNL A   1      33.264  27.843  21.081  1.00  0.00     0.163 HD
BRANCH   4   7
ATOM      7  C   UNL A   1      32.651  25.382  23.315  1.00  0.00     0.116 C 
ATOM      8  C   UNL A   1      31.601  25.752  24.371  1.00  0.00     0.045 C 
BRANCH   7   9
ATOM      9  C   UNL A   1      34.060  25.591  23.973  1.00  0.00     0.035 C 
ATOM     10  C   UNL A   1      34.023  25.866  25.486  1.00  0.00     0.007 C 
ENDBRANCH   7   9
BRANCH   7  11
ATOM     11  N   UNL A   1      32.438  23.997  22.858  1.00  0.00    -0.338 N 
ATOM     12  C   UNL A   1      32.576  22.751  23.436  1.00  0.00     0.255 C 
ATOM     13  H   UNL A   1      32.126  23.950  21.925  1.00  0.00     0.164 HD
ATOM     14  O   UNL A   1      32.136  21.811  22.761  1.00  0.00    -0.269 OA
BRANCH  12  15
ATOM     15  C   UNL A   1      33.224  22.350  24.724  1.00  0.00     0.077 A 
ATOM     16  C   UNL A   1      34.610  22.272  24.994  1.00  0.00     0.055 A 
ATOM     17  C   UNL A   1      32.386  22.495  25.859  1.00  0.00     0.055 A 
ATOM     18  Cl  UNL A   1      35.912  22.202  23.877  1.00  0.00    -0.083 Cl
ATOM     19  C   UNL A   1      35.108  22.335  26.312  1.00  0.00     0.021 A 
ATOM     20  C   UNL A   1      32.906  22.622  27.160  1.00  0.00     0.021 A 
ATOM     21  Cl  UNL A   1      30.653  22.548  25.741  1.00  0.00    -0.083 Cl
ATOM     22  C   UNL A   1      34.269  22.548  27.388  1.00  0.00     0.003 A 
ENDBRANCH  12  15
ENDBRANCH   7  11
ENDBRANCH   4   7
ENDBRANCH   2   3
ENDBRANCH   1   2
BRANCH   1  23
ATOM     23  C   UNL A   1      32.910  29.388  25.380  1.00  0.00     0.118 C 
BRANCH  23  24
ATOM     24  N   UNL A   1      32.424  30.625  25.959  1.00  0.00    -0.352 N 
ATOM     25  C   UNL A   1      32.982  31.390  26.962  1.00  0.00     0.251 C 
ATOM     26  H   UNL A   1      31.580  30.967  25.584  1.00  0.00     0.163 HD
ATOM     27  O   UNL A   1      32.398  32.380  27.369  1.00  0.00    -0.269 OA
BRANCH  25  28
ATOM     28  C   UNL A   1      34.271  30.980  27.569  1.00  0.00     0.039 A 
ATOM     29  C   UNL A   1      35.269  31.946  27.728  1.00  0.00     0.014 A 
ATOM     30  C   UNL A   1      34.498  29.661  27.972  1.00  0.00     0.014 A 
ATOM     31  C   UNL A   1      36.469  31.607  28.360  1.00  0.00     0.010 A 
ATOM     32  C   UNL A   1      35.690  29.332  28.629  1.00  0.00     0.010 A 
ATOM     33  C   UNL A   1      36.677  30.307  28.851  1.00  0.00    -0.014 A 
BRANCH  33  34
ATOM     34  C   UNL A   1      37.890  29.985  29.654  1.00  0.00     0.031 A 
ATOM     35  C   UNL A   1      38.926  29.021  29.146  1.00  0.00     0.074 A 
ATOM     36  C   UNL A   1      38.034  30.535  30.877  1.00  0.00     0.049 A 
ATOM     37  N   UNL A   1      40.016  28.593  29.732  1.00  0.00    -0.248 NA
ATOM     38  C   UNL A   1      38.697  28.454  27.810  1.00  0.00     0.031 C 
ATOM     39  C   UNL A   1      37.087  31.465  31.496  1.00  0.00     0.029 A 
ATOM     40  N   UNL A   1      39.018  30.388  31.822  1.00  0.00    -0.354 N 
ATOM     41  C   UNL A   1      40.607  27.704  28.839  1.00  0.00     0.074 A 
ATOM     42  C   UNL A   1      39.724  27.623  27.693  1.00  0.00     0.031 C 
ATOM     43  C   UNL A   1      37.542  31.814  32.710  1.00  0.00     0.029 A 
ATOM     44  C   UNL A   1      38.788  31.102  32.978  1.00  0.00     0.049 A 
ATOM     45  H   UNL A   1      39.815  29.825  31.688  1.00  0.00     0.167 HD
ATOM     46  C   UNL A   1      41.781  27.033  28.959  1.00  0.00     0.034 A 
ATOM     47  C   UNL A   1      39.486  31.162  34.129  1.00  0.00     0.034 A 
ATOM     48  C   UNL A   1      42.649  27.117  30.112  1.00  0.00     0.049 A 
ATOM     49  C   UNL A   1      40.758  30.363  34.261  1.00  0.00     0.074 A 
ATOM     50  C   UNL A   1      43.883  26.520  30.307  1.00  0.00     0.029 A 
ATOM     51  N   UNL A   1      42.370  27.828  31.272  1.00  0.00    -0.354 N 
ATOM     52  N   UNL A   1      41.329  29.569  33.385  1.00  0.00    -0.248 NA
ATOM     53  C   UNL A   1      41.482  30.474  35.533  1.00  0.00     0.031 C 
ATOM     54  C   UNL A   1      44.315  26.808  31.607  1.00  0.00     0.029 A 
ATOM     55  C   UNL A   1      43.389  27.649  32.200  1.00  0.00     0.049 A 
ATOM     56  H   UNL A   1      41.567  28.378  31.416  1.00  0.00     0.167 HD
ATOM     57  C   UNL A   1      42.492  29.106  33.995  1.00  0.00     0.074 A 
ATOM     58  C   UNL A   1      42.549  29.723  35.303  1.00  0.00     0.031 C 
ATOM     59  C   UNL A   1      43.429  28.250  33.514  1.00  0.00     0.034 A 
BRANCH  46  60
ATOM     60  C   UNL A   1      42.177  26.120  27.823  1.00  0.00     0.023 A 
ATOM     61  C   UNL A   1      41.686  24.806  27.726  1.00  0.00     0.031 A 
ATOM     62  C   UNL A   1      43.071  26.562  26.830  1.00  0.00     0.131 A 
ATOM     63  C   UNL A   1      42.144  23.959  26.705  1.00  0.00     0.055 A 
ATOM     64  C   UNL A   1      43.462  25.739  25.772  1.00  0.00     0.041 A 
ATOM     65  F   UNL A   1      43.587  27.800  26.877  1.00  0.00    -0.206 F 
ATOM     66  C   UNL A   1      43.010  24.424  25.714  1.00  0.00     0.022 A 
BRANCH  63  67
ATOM     67  S   UNL A   1      41.701  22.202  26.773  1.00  0.00     0.124 S 
ATOM     68  O   UNL A   1      40.247  22.268  26.903  1.00  0.00    -0.237 OA
ATOM     69  O   UNL A   1      42.208  21.699  25.502  1.00  0.00    -0.237 OA
ATOM     70  O   UNL A   1      42.401  21.717  27.961  1.00  0.00    -0.744 OA
ENDBRANCH  63  67
ENDBRANCH  46  60
BRANCH  47  71
ATOM     71  C   UNL A   1      38.991  31.986  35.269  1.00  0.00     0.023 A 
ATOM     72  C   UNL A   1      38.431  31.388  36.408  1.00  0.00     0.031 A 
ATOM     73  C   UNL A   1      39.026  33.392  35.212  1.00  0.00     0.131 A 
ATOM     74  C   UNL A   1      37.889  32.189  37.425  1.00  0.00     0.055 A 
ATOM     75  C   UNL A   1      38.533  34.184  36.248  1.00  0.00     0.041 A 
ATOM     76  F   UNL A   1      39.551  34.015  34.145  1.00  0.00    -0.206 F 
ATOM     77  C   UNL A   1      37.949  33.583  37.359  1.00  0.00     0.022 A 
BRANCH  74  78
ATOM     78  S   UNL A   1      37.028  31.382  38.802  1.00  0.00     0.124 S 
ATOM     79  O   UNL A   1      37.970  31.578  39.898  1.00  0.00    -0.237 OA
ATOM     80  O   UNL A   1      35.789  32.149  38.876  1.00  0.00    -0.237 OA
ATOM     81  O   UNL A   1      36.877  30.001  38.347  1.00  0.00    -0.744 OA
ENDBRANCH  74  78
ENDBRANCH  47  71
BRANCH  59  82
ATOM     82  C   UNL A   1      44.615  27.963  34.403  1.00  0.00     0.023 A 
ATOM     83  C   UNL A   1      44.623  26.877  35.297  1.00  0.00     0.031 A 
ATOM     84  C   UNL A   1      45.747  28.796  34.366  1.00  0.00     0.131 A 
ATOM     85  C   UNL A   1      45.717  26.685  36.156  1.00  0.00     0.055 A 
ATOM     86  C   UNL A   1      46.857  28.566  35.181  1.00  0.00     0.041 A 
ATOM     87  F   UNL A   1      45.794  29.850  33.534  1.00  0.00    -0.206 F 
ATOM     88  C   UNL A   1      46.841  27.514  36.092  1.00  0.00     0.022 A 
BRANCH  85  89
ATOM     89  S   UNL A   1      45.619  25.388  37.420  1.00  0.00     0.124 S 
ATOM     90  O   UNL A   1      46.161  24.233  36.714  1.00  0.00    -0.237 OA
ATOM     91  O   UNL A   1      46.450  25.931  38.490  1.00  0.00    -0.237 OA
ATOM     92  O   UNL A   1      44.190  25.314  37.725  1.00  0.00    -0.744 OA
ENDBRANCH  85  89
ENDBRANCH  59  82
ENDBRANCH  33  34
ENDBRANCH  25  28
ENDBRANCH  23  24
ENDBRANCH   1  23
TORSDOF 16
ENDMDL
