MODEL 1
REMARK VINA RESULT:     -12.3      0.000      0.000
REMARK SMILES Cc1cccc(Nc2ccccc2C(=O)NCCCNC(=O)c2ccc(-c3c4nc(c(-c5cc(S(=O)(=O)[O-])ccc5F)c5ccc([nH]5)c(-c5cc(S(=O)(=O)[O-])ccc5F)c5nc(c(-c6cc(S(=O)(=O)[O-])ccc6F)c6ccc3[nH]6)C=C5)C=C4)cc2)c1C
REMARK SMILES IDX 18 1 17 2 16 3 14 4 15 5 13 7 8 8 9 9 10 10 12 11 11 12 7 13
REMARK SMILES IDX 6 15 1 16 2 17 3 18 86 19 4 20 87 21 5 22 19 23 20 24 21 25
REMARK SMILES IDX 22 27 23 28 24 29 85 30 25 31 84 32 26 33 27 34 28 35 78 36
REMARK SMILES IDX 29 37 83 38 77 39 79 40 30 41 82 42 76 43 75 44 31 46 63 47
REMARK SMILES IDX 43 48 62 49 44 50 47 51 61 52 80 53 45 54 46 55 60 57 81 58
REMARK SMILES IDX 48 59 32 60 33 61 41 62 34 63 40 64 42 65 39 66 35 67 36 68
REMARK SMILES IDX 37 69 38 70 64 71 65 72 73 73 66 74 72 75 74 76 71 77 67 78
REMARK SMILES IDX 68 79 69 80 70 81 49 82 50 83 58 84 51 85 57 86 59 87 56 88
REMARK SMILES IDX 52 89 53 90 54 91 55 92
REMARK H PARENT 16 6 7 14 20 26 79 45 47 56
REMARK Flexibility Score: inf
ROOT
ATOM      1  C   UNL A   1      31.668  28.961  26.599  1.00  0.00     0.042 C 
ENDROOT
BRANCH   1   2
ATOM      2  C   UNL A   1      32.341  27.608  26.556  1.00  0.00     0.118 C 
BRANCH   2   3
ATOM      3  N   UNL A   1      31.509  26.461  26.796  1.00  0.00    -0.352 N 
ATOM      4  C   UNL A   1      31.808  25.140  26.555  1.00  0.00     0.253 C 
ATOM      5  O   UNL A   1      31.099  24.297  27.115  1.00  0.00    -0.269 OA
ATOM      6  H   UNL A   1      30.620  26.641  27.178  1.00  0.00     0.163 HD
BRANCH   4   7
ATOM      7  C   UNL A   1      32.813  24.669  25.543  1.00  0.00     0.063 A 
ATOM      8  C   UNL A   1      32.768  24.697  24.131  1.00  0.00     0.051 A 
ATOM      9  C   UNL A   1      33.820  24.057  23.424  1.00  0.00     0.027 A 
ATOM     10  C   UNL A   1      34.914  23.477  24.062  1.00  0.00     0.002 A 
ATOM     11  C   UNL A   1      33.951  24.093  26.168  1.00  0.00     0.016 A 
ATOM     12  C   UNL A   1      34.993  23.517  25.442  1.00  0.00     0.001 A 
BRANCH   8  13
ATOM     13  N   UNL A   1      31.860  25.376  23.288  1.00  0.00    -0.355 N 
ATOM     14  H   UNL A   1      31.482  24.786  22.595  1.00  0.00     0.167 HD
BRANCH  13  15
ATOM     15  C   UNL A   1      31.363  26.692  23.198  1.00  0.00     0.042 A 
ATOM     16  C   UNL A   1      28.156  28.779  23.088  1.00  0.00     0.044 C 
ATOM     17  C   UNL A   1      29.600  28.365  23.001  1.00  0.00    -0.046 A 
ATOM     18  C   UNL A   1      30.533  29.292  22.512  1.00  0.00     0.004 A 
ATOM     19  C   UNL A   1      30.022  27.068  23.397  1.00  0.00    -0.025 A 
ATOM     20  C   UNL A   1      31.875  28.955  22.411  1.00  0.00     0.002 A 
ATOM     21  C   UNL A   1      29.030  26.141  24.049  1.00  0.00     0.047 C 
ATOM     22  C   UNL A   1      32.284  27.670  22.752  1.00  0.00     0.026 A 
ENDBRANCH  13  15
ENDBRANCH   8  13
ENDBRANCH   4   7
ENDBRANCH   2   3
ENDBRANCH   1   2
BRANCH   1  23
ATOM     23  C   UNL A   1      32.440  30.074  25.905  1.00  0.00     0.118 C 
BRANCH  23  24
ATOM     24  N   UNL A   1      32.143  31.423  26.392  1.00  0.00    -0.352 N 
ATOM     25  C   UNL A   1      32.828  32.277  27.236  1.00  0.00     0.251 C 
ATOM     26  H   UNL A   1      31.295  31.791  26.054  1.00  0.00     0.163 HD
ATOM     27  O   UNL A   1      32.314  33.330  27.578  1.00  0.00    -0.269 OA
BRANCH  25  28
ATOM     28  C   UNL A   1      34.157  31.895  27.768  1.00  0.00     0.039 A 
ATOM     29  C   UNL A   1      35.140  32.875  27.939  1.00  0.00     0.014 A 
ATOM     30  C   UNL A   1      34.430  30.579  28.125  1.00  0.00     0.014 A 
ATOM     31  C   UNL A   1      36.343  32.550  28.576  1.00  0.00     0.010 A 
ATOM     32  C   UNL A   1      35.550  30.292  28.889  1.00  0.00     0.010 A 
ATOM     33  C   UNL A   1      36.531  31.268  29.114  1.00  0.00    -0.014 A 
BRANCH  33  34
ATOM     34  C   UNL A   1      37.752  30.885  29.870  1.00  0.00     0.031 A 
ATOM     35  C   UNL A   1      38.741  29.939  29.238  1.00  0.00     0.074 A 
ATOM     36  C   UNL A   1      37.913  31.281  31.148  1.00  0.00     0.049 A 
ATOM     37  N   UNL A   1      39.755  29.310  29.773  1.00  0.00    -0.248 NA
ATOM     38  C   UNL A   1      38.510  29.606  27.823  1.00  0.00     0.031 C 
ATOM     39  C   UNL A   1      36.990  32.142  31.894  1.00  0.00     0.029 A 
ATOM     40  N   UNL A   1      38.900  30.995  32.057  1.00  0.00    -0.354 N 
ATOM     41  C   UNL A   1      40.251  28.479  28.774  1.00  0.00     0.074 A 
ATOM     42  C   UNL A   1      39.366  28.616  27.639  1.00  0.00     0.031 C 
ATOM     43  C   UNL A   1      37.469  32.333  33.133  1.00  0.00     0.029 A 
ATOM     44  C   UNL A   1      38.701  31.569  33.292  1.00  0.00     0.049 A 
ATOM     45  H   UNL A   1      39.678  30.429  31.846  1.00  0.00     0.167 HD
ATOM     46  C   UNL A   1      41.365  27.705  28.785  1.00  0.00     0.034 A 
ATOM     47  C   UNL A   1      39.423  31.476  34.427  1.00  0.00     0.034 A 
ATOM     48  C   UNL A   1      42.253  27.618  29.917  1.00  0.00     0.049 A 
ATOM     49  C   UNL A   1      40.675  30.637  34.415  1.00  0.00     0.074 A 
ATOM     50  C   UNL A   1      43.439  26.917  30.037  1.00  0.00     0.029 A 
ATOM     51  N   UNL A   1      42.051  28.268  31.131  1.00  0.00    -0.354 N 
ATOM     52  N   UNL A   1      41.158  29.887  33.450  1.00  0.00    -0.248 NA
ATOM     53  C   UNL A   1      41.488  30.645  35.636  1.00  0.00     0.031 C 
ATOM     54  C   UNL A   1      43.925  27.098  31.337  1.00  0.00     0.029 A 
ATOM     55  C   UNL A   1      43.083  27.971  32.007  1.00  0.00     0.049 A 
ATOM     56  H   UNL A   1      41.287  28.852  31.337  1.00  0.00     0.167 HD
ATOM     57  C   UNL A   1      42.346  29.355  33.941  1.00  0.00     0.074 A 
ATOM     58  C   UNL A   1      42.513  29.886  35.280  1.00  0.00     0.031 C 
ATOM     59  C   UNL A   1      43.223  28.508  33.342  1.00  0.00     0.034 A 
BRANCH  46  60
ATOM     60  C   UNL A   1      41.658  26.900  27.538  1.00  0.00     0.023 A 
ATOM     61  C   UNL A   1      41.313  25.538  27.443  1.00  0.00     0.031 A 
ATOM     62  C   UNL A   1      42.357  27.470  26.459  1.00  0.00     0.131 A 
ATOM     63  C   UNL A   1      41.768  24.769  26.363  1.00  0.00     0.055 A 
ATOM     64  C   UNL A   1      42.717  26.721  25.335  1.00  0.00     0.041 A 
ATOM     65  F   UNL A   1      42.734  28.758  26.491  1.00  0.00    -0.206 F 
ATOM     66  C   UNL A   1      42.444  25.357  25.292  1.00  0.00     0.022 A 
BRANCH  63  67
ATOM     67  S   UNL A   1      41.634  22.963  26.475  1.00  0.00     0.124 S 
ATOM     68  O   UNL A   1      40.185  22.774  26.441  1.00  0.00    -0.237 OA
ATOM     69  O   UNL A   1      42.363  22.517  25.294  1.00  0.00    -0.237 OA
ATOM     70  O   UNL A   1      42.264  22.651  27.755  1.00  0.00    -0.744 OA
ENDBRANCH  63  67
ENDBRANCH  46  60
BRANCH  47  71
ATOM     71  C   UNL A   1      38.986  32.196  35.657  1.00  0.00     0.023 A 
ATOM     72  C   UNL A   1      38.316  31.523  36.690  1.00  0.00     0.031 A 
ATOM     73  C   UNL A   1      39.225  33.572  35.814  1.00  0.00     0.131 A 
ATOM     74  C   UNL A   1      37.875  32.233  37.820  1.00  0.00     0.055 A 
ATOM     75  C   UNL A   1      38.826  34.266  36.960  1.00  0.00     0.041 A 
ATOM     76  F   UNL A   1      39.872  34.263  34.861  1.00  0.00    -0.206 F 
ATOM     77  C   UNL A   1      38.137  33.597  37.966  1.00  0.00     0.022 A 
BRANCH  74  78
ATOM     78  S   UNL A   1      36.897  31.357  39.072  1.00  0.00     0.124 S 
ATOM     79  O   UNL A   1      36.710  30.053  38.445  1.00  0.00    -0.237 OA
ATOM     80  O   UNL A   1      37.784  31.393  40.229  1.00  0.00    -0.237 OA
ATOM     81  O   UNL A   1      35.689  32.172  39.191  1.00  0.00    -0.744 OA
ENDBRANCH  74  78
ENDBRANCH  47  71
BRANCH  59  82
ATOM     82  C   UNL A   1      44.462  28.146  34.121  1.00  0.00     0.023 A 
ATOM     83  C   UNL A   1      44.512  27.010  34.948  1.00  0.00     0.031 A 
ATOM     84  C   UNL A   1      45.609  28.957  34.038  1.00  0.00     0.131 A 
ATOM     85  C   UNL A   1      45.665  26.748  35.704  1.00  0.00     0.055 A 
ATOM     86  C   UNL A   1      46.773  28.656  34.744  1.00  0.00     0.041 A 
ATOM     87  F   UNL A   1      45.614  30.055  33.264  1.00  0.00    -0.206 F 
ATOM     88  C   UNL A   1      46.801  27.554  35.593  1.00  0.00     0.022 A 
BRANCH  85  89
ATOM     89  S   UNL A   1      45.624  25.394  36.908  1.00  0.00     0.124 S 
ATOM     90  O   UNL A   1      46.892  24.718  36.648  1.00  0.00    -0.237 OA
ATOM     91  O   UNL A   1      45.529  26.108  38.177  1.00  0.00    -0.237 OA
ATOM     92  O   UNL A   1      44.431  24.638  36.533  1.00  0.00    -0.744 OA
ENDBRANCH  85  89
ENDBRANCH  59  82
ENDBRANCH  33  34
ENDBRANCH  25  28
ENDBRANCH  23  24
ENDBRANCH   1  23
TORSDOF 15
ENDMDL
MODEL 2
REMARK VINA RESULT:     -12.3      1.483      1.694
REMARK SMILES Cc1cccc(Nc2ccccc2C(=O)NCCCNC(=O)c2ccc(-c3c4nc(c(-c5cc(S(=O)(=O)[O-])ccc5F)c5ccc([nH]5)c(-c5cc(S(=O)(=O)[O-])ccc5F)c5nc(c(-c6cc(S(=O)(=O)[O-])ccc6F)c6ccc3[nH]6)C=C5)C=C4)cc2)c1C
REMARK SMILES IDX 18 1 17 2 16 3 14 4 15 5 13 7 8 8 9 9 10 10 12 11 11 12 7 13
REMARK SMILES IDX 6 15 1 16 2 17 3 18 86 19 4 20 87 21 5 22 19 23 20 24 21 25
REMARK SMILES IDX 22 27 23 28 24 29 85 30 25 31 84 32 26 33 27 34 28 35 78 36
REMARK SMILES IDX 29 37 83 38 77 39 79 40 30 41 82 42 76 43 75 44 31 46 63 47
REMARK SMILES IDX 43 48 62 49 44 50 47 51 61 52 80 53 45 54 46 55 60 57 81 58
REMARK SMILES IDX 48 59 32 60 33 61 41 62 34 63 40 64 42 65 39 66 35 67 36 68
REMARK SMILES IDX 37 69 38 70 64 71 65 72 73 73 66 74 72 75 74 76 71 77 67 78
REMARK SMILES IDX 68 79 69 80 70 81 49 82 50 83 58 84 51 85 57 86 59 87 56 88
REMARK SMILES IDX 52 89 53 90 54 91 55 92
REMARK H PARENT 16 6 7 14 20 26 79 45 47 56
REMARK Flexibility Score: inf
ROOT
ATOM      1  C   UNL A   1      31.493  29.016  26.229  1.00  0.00     0.042 C 
ENDROOT
BRANCH   1   2
ATOM      2  C   UNL A   1      32.097  27.791  26.877  1.00  0.00     0.118 C 
BRANCH   2   3
ATOM      3  N   UNL A   1      31.272  26.616  26.939  1.00  0.00    -0.352 N 
ATOM      4  C   UNL A   1      31.577  25.350  26.497  1.00  0.00     0.253 C 
ATOM      5  O   UNL A   1      30.874  24.426  26.921  1.00  0.00    -0.269 OA
ATOM      6  H   UNL A   1      30.383  26.730  27.345  1.00  0.00     0.163 HD
BRANCH   4   7
ATOM      7  C   UNL A   1      32.582  25.047  25.422  1.00  0.00     0.063 A 
ATOM      8  C   UNL A   1      32.469  25.130  24.016  1.00  0.00     0.051 A 
ATOM      9  C   UNL A   1      33.555  24.652  23.237  1.00  0.00     0.027 A 
ATOM     10  C   UNL A   1      34.738  24.180  23.801  1.00  0.00     0.002 A 
ATOM     11  C   UNL A   1      33.808  24.585  25.972  1.00  0.00     0.016 A 
ATOM     12  C   UNL A   1      34.875  24.169  25.177  1.00  0.00     0.001 A 
BRANCH   8  13
ATOM     13  N   UNL A   1      31.449  25.731  23.245  1.00  0.00    -0.355 N 
ATOM     14  H   UNL A   1      31.006  25.087  22.646  1.00  0.00     0.167 HD
BRANCH  13  15
ATOM     15  C   UNL A   1      30.912  27.029  23.125  1.00  0.00     0.042 A 
ATOM     16  C   UNL A   1      27.641  29.013  22.980  1.00  0.00     0.044 C 
ATOM     17  C   UNL A   1      29.097  28.641  22.896  1.00  0.00    -0.046 A 
ATOM     18  C   UNL A   1      29.999  29.584  22.381  1.00  0.00     0.004 A 
ATOM     19  C   UNL A   1      29.560  27.368  23.322  1.00  0.00    -0.025 A 
ATOM     20  C   UNL A   1      31.350  29.287  22.281  1.00  0.00     0.002 A 
ATOM     21  C   UNL A   1      28.600  26.427  24.001  1.00  0.00     0.047 C 
ATOM     22  C   UNL A   1      31.800  28.023  22.651  1.00  0.00     0.026 A 
ENDBRANCH  13  15
ENDBRANCH   8  13
ENDBRANCH   4   7
ENDBRANCH   2   3
ENDBRANCH   1   2
BRANCH   1  23
ATOM     23  C   UNL A   1      32.500  30.091  25.846  1.00  0.00     0.118 C 
BRANCH  23  24
ATOM     24  N   UNL A   1      32.189  31.431  26.350  1.00  0.00    -0.352 N 
ATOM     25  C   UNL A   1      32.869  32.286  27.197  1.00  0.00     0.251 C 
ATOM     26  H   UNL A   1      31.332  31.791  26.023  1.00  0.00     0.163 HD
ATOM     27  O   UNL A   1      32.344  33.328  27.554  1.00  0.00    -0.269 OA
BRANCH  25  28
ATOM     28  C   UNL A   1      34.208  31.916  27.714  1.00  0.00     0.039 A 
ATOM     29  C   UNL A   1      35.176  32.910  27.896  1.00  0.00     0.014 A 
ATOM     30  C   UNL A   1      34.505  30.599  28.046  1.00  0.00     0.014 A 
ATOM     31  C   UNL A   1      36.388  32.594  28.519  1.00  0.00     0.010 A 
ATOM     32  C   UNL A   1      35.634  30.318  28.798  1.00  0.00     0.010 A 
ATOM     33  C   UNL A   1      36.600  31.306  29.033  1.00  0.00    -0.014 A 
BRANCH  33  34
ATOM     34  C   UNL A   1      37.833  30.930  29.775  1.00  0.00     0.031 A 
ATOM     35  C   UNL A   1      38.788  29.939  29.159  1.00  0.00     0.074 A 
ATOM     36  C   UNL A   1      38.033  31.376  31.030  1.00  0.00     0.049 A 
ATOM     37  N   UNL A   1      39.802  29.313  29.695  1.00  0.00    -0.248 NA
ATOM     38  C   UNL A   1      38.515  29.552  27.765  1.00  0.00     0.031 C 
ATOM     39  C   UNL A   1      37.147  32.285  31.762  1.00  0.00     0.029 A 
ATOM     40  N   UNL A   1      39.038  31.108  31.926  1.00  0.00    -0.354 N 
ATOM     41  C   UNL A   1      40.257  28.431  28.720  1.00  0.00     0.074 A 
ATOM     42  C   UNL A   1      39.346  28.538  27.602  1.00  0.00     0.031 C 
ATOM     43  C   UNL A   1      37.660  32.518  32.980  1.00  0.00     0.029 A 
ATOM     44  C   UNL A   1      38.881  31.736  33.141  1.00  0.00     0.049 A 
ATOM     45  H   UNL A   1      39.800  30.518  31.720  1.00  0.00     0.167 HD
ATOM     46  C   UNL A   1      41.356  27.636  28.736  1.00  0.00     0.034 A 
ATOM     47  C   UNL A   1      39.630  31.677  34.260  1.00  0.00     0.034 A 
ATOM     48  C   UNL A   1      42.271  27.578  29.849  1.00  0.00     0.049 A 
ATOM     49  C   UNL A   1      40.865  30.813  34.253  1.00  0.00     0.074 A 
ATOM     50  C   UNL A   1      43.445  26.859  29.969  1.00  0.00     0.029 A 
ATOM     51  N   UNL A   1      42.112  28.282  31.039  1.00  0.00    -0.354 N 
ATOM     52  N   UNL A   1      41.309  30.013  33.309  1.00  0.00    -0.248 NA
ATOM     53  C   UNL A   1      41.708  30.855  35.453  1.00  0.00     0.031 C 
ATOM     54  C   UNL A   1      43.968  27.084  31.248  1.00  0.00     0.029 A 
ATOM     55  C   UNL A   1      43.160  28.001  31.901  1.00  0.00     0.049 A 
ATOM     56  H   UNL A   1      41.365  28.890  31.238  1.00  0.00     0.167 HD
ATOM     57  C   UNL A   1      42.499  29.479  33.793  1.00  0.00     0.074 A 
ATOM     58  C   UNL A   1      42.710  30.061  35.104  1.00  0.00     0.031 C 
ATOM     59  C   UNL A   1      43.344  28.590  33.208  1.00  0.00     0.034 A 
BRANCH  46  60
ATOM     60  C   UNL A   1      41.602  26.774  27.517  1.00  0.00     0.023 A 
ATOM     61  C   UNL A   1      41.186  25.430  27.470  1.00  0.00     0.031 A 
ATOM     62  C   UNL A   1      42.326  27.269  26.418  1.00  0.00     0.131 A 
ATOM     63  C   UNL A   1      41.596  24.601  26.416  1.00  0.00     0.055 A 
ATOM     64  C   UNL A   1      42.643  26.464  25.320  1.00  0.00     0.041 A 
ATOM     65  F   UNL A   1      42.770  28.535  26.405  1.00  0.00    -0.206 F 
ATOM     66  C   UNL A   1      42.298  25.115  25.325  1.00  0.00     0.022 A 
BRANCH  63  67
ATOM     67  S   UNL A   1      41.368  22.809  26.591  1.00  0.00     0.124 S 
ATOM     68  O   UNL A   1      42.194  22.300  25.498  1.00  0.00    -0.237 OA
ATOM     69  O   UNL A   1      41.865  22.557  27.939  1.00  0.00    -0.237 OA
ATOM     70  O   UNL A   1      39.929  22.628  26.411  1.00  0.00    -0.744 OA
ENDBRANCH  63  67
ENDBRANCH  46  60
BRANCH  47  71
ATOM     71  C   UNL A   1      39.237  32.455  35.470  1.00  0.00     0.023 A 
ATOM     72  C   UNL A   1      39.698  33.765  35.669  1.00  0.00     0.031 A 
ATOM     73  C   UNL A   1      38.400  31.894  36.450  1.00  0.00     0.131 A 
ATOM     74  C   UNL A   1      39.349  34.461  36.840  1.00  0.00     0.055 A 
ATOM     75  C   UNL A   1      38.018  32.606  37.590  1.00  0.00     0.041 A 
ATOM     76  F   UNL A   1      37.921  30.649  36.303  1.00  0.00    -0.206 F 
ATOM     77  C   UNL A   1      38.502  33.894  37.794  1.00  0.00     0.022 A 
BRANCH  74  78
ATOM     78  S   UNL A   1      40.071  36.100  37.126  1.00  0.00     0.124 S 
ATOM     79  O   UNL A   1      39.271  36.587  38.244  1.00  0.00    -0.237 OA
ATOM     80  O   UNL A   1      41.460  35.772  37.426  1.00  0.00    -0.237 OA
ATOM     81  O   UNL A   1      39.857  36.793  35.857  1.00  0.00    -0.744 OA
ENDBRANCH  74  78
ENDBRANCH  47  71
BRANCH  59  82
ATOM     82  C   UNL A   1      44.595  28.235  33.972  1.00  0.00     0.023 A 
ATOM     83  C   UNL A   1      44.638  27.147  34.859  1.00  0.00     0.031 A 
ATOM     84  C   UNL A   1      45.761  29.007  33.810  1.00  0.00     0.131 A 
ATOM     85  C   UNL A   1      45.805  26.894  35.596  1.00  0.00     0.055 A 
ATOM     86  C   UNL A   1      46.936  28.712  34.499  1.00  0.00     0.041 A 
ATOM     87  F   UNL A   1      45.773  30.060  32.976  1.00  0.00    -0.206 F 
ATOM     88  C   UNL A   1      46.959  27.659  35.408  1.00  0.00     0.022 A 
BRANCH  85  89
ATOM     89  S   UNL A   1      45.763  25.610  36.876  1.00  0.00     0.124 S 
ATOM     90  O   UNL A   1      47.164  25.534  37.276  1.00  0.00    -0.237 OA
ATOM     91  O   UNL A   1      44.848  26.181  37.859  1.00  0.00    -0.237 OA
ATOM     92  O   UNL A   1      45.256  24.437  36.167  1.00  0.00    -0.744 OA
ENDBRANCH  85  89
ENDBRANCH  59  82
ENDBRANCH  33  34
ENDBRANCH  25  28
ENDBRANCH  23  24
ENDBRANCH   1  23
TORSDOF 15
ENDMDL
MODEL 3
REMARK VINA RESULT:     -12.2      5.245     10.379
REMARK SMILES Cc1cccc(Nc2ccccc2C(=O)NCCCNC(=O)c2ccc(-c3c4nc(c(-c5cc(S(=O)(=O)[O-])ccc5F)c5ccc([nH]5)c(-c5cc(S(=O)(=O)[O-])ccc5F)c5nc(c(-c6cc(S(=O)(=O)[O-])ccc6F)c6ccc3[nH]6)C=C5)C=C4)cc2)c1C
REMARK SMILES IDX 18 1 17 2 16 3 14 4 15 5 13 7 8 8 9 9 10 10 12 11 11 12 7 13
REMARK SMILES IDX 6 15 1 16 2 17 3 18 86 19 4 20 87 21 5 22 19 23 20 24 21 25
REMARK SMILES IDX 22 27 23 28 24 29 85 30 25 31 84 32 26 33 27 34 28 35 78 36
REMARK SMILES IDX 29 37 83 38 77 39 79 40 30 41 82 42 76 43 75 44 31 46 63 47
REMARK SMILES IDX 43 48 62 49 44 50 47 51 61 52 80 53 45 54 46 55 60 57 81 58
REMARK SMILES IDX 48 59 32 60 33 61 41 62 34 63 40 64 42 65 39 66 35 67 36 68
REMARK SMILES IDX 37 69 38 70 64 71 65 72 73 73 66 74 72 75 74 76 71 77 67 78
REMARK SMILES IDX 68 79 69 80 70 81 49 82 50 83 58 84 51 85 57 86 59 87 56 88
REMARK SMILES IDX 52 89 53 90 54 91 55 92
REMARK H PARENT 16 6 7 14 20 26 79 45 47 56
REMARK Flexibility Score: inf
ROOT
ATOM      1  C   UNL A   1      36.001  22.129  24.241  1.00  0.00     0.042 C 
ENDROOT
BRANCH   1   2
ATOM      2  C   UNL A   1      35.618  23.591  24.188  1.00  0.00     0.118 C 
BRANCH   2   3
ATOM      3  N   UNL A   1      34.825  24.015  23.066  1.00  0.00    -0.352 N 
ATOM      4  C   UNL A   1      33.920  25.049  23.019  1.00  0.00     0.253 C 
ATOM      5  O   UNL A   1      33.583  25.445  21.898  1.00  0.00    -0.269 OA
ATOM      6  H   UNL A   1      34.942  23.503  22.234  1.00  0.00     0.163 HD
BRANCH   4   7
ATOM      7  C   UNL A   1      33.203  25.603  24.217  1.00  0.00     0.063 A 
ATOM      8  C   UNL A   1      32.178  25.039  25.010  1.00  0.00     0.051 A 
ATOM      9  C   UNL A   1      31.594  25.855  26.014  1.00  0.00     0.027 A 
ATOM     10  C   UNL A   1      32.040  27.146  26.290  1.00  0.00     0.002 A 
ATOM     11  C   UNL A   1      33.654  26.912  24.535  1.00  0.00     0.016 A 
ATOM     12  C   UNL A   1      33.092  27.669  25.563  1.00  0.00     0.001 A 
BRANCH   8  13
ATOM     13  N   UNL A   1      31.701  23.708  25.023  1.00  0.00    -0.355 N 
ATOM     14  H   UNL A   1      30.719  23.664  24.959  1.00  0.00     0.167 HD
BRANCH  13  15
ATOM     15  C   UNL A   1      32.290  22.431  25.106  1.00  0.00     0.042 A 
ATOM     16  C   UNL A   1      32.553  19.034  23.359  1.00  0.00     0.044 C 
ATOM     17  C   UNL A   1      32.652  20.129  24.387  1.00  0.00    -0.046 A 
ATOM     18  C   UNL A   1      33.120  19.801  25.669  1.00  0.00     0.004 A 
ATOM     19  C   UNL A   1      32.280  21.466  24.083  1.00  0.00    -0.025 A 
ATOM     20  C   UNL A   1      33.226  20.775  26.651  1.00  0.00     0.002 A 
ATOM     21  C   UNL A   1      31.917  21.821  22.665  1.00  0.00     0.047 C 
ATOM     22  C   UNL A   1      32.817  22.075  26.371  1.00  0.00     0.026 A 
ENDBRANCH  13  15
ENDBRANCH   8  13
ENDBRANCH   4   7
ENDBRANCH   2   3
ENDBRANCH   1   2
BRANCH   1  23
ATOM     23  C   UNL A   1      36.501  21.656  25.598  1.00  0.00     0.118 C 
BRANCH  23  24
ATOM     24  N   UNL A   1      37.566  20.651  25.543  1.00  0.00    -0.352 N 
ATOM     25  C   UNL A   1      38.911  20.706  25.859  1.00  0.00     0.251 C 
ATOM     26  H   UNL A   1      37.268  19.771  25.219  1.00  0.00     0.163 HD
ATOM     27  O   UNL A   1      39.626  19.745  25.625  1.00  0.00    -0.269 OA
BRANCH  25  28
ATOM     28  C   UNL A   1      39.495  21.943  26.428  1.00  0.00     0.039 A 
ATOM     29  C   UNL A   1      40.589  21.854  27.296  1.00  0.00     0.014 A 
ATOM     30  C   UNL A   1      38.987  23.193  26.090  1.00  0.00     0.014 A 
ATOM     31  C   UNL A   1      41.236  23.019  27.720  1.00  0.00     0.010 A 
ATOM     32  C   UNL A   1      39.716  24.334  26.383  1.00  0.00     0.010 A 
ATOM     33  C   UNL A   1      40.843  24.268  27.215  1.00  0.00    -0.014 A 
BRANCH  33  34
ATOM     34  C   UNL A   1      41.541  25.533  27.565  1.00  0.00     0.031 A 
ATOM     35  C   UNL A   1      40.808  26.578  28.367  1.00  0.00     0.074 A 
ATOM     36  C   UNL A   1      42.767  25.792  27.071  1.00  0.00     0.049 A 
ATOM     37  N   UNL A   1      41.131  27.821  28.611  1.00  0.00    -0.248 NA
ATOM     38  C   UNL A   1      39.497  26.183  28.908  1.00  0.00     0.031 C 
ATOM     39  C   UNL A   1      43.553  24.887  26.227  1.00  0.00     0.029 A 
ATOM     40  N   UNL A   1      43.564  26.903  27.189  1.00  0.00    -0.354 N 
ATOM     41  C   UNL A   1      40.047  28.364  29.294  1.00  0.00     0.074 A 
ATOM     42  C   UNL A   1      39.025  27.341  29.335  1.00  0.00     0.031 C 
ATOM     43  C   UNL A   1      44.725  25.469  25.927  1.00  0.00     0.029 A 
ATOM     44  C   UNL A   1      44.756  26.807  26.509  1.00  0.00     0.049 A 
ATOM     45  H   UNL A   1      43.306  27.697  27.711  1.00  0.00     0.167 HD
ATOM     46  C   UNL A   1      39.928  29.586  29.871  1.00  0.00     0.034 A 
ATOM     47  C   UNL A   1      45.754  27.700  26.360  1.00  0.00     0.034 A 
ATOM     48  C   UNL A   1      40.979  30.573  29.849  1.00  0.00     0.049 A 
ATOM     49  C   UNL A   1      45.622  29.043  27.032  1.00  0.00     0.074 A 
ATOM     50  C   UNL A   1      41.006  31.823  30.440  1.00  0.00     0.029 A 
ATOM     51  N   UNL A   1      42.200  30.411  29.203  1.00  0.00    -0.354 N 
ATOM     52  N   UNL A   1      44.608  29.531  27.711  1.00  0.00    -0.248 NA
ATOM     53  C   UNL A   1      46.772  29.948  26.933  1.00  0.00     0.031 C 
ATOM     54  C   UNL A   1      42.218  32.438  30.107  1.00  0.00     0.029 A 
ATOM     55  C   UNL A   1      42.980  31.545  29.370  1.00  0.00     0.049 A 
ATOM     56  H   UNL A   1      42.471  29.610  28.701  1.00  0.00     0.167 HD
ATOM     57  C   UNL A   1      45.011  30.790  28.143  1.00  0.00     0.074 A 
ATOM     58  C   UNL A   1      46.366  30.977  27.662  1.00  0.00     0.031 C 
ATOM     59  C   UNL A   1      44.328  31.710  28.873  1.00  0.00     0.034 A 
BRANCH  46  60
ATOM     60  C   UNL A   1      38.615  29.902  30.554  1.00  0.00     0.023 A 
ATOM     61  C   UNL A   1      37.592  30.606  29.891  1.00  0.00     0.031 A 
ATOM     62  C   UNL A   1      38.406  29.568  31.904  1.00  0.00     0.131 A 
ATOM     63  C   UNL A   1      36.471  31.055  30.604  1.00  0.00     0.055 A 
ATOM     64  C   UNL A   1      37.238  29.929  32.581  1.00  0.00     0.041 A 
ATOM     65  F   UNL A   1      39.348  28.913  32.601  1.00  0.00    -0.206 F 
ATOM     66  C   UNL A   1      36.272  30.698  31.938  1.00  0.00     0.022 A 
BRANCH  63  67
ATOM     67  S   UNL A   1      35.382  32.274  29.814  1.00  0.00     0.124 S 
ATOM     68  O   UNL A   1      34.866  31.513  28.677  1.00  0.00    -0.237 OA
ATOM     69  O   UNL A   1      34.422  32.572  30.871  1.00  0.00    -0.237 OA
ATOM     70  O   UNL A   1      36.287  33.366  29.464  1.00  0.00    -0.744 OA
ENDBRANCH  63  67
ENDBRANCH  46  60
BRANCH  47  71
ATOM     71  C   UNL A   1      46.958  27.356  25.551  1.00  0.00     0.023 A 
ATOM     72  C   UNL A   1      47.068  27.755  24.210  1.00  0.00     0.031 A 
ATOM     73  C   UNL A   1      48.015  26.613  26.106  1.00  0.00     0.131 A 
ATOM     74  C   UNL A   1      48.193  27.379  23.456  1.00  0.00     0.055 A 
ATOM     75  C   UNL A   1      49.153  26.282  25.367  1.00  0.00     0.041 A 
ATOM     76  F   UNL A   1      47.967  26.216  27.388  1.00  0.00    -0.206 F 
ATOM     77  C   UNL A   1      49.241  26.657  24.031  1.00  0.00     0.022 A 
BRANCH  74  78
ATOM     78  S   UNL A   1      48.239  27.798  21.692  1.00  0.00     0.124 S 
ATOM     79  O   UNL A   1      46.924  28.397  21.494  1.00  0.00    -0.237 OA
ATOM     80  O   UNL A   1      49.376  28.710  21.627  1.00  0.00    -0.237 OA
ATOM     81  O   UNL A   1      48.441  26.506  21.040  1.00  0.00    -0.744 OA
ENDBRANCH  74  78
ENDBRANCH  47  71
BRANCH  59  82
ATOM     82  C   UNL A   1      45.061  32.979  29.230  1.00  0.00     0.023 A 
ATOM     83  C   UNL A   1      45.042  34.106  28.391  1.00  0.00     0.031 A 
ATOM     84  C   UNL A   1      45.794  33.054  30.428  1.00  0.00     0.131 A 
ATOM     85  C   UNL A   1      45.792  35.242  28.734  1.00  0.00     0.055 A 
ATOM     86  C   UNL A   1      46.486  34.209  30.793  1.00  0.00     0.041 A 
ATOM     87  F   UNL A   1      45.846  32.005  31.266  1.00  0.00    -0.206 F 
ATOM     88  C   UNL A   1      46.498  35.306  29.938  1.00  0.00     0.022 A 
BRANCH  85  89
ATOM     89  S   UNL A   1      45.908  36.598  27.537  1.00  0.00     0.124 S 
ATOM     90  O   UNL A   1      44.601  37.234  27.669  1.00  0.00    -0.237 OA
ATOM     91  O   UNL A   1      47.044  37.363  28.042  1.00  0.00    -0.237 OA
ATOM     92  O   UNL A   1      46.139  35.915  26.265  1.00  0.00    -0.744 OA
ENDBRANCH  85  89
ENDBRANCH  59  82
ENDBRANCH  33  34
ENDBRANCH  25  28
ENDBRANCH  23  24
ENDBRANCH   1  23
TORSDOF 15
ENDMDL
