MODEL 1
REMARK VINA RESULT:     -12.7      0.000      0.000
REMARK SMILES O=C(NCCCNC(=O)c1ccc(-c2ccn(C(F)F)c(=O)c2)cc1O)c1ccc(-c2c3nc(c(-c4cc(S(=O)(=O)[O-])ccc4F)c4ccc([nH]4)c(-c4cc(S(=O)(=O)[O-])ccc4F)c4nc(c(-c5cc(S(=O)(=O)[O-])ccc5F)c5ccc2[nH]5)C=C4)C=C3)cc1
REMARK SMILES IDX 4 1 3 2 1 3 2 4 27 6 28 7 89 8 29 9 88 10 30 11 31 12 32 13
REMARK SMILES IDX 82 14 33 15 87 16 81 17 83 18 34 19 86 20 80 21 79 22 35 24
REMARK SMILES IDX 67 25 47 26 66 27 48 28 51 29 65 30 84 31 49 32 50 33 64 35
REMARK SMILES IDX 85 36 52 37 36 38 37 39 45 40 38 41 44 42 46 43 43 44 39 45
REMARK SMILES IDX 40 46 41 47 42 48 68 49 69 50 77 51 70 52 76 53 78 54 75 55
REMARK SMILES IDX 71 56 72 57 73 58 74 59 53 60 54 61 62 62 55 63 61 64 63 65
REMARK SMILES IDX 60 66 56 67 57 68 58 69 59 70 5 71 6 72 7 73 8 74 9 76 10 77
REMARK SMILES IDX 11 78 25 79 12 80 24 81 13 82 26 83 14 85 15 86 23 87 16 88
REMARK SMILES IDX 21 89 17 90 22 91 18 92 19 93 20 94
REMARK H PARENT 3 5 83 23 51 34 7 75 26 84
REMARK Flexibility Score: inf
ROOT
ATOM      1  C   UNL A   1      32.164  30.251  26.069  1.00  0.00     0.118 C 
ENDROOT
BRANCH   1   2
ATOM      2  N   UNL A   1      32.000  31.659  26.395  1.00  0.00    -0.352 N 
ATOM      3  O   UNL A   1      32.273  33.569  27.536  1.00  0.00    -0.269 OA
ATOM      4  C   UNL A   1      32.728  32.470  27.229  1.00  0.00     0.251 C 
ATOM      5  H   UNL A   1      31.246  32.102  25.943  1.00  0.00     0.163 HD
BRANCH   4   6
ATOM      6  C   UNL A   1      34.045  32.043  27.755  1.00  0.00     0.039 A 
ATOM      7  C   UNL A   1      34.219  30.707  28.136  1.00  0.00     0.014 A 
ATOM      8  C   UNL A   1      35.075  32.961  27.967  1.00  0.00     0.014 A 
ATOM      9  C   UNL A   1      35.421  30.296  28.717  1.00  0.00     0.010 A 
ATOM     10  C   UNL A   1      36.303  32.534  28.462  1.00  0.00     0.010 A 
ATOM     11  C   UNL A   1      36.474  31.208  28.887  1.00  0.00    -0.014 A 
BRANCH  11  12
ATOM     12  C   UNL A   1      37.718  30.847  29.612  1.00  0.00     0.031 A 
ATOM     13  C   UNL A   1      38.666  29.861  28.981  1.00  0.00     0.074 A 
ATOM     14  C   UNL A   1      37.971  31.342  30.839  1.00  0.00     0.049 A 
ATOM     15  N   UNL A   1      39.715  29.279  29.497  1.00  0.00    -0.248 NA
ATOM     16  C   UNL A   1      38.380  29.455  27.592  1.00  0.00     0.031 C 
ATOM     17  C   UNL A   1      37.126  32.298  31.549  1.00  0.00     0.029 A 
ATOM     18  N   UNL A   1      38.999  31.088  31.716  1.00  0.00    -0.354 N 
ATOM     19  C   UNL A   1      40.192  28.420  28.514  1.00  0.00     0.074 A 
ATOM     20  C   UNL A   1      39.297  28.521  27.385  1.00  0.00     0.031 C 
ATOM     21  C   UNL A   1      37.664  32.549  32.753  1.00  0.00     0.029 A 
ATOM     22  C   UNL A   1      38.862  31.726  32.928  1.00  0.00     0.049 A 
ATOM     23  H   UNL A   1      39.763  30.506  31.497  1.00  0.00     0.167 HD
ATOM     24  C   UNL A   1      41.294  27.638  28.544  1.00  0.00     0.034 A 
ATOM     25  C   UNL A   1      39.591  31.634  34.061  1.00  0.00     0.034 A 
ATOM     26  C   UNL A   1      42.208  27.596  29.653  1.00  0.00     0.049 A 
ATOM     27  C   UNL A   1      40.814  30.747  34.073  1.00  0.00     0.074 A 
ATOM     28  C   UNL A   1      43.391  26.887  29.748  1.00  0.00     0.029 A 
ATOM     29  N   UNL A   1      42.057  28.290  30.843  1.00  0.00    -0.354 N 
ATOM     30  N   UNL A   1      41.293  29.996  33.110  1.00  0.00    -0.248 NA
ATOM     31  C   UNL A   1      41.605  30.695  35.312  1.00  0.00     0.031 C 
ATOM     32  C   UNL A   1      43.916  27.089  31.020  1.00  0.00     0.029 A 
ATOM     33  C   UNL A   1      43.112  28.000  31.688  1.00  0.00     0.049 A 
ATOM     34  H   UNL A   1      41.312  28.898  31.054  1.00  0.00     0.167 HD
ATOM     35  C   UNL A   1      42.452  29.412  33.614  1.00  0.00     0.074 A 
ATOM     36  C   UNL A   1      42.616  29.909  34.962  1.00  0.00     0.031 C 
ATOM     37  C   UNL A   1      43.298  28.540  33.013  1.00  0.00     0.034 A 
BRANCH  24  38
ATOM     38  C   UNL A   1      41.627  26.778  27.353  1.00  0.00     0.023 A 
ATOM     39  C   UNL A   1      41.284  25.413  27.368  1.00  0.00     0.031 A 
ATOM     40  C   UNL A   1      42.451  27.249  26.318  1.00  0.00     0.131 A 
ATOM     41  C   UNL A   1      41.824  24.551  26.407  1.00  0.00     0.055 A 
ATOM     42  C   UNL A   1      42.943  26.395  25.331  1.00  0.00     0.041 A 
ATOM     43  F   UNL A   1      42.805  28.543  26.262  1.00  0.00    -0.206 F 
ATOM     44  C   UNL A   1      42.647  25.036  25.385  1.00  0.00     0.022 A 
BRANCH  41  45
ATOM     45  S   UNL A   1      41.558  22.761  26.506  1.00  0.00     0.124 S 
ATOM     46  O   UNL A   1      40.102  22.666  26.410  1.00  0.00    -0.237 OA
ATOM     47  O   UNL A   1      42.292  22.279  25.341  1.00  0.00    -0.237 OA
ATOM     48  O   UNL A   1      42.117  22.394  27.803  1.00  0.00    -0.744 OA
ENDBRANCH  41  45
ENDBRANCH  24  38
BRANCH  25  49
ATOM     49  C   UNL A   1      39.177  32.421  35.262  1.00  0.00     0.023 A 
ATOM     50  C   UNL A   1      39.580  33.761  35.418  1.00  0.00     0.031 A 
ATOM     51  C   UNL A   1      38.458  31.828  36.312  1.00  0.00     0.131 A 
ATOM     52  C   UNL A   1      39.323  34.436  36.618  1.00  0.00     0.055 A 
ATOM     53  C   UNL A   1      38.132  32.530  37.474  1.00  0.00     0.041 A 
ATOM     54  F   UNL A   1      38.061  30.548  36.223  1.00  0.00    -0.206 F 
ATOM     55  C   UNL A   1      38.582  33.836  37.639  1.00  0.00     0.022 A 
BRANCH  52  56
ATOM     56  S   UNL A   1      40.067  36.059  36.947  1.00  0.00     0.124 S 
ATOM     57  O   UNL A   1      39.290  36.524  38.090  1.00  0.00    -0.237 OA
ATOM     58  O   UNL A   1      41.455  35.699  37.230  1.00  0.00    -0.237 OA
ATOM     59  O   UNL A   1      39.861  36.792  35.701  1.00  0.00    -0.744 OA
ENDBRANCH  52  56
ENDBRANCH  25  49
BRANCH  37  60
ATOM     60  C   UNL A   1      44.521  28.055  33.753  1.00  0.00     0.023 A 
ATOM     61  C   UNL A   1      44.405  26.964  34.640  1.00  0.00     0.031 A 
ATOM     62  C   UNL A   1      45.707  28.807  33.773  1.00  0.00     0.131 A 
ATOM     63  C   UNL A   1      45.421  26.709  35.567  1.00  0.00     0.055 A 
ATOM     64  C   UNL A   1      46.743  28.509  34.660  1.00  0.00     0.041 A 
ATOM     65  F   UNL A   1      45.860  29.862  32.958  1.00  0.00    -0.206 F 
ATOM     66  C   UNL A   1      46.594  27.472  35.578  1.00  0.00     0.022 A 
BRANCH  63  67
ATOM     67  S   UNL A   1      45.205  25.465  36.870  1.00  0.00     0.124 S 
ATOM     68  O   UNL A   1      46.489  24.770  36.842  1.00  0.00    -0.237 OA
ATOM     69  O   UNL A   1      44.970  26.294  38.049  1.00  0.00    -0.237 OA
ATOM     70  O   UNL A   1      44.064  24.675  36.419  1.00  0.00    -0.744 OA
ENDBRANCH  63  67
ENDBRANCH  37  60
ENDBRANCH  11  12
ENDBRANCH   4   6
ENDBRANCH   1   2
BRANCH   1  71
ATOM     71  C   UNL A   1      31.168  29.778  25.022  1.00  0.00     0.042 C 
BRANCH  71  72
ATOM     72  C   UNL A   1      31.644  28.595  24.196  1.00  0.00     0.118 C 
BRANCH  72  73
ATOM     73  N   UNL A   1      32.671  28.952  23.230  1.00  0.00    -0.352 N 
ATOM     74  C   UNL A   1      33.573  28.139  22.592  1.00  0.00     0.255 C 
ATOM     75  H   UNL A   1      32.727  29.908  23.004  1.00  0.00     0.163 HD
ATOM     76  O   UNL A   1      34.425  28.622  21.849  1.00  0.00    -0.269 OA
BRANCH  74  77
ATOM     77  C   UNL A   1      33.575  26.684  22.841  1.00  0.00     0.081 A 
ATOM     78  C   UNL A   1      33.909  26.253  24.132  1.00  0.00     0.018 A 
ATOM     79  C   UNL A   1      33.282  25.744  21.849  1.00  0.00     0.128 A 
ATOM     80  C   UNL A   1      33.907  24.889  24.438  1.00  0.00     0.010 A 
ATOM     81  C   UNL A   1      33.256  24.386  22.160  1.00  0.00     0.055 A 
ATOM     82  C   UNL A   1      33.571  23.948  23.457  1.00  0.00    -0.014 A 
BRANCH  79  83
ATOM     83  O   UNL A   1      33.020  26.137  20.566  1.00  0.00    -0.507 OA
ATOM     84  H   UNL A   1      32.334  25.724  20.080  1.00  0.00     0.293 HD
ENDBRANCH  79  83
BRANCH  82  85
ATOM     85  C   UNL A   1      33.580  22.499  23.733  1.00  0.00    -0.011 A 
ATOM     86  C   UNL A   1      32.432  21.661  23.443  1.00  0.00     0.027 A 
ATOM     87  C   UNL A   1      34.658  21.947  24.319  1.00  0.00     0.080 A 
ATOM     88  C   UNL A   1      32.424  20.370  23.788  1.00  0.00     0.095 A 
ATOM     89  C   UNL A   1      34.674  20.502  24.684  1.00  0.00     0.255 A 
ATOM     90  N   UNL A   1      33.516  19.794  24.406  1.00  0.00    -0.258 N 
ATOM     91  O   UNL A   1      35.683  20.037  25.206  1.00  0.00    -0.269 OA
BRANCH  90  92
ATOM     92  C   UNL A   1      33.482  18.410  24.800  1.00  0.00     0.451 C 
ATOM     93  F   UNL A   1      32.265  18.063  25.283  1.00  0.00    -0.185 F 
ATOM     94  F   UNL A   1      33.771  17.598  23.756  1.00  0.00    -0.185 F 
ENDBRANCH  90  92
ENDBRANCH  82  85
ENDBRANCH  74  77
ENDBRANCH  72  73
ENDBRANCH  71  72
ENDBRANCH   1  71
TORSDOF 16
ENDMDL
MODEL 2
REMARK VINA RESULT:     -12.6      1.907      2.356
REMARK SMILES O=C(NCCCNC(=O)c1ccc(-c2ccn(C(F)F)c(=O)c2)cc1O)c1ccc(-c2c3nc(c(-c4cc(S(=O)(=O)[O-])ccc4F)c4ccc([nH]4)c(-c4cc(S(=O)(=O)[O-])ccc4F)c4nc(c(-c5cc(S(=O)(=O)[O-])ccc5F)c5ccc2[nH]5)C=C4)C=C3)cc1
REMARK SMILES IDX 4 1 3 2 1 3 2 4 27 6 28 7 89 8 29 9 88 10 30 11 31 12 32 13
REMARK SMILES IDX 82 14 33 15 87 16 81 17 83 18 34 19 86 20 80 21 79 22 35 24
REMARK SMILES IDX 67 25 47 26 66 27 48 28 51 29 65 30 84 31 49 32 50 33 64 35
REMARK SMILES IDX 85 36 52 37 36 38 37 39 45 40 38 41 44 42 46 43 43 44 39 45
REMARK SMILES IDX 40 46 41 47 42 48 68 49 69 50 77 51 70 52 76 53 78 54 75 55
REMARK SMILES IDX 71 56 72 57 73 58 74 59 53 60 54 61 62 62 55 63 61 64 63 65
REMARK SMILES IDX 60 66 56 67 57 68 58 69 59 70 5 71 6 72 7 73 8 74 9 76 10 77
REMARK SMILES IDX 11 78 25 79 12 80 24 81 13 82 26 83 14 85 15 86 23 87 16 88
REMARK SMILES IDX 21 89 17 90 22 91 18 92 19 93 20 94
REMARK H PARENT 3 5 83 23 51 34 7 75 26 84
REMARK Flexibility Score: inf
ROOT
ATOM      1  C   UNL A   1      32.106  32.015  26.896  1.00  0.00     0.118 C 
ENDROOT
BRANCH   1   2
ATOM      2  N   UNL A   1      32.187  33.423  27.256  1.00  0.00    -0.352 N 
ATOM      3  O   UNL A   1      32.792  35.230  28.436  1.00  0.00    -0.269 OA
ATOM      4  C   UNL A   1      33.051  34.077  28.097  1.00  0.00     0.251 C 
ATOM      5  H   UNL A   1      31.514  33.998  26.826  1.00  0.00     0.163 HD
BRANCH   4   6
ATOM      6  C   UNL A   1      34.282  33.420  28.593  1.00  0.00     0.039 A 
ATOM      7  C   UNL A   1      34.172  32.192  29.256  1.00  0.00     0.014 A 
ATOM      8  C   UNL A   1      35.528  34.045  28.499  1.00  0.00     0.014 A 
ATOM      9  C   UNL A   1      35.306  31.593  29.812  1.00  0.00     0.010 A 
ATOM     10  C   UNL A   1      36.669  33.407  28.973  1.00  0.00     0.010 A 
ATOM     11  C   UNL A   1      36.564  32.197  29.676  1.00  0.00    -0.014 A 
BRANCH  11  12
ATOM     12  C   UNL A   1      37.771  31.663  30.357  1.00  0.00     0.031 A 
ATOM     13  C   UNL A   1      38.590  30.608  29.659  1.00  0.00     0.074 A 
ATOM     14  C   UNL A   1      38.099  32.065  31.600  1.00  0.00     0.049 A 
ATOM     15  N   UNL A   1      39.574  29.886  30.125  1.00  0.00    -0.248 NA
ATOM     16  C   UNL A   1      38.237  30.305  28.259  1.00  0.00     0.031 C 
ATOM     17  C   UNL A   1      37.380  33.075  32.372  1.00  0.00     0.029 A 
ATOM     18  N   UNL A   1      39.106  31.654  32.441  1.00  0.00    -0.354 N 
ATOM     19  C   UNL A   1      39.934  29.028  29.092  1.00  0.00     0.074 A 
ATOM     20  C   UNL A   1      39.038  29.285  27.989  1.00  0.00     0.031 C 
ATOM     21  C   UNL A   1      37.963  33.204  33.575  1.00  0.00     0.029 A 
ATOM     22  C   UNL A   1      39.061  32.242  33.685  1.00  0.00     0.049 A 
ATOM     23  H   UNL A   1      39.794  31.001  32.179  1.00  0.00     0.167 HD
ATOM     24  C   UNL A   1      40.939  28.125  29.062  1.00  0.00     0.034 A 
ATOM     25  C   UNL A   1      39.793  32.013  34.796  1.00  0.00     0.034 A 
ATOM     26  C   UNL A   1      41.861  27.926  30.147  1.00  0.00     0.049 A 
ATOM     27  C   UNL A   1      40.907  30.994  34.740  1.00  0.00     0.074 A 
ATOM     28  C   UNL A   1      42.956  27.084  30.183  1.00  0.00     0.029 A 
ATOM     29  N   UNL A   1      41.809  28.574  31.371  1.00  0.00    -0.354 N 
ATOM     30  N   UNL A   1      41.282  30.241  33.732  1.00  0.00    -0.248 NA
ATOM     31  C   UNL A   1      41.708  30.791  35.957  1.00  0.00     0.031 C 
ATOM     32  C   UNL A   1      43.521  27.163  31.452  1.00  0.00     0.029 A 
ATOM     33  C   UNL A   1      42.838  28.125  32.179  1.00  0.00     0.049 A 
ATOM     34  H   UNL A   1      41.142  29.251  31.627  1.00  0.00     0.167 HD
ATOM     35  C   UNL A   1      42.375  29.506  34.183  1.00  0.00     0.074 A 
ATOM     36  C   UNL A   1      42.616  29.914  35.549  1.00  0.00     0.031 C 
ATOM     37  C   UNL A   1      43.106  28.574  33.523  1.00  0.00     0.034 A 
BRANCH  24  38
ATOM     38  C   UNL A   1      41.153  27.293  27.824  1.00  0.00     0.023 A 
ATOM     39  C   UNL A   1      40.887  25.911  27.867  1.00  0.00     0.031 A 
ATOM     40  C   UNL A   1      41.803  27.815  26.694  1.00  0.00     0.131 A 
ATOM     41  C   UNL A   1      41.336  25.087  26.829  1.00  0.00     0.055 A 
ATOM     42  C   UNL A   1      42.200  26.995  25.638  1.00  0.00     0.041 A 
ATOM     43  F   UNL A   1      42.077  29.127  26.609  1.00  0.00    -0.206 F 
ATOM     44  C   UNL A   1      41.987  25.622  25.712  1.00  0.00     0.022 A 
BRANCH  41  45
ATOM     45  S   UNL A   1      41.181  23.284  26.938  1.00  0.00     0.124 S 
ATOM     46  O   UNL A   1      41.954  22.988  28.144  1.00  0.00    -0.237 OA
ATOM     47  O   UNL A   1      39.739  23.110  27.064  1.00  0.00    -0.237 OA
ATOM     48  O   UNL A   1      41.771  22.804  25.693  1.00  0.00    -0.744 OA
ENDBRANCH  41  45
ENDBRANCH  24  38
BRANCH  25  49
ATOM     49  C   UNL A   1      39.492  32.782  36.042  1.00  0.00     0.023 A 
ATOM     50  C   UNL A   1      38.681  32.227  37.050  1.00  0.00     0.031 A 
ATOM     51  C   UNL A   1      39.928  34.107  36.206  1.00  0.00     0.131 A 
ATOM     52  C   UNL A   1      38.276  33.014  38.136  1.00  0.00     0.055 A 
ATOM     53  C   UNL A   1      39.588  34.862  37.331  1.00  0.00     0.041 A 
ATOM     54  F   UNL A   1      40.692  34.690  35.268  1.00  0.00    -0.206 F 
ATOM     55  C   UNL A   1      38.742  34.321  38.294  1.00  0.00     0.022 A 
BRANCH  52  56
ATOM     56  S   UNL A   1      37.017  32.413  39.297  1.00  0.00     0.124 S 
ATOM     57  O   UNL A   1      35.777  32.786  38.624  1.00  0.00    -0.237 OA
ATOM     58  O   UNL A   1      37.307  30.982  39.339  1.00  0.00    -0.237 OA
ATOM     59  O   UNL A   1      37.310  33.139  40.529  1.00  0.00    -0.744 OA
ENDBRANCH  52  56
ENDBRANCH  25  49
BRANCH  37  60
ATOM     60  C   UNL A   1      44.278  27.918  34.213  1.00  0.00     0.023 A 
ATOM     61  C   UNL A   1      44.051  26.811  35.057  1.00  0.00     0.031 A 
ATOM     62  C   UNL A   1      45.544  28.524  34.234  1.00  0.00     0.131 A 
ATOM     63  C   UNL A   1      45.048  26.399  35.948  1.00  0.00     0.055 A 
ATOM     64  C   UNL A   1      46.555  28.070  35.083  1.00  0.00     0.041 A 
ATOM     65  F   UNL A   1      45.804  29.588  33.459  1.00  0.00    -0.206 F 
ATOM     66  C   UNL A   1      46.302  27.018  35.961  1.00  0.00     0.022 A 
BRANCH  63  67
ATOM     67  S   UNL A   1      44.712  25.134  37.205  1.00  0.00     0.124 S 
ATOM     68  O   UNL A   1      45.549  24.027  36.752  1.00  0.00    -0.237 OA
ATOM     69  O   UNL A   1      45.159  25.793  38.429  1.00  0.00    -0.237 OA
ATOM     70  O   UNL A   1      43.274  24.906  37.102  1.00  0.00    -0.744 OA
ENDBRANCH  63  67
ENDBRANCH  37  60
ENDBRANCH  11  12
ENDBRANCH   4   6
ENDBRANCH   1   2
BRANCH   1  71
ATOM     71  C   UNL A   1      31.051  31.748  25.835  1.00  0.00     0.042 C 
BRANCH  71  72
ATOM     72  C   UNL A   1      31.079  30.339  25.265  1.00  0.00     0.118 C 
BRANCH  72  73
ATOM     73  N   UNL A   1      30.525  30.258  23.923  1.00  0.00    -0.352 N 
ATOM     74  C   UNL A   1      30.717  29.290  22.970  1.00  0.00     0.255 C 
ATOM     75  H   UNL A   1      29.933  30.999  23.663  1.00  0.00     0.163 HD
ATOM     76  O   UNL A   1      30.221  29.415  21.852  1.00  0.00    -0.269 OA
BRANCH  74  77
ATOM     77  C   UNL A   1      31.576  28.123  23.251  1.00  0.00     0.081 A 
ATOM     78  C   UNL A   1      30.939  26.896  23.481  1.00  0.00     0.018 A 
ATOM     79  C   UNL A   1      32.970  28.204  23.314  1.00  0.00     0.128 A 
ATOM     80  C   UNL A   1      31.696  25.749  23.729  1.00  0.00     0.010 A 
ATOM     81  C   UNL A   1      33.726  27.055  23.538  1.00  0.00     0.055 A 
ATOM     82  C   UNL A   1      33.095  25.819  23.750  1.00  0.00    -0.014 A 
BRANCH  79  83
ATOM     83  O   UNL A   1      33.610  29.403  23.160  1.00  0.00    -0.507 OA
ATOM     84  H   UNL A   1      33.330  30.001  22.496  1.00  0.00     0.293 HD
ENDBRANCH  79  83
BRANCH  82  85
ATOM     85  C   UNL A   1      33.930  24.637  24.033  1.00  0.00    -0.011 A 
ATOM     86  C   UNL A   1      33.683  23.359  23.391  1.00  0.00     0.027 A 
ATOM     87  C   UNL A   1      34.910  24.726  24.949  1.00  0.00     0.080 A 
ATOM     88  C   UNL A   1      34.389  22.276  23.731  1.00  0.00     0.095 A 
ATOM     89  C   UNL A   1      35.724  23.534  25.318  1.00  0.00     0.255 A 
ATOM     90  N   UNL A   1      35.386  22.350  24.683  1.00  0.00    -0.258 N 
ATOM     91  O   UNL A   1      36.617  23.663  26.150  1.00  0.00    -0.269 OA
BRANCH  90  92
ATOM     92  C   UNL A   1      36.118  21.169  25.062  1.00  0.00     0.451 C 
ATOM     93  F   UNL A   1      35.450  20.042  24.718  1.00  0.00    -0.185 F 
ATOM     94  F   UNL A   1      37.335  21.138  24.469  1.00  0.00    -0.185 F 
ENDBRANCH  90  92
ENDBRANCH  82  85
ENDBRANCH  74  77
ENDBRANCH  72  73
ENDBRANCH  71  72
ENDBRANCH   1  71
TORSDOF 16
ENDMDL
MODEL 3
REMARK VINA RESULT:     -12.5      1.584      1.879
REMARK SMILES O=C(NCCCNC(=O)c1ccc(-c2ccn(C(F)F)c(=O)c2)cc1O)c1ccc(-c2c3nc(c(-c4cc(S(=O)(=O)[O-])ccc4F)c4ccc([nH]4)c(-c4cc(S(=O)(=O)[O-])ccc4F)c4nc(c(-c5cc(S(=O)(=O)[O-])ccc5F)c5ccc2[nH]5)C=C4)C=C3)cc1
REMARK SMILES IDX 4 1 3 2 1 3 2 4 27 6 28 7 89 8 29 9 88 10 30 11 31 12 32 13
REMARK SMILES IDX 82 14 33 15 87 16 81 17 83 18 34 19 86 20 80 21 79 22 35 24
REMARK SMILES IDX 67 25 47 26 66 27 48 28 51 29 65 30 84 31 49 32 50 33 64 35
REMARK SMILES IDX 85 36 52 37 36 38 37 39 45 40 38 41 44 42 46 43 43 44 39 45
REMARK SMILES IDX 40 46 41 47 42 48 68 49 69 50 77 51 70 52 76 53 78 54 75 55
REMARK SMILES IDX 71 56 72 57 73 58 74 59 53 60 54 61 62 62 55 63 61 64 63 65
REMARK SMILES IDX 60 66 56 67 57 68 58 69 59 70 5 71 6 72 7 73 8 74 9 76 10 77
REMARK SMILES IDX 11 78 25 79 12 80 24 81 13 82 26 83 14 85 15 86 23 87 16 88
REMARK SMILES IDX 21 89 17 90 22 91 18 92 19 93 20 94
REMARK H PARENT 3 5 83 23 51 34 7 75 26 84
REMARK Flexibility Score: inf
ROOT
ATOM      1  C   UNL A   1      33.136  29.687  26.116  1.00  0.00     0.118 C 
ENDROOT
BRANCH   1   2
ATOM      2  N   UNL A   1      32.958  31.047  26.600  1.00  0.00    -0.352 N 
ATOM      3  O   UNL A   1      33.228  32.823  27.942  1.00  0.00    -0.269 OA
ATOM      4  C   UNL A   1      33.692  31.772  27.505  1.00  0.00     0.251 C 
ATOM      5  H   UNL A   1      32.188  31.525  26.216  1.00  0.00     0.163 HD
BRANCH   4   6
ATOM      6  C   UNL A   1      35.027  31.311  27.954  1.00  0.00     0.039 A 
ATOM      7  C   UNL A   1      35.164  30.001  28.427  1.00  0.00     0.014 A 
ATOM      8  C   UNL A   1      36.117  32.182  28.005  1.00  0.00     0.014 A 
ATOM      9  C   UNL A   1      36.390  29.566  28.939  1.00  0.00     0.010 A 
ATOM     10  C   UNL A   1      37.360  31.724  28.431  1.00  0.00     0.010 A 
ATOM     11  C   UNL A   1      37.498  30.427  28.947  1.00  0.00    -0.014 A 
BRANCH  11  12
ATOM     12  C   UNL A   1      38.781  30.051  29.594  1.00  0.00     0.031 A 
ATOM     13  C   UNL A   1      39.654  29.018  28.930  1.00  0.00     0.074 A 
ATOM     14  C   UNL A   1      39.134  30.575  30.783  1.00  0.00     0.049 A 
ATOM     15  N   UNL A   1      40.721  28.422  29.390  1.00  0.00    -0.248 NA
ATOM     16  C   UNL A   1      39.259  28.579  27.578  1.00  0.00     0.031 C 
ATOM     17  C   UNL A   1      38.367  31.577  31.520  1.00  0.00     0.029 A 
ATOM     18  N   UNL A   1      40.214  30.318  31.594  1.00  0.00    -0.354 N 
ATOM     19  C   UNL A   1      41.103  27.520  28.404  1.00  0.00     0.074 A 
ATOM     20  C   UNL A   1      40.134  27.613  27.338  1.00  0.00     0.031 C 
ATOM     21  C   UNL A   1      38.997  31.848  32.675  1.00  0.00     0.029 A 
ATOM     22  C   UNL A   1      40.181  30.996  32.792  1.00  0.00     0.049 A 
ATOM     23  H   UNL A   1      40.944  29.707  31.341  1.00  0.00     0.167 HD
ATOM     24  C   UNL A   1      42.182  26.707  28.382  1.00  0.00     0.034 A 
ATOM     25  C   UNL A   1      40.985  30.917  33.873  1.00  0.00     0.034 A 
ATOM     26  C   UNL A   1      43.172  26.671  29.425  1.00  0.00     0.049 A 
ATOM     27  C   UNL A   1      42.182  29.995  33.828  1.00  0.00     0.074 A 
ATOM     28  C   UNL A   1      44.338  25.931  29.460  1.00  0.00     0.029 A 
ATOM     29  N   UNL A   1      43.124  27.406  30.599  1.00  0.00    -0.354 N 
ATOM     30  N   UNL A   1      42.571  29.201  32.858  1.00  0.00    -0.248 NA
ATOM     31  C   UNL A   1      43.057  29.956  35.009  1.00  0.00     0.031 C 
ATOM     32  C   UNL A   1      44.958  26.156  30.685  1.00  0.00     0.029 A 
ATOM     33  C   UNL A   1      44.229  27.110  31.378  1.00  0.00     0.049 A 
ATOM     34  H   UNL A   1      42.413  28.042  30.842  1.00  0.00     0.167 HD
ATOM     35  C   UNL A   1      43.746  28.599  33.299  1.00  0.00     0.074 A 
ATOM     36  C   UNL A   1      44.018  29.130  34.615  1.00  0.00     0.031 C 
ATOM     37  C   UNL A   1      44.523  27.683  32.668  1.00  0.00     0.034 A 
BRANCH  24  38
ATOM     38  C   UNL A   1      42.407  25.802  27.199  1.00  0.00     0.023 A 
ATOM     39  C   UNL A   1      41.938  24.475  27.245  1.00  0.00     0.031 A 
ATOM     40  C   UNL A   1      43.247  26.178  26.139  1.00  0.00     0.131 A 
ATOM     41  C   UNL A   1      42.373  23.553  26.286  1.00  0.00     0.055 A 
ATOM     42  C   UNL A   1      43.634  25.267  25.156  1.00  0.00     0.041 A 
ATOM     43  F   UNL A   1      43.719  27.433  26.053  1.00  0.00    -0.206 F 
ATOM     44  C   UNL A   1      43.214  23.943  25.239  1.00  0.00     0.022 A 
BRANCH  41  45
ATOM     45  S   UNL A   1      41.943  21.797  26.422  1.00  0.00     0.124 S 
ATOM     46  O   UNL A   1      42.306  21.504  27.808  1.00  0.00    -0.237 OA
ATOM     47  O   UNL A   1      40.512  21.811  26.141  1.00  0.00    -0.237 OA
ATOM     48  O   UNL A   1      42.780  21.151  25.415  1.00  0.00    -0.744 OA
ENDBRANCH  41  45
ENDBRANCH  24  38
BRANCH  25  49
ATOM     49  C   UNL A   1      40.680  31.751  35.074  1.00  0.00     0.023 A 
ATOM     50  C   UNL A   1      39.631  31.401  35.945  1.00  0.00     0.031 A 
ATOM     51  C   UNL A   1      41.364  32.953  35.322  1.00  0.00     0.131 A 
ATOM     52  C   UNL A   1      39.252  32.274  36.973  1.00  0.00     0.055 A 
ATOM     53  C   UNL A   1      41.036  33.781  36.398  1.00  0.00     0.041 A 
ATOM     54  F   UNL A   1      42.363  33.342  34.515  1.00  0.00    -0.206 F 
ATOM     55  C   UNL A   1      39.962  33.452  37.219  1.00  0.00     0.022 A 
BRANCH  52  56
ATOM     56  S   UNL A   1      37.738  31.978  37.930  1.00  0.00     0.124 S 
ATOM     57  O   UNL A   1      37.431  30.592  37.595  1.00  0.00    -0.237 OA
ATOM     58  O   UNL A   1      38.199  32.210  39.297  1.00  0.00    -0.237 OA
ATOM     59  O   UNL A   1      36.805  32.976  37.416  1.00  0.00    -0.744 OA
ENDBRANCH  52  56
ENDBRANCH  25  49
BRANCH  37  60
ATOM     60  C   UNL A   1      45.782  27.185  33.336  1.00  0.00     0.023 A 
ATOM     61  C   UNL A   1      45.695  26.146  34.285  1.00  0.00     0.031 A 
ATOM     62  C   UNL A   1      46.993  27.887  33.224  1.00  0.00     0.131 A 
ATOM     63  C   UNL A   1      46.772  25.895  35.143  1.00  0.00     0.055 A 
ATOM     64  C   UNL A   1      48.085  27.590  34.042  1.00  0.00     0.041 A 
ATOM     65  F   UNL A   1      47.121  28.892  32.344  1.00  0.00    -0.206 F 
ATOM     66  C   UNL A   1      47.969  26.607  35.023  1.00  0.00     0.022 A 
BRANCH  63  67
ATOM     67  S   UNL A   1      46.613  24.728  36.524  1.00  0.00     0.124 S 
ATOM     68  O   UNL A   1      47.999  24.324  36.741  1.00  0.00    -0.237 OA
ATOM     69  O   UNL A   1      46.037  25.569  37.570  1.00  0.00    -0.237 OA
ATOM     70  O   UNL A   1      45.737  23.683  36.004  1.00  0.00    -0.744 OA
ENDBRANCH  63  67
ENDBRANCH  37  60
ENDBRANCH  11  12
ENDBRANCH   4   6
ENDBRANCH   1   2
BRANCH   1  71
ATOM     71  C   UNL A   1      31.813  28.964  25.921  1.00  0.00     0.042 C 
BRANCH  71  72
ATOM     72  C   UNL A   1      31.504  28.602  24.478  1.00  0.00     0.118 C 
BRANCH  72  73
ATOM     73  N   UNL A   1      32.547  29.017  23.553  1.00  0.00    -0.352 N 
ATOM     74  C   UNL A   1      33.461  28.243  22.883  1.00  0.00     0.255 C 
ATOM     75  H   UNL A   1      32.606  29.984  23.385  1.00  0.00     0.163 HD
ATOM     76  O   UNL A   1      34.325  28.770  22.186  1.00  0.00    -0.269 OA
BRANCH  74  77
ATOM     77  C   UNL A   1      33.461  26.776  23.046  1.00  0.00     0.081 A 
ATOM     78  C   UNL A   1      33.988  26.260  24.237  1.00  0.00     0.018 A 
ATOM     79  C   UNL A   1      32.981  25.904  22.063  1.00  0.00     0.128 A 
ATOM     80  C   UNL A   1      33.995  24.881  24.461  1.00  0.00     0.010 A 
ATOM     81  C   UNL A   1      32.966  24.531  22.297  1.00  0.00     0.055 A 
ATOM     82  C   UNL A   1      33.476  24.008  23.496  1.00  0.00    -0.014 A 
BRANCH  79  83
ATOM     83  O   UNL A   1      32.525  26.381  20.865  1.00  0.00    -0.507 OA
ATOM     84  H   UNL A   1      31.734  26.041  20.497  1.00  0.00     0.293 HD
ENDBRANCH  79  83
BRANCH  82  85
ATOM     85  C   UNL A   1      33.487  22.545  23.684  1.00  0.00    -0.011 A 
ATOM     86  C   UNL A   1      32.399  21.708  23.213  1.00  0.00     0.027 A 
ATOM     87  C   UNL A   1      34.503  21.975  24.357  1.00  0.00     0.080 A 
ATOM     88  C   UNL A   1      32.381  20.399  23.477  1.00  0.00     0.095 A 
ATOM     89  C   UNL A   1      34.510  20.511  24.634  1.00  0.00     0.255 A 
ATOM     90  N   UNL A   1      33.408  19.803  24.182  1.00  0.00    -0.258 N 
ATOM     91  O   UNL A   1      35.463  20.031  25.241  1.00  0.00    -0.269 OA
BRANCH  90  92
ATOM     92  C   UNL A   1      33.362  18.396  24.486  1.00  0.00     0.451 C 
ATOM     93  F   UNL A   1      32.129  18.021  24.902  1.00  0.00    -0.185 F 
ATOM     94  F   UNL A   1      33.688  17.652  23.403  1.00  0.00    -0.185 F 
ENDBRANCH  90  92
ENDBRANCH  82  85
ENDBRANCH  74  77
ENDBRANCH  72  73
ENDBRANCH  71  72
ENDBRANCH   1  71
TORSDOF 16
ENDMDL
