MODEL 1
REMARK VINA RESULT:     -12.5      0.000      0.000
REMARK SMILES CCC[N@@H+]1CC2(CCN(c3nccnc3C)CC2)C[C@H]1C(=O)NCCCNC(=O)c1ccc(-c2c3nc(c(-c4cc(S(=O)(=O)[O-])ccc4F)c4ccc([nH]4)c(-c4cc(S(=O)(=O)[O-])ccc4F)c4nc(c(-c5cc(S(=O)(=O)[O-])ccc5F)c5ccc2[nH]5)C=C4)C=C3)cc1
REMARK SMILES IDX 25 1 24 2 23 3 21 4 22 5 20 7 4 8 5 9 6 11 19 12 7 13 18 14
REMARK SMILES IDX 8 15 17 16 9 17 3 18 2 19 1 20 10 21 11 22 15 23 12 24 14 25
REMARK SMILES IDX 16 26 13 27 26 28 27 29 28 30 29 32 30 33 31 34 92 35 32 36
REMARK SMILES IDX 91 37 33 38 34 39 35 40 85 41 36 42 90 43 84 44 86 45 37 46
REMARK SMILES IDX 89 47 83 48 82 49 38 51 70 52 50 53 69 54 51 55 54 56 68 57
REMARK SMILES IDX 87 58 52 59 53 60 67 62 88 63 55 64 39 65 40 66 48 67 41 68
REMARK SMILES IDX 47 69 49 70 46 71 42 72 43 73 44 74 45 75 71 76 72 77 80 78
REMARK SMILES IDX 73 79 79 80 81 81 78 82 74 83 75 84 76 85 77 86 56 87 57 88
REMARK SMILES IDX 65 89 58 90 64 91 66 92 63 93 59 94 60 95 61 96 62 97
REMARK H PARENT 23 6 4 10 27 31 86 50 54 61
REMARK Flexibility Score: inf
ROOT
ATOM      1  C   UNL A   1      34.263  21.862  26.622  1.00  0.00     0.042 C 
ENDROOT
BRANCH   1   2
ATOM      2  C   UNL A   1      33.236  22.942  26.906  1.00  0.00     0.118 C 
BRANCH   2   3
ATOM      3  N   UNL A   1      32.013  22.836  26.159  1.00  0.00    -0.351 N 
ATOM      4  C   UNL A   1      31.549  23.609  25.137  1.00  0.00     0.278 C 
ATOM      5  O   UNL A   1      30.556  23.169  24.539  1.00  0.00    -0.268 OA
ATOM      6  H   UNL A   1      31.423  22.095  26.425  1.00  0.00     0.163 HD
BRANCH   4   7
ATOM      7  C   UNL A   1      32.185  24.955  24.675  1.00  0.00     0.274 C 
ATOM      8  N   UNL A   1      32.362  25.018  23.200  1.00  0.00    -0.324 N 
ATOM      9  C   UNL A   1      31.477  26.086  22.708  1.00  0.00     0.270 C 
ATOM     10  H   UNL A   1      32.102  24.152  22.727  1.00  0.00     0.348 HD
ATOM     11  C   UNL A   1      31.117  27.036  23.867  1.00  0.00     0.029 C 
ATOM     12  C   UNL A   1      31.544  26.263  25.131  1.00  0.00     0.088 C 
ATOM     13  C   UNL A   1      29.612  27.403  23.994  1.00  0.00     0.034 C 
ATOM     14  C   UNL A   1      31.885  28.380  23.668  1.00  0.00     0.034 C 
ATOM     15  C   UNL A   1      29.103  28.162  22.783  1.00  0.00     0.119 C 
ATOM     16  C   UNL A   1      31.304  29.231  22.507  1.00  0.00     0.119 C 
ATOM     17  N   UNL A   1      29.876  29.388  22.736  1.00  0.00    -0.355 N 
BRANCH   8  18
ATOM     18  C   UNL A   1      33.792  25.224  22.891  1.00  0.00     0.262 C 
BRANCH  18  19
ATOM     19  C   UNL A   1      34.802  24.317  23.609  1.00  0.00     0.058 C 
ATOM     20  C   UNL A   1      34.913  22.895  23.088  1.00  0.00     0.010 C 
ENDBRANCH  18  19
ENDBRANCH   8  18
BRANCH  17  21
ATOM     21  C   UNL A   1      29.208  30.488  22.229  1.00  0.00     0.150 A 
ATOM     22  N   UNL A   1      28.763  30.446  20.954  1.00  0.00    -0.236 NA
ATOM     23  C   UNL A   1      28.982  31.632  23.031  1.00  0.00     0.080 A 
ATOM     24  C   UNL A   1      28.054  31.519  20.532  1.00  0.00     0.133 A 
ATOM     25  N   UNL A   1      28.281  32.713  22.592  1.00  0.00    -0.256 NA
ATOM     26  C   UNL A   1      29.514  31.721  24.434  1.00  0.00     0.071 C 
ATOM     27  C   UNL A   1      27.818  32.623  21.331  1.00  0.00     0.131 A 
ENDBRANCH  17  21
ENDBRANCH   4   7
ENDBRANCH   2   3
ENDBRANCH   1   2
BRANCH   1  28
ATOM     28  C   UNL A   1      35.682  22.399  26.552  1.00  0.00     0.118 C 
BRANCH  28  29
ATOM     29  N   UNL A   1      36.620  21.432  25.983  1.00  0.00    -0.352 N 
ATOM     30  C   UNL A   1      37.985  21.515  25.797  1.00  0.00     0.251 C 
ATOM     31  H   UNL A   1      36.214  20.587  25.685  1.00  0.00     0.163 HD
ATOM     32  O   UNL A   1      38.554  20.645  25.153  1.00  0.00    -0.269 OA
BRANCH  30  33
ATOM     33  C   UNL A   1      38.741  22.666  26.342  1.00  0.00     0.039 A 
ATOM     34  C   UNL A   1      39.925  22.436  27.050  1.00  0.00     0.014 A 
ATOM     35  C   UNL A   1      38.295  23.973  26.145  1.00  0.00     0.014 A 
ATOM     36  C   UNL A   1      40.699  23.519  27.479  1.00  0.00     0.010 A 
ATOM     37  C   UNL A   1      39.120  25.041  26.463  1.00  0.00     0.010 A 
ATOM     38  C   UNL A   1      40.326  24.830  27.146  1.00  0.00    -0.014 A 
BRANCH  38  39
ATOM     39  C   UNL A   1      41.146  26.010  27.524  1.00  0.00     0.031 A 
ATOM     40  C   UNL A   1      40.542  27.081  28.394  1.00  0.00     0.074 A 
ATOM     41  C   UNL A   1      42.382  26.167  27.013  1.00  0.00     0.049 A 
ATOM     42  N   UNL A   1      41.010  28.260  28.711  1.00  0.00    -0.248 NA
ATOM     43  C   UNL A   1      39.203  26.801  28.936  1.00  0.00     0.031 C 
ATOM     44  C   UNL A   1      43.061  25.219  26.127  1.00  0.00     0.029 A 
ATOM     45  N   UNL A   1      43.285  27.190  27.154  1.00  0.00    -0.354 N 
ATOM     46  C   UNL A   1      40.013  28.872  29.464  1.00  0.00     0.074 A 
ATOM     47  C   UNL A   1      38.885  27.966  29.479  1.00  0.00     0.031 C 
ATOM     48  C   UNL A   1      44.285  25.686  25.835  1.00  0.00     0.029 A 
ATOM     49  C   UNL A   1      44.458  26.992  26.465  1.00  0.00     0.049 A 
ATOM     50  H   UNL A   1      43.109  27.991  27.699  1.00  0.00     0.167 HD
ATOM     51  C   UNL A   1      40.047  30.063  30.112  1.00  0.00     0.034 A 
ATOM     52  C   UNL A   1      45.546  27.779  26.346  1.00  0.00     0.034 A 
ATOM     53  C   UNL A   1      41.190  30.940  30.101  1.00  0.00     0.049 A 
ATOM     54  C   UNL A   1      45.555  29.112  27.051  1.00  0.00     0.074 A 
ATOM     55  C   UNL A   1      41.362  32.148  30.754  1.00  0.00     0.029 A 
ATOM     56  N   UNL A   1      42.365  30.701  29.397  1.00  0.00    -0.354 N 
ATOM     57  N   UNL A   1      44.618  29.665  27.786  1.00  0.00    -0.248 NA
ATOM     58  C   UNL A   1      46.772  29.922  26.914  1.00  0.00     0.031 C 
ATOM     59  C   UNL A   1      42.612  32.667  30.397  1.00  0.00     0.029 A 
ATOM     60  C   UNL A   1      43.254  31.749  29.581  1.00  0.00     0.049 A 
ATOM     61  H   UNL A   1      42.539  29.904  28.847  1.00  0.00     0.167 HD
ATOM     62  C   UNL A   1      45.148  30.874  28.229  1.00  0.00     0.074 A 
ATOM     63  C   UNL A   1      46.488  30.963  27.682  1.00  0.00     0.031 C 
ATOM     64  C   UNL A   1      44.584  31.821  29.021  1.00  0.00     0.034 A 
BRANCH  51  65
ATOM     65  C   UNL A   1      38.798  30.474  30.860  1.00  0.00     0.023 A 
ATOM     66  C   UNL A   1      37.686  31.018  30.191  1.00  0.00     0.031 A 
ATOM     67  C   UNL A   1      38.740  30.394  32.262  1.00  0.00     0.131 A 
ATOM     68  C   UNL A   1      36.620  31.561  30.923  1.00  0.00     0.055 A 
ATOM     69  C   UNL A   1      37.630  30.844  32.981  1.00  0.00     0.041 A 
ATOM     70  F   UNL A   1      39.774  29.904  32.963  1.00  0.00    -0.206 F 
ATOM     71  C   UNL A   1      36.571  31.454  32.314  1.00  0.00     0.022 A 
BRANCH  68  72
ATOM     72  S   UNL A   1      35.402  32.578  30.044  1.00  0.00     0.124 S 
ATOM     73  O   UNL A   1      35.043  31.708  28.926  1.00  0.00    -0.237 OA
ATOM     74  O   UNL A   1      34.370  32.777  31.055  1.00  0.00    -0.237 OA
ATOM     75  O   UNL A   1      36.156  33.774  29.675  1.00  0.00    -0.744 OA
ENDBRANCH  68  72
ENDBRANCH  51  65
BRANCH  52  76
ATOM     76  C   UNL A   1      46.719  27.329  25.546  1.00  0.00     0.023 A 
ATOM     77  C   UNL A   1      46.912  27.797  24.235  1.00  0.00     0.031 A 
ATOM     78  C   UNL A   1      47.650  26.412  26.063  1.00  0.00     0.131 A 
ATOM     79  C   UNL A   1      47.988  27.318  23.473  1.00  0.00     0.055 A 
ATOM     80  C   UNL A   1      48.746  25.974  25.316  1.00  0.00     0.041 A 
ATOM     81  F   UNL A   1      47.516  25.940  27.313  1.00  0.00    -0.206 F 
ATOM     82  C   UNL A   1      48.914  26.420  24.009  1.00  0.00     0.022 A 
BRANCH  79  83
ATOM     83  S   UNL A   1      48.122  27.839  21.740  1.00  0.00     0.124 S 
ATOM     84  O   UNL A   1      48.337  26.565  21.063  1.00  0.00    -0.237 OA
ATOM     85  O   UNL A   1      46.830  28.476  21.515  1.00  0.00    -0.237 OA
ATOM     86  O   UNL A   1      49.269  28.745  21.747  1.00  0.00    -0.744 OA
ENDBRANCH  79  83
ENDBRANCH  52  76
BRANCH  64  87
ATOM     87  C   UNL A   1      45.441  33.007  29.385  1.00  0.00     0.023 A 
ATOM     88  C   UNL A   1      45.510  34.151  28.573  1.00  0.00     0.031 A 
ATOM     89  C   UNL A   1      46.205  32.984  30.566  1.00  0.00     0.131 A 
ATOM     90  C   UNL A   1      46.363  35.208  28.926  1.00  0.00     0.055 A 
ATOM     91  C   UNL A   1      47.007  34.062  30.941  1.00  0.00     0.041 A 
ATOM     92  F   UNL A   1      46.178  31.916  31.377  1.00  0.00    -0.206 F 
ATOM     93  C   UNL A   1      47.098  35.177  30.114  1.00  0.00     0.022 A 
BRANCH  90  94
ATOM     94  S   UNL A   1      46.561  36.591  27.770  1.00  0.00     0.124 S 
ATOM     95  O   UNL A   1      46.634  37.734  28.674  1.00  0.00    -0.237 OA
ATOM     96  O   UNL A   1      47.798  36.245  27.078  1.00  0.00    -0.237 OA
ATOM     97  O   UNL A   1      45.354  36.526  26.947  1.00  0.00    -0.744 OA
ENDBRANCH  90  94
ENDBRANCH  64  87
ENDBRANCH  38  39
ENDBRANCH  30  33
ENDBRANCH  28  29
ENDBRANCH   1  28
TORSDOF 16
ENDMDL
MODEL 2
REMARK VINA RESULT:     -12.3      5.016     10.360
REMARK SMILES CCC[N@@H+]1CC2(CCN(c3nccnc3C)CC2)C[C@H]1C(=O)NCCCNC(=O)c1ccc(-c2c3nc(c(-c4cc(S(=O)(=O)[O-])ccc4F)c4ccc([nH]4)c(-c4cc(S(=O)(=O)[O-])ccc4F)c4nc(c(-c5cc(S(=O)(=O)[O-])ccc5F)c5ccc2[nH]5)C=C4)C=C3)cc1
REMARK SMILES IDX 25 1 24 2 23 3 21 4 22 5 20 7 4 8 5 9 6 11 19 12 7 13 18 14
REMARK SMILES IDX 8 15 17 16 9 17 3 18 2 19 1 20 10 21 11 22 15 23 12 24 14 25
REMARK SMILES IDX 16 26 13 27 26 28 27 29 28 30 29 32 30 33 31 34 92 35 32 36
REMARK SMILES IDX 91 37 33 38 34 39 35 40 85 41 36 42 90 43 84 44 86 45 37 46
REMARK SMILES IDX 89 47 83 48 82 49 38 51 70 52 50 53 69 54 51 55 54 56 68 57
REMARK SMILES IDX 87 58 52 59 53 60 67 62 88 63 55 64 39 65 40 66 48 67 41 68
REMARK SMILES IDX 47 69 49 70 46 71 42 72 43 73 44 74 45 75 71 76 72 77 80 78
REMARK SMILES IDX 73 79 79 80 81 81 78 82 74 83 75 84 76 85 77 86 56 87 57 88
REMARK SMILES IDX 65 89 58 90 64 91 66 92 63 93 59 94 60 95 61 96 62 97
REMARK H PARENT 23 6 4 10 27 31 86 50 54 61
REMARK Flexibility Score: inf
ROOT
ATOM      1  C   UNL A   1      33.285  29.178  23.733  1.00  0.00     0.042 C 
ENDROOT
BRANCH   1   2
ATOM      2  C   UNL A   1      31.923  28.995  23.087  1.00  0.00     0.118 C 
BRANCH   2   3
ATOM      3  N   UNL A   1      31.864  27.994  22.058  1.00  0.00    -0.351 N 
ATOM      4  C   UNL A   1      31.725  26.643  22.166  1.00  0.00     0.278 C 
ATOM      5  O   UNL A   1      31.500  26.039  21.107  1.00  0.00    -0.268 OA
ATOM      6  H   UNL A   1      31.934  28.336  21.137  1.00  0.00     0.163 HD
BRANCH   4   7
ATOM      7  C   UNL A   1      31.805  25.841  23.501  1.00  0.00     0.274 C 
ATOM      8  N   UNL A   1      30.549  25.099  23.788  1.00  0.00    -0.324 N 
ATOM      9  C   UNL A   1      30.876  23.665  23.733  1.00  0.00     0.270 C 
ATOM     10  H   UNL A   1      29.811  25.279  23.107  1.00  0.00     0.348 HD
ATOM     11  C   UNL A   1      32.395  23.474  23.912  1.00  0.00     0.029 C 
ATOM     12  C   UNL A   1      32.977  24.887  23.712  1.00  0.00     0.088 C 
ATOM     13  C   UNL A   1      33.075  22.509  22.900  1.00  0.00     0.034 C 
ATOM     14  C   UNL A   1      32.660  22.884  25.333  1.00  0.00     0.034 C 
ATOM     15  C   UNL A   1      32.553  21.090  23.021  1.00  0.00     0.119 C 
ATOM     16  C   UNL A   1      32.242  21.392  25.445  1.00  0.00     0.119 C 
ATOM     17  N   UNL A   1      32.889  20.662  24.365  1.00  0.00    -0.355 N 
BRANCH   8  18
ATOM     18  C   UNL A   1      30.006  25.549  25.087  1.00  0.00     0.262 C 
BRANCH  18  19
ATOM     19  C   UNL A   1      30.746  26.691  25.799  1.00  0.00     0.058 C 
ATOM     20  C   UNL A   1      31.728  26.280  26.881  1.00  0.00     0.010 C 
ENDBRANCH  18  19
ENDBRANCH   8  18
BRANCH  17  21
ATOM     21  C   UNL A   1      33.160  19.313  24.506  1.00  0.00     0.150 A 
ATOM     22  N   UNL A   1      32.131  18.439  24.495  1.00  0.00    -0.236 NA
ATOM     23  C   UNL A   1      34.492  18.853  24.644  1.00  0.00     0.080 A 
ATOM     24  C   UNL A   1      32.458  17.127  24.562  1.00  0.00     0.133 A 
ATOM     25  N   UNL A   1      34.810  17.532  24.727  1.00  0.00    -0.256 NA
ATOM     26  C   UNL A   1      35.648  19.811  24.711  1.00  0.00     0.071 C 
ATOM     27  C   UNL A   1      33.764  16.685  24.675  1.00  0.00     0.131 A 
ENDBRANCH  17  21
ENDBRANCH   4   7
ENDBRANCH   2   3
ENDBRANCH   1   2
BRANCH   1  28
ATOM     28  C   UNL A   1      33.225  29.164  25.251  1.00  0.00     0.118 C 
BRANCH  28  29
ATOM     29  N   UNL A   1      32.689  30.408  25.802  1.00  0.00    -0.352 N 
ATOM     30  C   UNL A   1      33.150  31.200  26.834  1.00  0.00     0.251 C 
ATOM     31  H   UNL A   1      31.867  30.732  25.368  1.00  0.00     0.163 HD
ATOM     32  O   UNL A   1      32.454  32.121  27.237  1.00  0.00    -0.269 OA
BRANCH  30  33
ATOM     33  C   UNL A   1      34.458  30.909  27.467  1.00  0.00     0.039 A 
ATOM     34  C   UNL A   1      35.379  31.947  27.644  1.00  0.00     0.014 A 
ATOM     35  C   UNL A   1      34.773  29.621  27.898  1.00  0.00     0.014 A 
ATOM     36  C   UNL A   1      36.572  31.705  28.332  1.00  0.00     0.010 A 
ATOM     37  C   UNL A   1      35.897  29.410  28.683  1.00  0.00     0.010 A 
ATOM     38  C   UNL A   1      36.818  30.445  28.899  1.00  0.00    -0.014 A 
BRANCH  38  39
ATOM     39  C   UNL A   1      38.042  30.155  29.691  1.00  0.00     0.031 A 
ATOM     40  C   UNL A   1      39.070  29.203  29.140  1.00  0.00     0.074 A 
ATOM     41  C   UNL A   1      38.180  30.661  30.932  1.00  0.00     0.049 A 
ATOM     42  N   UNL A   1      40.121  28.684  29.719  1.00  0.00    -0.248 NA
ATOM     43  C   UNL A   1      38.851  28.734  27.762  1.00  0.00     0.031 C 
ATOM     44  C   UNL A   1      37.232  31.562  31.591  1.00  0.00     0.029 A 
ATOM     45  N   UNL A   1      39.167  30.479  31.866  1.00  0.00    -0.354 N 
ATOM     46  C   UNL A   1      40.671  27.808  28.789  1.00  0.00     0.074 A 
ATOM     47  C   UNL A   1      39.785  27.804  27.645  1.00  0.00     0.031 C 
ATOM     48  C   UNL A   1      37.702  31.883  32.807  1.00  0.00     0.029 A 
ATOM     49  C   UNL A   1      38.954  31.169  33.037  1.00  0.00     0.049 A 
ATOM     50  H   UNL A   1      39.954  29.909  31.713  1.00  0.00     0.167 HD
ATOM     51  C   UNL A   1      41.824  27.098  28.867  1.00  0.00     0.034 A 
ATOM     52  C   UNL A   1      39.681  31.211  34.171  1.00  0.00     0.034 A 
ATOM     53  C   UNL A   1      42.702  27.134  30.010  1.00  0.00     0.049 A 
ATOM     54  C   UNL A   1      40.946  30.394  34.250  1.00  0.00     0.074 A 
ATOM     55  C   UNL A   1      43.917  26.497  30.188  1.00  0.00     0.029 A 
ATOM     56  N   UNL A   1      42.456  27.850  31.175  1.00  0.00    -0.354 N 
ATOM     57  N   UNL A   1      41.472  29.594  33.352  1.00  0.00    -0.248 NA
ATOM     58  C   UNL A   1      41.718  30.494  35.496  1.00  0.00     0.031 C 
ATOM     59  C   UNL A   1      44.375  26.780  31.481  1.00  0.00     0.029 A 
ATOM     60  C   UNL A   1      43.484  27.653  32.084  1.00  0.00     0.049 A 
ATOM     61  H   UNL A   1      41.666  28.417  31.332  1.00  0.00     0.167 HD
ATOM     62  C   UNL A   1      42.656  29.122  33.911  1.00  0.00     0.074 A 
ATOM     63  C   UNL A   1      42.768  29.733  35.220  1.00  0.00     0.031 C 
ATOM     64  C   UNL A   1      43.572  28.268  33.388  1.00  0.00     0.034 A 
BRANCH  51  65
ATOM     65  C   UNL A   1      42.171  26.218  27.687  1.00  0.00     0.023 A 
ATOM     66  C   UNL A   1      41.687  24.900  27.586  1.00  0.00     0.031 A 
ATOM     67  C   UNL A   1      43.052  26.667  26.689  1.00  0.00     0.131 A 
ATOM     68  C   UNL A   1      42.170  24.048  26.583  1.00  0.00     0.055 A 
ATOM     69  C   UNL A   1      43.452  25.843  25.633  1.00  0.00     0.041 A 
ATOM     70  F   UNL A   1      43.566  27.906  26.736  1.00  0.00    -0.206 F 
ATOM     71  C   UNL A   1      43.030  24.518  25.588  1.00  0.00     0.022 A 
BRANCH  68  72
ATOM     72  S   UNL A   1      41.814  22.273  26.716  1.00  0.00     0.124 S 
ATOM     73  O   UNL A   1      42.695  21.877  27.812  1.00  0.00    -0.237 OA
ATOM     74  O   UNL A   1      40.385  22.260  27.008  1.00  0.00    -0.237 OA
ATOM     75  O   UNL A   1      42.190  21.749  25.404  1.00  0.00    -0.744 OA
ENDBRANCH  68  72
ENDBRANCH  51  65
BRANCH  52  76
ATOM     76  C   UNL A   1      39.247  32.060  35.315  1.00  0.00     0.023 A 
ATOM     77  C   UNL A   1      39.779  33.348  35.493  1.00  0.00     0.031 A 
ATOM     78  C   UNL A   1      38.315  31.595  36.259  1.00  0.00     0.131 A 
ATOM     79  C   UNL A   1      39.405  34.112  36.609  1.00  0.00     0.055 A 
ATOM     80  C   UNL A   1      37.910  32.379  37.343  1.00  0.00     0.041 A 
ATOM     81  F   UNL A   1      37.770  30.375  36.131  1.00  0.00    -0.206 F 
ATOM     82  C   UNL A   1      38.464  33.641  37.527  1.00  0.00     0.022 A 
BRANCH  79  83
ATOM     83  S   UNL A   1      40.219  35.711  36.877  1.00  0.00     0.124 S 
ATOM     84  O   UNL A   1      39.794  36.037  38.233  1.00  0.00    -0.237 OA
ATOM     85  O   UNL A   1      41.627  35.365  36.710  1.00  0.00    -0.237 OA
ATOM     86  O   UNL A   1      39.659  36.557  35.825  1.00  0.00    -0.744 OA
ENDBRANCH  79  83
ENDBRANCH  52  76
BRANCH  64  87
ATOM     87  C   UNL A   1      44.802  27.992  34.218  1.00  0.00     0.023 A 
ATOM     88  C   UNL A   1      44.888  26.879  35.071  1.00  0.00     0.031 A 
ATOM     89  C   UNL A   1      45.902  28.866  34.152  1.00  0.00     0.131 A 
ATOM     90  C   UNL A   1      46.031  26.695  35.863  1.00  0.00     0.055 A 
ATOM     91  C   UNL A   1      47.059  28.645  34.900  1.00  0.00     0.041 A 
ATOM     92  F   UNL A   1      45.872  29.945  33.356  1.00  0.00    -0.206 F 
ATOM     93  C   UNL A   1      47.124  27.561  35.770  1.00  0.00     0.022 A 
BRANCH  90  94
ATOM     94  S   UNL A   1      46.039  25.350  37.080  1.00  0.00     0.124 S 
ATOM     95  O   UNL A   1      44.633  24.959  37.109  1.00  0.00    -0.237 OA
ATOM     96  O   UNL A   1      46.957  24.389  36.479  1.00  0.00    -0.237 OA
ATOM     97  O   UNL A   1      46.528  25.994  38.299  1.00  0.00    -0.744 OA
ENDBRANCH  90  94
ENDBRANCH  64  87
ENDBRANCH  38  39
ENDBRANCH  30  33
ENDBRANCH  28  29
ENDBRANCH   1  28
TORSDOF 16
ENDMDL
MODEL 3
REMARK VINA RESULT:     -12.3      5.185     10.743
REMARK SMILES CCC[N@@H+]1CC2(CCN(c3nccnc3C)CC2)C[C@H]1C(=O)NCCCNC(=O)c1ccc(-c2c3nc(c(-c4cc(S(=O)(=O)[O-])ccc4F)c4ccc([nH]4)c(-c4cc(S(=O)(=O)[O-])ccc4F)c4nc(c(-c5cc(S(=O)(=O)[O-])ccc5F)c5ccc2[nH]5)C=C4)C=C3)cc1
REMARK SMILES IDX 25 1 24 2 23 3 21 4 22 5 20 7 4 8 5 9 6 11 19 12 7 13 18 14
REMARK SMILES IDX 8 15 17 16 9 17 3 18 2 19 1 20 10 21 11 22 15 23 12 24 14 25
REMARK SMILES IDX 16 26 13 27 26 28 27 29 28 30 29 32 30 33 31 34 92 35 32 36
REMARK SMILES IDX 91 37 33 38 34 39 35 40 85 41 36 42 90 43 84 44 86 45 37 46
REMARK SMILES IDX 89 47 83 48 82 49 38 51 70 52 50 53 69 54 51 55 54 56 68 57
REMARK SMILES IDX 87 58 52 59 53 60 67 62 88 63 55 64 39 65 40 66 48 67 41 68
REMARK SMILES IDX 47 69 49 70 46 71 42 72 43 73 44 74 45 75 71 76 72 77 80 78
REMARK SMILES IDX 73 79 79 80 81 81 78 82 74 83 75 84 76 85 77 86 56 87 57 88
REMARK SMILES IDX 65 89 58 90 64 91 66 92 63 93 59 94 60 95 61 96 62 97
REMARK H PARENT 23 6 4 10 27 31 86 50 54 61
REMARK Flexibility Score: inf
ROOT
ATOM      1  C   UNL A   1      31.079  31.608  25.788  1.00  0.00     0.042 C 
ENDROOT
BRANCH   1   2
ATOM      2  C   UNL A   1      31.092  30.149  25.369  1.00  0.00     0.118 C 
BRANCH   2   3
ATOM      3  N   UNL A   1      30.660  29.894  24.023  1.00  0.00    -0.351 N 
ATOM      4  C   UNL A   1      31.091  28.955  23.134  1.00  0.00     0.278 C 
ATOM      5  O   UNL A   1      30.403  28.827  22.111  1.00  0.00    -0.268 OA
ATOM      6  H   UNL A   1      29.946  30.487  23.693  1.00  0.00     0.163 HD
BRANCH   4   7
ATOM      7  C   UNL A   1      32.341  28.045  23.333  1.00  0.00     0.274 C 
ATOM      8  N   UNL A   1      32.596  27.742  24.766  1.00  0.00    -0.324 N 
ATOM      9  C   UNL A   1      32.395  26.295  24.941  1.00  0.00     0.270 C 
ATOM     10  H   UNL A   1      31.958  28.226  25.398  1.00  0.00     0.348 HD
ATOM     11  C   UNL A   1      32.508  25.588  23.576  1.00  0.00     0.029 C 
ATOM     12  C   UNL A   1      32.425  26.737  22.551  1.00  0.00     0.088 C 
ATOM     13  C   UNL A   1      31.389  24.556  23.258  1.00  0.00     0.034 C 
ATOM     14  C   UNL A   1      33.858  24.805  23.529  1.00  0.00     0.034 C 
ATOM     15  C   UNL A   1      31.392  23.390  24.228  1.00  0.00     0.119 C 
ATOM     16  C   UNL A   1      33.842  23.537  24.425  1.00  0.00     0.119 C 
ATOM     17  N   UNL A   1      32.678  22.744  24.060  1.00  0.00    -0.355 N 
BRANCH   8  18
ATOM     18  C   UNL A   1      33.948  28.217  25.129  1.00  0.00     0.262 C 
BRANCH  18  19
ATOM     19  C   UNL A   1      34.303  28.251  26.623  1.00  0.00     0.058 C 
ATOM     20  C   UNL A   1      34.806  29.578  27.160  1.00  0.00     0.010 C 
ENDBRANCH  18  19
ENDBRANCH   8  18
BRANCH  17  21
ATOM     21  C   UNL A   1      32.682  21.375  24.259  1.00  0.00     0.150 A 
ATOM     22  N   UNL A   1      33.037  20.896  25.471  1.00  0.00    -0.236 NA
ATOM     23  C   UNL A   1      32.308  20.491  23.219  1.00  0.00     0.080 A 
ATOM     24  C   UNL A   1      32.954  19.555  25.633  1.00  0.00     0.133 A 
ATOM     25  N   UNL A   1      32.242  19.142  23.387  1.00  0.00    -0.256 NA
ATOM     26  C   UNL A   1      31.960  20.998  21.848  1.00  0.00     0.071 C 
ATOM     27  C   UNL A   1      32.565  18.700  24.618  1.00  0.00     0.131 A 
ENDBRANCH  17  21
ENDBRANCH   4   7
ENDBRANCH   2   3
ENDBRANCH   1   2
BRANCH   1  28
ATOM     28  C   UNL A   1      32.103  31.924  26.863  1.00  0.00     0.118 C 
BRANCH  28  29
ATOM     29  N   UNL A   1      32.157  33.350  27.184  1.00  0.00    -0.352 N 
ATOM     30  C   UNL A   1      33.032  34.052  27.988  1.00  0.00     0.251 C 
ATOM     31  H   UNL A   1      31.457  33.897  26.760  1.00  0.00     0.163 HD
ATOM     32  O   UNL A   1      32.798  35.224  28.245  1.00  0.00    -0.269 OA
BRANCH  30  33
ATOM     33  C   UNL A   1      34.221  33.377  28.560  1.00  0.00     0.039 A 
ATOM     34  C   UNL A   1      35.490  33.680  28.056  1.00  0.00     0.014 A 
ATOM     35  C   UNL A   1      34.089  32.458  29.601  1.00  0.00     0.014 A 
ATOM     36  C   UNL A   1      36.625  33.127  28.657  1.00  0.00     0.010 A 
ATOM     37  C   UNL A   1      35.216  32.006  30.271  1.00  0.00     0.010 A 
ATOM     38  C   UNL A   1      36.499  32.323  29.801  1.00  0.00    -0.014 A 
BRANCH  38  39
ATOM     39  C   UNL A   1      37.677  31.762  30.512  1.00  0.00     0.031 A 
ATOM     40  C   UNL A   1      38.525  30.721  29.831  1.00  0.00     0.074 A 
ATOM     41  C   UNL A   1      37.923  32.109  31.790  1.00  0.00     0.049 A 
ATOM     42  N   UNL A   1      39.491  29.985  30.315  1.00  0.00    -0.248 NA
ATOM     43  C   UNL A   1      38.202  30.438  28.423  1.00  0.00     0.031 C 
ATOM     44  C   UNL A   1      37.149  33.076  32.572  1.00  0.00     0.029 A 
ATOM     45  N   UNL A   1      38.888  31.677  32.664  1.00  0.00    -0.354 N 
ATOM     46  C   UNL A   1      39.870  29.133  29.283  1.00  0.00     0.074 A 
ATOM     47  C   UNL A   1      38.971  29.388  28.178  1.00  0.00     0.031 C 
ATOM     48  C   UNL A   1      37.692  33.191  33.794  1.00  0.00     0.029 A 
ATOM     49  C   UNL A   1      38.816  32.267  33.904  1.00  0.00     0.049 A 
ATOM     50  H   UNL A   1      39.569  31.008  32.424  1.00  0.00     0.167 HD
ATOM     51  C   UNL A   1      40.895  28.246  29.245  1.00  0.00     0.034 A 
ATOM     52  C   UNL A   1      39.566  32.076  35.008  1.00  0.00     0.034 A 
ATOM     53  C   UNL A   1      41.792  28.023  30.352  1.00  0.00     0.049 A 
ATOM     54  C   UNL A   1      40.684  31.065  34.957  1.00  0.00     0.074 A 
ATOM     55  C   UNL A   1      42.893  27.186  30.419  1.00  0.00     0.029 A 
ATOM     56  N   UNL A   1      41.692  28.646  31.590  1.00  0.00    -0.354 N 
ATOM     57  N   UNL A   1      41.052  30.289  33.964  1.00  0.00    -0.248 NA
ATOM     58  C   UNL A   1      41.489  30.912  36.175  1.00  0.00     0.031 C 
ATOM     59  C   UNL A   1      43.419  27.258  31.714  1.00  0.00     0.029 A 
ATOM     60  C   UNL A   1      42.695  28.195  32.434  1.00  0.00     0.049 A 
ATOM     61  H   UNL A   1      41.008  29.311  31.832  1.00  0.00     0.167 HD
ATOM     62  C   UNL A   1      42.157  29.580  34.428  1.00  0.00     0.074 A 
ATOM     63  C   UNL A   1      42.396  30.027  35.786  1.00  0.00     0.031 C 
ATOM     64  C   UNL A   1      42.911  28.650  33.788  1.00  0.00     0.034 A 
BRANCH  51  65
ATOM     65  C   UNL A   1      41.068  27.448  27.972  1.00  0.00     0.023 A 
ATOM     66  C   UNL A   1      40.709  26.089  27.901  1.00  0.00     0.031 A 
ATOM     67  C   UNL A   1      41.666  28.024  26.838  1.00  0.00     0.131 A 
ATOM     68  C   UNL A   1      41.050  25.329  26.774  1.00  0.00     0.055 A 
ATOM     69  C   UNL A   1      41.911  27.285  25.678  1.00  0.00     0.041 A 
ATOM     70  F   UNL A   1      42.050  29.310  26.845  1.00  0.00    -0.206 F 
ATOM     71  C   UNL A   1      41.625  25.923  25.649  1.00  0.00     0.022 A 
BRANCH  68  72
ATOM     72  S   UNL A   1      40.911  23.522  26.880  1.00  0.00     0.124 S 
ATOM     73  O   UNL A   1      41.762  23.096  25.772  1.00  0.00    -0.237 OA
ATOM     74  O   UNL A   1      41.419  23.245  28.219  1.00  0.00    -0.237 OA
ATOM     75  O   UNL A   1      39.483  23.276  26.689  1.00  0.00    -0.744 OA
ENDBRANCH  68  72
ENDBRANCH  51  65
BRANCH  52  76
ATOM     76  C   UNL A   1      39.301  32.861  36.245  1.00  0.00     0.023 A 
ATOM     77  C   UNL A   1      38.476  32.344  37.258  1.00  0.00     0.031 A 
ATOM     78  C   UNL A   1      39.844  34.145  36.428  1.00  0.00     0.131 A 
ATOM     79  C   UNL A   1      38.186  33.120  38.390  1.00  0.00     0.055 A 
ATOM     80  C   UNL A   1      39.591  34.895  37.580  1.00  0.00     0.041 A 
ATOM     81  F   UNL A   1      40.645  34.683  35.495  1.00  0.00    -0.206 F 
ATOM     82  C   UNL A   1      38.749  34.386  38.564  1.00  0.00     0.022 A 
BRANCH  79  83
ATOM     83  S   UNL A   1      37.006  32.473  39.606  1.00  0.00     0.124 S 
ATOM     84  O   UNL A   1      37.434  31.083  39.724  1.00  0.00    -0.237 OA
ATOM     85  O   UNL A   1      37.265  33.324  40.762  1.00  0.00    -0.237 OA
ATOM     86  O   UNL A   1      35.710  32.676  38.962  1.00  0.00    -0.744 OA
ENDBRANCH  79  83
ENDBRANCH  52  76
BRANCH  64  87
ATOM     87  C   UNL A   1      44.098  28.098  34.539  1.00  0.00     0.023 A 
ATOM     88  C   UNL A   1      44.025  26.898  35.265  1.00  0.00     0.031 A 
ATOM     89  C   UNL A   1      45.321  28.794  34.526  1.00  0.00     0.131 A 
ATOM     90  C   UNL A   1      45.141  26.453  35.991  1.00  0.00     0.055 A 
ATOM     91  C   UNL A   1      46.443  28.316  35.203  1.00  0.00     0.041 A 
ATOM     92  F   UNL A   1      45.444  29.946  33.850  1.00  0.00    -0.206 F 
ATOM     93  C   UNL A   1      46.354  27.146  35.950  1.00  0.00     0.022 A 
BRANCH  90  94
ATOM     94  S   UNL A   1      44.961  24.998  37.058  1.00  0.00     0.124 S 
ATOM     95  O   UNL A   1      44.071  24.151  36.269  1.00  0.00    -0.237 OA
ATOM     96  O   UNL A   1      46.337  24.531  37.186  1.00  0.00    -0.237 OA
ATOM     97  O   UNL A   1      44.375  25.541  38.283  1.00  0.00    -0.744 OA
ENDBRANCH  90  94
ENDBRANCH  64  87
ENDBRANCH  38  39
ENDBRANCH  30  33
ENDBRANCH  28  29
ENDBRANCH   1  28
TORSDOF 16
ENDMDL
