MODEL 1
REMARK VINA RESULT:     -14.2      0.000      0.000
REMARK SMILES Cc1ccccc1C(=O)Nc1ccc(N2CCCCC2)cc1C(=O)NCCCNC(=O)c1ccc(-c2c3nc(c(-c4cc(S(=O)(=O)[O-])ccc4F)c4ccc([nH]4)c(-c4cc(S(=O)(=O)[O-])ccc4F)c4nc(c(-c5cc(S(=O)(=O)[O-])ccc5F)c5ccc2[nH]5)C=C4)C=C3)cc1
REMARK SMILES IDX 27 1 26 2 25 3 23 4 24 5 22 7 11 8 12 9 13 10 21 11 14 12
REMARK SMILES IDX 10 13 8 14 9 15 7 17 1 18 2 19 3 20 4 21 6 22 5 23 15 24
REMARK SMILES IDX 16 25 20 26 17 27 19 28 18 29 28 30 29 31 30 32 31 34 32 35
REMARK SMILES IDX 33 36 94 37 34 38 93 39 35 40 36 41 37 42 87 43 38 44 92 45
REMARK SMILES IDX 86 46 88 47 39 48 91 49 85 50 84 51 40 53 72 54 52 55 71 56
REMARK SMILES IDX 53 57 56 58 70 59 89 60 54 61 55 62 69 64 90 65 57 66 41 67
REMARK SMILES IDX 42 68 50 69 43 70 49 71 51 72 48 73 44 74 45 75 46 76 47 77
REMARK SMILES IDX 73 78 74 79 82 80 75 81 81 82 83 83 80 84 76 85 77 86 78 87
REMARK SMILES IDX 79 88 58 89 59 90 67 91 60 92 66 93 68 94 65 95 61 96 62 97
REMARK SMILES IDX 63 98 64 99
REMARK H PARENT 25 6 10 16 29 33 88 52 56 63
REMARK Flexibility Score: inf
ROOT
ATOM      1  C   UNL A   1      33.021  31.388  27.620  1.00  0.00     0.042 C 
ENDROOT
BRANCH   1   2
ATOM      2  C   UNL A   1      32.326  30.267  26.875  1.00  0.00     0.118 C 
BRANCH   2   3
ATOM      3  N   UNL A   1      33.211  29.158  26.529  1.00  0.00    -0.352 N 
ATOM      4  C   UNL A   1      32.970  27.987  25.835  1.00  0.00     0.253 C 
ATOM      5  O   UNL A   1      33.853  27.141  25.727  1.00  0.00    -0.269 OA
ATOM      6  H   UNL A   1      34.137  29.261  26.847  1.00  0.00     0.163 HD
BRANCH   4   7
ATOM      7  C   UNL A   1      31.656  27.745  25.175  1.00  0.00     0.065 A 
ATOM      8  C   UNL A   1      30.865  26.612  25.415  1.00  0.00     0.054 A 
ATOM      9  C   UNL A   1      29.703  26.423  24.648  1.00  0.00     0.029 A 
ATOM     10  C   UNL A   1      29.224  27.439  23.827  1.00  0.00     0.028 A 
ATOM     11  C   UNL A   1      31.241  28.646  24.174  1.00  0.00     0.042 A 
ATOM     12  C   UNL A   1      29.956  28.608  23.636  1.00  0.00     0.038 A 
BRANCH   8  13
ATOM     13  N   UNL A   1      31.056  25.605  26.371  1.00  0.00    -0.321 N 
ATOM     14  C   UNL A   1      31.701  24.396  26.368  1.00  0.00     0.255 C 
ATOM     15  O   UNL A   1      31.601  23.713  27.395  1.00  0.00    -0.269 OA
ATOM     16  H   UNL A   1      30.632  25.812  27.236  1.00  0.00     0.170 HD
BRANCH  14  17
ATOM     17  C   UNL A   1      32.638  23.921  25.314  1.00  0.00     0.043 A 
ATOM     18  C   UNL A   1      30.885  23.456  23.476  1.00  0.00     0.045 C 
ATOM     19  C   UNL A   1      32.288  23.547  23.998  1.00  0.00    -0.038 A 
ATOM     20  C   UNL A   1      33.319  23.261  23.079  1.00  0.00     0.004 A 
ATOM     21  C   UNL A   1      34.662  23.418  23.420  1.00  0.00     0.000 A 
ATOM     22  C   UNL A   1      34.000  24.083  25.634  1.00  0.00     0.014 A 
ATOM     23  C   UNL A   1      35.003  23.842  24.696  1.00  0.00     0.001 A 
ENDBRANCH  14  17
ENDBRANCH   8  13
BRANCH  12  24
ATOM     24  N   UNL A   1      29.353  29.712  23.031  1.00  0.00    -0.372 N 
ATOM     25  C   UNL A   1      29.415  30.929  23.862  1.00  0.00     0.116 C 
ATOM     26  C   UNL A   1      29.557  29.958  21.598  1.00  0.00     0.116 C 
ATOM     27  C   UNL A   1      28.339  31.912  23.415  1.00  0.00     0.021 C 
ATOM     28  C   UNL A   1      28.475  30.918  21.101  1.00  0.00     0.021 C 
ATOM     29  C   UNL A   1      28.440  32.208  21.922  1.00  0.00     0.004 C 
ENDBRANCH  12  24
ENDBRANCH   4   7
ENDBRANCH   2   3
ENDBRANCH   1   2
BRANCH   1  30
ATOM     30  C   UNL A   1      34.534  31.275  27.554  1.00  0.00     0.118 C 
BRANCH  30  31
ATOM     31  N   UNL A   1      35.178  31.929  28.701  1.00  0.00    -0.352 N 
ATOM     32  C   UNL A   1      36.226  31.480  29.490  1.00  0.00     0.251 C 
ATOM     33  H   UNL A   1      34.813  32.810  28.945  1.00  0.00     0.163 HD
ATOM     34  O   UNL A   1      36.690  32.126  30.404  1.00  0.00    -0.269 OA
BRANCH  32  35
ATOM     35  C   UNL A   1      36.816  30.181  29.114  1.00  0.00     0.039 A 
ATOM     36  C   UNL A   1      36.998  29.253  30.145  1.00  0.00     0.014 A 
ATOM     37  C   UNL A   1      37.521  30.101  27.915  1.00  0.00     0.014 A 
ATOM     38  C   UNL A   1      38.073  28.377  30.072  1.00  0.00     0.010 A 
ATOM     39  C   UNL A   1      38.639  29.286  27.887  1.00  0.00     0.010 A 
ATOM     40  C   UNL A   1      38.959  28.487  28.998  1.00  0.00    -0.014 A 
BRANCH  40  41
ATOM     41  C   UNL A   1      40.320  27.956  29.052  1.00  0.00     0.031 A 
ATOM     42  C   UNL A   1      40.612  26.579  28.605  1.00  0.00     0.074 A 
ATOM     43  C   UNL A   1      41.348  28.719  29.489  1.00  0.00     0.049 A 
ATOM     44  N   UNL A   1      41.606  25.876  29.033  1.00  0.00    -0.248 NA
ATOM     45  C   UNL A   1      39.764  25.858  27.666  1.00  0.00     0.031 C 
ATOM     46  C   UNL A   1      42.776  28.437  29.346  1.00  0.00     0.029 A 
ATOM     47  N   UNL A   1      41.296  29.785  30.386  1.00  0.00    -0.354 N 
ATOM     48  C   UNL A   1      41.713  24.769  28.227  1.00  0.00     0.074 A 
ATOM     49  C   UNL A   1      40.495  24.761  27.451  1.00  0.00     0.031 C 
ATOM     50  C   UNL A   1      43.450  29.101  30.294  1.00  0.00     0.029 A 
ATOM     51  C   UNL A   1      42.475  29.735  31.158  1.00  0.00     0.049 A 
ATOM     52  H   UNL A   1      40.573  30.449  30.465  1.00  0.00     0.167 HD
ATOM     53  C   UNL A   1      42.883  24.069  28.200  1.00  0.00     0.034 A 
ATOM     54  C   UNL A   1      42.449  29.656  32.519  1.00  0.00     0.034 A 
ATOM     55  C   UNL A   1      43.871  24.610  29.138  1.00  0.00     0.049 A 
ATOM     56  C   UNL A   1      43.181  28.458  33.078  1.00  0.00     0.074 A 
ATOM     57  C   UNL A   1      45.010  25.381  28.972  1.00  0.00     0.029 A 
ATOM     58  N   UNL A   1      43.625  24.571  30.504  1.00  0.00    -0.354 N 
ATOM     59  N   UNL A   1      43.561  27.435  32.366  1.00  0.00    -0.248 NA
ATOM     60  C   UNL A   1      43.505  28.296  34.490  1.00  0.00     0.031 C 
ATOM     61  C   UNL A   1      45.462  25.788  30.254  1.00  0.00     0.029 A 
ATOM     62  C   UNL A   1      44.603  25.259  31.199  1.00  0.00     0.049 A 
ATOM     63  H   UNL A   1      42.859  24.116  30.922  1.00  0.00     0.167 HD
ATOM     64  C   UNL A   1      44.140  26.484  33.176  1.00  0.00     0.074 A 
ATOM     65  C   UNL A   1      44.082  27.081  34.500  1.00  0.00     0.031 C 
ATOM     66  C   UNL A   1      44.589  25.296  32.660  1.00  0.00     0.034 A 
BRANCH  53  67
ATOM     67  C   UNL A   1      43.254  23.082  27.109  1.00  0.00     0.023 A 
ATOM     68  C   UNL A   1      42.716  21.778  27.151  1.00  0.00     0.031 A 
ATOM     69  C   UNL A   1      44.143  23.325  26.046  1.00  0.00     0.131 A 
ATOM     70  C   UNL A   1      43.152  20.770  26.273  1.00  0.00     0.055 A 
ATOM     71  C   UNL A   1      44.626  22.309  25.208  1.00  0.00     0.041 A 
ATOM     72  F   UNL A   1      44.539  24.562  25.723  1.00  0.00    -0.206 F 
ATOM     73  C   UNL A   1      44.144  21.016  25.331  1.00  0.00     0.022 A 
BRANCH  70  74
ATOM     74  S   UNL A   1      42.400  19.123  26.383  1.00  0.00     0.124 S 
ATOM     75  O   UNL A   1      42.324  18.912  27.825  1.00  0.00    -0.237 OA
ATOM     76  O   UNL A   1      41.131  19.318  25.689  1.00  0.00    -0.237 OA
ATOM     77  O   UNL A   1      43.358  18.267  25.684  1.00  0.00    -0.744 OA
ENDBRANCH  70  74
ENDBRANCH  53  67
BRANCH  54  78
ATOM     78  C   UNL A   1      41.252  30.312  33.116  1.00  0.00     0.023 A 
ATOM     79  C   UNL A   1      41.267  31.722  33.185  1.00  0.00     0.031 A 
ATOM     80  C   UNL A   1      40.016  29.661  33.204  1.00  0.00     0.131 A 
ATOM     81  C   UNL A   1      40.066  32.441  33.141  1.00  0.00     0.055 A 
ATOM     82  C   UNL A   1      38.818  30.385  33.250  1.00  0.00     0.041 A 
ATOM     83  F   UNL A   1      39.938  28.325  33.111  1.00  0.00    -0.206 F 
ATOM     84  C   UNL A   1      38.837  31.780  33.172  1.00  0.00     0.022 A 
BRANCH  81  85
ATOM     85  S   UNL A   1      40.147  34.214  32.737  1.00  0.00     0.124 S 
ATOM     86  O   UNL A   1      39.070  34.355  31.765  1.00  0.00    -0.237 OA
ATOM     87  O   UNL A   1      39.927  34.849  34.037  1.00  0.00    -0.237 OA
ATOM     88  O   UNL A   1      41.499  34.391  32.214  1.00  0.00    -0.744 OA
ENDBRANCH  81  85
ENDBRANCH  54  78
BRANCH  66  89
ATOM     89  C   UNL A   1      45.115  24.076  33.413  1.00  0.00     0.023 A 
ATOM     90  C   UNL A   1      46.413  23.952  33.925  1.00  0.00     0.031 A 
ATOM     91  C   UNL A   1      44.272  22.956  33.660  1.00  0.00     0.131 A 
ATOM     92  C   UNL A   1      46.829  22.795  34.622  1.00  0.00     0.055 A 
ATOM     93  C   UNL A   1      44.678  21.818  34.365  1.00  0.00     0.041 A 
ATOM     94  F   UNL A   1      42.999  22.914  33.242  1.00  0.00    -0.206 F 
ATOM     95  C   UNL A   1      45.966  21.730  34.853  1.00  0.00     0.022 A 
BRANCH  92  96
ATOM     96  S   UNL A   1      48.542  22.713  35.212  1.00  0.00     0.124 S 
ATOM     97  O   UNL A   1      48.520  23.631  36.347  1.00  0.00    -0.237 OA
ATOM     98  O   UNL A   1      48.685  21.299  35.546  1.00  0.00    -0.237 OA
ATOM     99  O   UNL A   1      49.327  23.160  34.064  1.00  0.00    -0.744 OA
ENDBRANCH  92  96
ENDBRANCH  66  89
ENDBRANCH  40  41
ENDBRANCH  32  35
ENDBRANCH  30  31
ENDBRANCH   1  30
TORSDOF 16
ENDMDL
MODEL 2
REMARK VINA RESULT:     -14.1      4.317     10.880
REMARK SMILES Cc1ccccc1C(=O)Nc1ccc(N2CCCCC2)cc1C(=O)NCCCNC(=O)c1ccc(-c2c3nc(c(-c4cc(S(=O)(=O)[O-])ccc4F)c4ccc([nH]4)c(-c4cc(S(=O)(=O)[O-])ccc4F)c4nc(c(-c5cc(S(=O)(=O)[O-])ccc5F)c5ccc2[nH]5)C=C4)C=C3)cc1
REMARK SMILES IDX 27 1 26 2 25 3 23 4 24 5 22 7 11 8 12 9 13 10 21 11 14 12
REMARK SMILES IDX 10 13 8 14 9 15 7 17 1 18 2 19 3 20 4 21 6 22 5 23 15 24
REMARK SMILES IDX 16 25 20 26 17 27 19 28 18 29 28 30 29 31 30 32 31 34 32 35
REMARK SMILES IDX 33 36 94 37 34 38 93 39 35 40 36 41 37 42 87 43 38 44 92 45
REMARK SMILES IDX 86 46 88 47 39 48 91 49 85 50 84 51 40 53 72 54 52 55 71 56
REMARK SMILES IDX 53 57 56 58 70 59 89 60 54 61 55 62 69 64 90 65 57 66 41 67
REMARK SMILES IDX 42 68 50 69 43 70 49 71 51 72 48 73 44 74 45 75 46 76 47 77
REMARK SMILES IDX 73 78 74 79 82 80 75 81 81 82 83 83 80 84 76 85 77 86 78 87
REMARK SMILES IDX 79 88 58 89 59 90 67 91 60 92 66 93 68 94 65 95 61 96 62 97
REMARK SMILES IDX 63 98 64 99
REMARK H PARENT 25 6 10 16 29 33 88 52 56 63
REMARK Flexibility Score: inf
ROOT
ATOM      1  C   UNL A   1      38.839  21.421  25.451  1.00  0.00     0.042 C 
ENDROOT
BRANCH   1   2
ATOM      2  C   UNL A   1      37.399  21.537  24.991  1.00  0.00     0.118 C 
BRANCH   2   3
ATOM      3  N   UNL A   1      36.583  22.401  25.838  1.00  0.00    -0.352 N 
ATOM      4  C   UNL A   1      35.225  22.660  25.829  1.00  0.00     0.253 C 
ATOM      5  O   UNL A   1      34.751  23.497  26.593  1.00  0.00    -0.269 OA
ATOM      6  H   UNL A   1      37.085  22.882  26.535  1.00  0.00     0.163 HD
BRANCH   4   7
ATOM      7  C   UNL A   1      34.309  21.909  24.926  1.00  0.00     0.065 A 
ATOM      8  C   UNL A   1      33.761  22.450  23.752  1.00  0.00     0.054 A 
ATOM      9  C   UNL A   1      32.812  21.698  23.040  1.00  0.00     0.029 A 
ATOM     10  C   UNL A   1      32.582  20.363  23.358  1.00  0.00     0.028 A 
ATOM     11  C   UNL A   1      33.881  20.629  25.331  1.00  0.00     0.042 A 
ATOM     12  C   UNL A   1      33.179  19.782  24.475  1.00  0.00     0.038 A 
BRANCH   8  13
ATOM     13  N   UNL A   1      34.054  23.676  23.142  1.00  0.00    -0.321 N 
ATOM     14  C   UNL A   1      33.415  24.888  23.077  1.00  0.00     0.255 C 
ATOM     15  O   UNL A   1      33.941  25.753  22.366  1.00  0.00    -0.269 OA
ATOM     16  H   UNL A   1      34.907  23.666  22.649  1.00  0.00     0.170 HD
BRANCH  14  17
ATOM     17  C   UNL A   1      32.253  25.295  23.913  1.00  0.00     0.043 A 
ATOM     18  C   UNL A   1      33.568  26.552  25.745  1.00  0.00     0.045 C 
ATOM     19  C   UNL A   1      32.307  26.085  25.082  1.00  0.00    -0.038 A 
ATOM     20  C   UNL A   1      31.095  26.503  25.672  1.00  0.00     0.004 A 
ATOM     21  C   UNL A   1      29.863  26.222  25.082  1.00  0.00     0.000 A 
ATOM     22  C   UNL A   1      30.999  25.031  23.329  1.00  0.00     0.014 A 
ATOM     23  C   UNL A   1      29.815  25.495  23.902  1.00  0.00     0.001 A 
ENDBRANCH  14  17
ENDBRANCH   8  13
BRANCH  12  24
ATOM     24  N   UNL A   1      33.151  18.395  24.632  1.00  0.00    -0.372 N 
ATOM     25  C   UNL A   1      34.365  17.734  24.117  1.00  0.00     0.116 C 
ATOM     26  C   UNL A   1      32.640  17.814  25.879  1.00  0.00     0.116 C 
ATOM     27  C   UNL A   1      34.073  16.263  23.842  1.00  0.00     0.021 C 
ATOM     28  C   UNL A   1      32.304  16.342  25.638  1.00  0.00     0.021 C 
ATOM     29  C   UNL A   1      33.497  15.571  25.074  1.00  0.00     0.004 C 
ENDBRANCH  12  24
ENDBRANCH   4   7
ENDBRANCH   2   3
ENDBRANCH   1   2
BRANCH   1  30
ATOM     30  C   UNL A   1      39.194  22.456  26.503  1.00  0.00     0.118 C 
BRANCH  30  31
ATOM     31  N   UNL A   1      40.633  22.751  26.511  1.00  0.00    -0.352 N 
ATOM     32  C   UNL A   1      41.276  23.970  26.658  1.00  0.00     0.251 C 
ATOM     33  H   UNL A   1      41.224  21.972  26.395  1.00  0.00     0.163 HD
ATOM     34  O   UNL A   1      42.483  24.085  26.669  1.00  0.00    -0.269 OA
BRANCH  32  35
ATOM     35  C   UNL A   1      40.409  25.144  26.876  1.00  0.00     0.039 A 
ATOM     36  C   UNL A   1      40.732  26.303  26.165  1.00  0.00     0.014 A 
ATOM     37  C   UNL A   1      39.625  25.177  28.028  1.00  0.00     0.014 A 
ATOM     38  C   UNL A   1      40.473  27.537  26.749  1.00  0.00     0.010 A 
ATOM     39  C   UNL A   1      39.447  26.404  28.641  1.00  0.00     0.010 A 
ATOM     40  C   UNL A   1      39.944  27.573  28.040  1.00  0.00    -0.014 A 
BRANCH  40  41
ATOM     41  C   UNL A   1      40.058  28.753  28.897  1.00  0.00     0.031 A 
ATOM     42  C   UNL A   1      39.005  29.787  28.901  1.00  0.00     0.074 A 
ATOM     43  C   UNL A   1      41.117  28.913  29.725  1.00  0.00     0.049 A 
ATOM     44  N   UNL A   1      39.207  31.022  29.216  1.00  0.00    -0.248 NA
ATOM     45  C   UNL A   1      37.633  29.519  28.493  1.00  0.00     0.031 C 
ATOM     46  C   UNL A   1      41.239  29.872  30.820  1.00  0.00     0.029 A 
ATOM     47  N   UNL A   1      42.405  28.404  29.567  1.00  0.00    -0.354 N 
ATOM     48  C   UNL A   1      37.980  31.625  29.355  1.00  0.00     0.074 A 
ATOM     49  C   UNL A   1      37.041  30.673  28.810  1.00  0.00     0.031 C 
ATOM     50  C   UNL A   1      42.537  30.090  31.069  1.00  0.00     0.029 A 
ATOM     51  C   UNL A   1      43.297  29.376  30.063  1.00  0.00     0.049 A 
ATOM     52  H   UNL A   1      42.646  27.530  29.183  1.00  0.00     0.167 HD
ATOM     53  C   UNL A   1      37.881  32.795  30.049  1.00  0.00     0.034 A 
ATOM     54  C   UNL A   1      44.295  29.903  29.298  1.00  0.00     0.034 A 
ATOM     55  C   UNL A   1      39.188  33.276  30.506  1.00  0.00     0.049 A 
ATOM     56  C   UNL A   1      44.243  31.409  29.175  1.00  0.00     0.074 A 
ATOM     57  C   UNL A   1      39.817  33.279  31.741  1.00  0.00     0.029 A 
ATOM     58  N   UNL A   1      40.153  33.653  29.580  1.00  0.00    -0.354 N 
ATOM     59  N   UNL A   1      43.212  32.135  29.505  1.00  0.00    -0.248 NA
ATOM     60  C   UNL A   1      45.329  32.213  28.628  1.00  0.00     0.031 C 
ATOM     61  C   UNL A   1      41.164  33.682  31.554  1.00  0.00     0.029 A 
ATOM     62  C   UNL A   1      41.353  33.932  30.207  1.00  0.00     0.049 A 
ATOM     63  H   UNL A   1      40.003  33.712  28.609  1.00  0.00     0.167 HD
ATOM     64  C   UNL A   1      43.453  33.458  29.212  1.00  0.00     0.074 A 
ATOM     65  C   UNL A   1      44.799  33.449  28.667  1.00  0.00     0.031 C 
ATOM     66  C   UNL A   1      42.498  34.415  29.438  1.00  0.00     0.034 A 
BRANCH  53  67
ATOM     67  C   UNL A   1      36.577  33.354  30.584  1.00  0.00     0.023 A 
ATOM     68  C   UNL A   1      35.677  33.973  29.690  1.00  0.00     0.031 A 
ATOM     69  C   UNL A   1      36.174  33.359  31.932  1.00  0.00     0.131 A 
ATOM     70  C   UNL A   1      34.538  34.660  30.146  1.00  0.00     0.055 A 
ATOM     71  C   UNL A   1      35.073  34.094  32.396  1.00  0.00     0.041 A 
ATOM     72  F   UNL A   1      36.784  32.606  32.856  1.00  0.00    -0.206 F 
ATOM     73  C   UNL A   1      34.256  34.766  31.503  1.00  0.00     0.022 A 
BRANCH  70  74
ATOM     74  S   UNL A   1      33.424  35.416  28.931  1.00  0.00     0.124 S 
ATOM     75  O   UNL A   1      32.825  34.249  28.290  1.00  0.00    -0.237 OA
ATOM     76  O   UNL A   1      32.542  36.214  29.777  1.00  0.00    -0.237 OA
ATOM     77  O   UNL A   1      34.327  36.191  28.081  1.00  0.00    -0.744 OA
ENDBRANCH  70  74
ENDBRANCH  53  67
BRANCH  54  78
ATOM     78  C   UNL A   1      44.801  28.954  28.268  1.00  0.00     0.023 A 
ATOM     79  C   UNL A   1      45.650  27.919  28.718  1.00  0.00     0.031 A 
ATOM     80  C   UNL A   1      44.165  28.794  27.031  1.00  0.00     0.131 A 
ATOM     81  C   UNL A   1      45.689  26.696  28.037  1.00  0.00     0.055 A 
ATOM     82  C   UNL A   1      44.279  27.600  26.308  1.00  0.00     0.041 A 
ATOM     83  F   UNL A   1      43.322  29.729  26.569  1.00  0.00    -0.206 F 
ATOM     84  C   UNL A   1      45.006  26.528  26.832  1.00  0.00     0.022 A 
BRANCH  81  85
ATOM     85  S   UNL A   1      46.390  25.258  28.905  1.00  0.00     0.124 S 
ATOM     86  O   UNL A   1      47.809  25.587  28.946  1.00  0.00    -0.237 OA
ATOM     87  O   UNL A   1      45.686  25.284  30.188  1.00  0.00    -0.237 OA
ATOM     88  O   UNL A   1      46.027  24.128  28.055  1.00  0.00    -0.744 OA
ENDBRANCH  81  85
ENDBRANCH  54  78
BRANCH  66  89
ATOM     89  C   UNL A   1      42.525  35.891  29.043  1.00  0.00     0.023 A 
ATOM     90  C   UNL A   1      43.140  36.906  29.788  1.00  0.00     0.031 A 
ATOM     91  C   UNL A   1      41.914  36.331  27.835  1.00  0.00     0.131 A 
ATOM     92  C   UNL A   1      43.136  38.251  29.356  1.00  0.00     0.055 A 
ATOM     93  C   UNL A   1      41.923  37.660  27.399  1.00  0.00     0.041 A 
ATOM     94  F   UNL A   1      41.285  35.488  27.004  1.00  0.00    -0.206 F 
ATOM     95  C   UNL A   1      42.538  38.634  28.161  1.00  0.00     0.022 A 
BRANCH  92  96
ATOM     96  S   UNL A   1      43.924  39.498  30.410  1.00  0.00     0.124 S 
ATOM     97  O   UNL A   1      44.164  38.752  31.642  1.00  0.00    -0.237 OA
ATOM     98  O   UNL A   1      45.115  39.844  29.639  1.00  0.00    -0.237 OA
ATOM     99  O   UNL A   1      42.922  40.556  30.508  1.00  0.00    -0.744 OA
ENDBRANCH  92  96
ENDBRANCH  66  89
ENDBRANCH  40  41
ENDBRANCH  32  35
ENDBRANCH  30  31
ENDBRANCH   1  30
TORSDOF 16
ENDMDL
MODEL 3
REMARK VINA RESULT:     -13.7      2.411      3.377
REMARK SMILES Cc1ccccc1C(=O)Nc1ccc(N2CCCCC2)cc1C(=O)NCCCNC(=O)c1ccc(-c2c3nc(c(-c4cc(S(=O)(=O)[O-])ccc4F)c4ccc([nH]4)c(-c4cc(S(=O)(=O)[O-])ccc4F)c4nc(c(-c5cc(S(=O)(=O)[O-])ccc5F)c5ccc2[nH]5)C=C4)C=C3)cc1
REMARK SMILES IDX 27 1 26 2 25 3 23 4 24 5 22 7 11 8 12 9 13 10 21 11 14 12
REMARK SMILES IDX 10 13 8 14 9 15 7 17 1 18 2 19 3 20 4 21 6 22 5 23 15 24
REMARK SMILES IDX 16 25 20 26 17 27 19 28 18 29 28 30 29 31 30 32 31 34 32 35
REMARK SMILES IDX 33 36 94 37 34 38 93 39 35 40 36 41 37 42 87 43 38 44 92 45
REMARK SMILES IDX 86 46 88 47 39 48 91 49 85 50 84 51 40 53 72 54 52 55 71 56
REMARK SMILES IDX 53 57 56 58 70 59 89 60 54 61 55 62 69 64 90 65 57 66 41 67
REMARK SMILES IDX 42 68 50 69 43 70 49 71 51 72 48 73 44 74 45 75 46 76 47 77
REMARK SMILES IDX 73 78 74 79 82 80 75 81 81 82 83 83 80 84 76 85 77 86 78 87
REMARK SMILES IDX 79 88 58 89 59 90 67 91 60 92 66 93 68 94 65 95 61 96 62 97
REMARK SMILES IDX 63 98 64 99
REMARK H PARENT 25 6 10 16 29 33 88 52 56 63
REMARK Flexibility Score: inf
ROOT
ATOM      1  C   UNL A   1      35.148  29.721  26.705  1.00  0.00     0.042 C 
ENDROOT
BRANCH   1   2
ATOM      2  C   UNL A   1      34.118  28.671  26.341  1.00  0.00     0.118 C 
BRANCH   2   3
ATOM      3  N   UNL A   1      33.170  28.386  27.414  1.00  0.00    -0.352 N 
ATOM      4  C   UNL A   1      31.842  28.004  27.374  1.00  0.00     0.253 C 
ATOM      5  O   UNL A   1      31.199  27.895  28.414  1.00  0.00    -0.269 OA
ATOM      6  H   UNL A   1      33.539  28.484  28.322  1.00  0.00     0.163 HD
BRANCH   4   7
ATOM      7  C   UNL A   1      31.177  27.684  26.080  1.00  0.00     0.065 A 
ATOM      8  C   UNL A   1      30.805  26.386  25.699  1.00  0.00     0.054 A 
ATOM      9  C   UNL A   1      30.297  26.179  24.406  1.00  0.00     0.029 A 
ATOM     10  C   UNL A   1      29.958  27.260  23.597  1.00  0.00     0.028 A 
ATOM     11  C   UNL A   1      31.016  28.723  25.142  1.00  0.00     0.042 A 
ATOM     12  C   UNL A   1      30.247  28.564  23.991  1.00  0.00     0.038 A 
BRANCH   8  13
ATOM     13  N   UNL A   1      30.842  25.212  26.463  1.00  0.00    -0.321 N 
ATOM     14  C   UNL A   1      31.584  24.060  26.409  1.00  0.00     0.255 C 
ATOM     15  O   UNL A   1      31.291  23.174  27.221  1.00  0.00    -0.269 OA
ATOM     16  H   UNL A   1      30.191  25.214  27.202  1.00  0.00     0.170 HD
BRANCH  14  17
ATOM     17  C   UNL A   1      32.804  23.858  25.580  1.00  0.00     0.043 A 
ATOM     18  C   UNL A   1      31.652  22.824  23.514  1.00  0.00     0.045 C 
ATOM     19  C   UNL A   1      32.839  23.353  24.262  1.00  0.00    -0.038 A 
ATOM     20  C   UNL A   1      34.066  23.365  23.565  1.00  0.00     0.004 A 
ATOM     21  C   UNL A   1      35.212  23.933  24.120  1.00  0.00     0.000 A 
ATOM     22  C   UNL A   1      33.970  24.437  26.117  1.00  0.00     0.014 A 
ATOM     23  C   UNL A   1      35.162  24.482  25.394  1.00  0.00     0.001 A 
ENDBRANCH  14  17
ENDBRANCH   8  13
BRANCH  12  24
ATOM     24  N   UNL A   1      29.675  29.637  23.304  1.00  0.00    -0.372 N 
ATOM     25  C   UNL A   1      29.724  30.899  24.066  1.00  0.00     0.116 C 
ATOM     26  C   UNL A   1      29.926  29.799  21.867  1.00  0.00     0.116 C 
ATOM     27  C   UNL A   1      28.673  31.865  23.531  1.00  0.00     0.021 C 
ATOM     28  C   UNL A   1      28.872  30.739  21.282  1.00  0.00     0.021 C 
ATOM     29  C   UNL A   1      28.825  32.073  22.027  1.00  0.00     0.004 C 
ENDBRANCH  12  24
ENDBRANCH   4   7
ENDBRANCH   2   3
ENDBRANCH   1   2
BRANCH   1  30
ATOM     30  C   UNL A   1      34.906  30.316  28.080  1.00  0.00     0.118 C 
BRANCH  30  31
ATOM     31  N   UNL A   1      34.039  31.500  28.014  1.00  0.00    -0.352 N 
ATOM     32  C   UNL A   1      34.214  32.747  28.595  1.00  0.00     0.251 C 
ATOM     33  H   UNL A   1      33.216  31.393  27.484  1.00  0.00     0.163 HD
ATOM     34  O   UNL A   1      33.431  33.661  28.449  1.00  0.00    -0.269 OA
BRANCH  32  35
ATOM     35  C   UNL A   1      35.462  32.943  29.358  1.00  0.00     0.039 A 
ATOM     36  C   UNL A   1      36.515  33.573  28.687  1.00  0.00     0.014 A 
ATOM     37  C   UNL A   1      35.671  32.157  30.489  1.00  0.00     0.014 A 
ATOM     38  C   UNL A   1      37.818  33.215  29.007  1.00  0.00     0.010 A 
ATOM     39  C   UNL A   1      36.965  31.741  30.744  1.00  0.00     0.010 A 
ATOM     40  C   UNL A   1      38.027  32.207  29.950  1.00  0.00    -0.014 A 
BRANCH  40  41
ATOM     41  C   UNL A   1      39.279  31.456  30.025  1.00  0.00     0.031 A 
ATOM     42  C   UNL A   1      39.380  30.098  29.454  1.00  0.00     0.074 A 
ATOM     43  C   UNL A   1      40.382  31.995  30.595  1.00  0.00     0.049 A 
ATOM     44  N   UNL A   1      40.217  29.204  29.862  1.00  0.00    -0.248 NA
ATOM     45  C   UNL A   1      38.498  29.617  28.400  1.00  0.00     0.031 C 
ATOM     46  C   UNL A   1      41.753  31.496  30.503  1.00  0.00     0.029 A 
ATOM     47  N   UNL A   1      40.436  32.967  31.593  1.00  0.00    -0.354 N 
ATOM     48  C   UNL A   1      40.204  28.173  28.952  1.00  0.00     0.074 A 
ATOM     49  C   UNL A   1      39.059  28.440  28.114  1.00  0.00     0.031 C 
ATOM     50  C   UNL A   1      42.455  31.948  31.550  1.00  0.00     0.029 A 
ATOM     51  C   UNL A   1      41.533  32.651  32.419  1.00  0.00     0.049 A 
ATOM     52  H   UNL A   1      39.823  33.730  31.700  1.00  0.00     0.167 HD
ATOM     53  C   UNL A   1      41.248  27.296  28.918  1.00  0.00     0.034 A 
ATOM     54  C   UNL A   1      41.398  32.452  33.761  1.00  0.00     0.034 A 
ATOM     55  C   UNL A   1      42.239  27.577  29.961  1.00  0.00     0.049 A 
ATOM     56  C   UNL A   1      41.889  31.102  34.234  1.00  0.00     0.074 A 
ATOM     57  C   UNL A   1      43.495  28.162  29.939  1.00  0.00     0.029 A 
ATOM     58  N   UNL A   1      41.893  27.452  31.300  1.00  0.00    -0.354 N 
ATOM     59  N   UNL A   1      42.152  30.101  33.442  1.00  0.00    -0.248 NA
ATOM     60  C   UNL A   1      42.081  30.758  35.637  1.00  0.00     0.031 C 
ATOM     61  C   UNL A   1      43.913  28.367  31.279  1.00  0.00     0.029 A 
ATOM     62  C   UNL A   1      42.915  27.902  32.115  1.00  0.00     0.049 A 
ATOM     63  H   UNL A   1      41.036  27.093  31.625  1.00  0.00     0.167 HD
ATOM     64  C   UNL A   1      42.513  28.997  34.180  1.00  0.00     0.074 A 
ATOM     65  C   UNL A   1      42.455  29.469  35.553  1.00  0.00     0.031 C 
ATOM     66  C   UNL A   1      42.803  27.805  33.569  1.00  0.00     0.034 A 
BRANCH  53  67
ATOM     67  C   UNL A   1      41.534  26.368  27.754  1.00  0.00     0.023 A 
ATOM     68  C   UNL A   1      41.523  24.973  27.969  1.00  0.00     0.031 A 
ATOM     69  C   UNL A   1      41.864  26.765  26.445  1.00  0.00     0.131 A 
ATOM     70  C   UNL A   1      41.947  24.069  26.978  1.00  0.00     0.055 A 
ATOM     71  C   UNL A   1      42.346  25.873  25.476  1.00  0.00     0.041 A 
ATOM     72  F   UNL A   1      41.678  28.021  26.019  1.00  0.00    -0.206 F 
ATOM     73  C   UNL A   1      42.407  24.516  25.745  1.00  0.00     0.022 A 
BRANCH  70  74
ATOM     74  S   UNL A   1      41.888  22.291  27.329  1.00  0.00     0.124 S 
ATOM     75  O   UNL A   1      42.303  21.710  26.056  1.00  0.00    -0.237 OA
ATOM     76  O   UNL A   1      42.830  22.163  28.436  1.00  0.00    -0.237 OA
ATOM     77  O   UNL A   1      40.488  22.063  27.684  1.00  0.00    -0.744 OA
ENDBRANCH  70  74
ENDBRANCH  53  67
BRANCH  54  78
ATOM     78  C   UNL A   1      40.281  33.237  34.357  1.00  0.00     0.023 A 
ATOM     79  C   UNL A   1      39.359  32.527  35.158  1.00  0.00     0.031 A 
ATOM     80  C   UNL A   1      40.349  34.627  34.505  1.00  0.00     0.131 A 
ATOM     81  C   UNL A   1      38.688  33.177  36.200  1.00  0.00     0.055 A 
ATOM     82  C   UNL A   1      39.606  35.287  35.492  1.00  0.00     0.041 A 
ATOM     83  F   UNL A   1      41.228  35.349  33.795  1.00  0.00    -0.206 F 
ATOM     84  C   UNL A   1      38.805  34.557  36.375  1.00  0.00     0.022 A 
BRANCH  81  85
ATOM     85  S   UNL A   1      37.913  32.150  37.488  1.00  0.00     0.124 S 
ATOM     86  O   UNL A   1      36.635  32.822  37.688  1.00  0.00    -0.237 OA
ATOM     87  O   UNL A   1      37.855  30.832  36.855  1.00  0.00    -0.237 OA
ATOM     88  O   UNL A   1      38.850  32.229  38.606  1.00  0.00    -0.744 OA
ENDBRANCH  81  85
ENDBRANCH  54  78
BRANCH  66  89
ATOM     89  C   UNL A   1      43.074  26.449  34.220  1.00  0.00     0.023 A 
ATOM     90  C   UNL A   1      44.281  25.744  34.125  1.00  0.00     0.031 A 
ATOM     91  C   UNL A   1      42.075  25.809  35.006  1.00  0.00     0.131 A 
ATOM     92  C   UNL A   1      44.465  24.497  34.764  1.00  0.00     0.055 A 
ATOM     93  C   UNL A   1      42.262  24.582  35.652  1.00  0.00     0.041 A 
ATOM     94  F   UNL A   1      40.864  26.350  35.202  1.00  0.00    -0.206 F 
ATOM     95  C   UNL A   1      43.465  23.915  35.534  1.00  0.00     0.022 A 
BRANCH  92  96
ATOM     96  S   UNL A   1      46.050  23.643  34.548  1.00  0.00     0.124 S 
ATOM     97  O   UNL A   1      46.448  23.382  35.928  1.00  0.00    -0.237 OA
ATOM     98  O   UNL A   1      45.665  22.470  33.768  1.00  0.00    -0.237 OA
ATOM     99  O   UNL A   1      46.875  24.616  33.836  1.00  0.00    -0.744 OA
ENDBRANCH  92  96
ENDBRANCH  66  89
ENDBRANCH  40  41
ENDBRANCH  32  35
ENDBRANCH  30  31
ENDBRANCH   1  30
TORSDOF 16
ENDMDL
