MODEL 1
REMARK VINA RESULT:     -11.8      0.000      0.000
REMARK SMILES Cc1cc(C(=O)Nc2nc(CC(=O)NCCCNC(=O)c3ccc(-c4c5nc(c(-c6cc(S(=O)(=O)[O-])ccc6F)c6ccc([nH]6)c(-c6cc(S(=O)(=O)[O-])ccc6F)c6nc(c(-c7cc(S(=O)(=O)[O-])ccc7F)c7ccc4[nH]7)C=C6)C=C5)cc3)cs2)sc1C
REMARK SMILES IDX 16 1 15 2 14 3 12 4 13 5 11 7 10 8 8 9 9 10 85 11 84 12 7 13
REMARK SMILES IDX 5 14 6 15 4 17 1 18 2 19 3 20 87 21 86 22 88 23 17 24 18 25
REMARK SMILES IDX 19 26 20 28 21 29 22 30 83 31 23 32 82 33 24 34 25 35 26 36
REMARK SMILES IDX 76 37 27 38 81 39 75 40 77 41 28 42 80 43 74 44 73 45 29 47
REMARK SMILES IDX 61 48 41 49 60 50 42 51 45 52 59 53 78 54 43 55 44 56 58 58
REMARK SMILES IDX 79 59 46 60 30 61 31 62 39 63 32 64 38 65 40 66 37 67 33 68
REMARK SMILES IDX 34 69 35 70 36 71 62 72 63 73 71 74 64 75 70 76 72 77 69 78
REMARK SMILES IDX 65 79 66 80 67 81 68 82 47 83 48 84 56 85 49 86 55 87 57 88
REMARK SMILES IDX 54 89 50 90 51 91 52 92 53 93
REMARK H PARENT 14 6 7 16 18 27 77 46 45 57
REMARK Flexibility Score: inf
ROOT
ATOM      1  C   UNL A   1      31.365  32.146  26.513  1.00  0.00     0.042 C 
ENDROOT
BRANCH   1   2
ATOM      2  C   UNL A   1      31.369  30.743  25.911  1.00  0.00     0.117 C 
BRANCH   2   3
ATOM      3  N   UNL A   1      32.628  30.051  26.133  1.00  0.00    -0.356 N 
ATOM      4  C   UNL A   1      32.839  28.806  26.654  1.00  0.00     0.226 C 
ATOM      5  O   UNL A   1      34.000  28.422  26.810  1.00  0.00    -0.275 OA
ATOM      6  H   UNL A   1      33.438  30.547  25.872  1.00  0.00     0.163 HD
BRANCH   4   7
ATOM      7  C   UNL A   1      31.666  27.910  26.979  1.00  0.00     0.157 C 
BRANCH   7   8
ATOM      8  C   UNL A   1      31.240  27.070  25.824  1.00  0.00     0.063 A 
ATOM      9  C   UNL A   1      31.374  26.500  23.699  1.00  0.00     0.189 A 
ATOM     10  N   UNL A   1      31.757  27.388  24.577  1.00  0.00    -0.224 NA
ATOM     11  S   UNL A   1      30.205  25.378  24.225  1.00  0.00    -0.105 S 
ATOM     12  C   UNL A   1      30.396  25.973  25.829  1.00  0.00     0.093 A 
BRANCH   9  13
ATOM     13  N   UNL A   1      31.799  26.344  22.417  1.00  0.00    -0.297 N 
ATOM     14  C   UNL A   1      32.882  25.604  21.992  1.00  0.00     0.267 C 
ATOM     15  O   UNL A   1      33.336  25.903  20.880  1.00  0.00    -0.268 OA
ATOM     16  H   UNL A   1      31.280  26.807  21.720  1.00  0.00     0.172 HD
BRANCH  14  17
ATOM     17  C   UNL A   1      33.421  24.459  22.733  1.00  0.00     0.093 A 
ATOM     18  C   UNL A   1      36.130  22.883  24.847  1.00  0.00     0.045 C 
ATOM     19  C   UNL A   1      34.889  23.173  24.073  1.00  0.00    -0.037 A 
ATOM     20  C   UNL A   1      34.614  24.435  23.441  1.00  0.00     0.029 A 
ATOM     21  C   UNL A   1      33.831  22.302  23.880  1.00  0.00     0.005 A 
ATOM     22  S   UNL A   1      32.807  22.863  22.638  1.00  0.00    -0.135 S 
ATOM     23  C   UNL A   1      33.548  20.987  24.520  1.00  0.00     0.056 C 
ENDBRANCH  14  17
ENDBRANCH   9  13
ENDBRANCH   7   8
ENDBRANCH   4   7
ENDBRANCH   2   3
ENDBRANCH   1   2
BRANCH   1  24
ATOM     24  C   UNL A   1      32.690  32.564  27.143  1.00  0.00     0.118 C 
BRANCH  24  25
ATOM     25  N   UNL A   1      32.648  33.911  27.689  1.00  0.00    -0.352 N 
ATOM     26  C   UNL A   1      33.376  34.477  28.705  1.00  0.00     0.251 C 
ATOM     27  H   UNL A   1      31.995  34.511  27.263  1.00  0.00     0.163 HD
ATOM     28  O   UNL A   1      33.031  35.578  29.141  1.00  0.00    -0.269 OA
BRANCH  26  29
ATOM     29  C   UNL A   1      34.541  33.780  29.291  1.00  0.00     0.039 A 
ATOM     30  C   UNL A   1      35.826  34.216  28.951  1.00  0.00     0.014 A 
ATOM     31  C   UNL A   1      34.383  32.687  30.149  1.00  0.00     0.014 A 
ATOM     32  C   UNL A   1      36.943  33.605  29.524  1.00  0.00     0.010 A 
ATOM     33  C   UNL A   1      35.496  32.127  30.775  1.00  0.00     0.010 A 
ATOM     34  C   UNL A   1      36.788  32.584  30.476  1.00  0.00    -0.014 A 
BRANCH  34  35
ATOM     35  C   UNL A   1      37.964  32.013  31.187  1.00  0.00     0.031 A 
ATOM     36  C   UNL A   1      38.780  30.918  30.558  1.00  0.00     0.074 A 
ATOM     37  C   UNL A   1      38.251  32.440  32.433  1.00  0.00     0.049 A 
ATOM     38  N   UNL A   1      39.791  30.251  31.054  1.00  0.00    -0.248 NA
ATOM     39  C   UNL A   1      38.392  30.500  29.204  1.00  0.00     0.031 C 
ATOM     40  C   UNL A   1      37.507  33.468  33.163  1.00  0.00     0.029 A 
ATOM     41  N   UNL A   1      39.234  32.059  33.312  1.00  0.00    -0.354 N 
ATOM     42  C   UNL A   1      40.154  29.327  30.080  1.00  0.00     0.074 A 
ATOM     43  C   UNL A   1      39.215  29.485  28.988  1.00  0.00     0.031 C 
ATOM     44  C   UNL A   1      38.072  33.649  34.367  1.00  0.00     0.029 A 
ATOM     45  C   UNL A   1      39.182  32.716  34.519  1.00  0.00     0.049 A 
ATOM     46  H   UNL A   1      39.913  31.379  33.097  1.00  0.00     0.167 HD
ATOM     47  C   UNL A   1      41.183  28.442  30.091  1.00  0.00     0.034 A 
ATOM     48  C   UNL A   1      39.927  32.569  35.633  1.00  0.00     0.034 A 
ATOM     49  C   UNL A   1      42.109  28.304  31.189  1.00  0.00     0.049 A 
ATOM     50  C   UNL A   1      41.040  31.553  35.637  1.00  0.00     0.074 A 
ATOM     51  C   UNL A   1      43.229  27.493  31.274  1.00  0.00     0.029 A 
ATOM     52  N   UNL A   1      42.016  28.974  32.403  1.00  0.00    -0.354 N 
ATOM     53  N   UNL A   1      41.412  30.734  34.680  1.00  0.00    -0.248 NA
ATOM     54  C   UNL A   1      41.836  31.448  36.865  1.00  0.00     0.031 C 
ATOM     55  C   UNL A   1      43.759  27.609  32.563  1.00  0.00     0.029 A 
ATOM     56  C   UNL A   1      43.028  28.559  33.258  1.00  0.00     0.049 A 
ATOM     57  H   UNL A   1      41.333  29.647  32.624  1.00  0.00     0.167 HD
ATOM     58  C   UNL A   1      42.500  30.028  35.187  1.00  0.00     0.074 A 
ATOM     59  C   UNL A   1      42.735  30.536  36.524  1.00  0.00     0.031 C 
ATOM     60  C   UNL A   1      43.238  29.052  34.600  1.00  0.00     0.034 A 
BRANCH  47  61
ATOM     61  C   UNL A   1      41.335  27.533  28.892  1.00  0.00     0.023 A 
ATOM     62  C   UNL A   1      42.329  27.746  27.920  1.00  0.00     0.031 A 
ATOM     63  C   UNL A   1      40.461  26.447  28.707  1.00  0.00     0.131 A 
ATOM     64  C   UNL A   1      42.373  26.939  26.773  1.00  0.00     0.055 A 
ATOM     65  C   UNL A   1      40.565  25.594  27.606  1.00  0.00     0.041 A 
ATOM     66  F   UNL A   1      39.478  26.203  29.589  1.00  0.00    -0.206 F 
ATOM     67  C   UNL A   1      41.514  25.849  26.621  1.00  0.00     0.022 A 
BRANCH  64  68
ATOM     68  S   UNL A   1      43.465  27.431  25.410  1.00  0.00     0.124 S 
ATOM     69  O   UNL A   1      42.499  27.801  24.378  1.00  0.00    -0.237 OA
ATOM     70  O   UNL A   1      44.225  28.528  25.995  1.00  0.00    -0.237 OA
ATOM     71  O   UNL A   1      44.230  26.218  25.129  1.00  0.00    -0.744 OA
ENDBRANCH  64  68
ENDBRANCH  47  61
BRANCH  48  72
ATOM     72  C   UNL A   1      39.627  33.382  36.848  1.00  0.00     0.023 A 
ATOM     73  C   UNL A   1      38.900  32.843  37.922  1.00  0.00     0.031 A 
ATOM     74  C   UNL A   1      40.042  34.723  36.941  1.00  0.00     0.131 A 
ATOM     75  C   UNL A   1      38.576  33.651  39.022  1.00  0.00     0.055 A 
ATOM     76  C   UNL A   1      39.765  35.506  38.061  1.00  0.00     0.041 A 
ATOM     77  F   UNL A   1      40.742  35.288  35.944  1.00  0.00    -0.206 F 
ATOM     78  C   UNL A   1      39.017  34.974  39.107  1.00  0.00     0.022 A 
BRANCH  75  79
ATOM     79  S   UNL A   1      37.496  32.973  40.311  1.00  0.00     0.124 S 
ATOM     80  O   UNL A   1      37.499  34.049  41.297  1.00  0.00    -0.237 OA
ATOM     81  O   UNL A   1      36.246  32.772  39.585  1.00  0.00    -0.237 OA
ATOM     82  O   UNL A   1      38.180  31.748  40.720  1.00  0.00    -0.744 OA
ENDBRANCH  75  79
ENDBRANCH  48  72
BRANCH  60  83
ATOM     83  C   UNL A   1      44.389  28.488  35.400  1.00  0.00     0.023 A 
ATOM     84  C   UNL A   1      44.202  27.459  36.339  1.00  0.00     0.031 A 
ATOM     85  C   UNL A   1      45.690  28.992  35.224  1.00  0.00     0.131 A 
ATOM     86  C   UNL A   1      45.286  27.005  37.106  1.00  0.00     0.055 A 
ATOM     87  C   UNL A   1      46.776  28.492  35.942  1.00  0.00     0.041 A 
ATOM     88  F   UNL A   1      45.928  29.979  34.345  1.00  0.00    -0.206 F 
ATOM     89  C   UNL A   1      46.576  27.502  36.899  1.00  0.00     0.022 A 
BRANCH  86  90
ATOM     90  S   UNL A   1      44.972  25.824  38.445  1.00  0.00     0.124 S 
ATOM     91  O   UNL A   1      44.214  24.783  37.760  1.00  0.00    -0.237 OA
ATOM     92  O   UNL A   1      46.322  25.458  38.863  1.00  0.00    -0.237 OA
ATOM     93  O   UNL A   1      44.213  26.603  39.422  1.00  0.00    -0.744 OA
ENDBRANCH  86  90
ENDBRANCH  60  83
ENDBRANCH  34  35
ENDBRANCH  26  29
ENDBRANCH  24  25
ENDBRANCH   1  24
TORSDOF 16
ENDMDL
MODEL 2
REMARK VINA RESULT:     -11.7      5.774     11.800
REMARK SMILES Cc1cc(C(=O)Nc2nc(CC(=O)NCCCNC(=O)c3ccc(-c4c5nc(c(-c6cc(S(=O)(=O)[O-])ccc6F)c6ccc([nH]6)c(-c6cc(S(=O)(=O)[O-])ccc6F)c6nc(c(-c7cc(S(=O)(=O)[O-])ccc7F)c7ccc4[nH]7)C=C6)C=C5)cc3)cs2)sc1C
REMARK SMILES IDX 16 1 15 2 14 3 12 4 13 5 11 7 10 8 8 9 9 10 85 11 84 12 7 13
REMARK SMILES IDX 5 14 6 15 4 17 1 18 2 19 3 20 87 21 86 22 88 23 17 24 18 25
REMARK SMILES IDX 19 26 20 28 21 29 22 30 83 31 23 32 82 33 24 34 25 35 26 36
REMARK SMILES IDX 76 37 27 38 81 39 75 40 77 41 28 42 80 43 74 44 73 45 29 47
REMARK SMILES IDX 61 48 41 49 60 50 42 51 45 52 59 53 78 54 43 55 44 56 58 58
REMARK SMILES IDX 79 59 46 60 30 61 31 62 39 63 32 64 38 65 40 66 37 67 33 68
REMARK SMILES IDX 34 69 35 70 36 71 62 72 63 73 71 74 64 75 70 76 72 77 69 78
REMARK SMILES IDX 65 79 66 80 67 81 68 82 47 83 48 84 56 85 49 86 55 87 57 88
REMARK SMILES IDX 54 89 50 90 51 91 52 92 53 93
REMARK H PARENT 14 6 7 16 18 27 77 46 45 57
REMARK Flexibility Score: inf
ROOT
ATOM      1  C   UNL A   1      38.150  19.742  25.017  1.00  0.00     0.042 C 
ENDROOT
BRANCH   1   2
ATOM      2  C   UNL A   1      37.042  20.784  24.877  1.00  0.00     0.117 C 
BRANCH   2   3
ATOM      3  N   UNL A   1      37.209  21.893  25.803  1.00  0.00    -0.356 N 
ATOM      4  C   UNL A   1      36.983  23.224  25.591  1.00  0.00     0.226 C 
ATOM      5  O   UNL A   1      37.240  24.017  26.499  1.00  0.00    -0.275 OA
ATOM      6  H   UNL A   1      37.526  21.653  26.703  1.00  0.00     0.163 HD
BRANCH   4   7
ATOM      7  C   UNL A   1      36.383  23.695  24.285  1.00  0.00     0.157 C 
BRANCH   7   8
ATOM      8  C   UNL A   1      34.954  23.301  24.129  1.00  0.00     0.063 A 
ATOM      9  C   UNL A   1      32.978  22.828  24.982  1.00  0.00     0.189 A 
ATOM     10  N   UNL A   1      34.229  23.054  25.284  1.00  0.00    -0.224 NA
ATOM     11  S   UNL A   1      32.623  22.661  23.324  1.00  0.00    -0.105 S 
ATOM     12  C   UNL A   1      34.228  23.168  22.959  1.00  0.00     0.093 A 
BRANCH   9  13
ATOM     13  N   UNL A   1      31.913  22.722  25.821  1.00  0.00    -0.297 N 
ATOM     14  C   UNL A   1      31.219  23.759  26.407  1.00  0.00     0.267 C 
ATOM     15  O   UNL A   1      30.570  23.469  27.420  1.00  0.00    -0.268 OA
ATOM     16  H   UNL A   1      31.607  21.811  26.033  1.00  0.00     0.172 HD
BRANCH  14  17
ATOM     17  C   UNL A   1      31.142  25.107  25.835  1.00  0.00     0.093 A 
ATOM     18  C   UNL A   1      29.784  27.524  23.265  1.00  0.00     0.045 C 
ATOM     19  C   UNL A   1      30.484  26.883  24.415  1.00  0.00    -0.037 A 
ATOM     20  C   UNL A   1      30.359  25.492  24.756  1.00  0.00     0.029 A 
ATOM     21  C   UNL A   1      31.311  27.524  25.320  1.00  0.00     0.005 A 
ATOM     22  S   UNL A   1      32.206  26.392  26.227  1.00  0.00    -0.135 S 
ATOM     23  C   UNL A   1      31.561  28.979  25.521  1.00  0.00     0.056 C 
ENDBRANCH  14  17
ENDBRANCH   9  13
ENDBRANCH   7   8
ENDBRANCH   4   7
ENDBRANCH   2   3
ENDBRANCH   1   2
BRANCH   1  24
ATOM     24  C   UNL A   1      39.379  20.229  25.778  1.00  0.00     0.118 C 
BRANCH  24  25
ATOM     25  N   UNL A   1      40.385  19.191  25.936  1.00  0.00    -0.352 N 
ATOM     26  C   UNL A   1      41.736  19.294  26.148  1.00  0.00     0.251 C 
ATOM     27  H   UNL A   1      40.042  18.270  25.883  1.00  0.00     0.163 HD
ATOM     28  O   UNL A   1      42.432  18.280  26.045  1.00  0.00    -0.269 OA
BRANCH  26  29
ATOM     29  C   UNL A   1      42.364  20.593  26.470  1.00  0.00     0.039 A 
ATOM     30  C   UNL A   1      42.931  21.341  25.434  1.00  0.00     0.014 A 
ATOM     31  C   UNL A   1      42.424  21.069  27.783  1.00  0.00     0.014 A 
ATOM     32  C   UNL A   1      43.491  22.591  25.703  1.00  0.00     0.010 A 
ATOM     33  C   UNL A   1      42.918  22.349  28.038  1.00  0.00     0.010 A 
ATOM     34  C   UNL A   1      43.450  23.127  27.000  1.00  0.00    -0.014 A 
BRANCH  34  35
ATOM     35  C   UNL A   1      43.928  24.509  27.275  1.00  0.00     0.031 A 
ATOM     36  C   UNL A   1      42.978  25.565  27.770  1.00  0.00     0.074 A 
ATOM     37  C   UNL A   1      45.211  24.826  27.011  1.00  0.00     0.049 A 
ATOM     38  N   UNL A   1      43.197  26.835  27.994  1.00  0.00    -0.248 NA
ATOM     39  C   UNL A   1      41.593  25.140  28.020  1.00  0.00     0.031 C 
ATOM     40  C   UNL A   1      46.218  23.898  26.490  1.00  0.00     0.029 A 
ATOM     41  N   UNL A   1      45.889  26.014  27.130  1.00  0.00    -0.354 N 
ATOM     42  C   UNL A   1      41.977  27.367  28.401  1.00  0.00     0.074 A 
ATOM     43  C   UNL A   1      41.012  26.288  28.335  1.00  0.00     0.031 C 
ATOM     44  C   UNL A   1      47.386  24.546  26.355  1.00  0.00     0.029 A 
ATOM     45  C   UNL A   1      47.202  25.944  26.725  1.00  0.00     0.049 A 
ATOM     46  H   UNL A   1      45.474  26.838  27.474  1.00  0.00     0.167 HD
ATOM     47  C   UNL A   1      41.695  28.631  28.805  1.00  0.00     0.034 A 
ATOM     48  C   UNL A   1      48.148  26.901  26.639  1.00  0.00     0.034 A 
ATOM     49  C   UNL A   1      42.673  29.690  28.866  1.00  0.00     0.049 A 
ATOM     50  C   UNL A   1      47.801  28.308  27.056  1.00  0.00     0.074 A 
ATOM     51  C   UNL A   1      42.513  30.985  29.329  1.00  0.00     0.029 A 
ATOM     52  N   UNL A   1      43.990  29.588  28.433  1.00  0.00    -0.354 N 
ATOM     53  N   UNL A   1      46.660  28.777  27.502  1.00  0.00    -0.248 NA
ATOM     54  C   UNL A   1      48.872  29.308  26.964  1.00  0.00     0.031 C 
ATOM     55  C   UNL A   1      43.701  31.686  29.097  1.00  0.00     0.029 A 
ATOM     56  C   UNL A   1      44.636  30.809  28.572  1.00  0.00     0.049 A 
ATOM     57  H   UNL A   1      44.405  28.768  28.080  1.00  0.00     0.167 HD
ATOM     58  C   UNL A   1      46.881  30.127  27.764  1.00  0.00     0.074 A 
ATOM     59  C   UNL A   1      48.271  30.387  27.445  1.00  0.00     0.031 C 
ATOM     60  C   UNL A   1      46.016  31.064  28.226  1.00  0.00     0.034 A 
BRANCH  47  61
ATOM     61  C   UNL A   1      40.263  28.942  29.177  1.00  0.00     0.023 A 
ATOM     62  C   UNL A   1      39.838  28.995  30.517  1.00  0.00     0.031 A 
ATOM     63  C   UNL A   1      39.301  29.169  28.177  1.00  0.00     0.131 A 
ATOM     64  C   UNL A   1      38.481  29.189  30.817  1.00  0.00     0.055 A 
ATOM     65  C   UNL A   1      37.967  29.447  28.484  1.00  0.00     0.041 A 
ATOM     66  F   UNL A   1      39.638  29.111  26.878  1.00  0.00    -0.206 F 
ATOM     67  C   UNL A   1      37.547  29.441  29.810  1.00  0.00     0.022 A 
BRANCH  64  68
ATOM     68  S   UNL A   1      37.930  28.949  32.529  1.00  0.00     0.124 S 
ATOM     69  O   UNL A   1      38.045  27.500  32.675  1.00  0.00    -0.237 OA
ATOM     70  O   UNL A   1      38.889  29.747  33.283  1.00  0.00    -0.237 OA
ATOM     71  O   UNL A   1      36.560  29.460  32.521  1.00  0.00    -0.744 OA
ENDBRANCH  64  68
ENDBRANCH  47  61
BRANCH  48  72
ATOM     72  C   UNL A   1      49.503  26.571  26.108  1.00  0.00     0.023 A 
ATOM     73  C   UNL A   1      49.913  27.011  24.839  1.00  0.00     0.031 A 
ATOM     74  C   UNL A   1      50.399  25.785  26.855  1.00  0.00     0.131 A 
ATOM     75  C   UNL A   1      51.168  26.629  24.340  1.00  0.00     0.055 A 
ATOM     76  C   UNL A   1      51.667  25.454  26.377  1.00  0.00     0.041 A 
ATOM     77  F   UNL A   1      50.059  25.340  28.076  1.00  0.00    -0.206 F 
ATOM     78  C   UNL A   1      52.054  25.867  25.106  1.00  0.00     0.022 A 
BRANCH  75  79
ATOM     79  S   UNL A   1      51.597  27.074  22.634  1.00  0.00     0.124 S 
ATOM     80  O   UNL A   1      50.362  26.755  21.926  1.00  0.00    -0.237 OA
ATOM     81  O   UNL A   1      51.915  28.493  22.762  1.00  0.00    -0.237 OA
ATOM     82  O   UNL A   1      52.733  26.207  22.332  1.00  0.00    -0.744 OA
ENDBRANCH  75  79
ENDBRANCH  48  72
BRANCH  60  83
ATOM     83  C   UNL A   1      46.562  32.457  28.439  1.00  0.00     0.023 A 
ATOM     84  C   UNL A   1      46.655  33.383  27.385  1.00  0.00     0.031 A 
ATOM     85  C   UNL A   1      47.001  32.861  29.712  1.00  0.00     0.131 A 
ATOM     86  C   UNL A   1      47.226  34.644  27.609  1.00  0.00     0.055 A 
ATOM     87  C   UNL A   1      47.507  34.140  29.944  1.00  0.00     0.041 A 
ATOM     88  F   UNL A   1      46.941  32.017  30.755  1.00  0.00    -0.206 F 
ATOM     89  C   UNL A   1      47.635  35.036  28.888  1.00  0.00     0.022 A 
BRANCH  86  90
ATOM     90  S   UNL A   1      47.516  35.736  26.191  1.00  0.00     0.124 S 
ATOM     91  O   UNL A   1      47.635  34.782  25.093  1.00  0.00    -0.237 OA
ATOM     92  O   UNL A   1      46.317  36.568  26.185  1.00  0.00    -0.237 OA
ATOM     93  O   UNL A   1      48.751  36.435  26.541  1.00  0.00    -0.744 OA
ENDBRANCH  86  90
ENDBRANCH  60  83
ENDBRANCH  34  35
ENDBRANCH  26  29
ENDBRANCH  24  25
ENDBRANCH   1  24
TORSDOF 16
ENDMDL
MODEL 3
REMARK VINA RESULT:     -11.7      6.241     11.416
REMARK SMILES Cc1cc(C(=O)Nc2nc(CC(=O)NCCCNC(=O)c3ccc(-c4c5nc(c(-c6cc(S(=O)(=O)[O-])ccc6F)c6ccc([nH]6)c(-c6cc(S(=O)(=O)[O-])ccc6F)c6nc(c(-c7cc(S(=O)(=O)[O-])ccc7F)c7ccc4[nH]7)C=C6)C=C5)cc3)cs2)sc1C
REMARK SMILES IDX 16 1 15 2 14 3 12 4 13 5 11 7 10 8 8 9 9 10 85 11 84 12 7 13
REMARK SMILES IDX 5 14 6 15 4 17 1 18 2 19 3 20 87 21 86 22 88 23 17 24 18 25
REMARK SMILES IDX 19 26 20 28 21 29 22 30 83 31 23 32 82 33 24 34 25 35 26 36
REMARK SMILES IDX 76 37 27 38 81 39 75 40 77 41 28 42 80 43 74 44 73 45 29 47
REMARK SMILES IDX 61 48 41 49 60 50 42 51 45 52 59 53 78 54 43 55 44 56 58 58
REMARK SMILES IDX 79 59 46 60 30 61 31 62 39 63 32 64 38 65 40 66 37 67 33 68
REMARK SMILES IDX 34 69 35 70 36 71 62 72 63 73 71 74 64 75 70 76 72 77 69 78
REMARK SMILES IDX 65 79 66 80 67 81 68 82 47 83 48 84 56 85 49 86 55 87 57 88
REMARK SMILES IDX 54 89 50 90 51 91 52 92 53 93
REMARK H PARENT 14 6 7 16 18 27 77 46 45 57
REMARK Flexibility Score: inf
ROOT
ATOM      1  C   UNL A   1      37.714  19.745  25.006  1.00  0.00     0.042 C 
ENDROOT
BRANCH   1   2
ATOM      2  C   UNL A   1      36.514  20.689  24.982  1.00  0.00     0.117 C 
BRANCH   2   3
ATOM      3  N   UNL A   1      36.707  21.849  25.838  1.00  0.00    -0.356 N 
ATOM      4  C   UNL A   1      36.528  23.170  25.540  1.00  0.00     0.226 C 
ATOM      5  O   UNL A   1      36.801  24.010  26.400  1.00  0.00    -0.275 OA
ATOM      6  H   UNL A   1      37.008  21.656  26.755  1.00  0.00     0.163 HD
BRANCH   4   7
ATOM      7  C   UNL A   1      35.956  23.576  24.201  1.00  0.00     0.157 C 
BRANCH   7   8
ATOM      8  C   UNL A   1      34.522  23.200  24.044  1.00  0.00     0.063 A 
ATOM      9  C   UNL A   1      32.526  22.807  24.892  1.00  0.00     0.189 A 
ATOM     10  N   UNL A   1      33.777  23.027  25.200  1.00  0.00    -0.224 NA
ATOM     11  S   UNL A   1      32.191  22.560  23.241  1.00  0.00    -0.105 S 
ATOM     12  C   UNL A   1      33.809  23.017  22.873  1.00  0.00     0.093 A 
BRANCH   9  13
ATOM     13  N   UNL A   1      31.448  22.765  25.720  1.00  0.00    -0.297 N 
ATOM     14  C   UNL A   1      30.832  23.838  26.328  1.00  0.00     0.267 C 
ATOM     15  O   UNL A   1      30.153  23.575  27.328  1.00  0.00    -0.268 OA
ATOM     16  H   UNL A   1      31.068  21.876  25.906  1.00  0.00     0.172 HD
BRANCH  14  17
ATOM     17  C   UNL A   1      30.868  25.203  25.791  1.00  0.00     0.093 A 
ATOM     18  C   UNL A   1      29.665  27.808  23.330  1.00  0.00     0.045 C 
ATOM     19  C   UNL A   1      30.338  27.072  24.438  1.00  0.00    -0.037 A 
ATOM     20  C   UNL A   1      30.090  25.691  24.751  1.00  0.00     0.029 A 
ATOM     21  C   UNL A   1      31.255  27.605  25.327  1.00  0.00     0.005 A 
ATOM     22  S   UNL A   1      32.065  26.367  26.173  1.00  0.00    -0.135 S 
ATOM     23  C   UNL A   1      31.652  29.023  25.553  1.00  0.00     0.056 C 
ENDBRANCH  14  17
ENDBRANCH   9  13
ENDBRANCH   7   8
ENDBRANCH   4   7
ENDBRANCH   2   3
ENDBRANCH   1   2
BRANCH   1  24
ATOM     24  C   UNL A   1      38.955  20.322  25.681  1.00  0.00     0.118 C 
BRANCH  24  25
ATOM     25  N   UNL A   1      40.000  19.328  25.871  1.00  0.00    -0.352 N 
ATOM     26  C   UNL A   1      41.339  19.490  26.118  1.00  0.00     0.251 C 
ATOM     27  H   UNL A   1      39.699  18.394  25.813  1.00  0.00     0.163 HD
ATOM     28  O   UNL A   1      42.081  18.506  26.039  1.00  0.00    -0.269 OA
BRANCH  26  29
ATOM     29  C   UNL A   1      41.902  20.816  26.451  1.00  0.00     0.039 A 
ATOM     30  C   UNL A   1      42.122  21.731  25.416  1.00  0.00     0.014 A 
ATOM     31  C   UNL A   1      42.240  21.158  27.764  1.00  0.00     0.014 A 
ATOM     32  C   UNL A   1      42.611  23.006  25.707  1.00  0.00     0.010 A 
ATOM     33  C   UNL A   1      42.659  22.455  28.060  1.00  0.00     0.010 A 
ATOM     34  C   UNL A   1      42.842  23.396  27.037  1.00  0.00    -0.014 A 
BRANCH  34  35
ATOM     35  C   UNL A   1      43.241  24.790  27.369  1.00  0.00     0.031 A 
ATOM     36  C   UNL A   1      42.261  25.736  28.007  1.00  0.00     0.074 A 
ATOM     37  C   UNL A   1      44.472  25.221  27.029  1.00  0.00     0.049 A 
ATOM     38  N   UNL A   1      42.406  27.003  28.302  1.00  0.00    -0.248 NA
ATOM     39  C   UNL A   1      40.936  25.192  28.333  1.00  0.00     0.031 C 
ATOM     40  C   UNL A   1      45.496  24.408  26.370  1.00  0.00     0.029 A 
ATOM     41  N   UNL A   1      45.071  26.447  27.179  1.00  0.00    -0.354 N 
ATOM     42  C   UNL A   1      41.189  27.412  28.836  1.00  0.00     0.074 A 
ATOM     43  C   UNL A   1      40.301  26.269  28.771  1.00  0.00     0.031 C 
ATOM     44  C   UNL A   1      46.600  25.151  26.191  1.00  0.00     0.029 A 
ATOM     45  C   UNL A   1      46.348  26.505  26.670  1.00  0.00     0.049 A 
ATOM     46  H   UNL A   1      44.628  27.214  27.609  1.00  0.00     0.167 HD
ATOM     47  C   UNL A   1      40.851  28.623  29.348  1.00  0.00     0.034 A 
ATOM     48  C   UNL A   1      47.213  27.535  26.578  1.00  0.00     0.034 A 
ATOM     49  C   UNL A   1      41.753  29.748  29.406  1.00  0.00     0.049 A 
ATOM     50  C   UNL A   1      46.802  28.881  27.117  1.00  0.00     0.074 A 
ATOM     51  C   UNL A   1      41.538  30.995  29.969  1.00  0.00     0.029 A 
ATOM     52  N   UNL A   1      43.034  29.775  28.868  1.00  0.00    -0.354 N 
ATOM     53  N   UNL A   1      45.669  29.233  27.681  1.00  0.00    -0.248 NA
ATOM     54  C   UNL A   1      47.786  29.965  27.013  1.00  0.00     0.031 C 
ATOM     55  C   UNL A   1      42.650  31.799  29.696  1.00  0.00     0.029 A 
ATOM     56  C   UNL A   1      43.600  31.031  29.041  1.00  0.00     0.049 A 
ATOM     57  H   UNL A   1      43.476  29.014  28.428  1.00  0.00     0.167 HD
ATOM     58  C   UNL A   1      45.814  30.576  28.017  1.00  0.00     0.074 A 
ATOM     59  C   UNL A   1      47.151  30.962  27.612  1.00  0.00     0.031 C 
ATOM     60  C   UNL A   1      44.925  31.413  28.609  1.00  0.00     0.034 A 
BRANCH  47  61
ATOM     61  C   UNL A   1      39.436  28.799  29.850  1.00  0.00     0.023 A 
ATOM     62  C   UNL A   1      38.401  29.255  29.012  1.00  0.00     0.031 A 
ATOM     63  C   UNL A   1      39.117  28.525  31.192  1.00  0.00     0.131 A 
ATOM     64  C   UNL A   1      37.125  29.499  29.541  1.00  0.00     0.055 A 
ATOM     65  C   UNL A   1      37.824  28.688  31.693  1.00  0.00     0.041 A 
ATOM     66  F   UNL A   1      40.064  28.108  32.047  1.00  0.00    -0.206 F 
ATOM     67  C   UNL A   1      36.822  29.195  30.870  1.00  0.00     0.022 A 
BRANCH  64  68
ATOM     68  S   UNL A   1      35.912  30.368  28.510  1.00  0.00     0.124 S 
ATOM     69  O   UNL A   1      35.335  31.311  29.464  1.00  0.00    -0.237 OA
ATOM     70  O   UNL A   1      36.745  30.947  27.463  1.00  0.00    -0.237 OA
ATOM     71  O   UNL A   1      35.010  29.304  28.073  1.00  0.00    -0.744 OA
ENDBRANCH  64  68
ENDBRANCH  47  61
BRANCH  48  72
ATOM     72  C   UNL A   1      48.540  27.345  25.923  1.00  0.00     0.023 A 
ATOM     73  C   UNL A   1      48.699  27.520  24.539  1.00  0.00     0.031 A 
ATOM     74  C   UNL A   1      49.666  26.956  26.672  1.00  0.00     0.131 A 
ATOM     75  C   UNL A   1      49.944  27.269  23.942  1.00  0.00     0.055 A 
ATOM     76  C   UNL A   1      50.915  26.761  26.082  1.00  0.00     0.041 A 
ATOM     77  F   UNL A   1      49.569  26.776  28.000  1.00  0.00    -0.206 F 
ATOM     78  C   UNL A   1      51.057  26.906  24.706  1.00  0.00     0.022 A 
BRANCH  75  79
ATOM     79  S   UNL A   1      50.072  27.343  22.134  1.00  0.00     0.124 S 
ATOM     80  O   UNL A   1      48.888  26.597  21.723  1.00  0.00    -0.237 OA
ATOM     81  O   UNL A   1      50.042  28.782  21.887  1.00  0.00    -0.237 OA
ATOM     82  O   UNL A   1      51.350  26.691  21.856  1.00  0.00    -0.744 OA
ENDBRANCH  75  79
ENDBRANCH  48  72
BRANCH  60  83
ATOM     83  C   UNL A   1      45.386  32.828  28.875  1.00  0.00     0.023 A 
ATOM     84  C   UNL A   1      45.084  33.880  27.994  1.00  0.00     0.031 A 
ATOM     85  C   UNL A   1      46.143  33.123  30.022  1.00  0.00     0.131 A 
ATOM     86  C   UNL A   1      45.583  35.168  28.244  1.00  0.00     0.055 A 
ATOM     87  C   UNL A   1      46.581  34.419  30.300  1.00  0.00     0.041 A 
ATOM     88  F   UNL A   1      46.466  32.157  30.896  1.00  0.00    -0.206 F 
ATOM     89  C   UNL A   1      46.313  35.447  29.403  1.00  0.00     0.022 A 
BRANCH  86  90
ATOM     90  S   UNL A   1      45.346  36.454  26.989  1.00  0.00     0.124 S 
ATOM     91  O   UNL A   1      45.729  37.661  27.715  1.00  0.00    -0.237 OA
ATOM     92  O   UNL A   1      46.257  36.031  25.930  1.00  0.00    -0.237 OA
ATOM     93  O   UNL A   1      43.925  36.355  26.658  1.00  0.00    -0.744 OA
ENDBRANCH  86  90
ENDBRANCH  60  83
ENDBRANCH  34  35
ENDBRANCH  26  29
ENDBRANCH  24  25
ENDBRANCH   1  24
TORSDOF 16
ENDMDL
