MODEL 1
REMARK VINA RESULT:     -11.4      0.000      0.000
REMARK SMILES CCC[NH2+][C@@]1(C(=O)NCCCNC(=O)c2ccc(-c3c4nc(c(-c5cc(S(=O)(=O)[O-])ccc5F)c5ccc([nH]5)c(-c5cc(S(=O)(=O)[O-])ccc5F)c5nc(c(-c6cc(S(=O)(=O)[O-])ccc6F)c6ccc3[nH]6)C=C5)C=C4)cc2)CCC[C@H](n2nc(C)c(C)c2C)C1
REMARK SMILES IDX 10 1 9 2 8 3 6 4 7 5 5 7 78 8 90 9 79 10 81 11 80 12 4 13
REMARK SMILES IDX 3 16 2 17 1 18 82 19 83 20 88 21 84 22 86 23 89 24 85 25
REMARK SMILES IDX 87 26 11 27 12 28 13 29 14 31 15 32 16 33 77 34 17 35 76 36
REMARK SMILES IDX 18 37 19 38 20 39 70 40 21 41 75 42 69 43 71 44 22 45 74 46
REMARK SMILES IDX 68 47 67 48 23 50 55 51 35 52 54 53 36 54 39 55 53 56 72 57
REMARK SMILES IDX 37 58 38 59 52 61 73 62 40 63 24 64 25 65 33 66 26 67 32 68
REMARK SMILES IDX 34 69 31 70 27 71 28 72 29 73 30 74 56 75 57 76 65 77 58 78
REMARK SMILES IDX 64 79 66 80 63 81 59 82 60 83 61 84 62 85 41 86 42 87 50 88
REMARK SMILES IDX 43 89 49 90 51 91 48 92 44 93 45 94 46 95 47 96
REMARK H PARENT 8 6 4 14 4 15 12 30 71 49 39 60
REMARK Flexibility Score: inf
ROOT
ATOM      1  C   UNL A   1      32.398  28.657  26.617  1.00  0.00     0.042 C 
ENDROOT
BRANCH   1   2
ATOM      2  C   UNL A   1      32.965  27.224  26.683  1.00  0.00     0.118 C 
BRANCH   2   3
ATOM      3  N   UNL A   1      33.278  26.557  25.408  1.00  0.00    -0.351 N 
ATOM      4  C   UNL A   1      32.693  26.450  24.173  1.00  0.00     0.281 C 
ATOM      5  O   UNL A   1      33.508  26.558  23.239  1.00  0.00    -0.268 OA
ATOM      6  H   UNL A   1      34.128  26.060  25.455  1.00  0.00     0.163 HD
BRANCH   4   7
ATOM      7  C   UNL A   1      31.147  26.140  23.830  1.00  0.00     0.177 C 
ATOM      8  C   UNL A   1      30.241  26.715  24.927  1.00  0.00     0.079 C 
ATOM      9  C   UNL A   1      30.684  24.676  23.648  1.00  0.00     0.106 C 
ATOM     10  C   UNL A   1      29.945  25.750  26.098  1.00  0.00     0.009 C 
ATOM     11  C   UNL A   1      31.102  23.730  24.747  1.00  0.00     0.114 C 
ATOM     12  C   UNL A   1      30.367  24.252  26.015  1.00  0.00     0.028 C 
BRANCH   7  13
ATOM     13  N   UNL A   1      30.784  26.880  22.528  1.00  0.00    -0.334 N 
ATOM     14  H   UNL A   1      31.648  27.224  22.110  1.00  0.00     0.347 HD
ATOM     15  H   UNL A   1      30.289  26.203  21.948  1.00  0.00     0.347 HD
BRANCH  13  16
ATOM     16  C   UNL A   1      29.864  28.030  22.688  1.00  0.00     0.261 C 
BRANCH  16  17
ATOM     17  C   UNL A   1      30.380  29.387  22.205  1.00  0.00     0.058 C 
ATOM     18  C   UNL A   1      29.294  30.320  21.723  1.00  0.00     0.010 C 
ENDBRANCH  16  17
ENDBRANCH  13  16
ENDBRANCH   7  13
BRANCH  11  19
ATOM     19  N   UNL A   1      32.542  23.424  24.717  1.00  0.00    -0.266 N 
ATOM     20  N   UNL A   1      33.282  23.497  25.852  1.00  0.00    -0.178 NA
ATOM     21  C   UNL A   1      33.318  22.855  23.706  1.00  0.00     0.039 A 
ATOM     22  C   UNL A   1      34.539  23.288  25.428  1.00  0.00     0.063 A 
ATOM     23  C   UNL A   1      34.619  23.179  24.031  1.00  0.00    -0.007 A 
ATOM     24  C   UNL A   1      32.916  22.048  22.532  1.00  0.00     0.066 C 
ATOM     25  C   UNL A   1      35.687  23.136  26.344  1.00  0.00     0.069 C 
ATOM     26  C   UNL A   1      35.825  23.151  23.168  1.00  0.00     0.048 C 
ENDBRANCH  11  19
ENDBRANCH   4   7
ENDBRANCH   2   3
ENDBRANCH   1   2
BRANCH   1  27
ATOM     27  C   UNL A   1      33.178  29.744  25.859  1.00  0.00     0.118 C 
BRANCH  27  28
ATOM     28  N   UNL A   1      32.953  31.089  26.376  1.00  0.00    -0.352 N 
ATOM     29  C   UNL A   1      33.628  31.823  27.334  1.00  0.00     0.251 C 
ATOM     30  H   UNL A   1      32.186  31.556  25.971  1.00  0.00     0.163 HD
ATOM     31  O   UNL A   1      33.118  32.880  27.710  1.00  0.00    -0.269 OA
BRANCH  29  32
ATOM     32  C   UNL A   1      34.927  31.400  27.936  1.00  0.00     0.039 A 
ATOM     33  C   UNL A   1      35.025  30.143  28.539  1.00  0.00     0.014 A 
ATOM     34  C   UNL A   1      36.018  32.259  28.040  1.00  0.00     0.014 A 
ATOM     35  C   UNL A   1      36.211  29.743  29.185  1.00  0.00     0.010 A 
ATOM     36  C   UNL A   1      37.235  31.828  28.603  1.00  0.00     0.010 A 
ATOM     37  C   UNL A   1      37.352  30.565  29.204  1.00  0.00    -0.014 A 
BRANCH  37  38
ATOM     38  C   UNL A   1      38.621  30.104  29.871  1.00  0.00     0.031 A 
ATOM     39  C   UNL A   1      39.007  30.575  31.260  1.00  0.00     0.074 A 
ATOM     40  C   UNL A   1      39.446  29.240  29.237  1.00  0.00     0.049 A 
ATOM     41  N   UNL A   1      40.019  30.210  32.012  1.00  0.00    -0.248 NA
ATOM     42  C   UNL A   1      38.164  31.610  31.874  1.00  0.00     0.031 C 
ATOM     43  C   UNL A   1      39.261  28.751  27.870  1.00  0.00     0.029 A 
ATOM     44  N   UNL A   1      40.595  28.606  29.655  1.00  0.00    -0.354 N 
ATOM     45  C   UNL A   1      39.936  30.970  33.177  1.00  0.00     0.074 A 
ATOM     46  C   UNL A   1      38.817  31.871  32.996  1.00  0.00     0.031 C 
ATOM     47  C   UNL A   1      40.218  27.854  27.585  1.00  0.00     0.029 A 
ATOM     48  C   UNL A   1      41.117  27.728  28.729  1.00  0.00     0.049 A 
ATOM     49  H   UNL A   1      41.006  28.764  30.536  1.00  0.00     0.167 HD
ATOM     50  C   UNL A   1      40.691  30.908  34.305  1.00  0.00     0.034 A 
ATOM     51  C   UNL A   1      42.188  26.906  28.785  1.00  0.00     0.034 A 
ATOM     52  C   UNL A   1      41.796  29.996  34.494  1.00  0.00     0.049 A 
ATOM     53  C   UNL A   1      43.013  26.849  30.049  1.00  0.00     0.074 A 
ATOM     54  C   UNL A   1      42.570  29.803  35.627  1.00  0.00     0.029 A 
ATOM     55  N   UNL A   1      42.296  29.134  33.527  1.00  0.00    -0.354 N 
ATOM     56  N   UNL A   1      42.856  27.514  31.169  1.00  0.00    -0.248 NA
ATOM     57  C   UNL A   1      44.149  25.916  30.059  1.00  0.00     0.031 C 
ATOM     58  C   UNL A   1      43.581  28.886  35.322  1.00  0.00     0.029 A 
ATOM     59  C   UNL A   1      43.388  28.438  34.025  1.00  0.00     0.049 A 
ATOM     60  H   UNL A   1      41.929  29.032  32.619  1.00  0.00     0.167 HD
ATOM     61  C   UNL A   1      43.857  27.058  32.023  1.00  0.00     0.074 A 
ATOM     62  C   UNL A   1      44.596  26.046  31.298  1.00  0.00     0.031 C 
ATOM     63  C   UNL A   1      44.137  27.441  33.296  1.00  0.00     0.034 A 
BRANCH  50  64
ATOM     64  C   UNL A   1      40.353  31.865  35.431  1.00  0.00     0.023 A 
ATOM     65  C   UNL A   1      39.331  31.587  36.357  1.00  0.00     0.031 A 
ATOM     66  C   UNL A   1      41.058  33.073  35.582  1.00  0.00     0.131 A 
ATOM     67  C   UNL A   1      38.991  32.533  37.335  1.00  0.00     0.055 A 
ATOM     68  C   UNL A   1      40.772  33.973  36.612  1.00  0.00     0.041 A 
ATOM     69  F   UNL A   1      42.036  33.407  34.724  1.00  0.00    -0.206 F 
ATOM     70  C   UNL A   1      39.722  33.714  37.488  1.00  0.00     0.022 A 
BRANCH  67  71
ATOM     71  S   UNL A   1      37.484  32.273  38.312  1.00  0.00     0.124 S 
ATOM     72  O   UNL A   1      37.337  30.819  38.242  1.00  0.00    -0.237 OA
ATOM     73  O   UNL A   1      37.861  32.811  39.619  1.00  0.00    -0.237 OA
ATOM     74  O   UNL A   1      36.471  33.030  37.595  1.00  0.00    -0.744 OA
ENDBRANCH  67  71
ENDBRANCH  50  64
BRANCH  51  75
ATOM     75  C   UNL A   1      42.554  26.057  27.610  1.00  0.00     0.023 A 
ATOM     76  C   UNL A   1      42.066  24.746  27.475  1.00  0.00     0.031 A 
ATOM     77  C   UNL A   1      43.439  26.531  26.625  1.00  0.00     0.131 A 
ATOM     78  C   UNL A   1      42.499  23.941  26.408  1.00  0.00     0.055 A 
ATOM     79  C   UNL A   1      43.822  25.747  25.535  1.00  0.00     0.041 A 
ATOM     80  F   UNL A   1      43.939  27.774  26.705  1.00  0.00    -0.206 F 
ATOM     81  C   UNL A   1      43.362  24.439  25.429  1.00  0.00     0.022 A 
BRANCH  78  82
ATOM     82  S   UNL A   1      41.992  22.199  26.365  1.00  0.00     0.124 S 
ATOM     83  O   UNL A   1      42.545  21.696  27.617  1.00  0.00    -0.237 OA
ATOM     84  O   UNL A   1      40.538  22.308  26.304  1.00  0.00    -0.237 OA
ATOM     85  O   UNL A   1      42.627  21.689  25.152  1.00  0.00    -0.744 OA
ENDBRANCH  78  82
ENDBRANCH  51  75
BRANCH  63  86
ATOM     86  C   UNL A   1      45.272  26.732  33.999  1.00  0.00     0.023 A 
ATOM     87  C   UNL A   1      45.065  25.555  34.742  1.00  0.00     0.031 A 
ATOM     88  C   UNL A   1      46.578  27.251  33.942  1.00  0.00     0.131 A 
ATOM     89  C   UNL A   1      46.132  24.974  35.446  1.00  0.00     0.055 A 
ATOM     90  C   UNL A   1      47.647  26.632  34.590  1.00  0.00     0.041 A 
ATOM     91  F   UNL A   1      46.837  28.374  33.251  1.00  0.00    -0.206 F 
ATOM     92  C   UNL A   1      47.425  25.495  35.360  1.00  0.00     0.022 A 
BRANCH  89  93
ATOM     93  S   UNL A   1      45.786  23.586  36.562  1.00  0.00     0.124 S 
ATOM     94  O   UNL A   1      47.081  22.916  36.623  1.00  0.00    -0.237 OA
ATOM     95  O   UNL A   1      45.360  24.263  37.782  1.00  0.00    -0.237 OA
ATOM     96  O   UNL A   1      44.736  22.842  35.869  1.00  0.00    -0.744 OA
ENDBRANCH  89  93
ENDBRANCH  63  86
ENDBRANCH  37  38
ENDBRANCH  29  32
ENDBRANCH  27  28
ENDBRANCH   1  27
TORSDOF 17
ENDMDL
MODEL 2
REMARK VINA RESULT:     -11.3      1.405      1.729
REMARK SMILES CCC[NH2+][C@@]1(C(=O)NCCCNC(=O)c2ccc(-c3c4nc(c(-c5cc(S(=O)(=O)[O-])ccc5F)c5ccc([nH]5)c(-c5cc(S(=O)(=O)[O-])ccc5F)c5nc(c(-c6cc(S(=O)(=O)[O-])ccc6F)c6ccc3[nH]6)C=C5)C=C4)cc2)CCC[C@H](n2nc(C)c(C)c2C)C1
REMARK SMILES IDX 10 1 9 2 8 3 6 4 7 5 5 7 78 8 90 9 79 10 81 11 80 12 4 13
REMARK SMILES IDX 3 16 2 17 1 18 82 19 83 20 88 21 84 22 86 23 89 24 85 25
REMARK SMILES IDX 87 26 11 27 12 28 13 29 14 31 15 32 16 33 77 34 17 35 76 36
REMARK SMILES IDX 18 37 19 38 20 39 70 40 21 41 75 42 69 43 71 44 22 45 74 46
REMARK SMILES IDX 68 47 67 48 23 50 55 51 35 52 54 53 36 54 39 55 53 56 72 57
REMARK SMILES IDX 37 58 38 59 52 61 73 62 40 63 24 64 25 65 33 66 26 67 32 68
REMARK SMILES IDX 34 69 31 70 27 71 28 72 29 73 30 74 56 75 57 76 65 77 58 78
REMARK SMILES IDX 64 79 66 80 63 81 59 82 60 83 61 84 62 85 41 86 42 87 50 88
REMARK SMILES IDX 43 89 49 90 51 91 48 92 44 93 45 94 46 95 47 96
REMARK H PARENT 8 6 4 14 4 15 12 30 71 49 39 60
REMARK Flexibility Score: inf
ROOT
ATOM      1  C   UNL A   1      31.791  28.760  26.748  1.00  0.00     0.042 C 
ENDROOT
BRANCH   1   2
ATOM      2  C   UNL A   1      32.462  27.403  27.047  1.00  0.00     0.118 C 
BRANCH   2   3
ATOM      3  N   UNL A   1      32.859  26.573  25.898  1.00  0.00    -0.351 N 
ATOM      4  C   UNL A   1      32.341  26.270  24.665  1.00  0.00     0.281 C 
ATOM      5  O   UNL A   1      33.199  26.273  23.765  1.00  0.00    -0.268 OA
ATOM      6  H   UNL A   1      33.718  26.118  26.056  1.00  0.00     0.163 HD
BRANCH   4   7
ATOM      7  C   UNL A   1      30.824  25.861  24.298  1.00  0.00     0.177 C 
ATOM      8  C   UNL A   1      29.893  26.194  25.471  1.00  0.00     0.079 C 
ATOM      9  C   UNL A   1      30.498  24.395  23.927  1.00  0.00     0.106 C 
ATOM     10  C   UNL A   1      29.716  25.059  26.505  1.00  0.00     0.009 C 
ATOM     11  C   UNL A   1      31.028  23.357  24.886  1.00  0.00     0.114 C 
ATOM     12  C   UNL A   1      30.275  23.633  26.219  1.00  0.00     0.028 C 
BRANCH   7  13
ATOM     13  N   UNL A   1      30.363  26.727  23.111  1.00  0.00    -0.334 N 
ATOM     14  H   UNL A   1      31.169  26.887  22.506  1.00  0.00     0.347 HD
ATOM     15  H   UNL A   1      29.609  26.209  22.660  1.00  0.00     0.347 HD
BRANCH  13  16
ATOM     16  C   UNL A   1      29.794  28.045  23.471  1.00  0.00     0.261 C 
BRANCH  16  17
ATOM     17  C   UNL A   1      30.306  29.249  22.677  1.00  0.00     0.058 C 
ATOM     18  C   UNL A   1      29.287  29.840  21.732  1.00  0.00     0.010 C 
ENDBRANCH  16  17
ENDBRANCH  13  16
ENDBRANCH   7  13
BRANCH  11  19
ATOM     19  N   UNL A   1      32.489  23.199  24.801  1.00  0.00    -0.266 N 
ATOM     20  N   UNL A   1      33.262  23.368  25.904  1.00  0.00    -0.178 NA
ATOM     21  C   UNL A   1      33.280  22.692  23.768  1.00  0.00     0.039 A 
ATOM     22  C   UNL A   1      34.517  23.280  25.432  1.00  0.00     0.063 A 
ATOM     23  C   UNL A   1      34.552  23.153  24.035  1.00  0.00    -0.007 A 
ATOM     24  C   UNL A   1      32.917  21.827  22.623  1.00  0.00     0.066 C 
ATOM     25  C   UNL A   1      35.709  23.263  26.303  1.00  0.00     0.069 C 
ATOM     26  C   UNL A   1      35.720  23.231  23.124  1.00  0.00     0.048 C 
ENDBRANCH  11  19
ENDBRANCH   4   7
ENDBRANCH   2   3
ENDBRANCH   1   2
BRANCH   1  27
ATOM     27  C   UNL A   1      32.489  29.755  25.806  1.00  0.00     0.118 C 
BRANCH  27  28
ATOM     28  N   UNL A   1      32.269  31.151  26.168  1.00  0.00    -0.352 N 
ATOM     29  C   UNL A   1      32.935  31.981  27.051  1.00  0.00     0.251 C 
ATOM     30  H   UNL A   1      31.513  31.577  25.701  1.00  0.00     0.163 HD
ATOM     31  O   UNL A   1      32.430  33.076  27.300  1.00  0.00    -0.269 OA
BRANCH  29  32
ATOM     32  C   UNL A   1      34.220  31.616  27.718  1.00  0.00     0.039 A 
ATOM     33  C   UNL A   1      34.377  30.332  28.248  1.00  0.00     0.014 A 
ATOM     34  C   UNL A   1      35.230  32.545  27.954  1.00  0.00     0.014 A 
ATOM     35  C   UNL A   1      35.544  29.978  28.952  1.00  0.00     0.010 A 
ATOM     36  C   UNL A   1      36.437  32.168  28.576  1.00  0.00     0.010 A 
ATOM     37  C   UNL A   1      36.613  30.880  29.104  1.00  0.00    -0.014 A 
BRANCH  37  38
ATOM     38  C   UNL A   1      37.866  30.471  29.831  1.00  0.00     0.031 A 
ATOM     39  C   UNL A   1      38.133  30.898  31.262  1.00  0.00     0.074 A 
ATOM     40  C   UNL A   1      38.786  29.694  29.214  1.00  0.00     0.049 A 
ATOM     41  N   UNL A   1      39.119  30.564  32.061  1.00  0.00    -0.248 NA
ATOM     42  C   UNL A   1      37.185  31.845  31.864  1.00  0.00     0.031 C 
ATOM     43  C   UNL A   1      38.719  29.260  27.818  1.00  0.00     0.029 A 
ATOM     44  N   UNL A   1      39.948  29.116  29.678  1.00  0.00    -0.354 N 
ATOM     45  C   UNL A   1      38.912  31.260  33.250  1.00  0.00     0.074 A 
ATOM     46  C   UNL A   1      37.749  32.094  33.037  1.00  0.00     0.031 C 
ATOM     47  C   UNL A   1      39.751  28.442  27.557  1.00  0.00     0.029 A 
ATOM     48  C   UNL A   1      40.584  28.320  28.750  1.00  0.00     0.049 A 
ATOM     49  H   UNL A   1      40.292  29.258  30.589  1.00  0.00     0.167 HD
ATOM     50  C   UNL A   1      39.599  31.193  34.421  1.00  0.00     0.034 A 
ATOM     51  C   UNL A   1      41.703  27.568  28.839  1.00  0.00     0.034 A 
ATOM     52  C   UNL A   1      40.750  30.347  34.641  1.00  0.00     0.049 A 
ATOM     53  C   UNL A   1      42.450  27.504  30.150  1.00  0.00     0.074 A 
ATOM     54  C   UNL A   1      41.463  30.150  35.812  1.00  0.00     0.029 A 
ATOM     55  N   UNL A   1      41.366  29.567  33.671  1.00  0.00    -0.354 N 
ATOM     56  N   UNL A   1      42.180  28.102  31.286  1.00  0.00    -0.248 NA
ATOM     57  C   UNL A   1      43.644  26.647  30.192  1.00  0.00     0.031 C 
ATOM     58  C   UNL A   1      42.552  29.316  35.534  1.00  0.00     0.029 A 
ATOM     59  C   UNL A   1      42.470  28.920  34.209  1.00  0.00     0.049 A 
ATOM     60  H   UNL A   1      41.063  29.485  32.738  1.00  0.00     0.167 HD
ATOM     61  C   UNL A   1      43.155  27.671  32.182  1.00  0.00     0.074 A 
ATOM     62  C   UNL A   1      44.004  26.746  31.463  1.00  0.00     0.031 C 
ATOM     63  C   UNL A   1      43.328  28.010  33.486  1.00  0.00     0.034 A 
BRANCH  50  64
ATOM     64  C   UNL A   1      39.127  32.070  35.564  1.00  0.00     0.023 A 
ATOM     65  C   UNL A   1      39.556  33.403  35.699  1.00  0.00     0.031 A 
ATOM     66  C   UNL A   1      38.238  31.570  36.533  1.00  0.00     0.131 A 
ATOM     67  C   UNL A   1      39.164  34.159  36.815  1.00  0.00     0.055 A 
ATOM     68  C   UNL A   1      37.781  32.356  37.594  1.00  0.00     0.041 A 
ATOM     69  F   UNL A   1      37.800  30.302  36.470  1.00  0.00    -0.206 F 
ATOM     70  C   UNL A   1      38.257  33.654  37.750  1.00  0.00     0.022 A 
BRANCH  67  71
ATOM     71  S   UNL A   1      39.969  35.757  37.110  1.00  0.00     0.124 S 
ATOM     72  O   UNL A   1      39.658  36.476  35.874  1.00  0.00    -0.237 OA
ATOM     73  O   UNL A   1      39.287  36.235  38.313  1.00  0.00    -0.237 OA
ATOM     74  O   UNL A   1      41.371  35.412  37.285  1.00  0.00    -0.744 OA
ENDBRANCH  67  71
ENDBRANCH  50  64
BRANCH  51  75
ATOM     75  C   UNL A   1      42.197  26.802  27.654  1.00  0.00     0.023 A 
ATOM     76  C   UNL A   1      41.923  25.432  27.501  1.00  0.00     0.031 A 
ATOM     77  C   UNL A   1      42.997  27.422  26.676  1.00  0.00     0.131 A 
ATOM     78  C   UNL A   1      42.477  24.719  26.426  1.00  0.00     0.055 A 
ATOM     79  C   UNL A   1      43.498  26.723  25.578  1.00  0.00     0.041 A 
ATOM     80  F   UNL A   1      43.294  28.728  26.773  1.00  0.00    -0.206 F 
ATOM     81  C   UNL A   1      43.250  25.359  25.454  1.00  0.00     0.022 A 
BRANCH  78  82
ATOM     82  S   UNL A   1      42.251  22.919  26.359  1.00  0.00     0.124 S 
ATOM     83  O   UNL A   1      42.648  22.619  24.988  1.00  0.00    -0.237 OA
ATOM     84  O   UNL A   1      43.161  22.462  27.405  1.00  0.00    -0.237 OA
ATOM     85  O   UNL A   1      40.831  22.744  26.651  1.00  0.00    -0.744 OA
ENDBRANCH  78  82
ENDBRANCH  51  75
BRANCH  63  86
ATOM     86  C   UNL A   1      44.464  27.343  34.230  1.00  0.00     0.023 A 
ATOM     87  C   UNL A   1      44.296  26.112  34.891  1.00  0.00     0.031 A 
ATOM     88  C   UNL A   1      45.727  27.957  34.295  1.00  0.00     0.131 A 
ATOM     89  C   UNL A   1      45.353  25.568  35.637  1.00  0.00     0.055 A 
ATOM     90  C   UNL A   1      46.794  27.378  34.984  1.00  0.00     0.041 A 
ATOM     91  F   UNL A   1      45.947  29.134  33.687  1.00  0.00    -0.206 F 
ATOM     92  C   UNL A   1      46.606  26.184  35.673  1.00  0.00     0.022 A 
BRANCH  89  93
ATOM     93  S   UNL A   1      45.038  24.095  36.648  1.00  0.00     0.124 S 
ATOM     94  O   UNL A   1      44.290  24.651  37.770  1.00  0.00    -0.237 OA
ATOM     95  O   UNL A   1      44.281  23.245  35.735  1.00  0.00    -0.237 OA
ATOM     96  O   UNL A   1      46.378  23.610  36.976  1.00  0.00    -0.744 OA
ENDBRANCH  89  93
ENDBRANCH  63  86
ENDBRANCH  37  38
ENDBRANCH  29  32
ENDBRANCH  27  28
ENDBRANCH   1  27
TORSDOF 17
ENDMDL
MODEL 3
REMARK VINA RESULT:     -11.1      4.776     10.101
REMARK SMILES CCC[NH2+][C@@]1(C(=O)NCCCNC(=O)c2ccc(-c3c4nc(c(-c5cc(S(=O)(=O)[O-])ccc5F)c5ccc([nH]5)c(-c5cc(S(=O)(=O)[O-])ccc5F)c5nc(c(-c6cc(S(=O)(=O)[O-])ccc6F)c6ccc3[nH]6)C=C5)C=C4)cc2)CCC[C@H](n2nc(C)c(C)c2C)C1
REMARK SMILES IDX 10 1 9 2 8 3 6 4 7 5 5 7 78 8 90 9 79 10 81 11 80 12 4 13
REMARK SMILES IDX 3 16 2 17 1 18 82 19 83 20 88 21 84 22 86 23 89 24 85 25
REMARK SMILES IDX 87 26 11 27 12 28 13 29 14 31 15 32 16 33 77 34 17 35 76 36
REMARK SMILES IDX 18 37 19 38 20 39 70 40 21 41 75 42 69 43 71 44 22 45 74 46
REMARK SMILES IDX 68 47 67 48 23 50 55 51 35 52 54 53 36 54 39 55 53 56 72 57
REMARK SMILES IDX 37 58 38 59 52 61 73 62 40 63 24 64 25 65 33 66 26 67 32 68
REMARK SMILES IDX 34 69 31 70 27 71 28 72 29 73 30 74 56 75 57 76 65 77 58 78
REMARK SMILES IDX 64 79 66 80 63 81 59 82 60 83 61 84 62 85 41 86 42 87 50 88
REMARK SMILES IDX 43 89 49 90 51 91 48 92 44 93 45 94 46 95 47 96
REMARK H PARENT 8 6 4 14 4 15 12 30 71 49 39 60
REMARK Flexibility Score: inf
ROOT
ATOM      1  C   UNL A   1      36.420  22.705  25.664  1.00  0.00     0.042 C 
ENDROOT
BRANCH   1   2
ATOM      2  C   UNL A   1      35.830  24.047  25.184  1.00  0.00     0.118 C 
BRANCH   2   3
ATOM      3  N   UNL A   1      34.474  24.396  25.638  1.00  0.00    -0.351 N 
ATOM      4  C   UNL A   1      33.251  23.776  25.682  1.00  0.00     0.281 C 
ATOM      5  O   UNL A   1      32.647  23.970  26.752  1.00  0.00    -0.268 OA
ATOM      6  H   UNL A   1      34.434  25.309  26.006  1.00  0.00     0.163 HD
BRANCH   4   7
ATOM      7  C   UNL A   1      32.526  22.927  24.518  1.00  0.00     0.177 C 
ATOM      8  C   UNL A   1      33.574  22.367  23.546  1.00  0.00     0.079 C 
ATOM      9  C   UNL A   1      31.468  23.610  23.621  1.00  0.00     0.106 C 
ATOM     10  C   UNL A   1      33.916  23.290  22.355  1.00  0.00     0.009 C 
ATOM     11  C   UNL A   1      31.889  24.931  23.023  1.00  0.00     0.114 C 
ATOM     12  C   UNL A   1      33.075  24.573  22.081  1.00  0.00     0.028 C 
BRANCH   7  13
ATOM     13  N   UNL A   1      31.834  21.713  25.165  1.00  0.00    -0.334 N 
ATOM     14  H   UNL A   1      32.122  21.670  26.142  1.00  0.00     0.347 HD
ATOM     15  H   UNL A   1      30.832  21.859  25.039  1.00  0.00     0.347 HD
BRANCH  13  16
ATOM     16  C   UNL A   1      32.136  20.404  24.542  1.00  0.00     0.261 C 
BRANCH  16  17
ATOM     17  C   UNL A   1      32.942  19.416  25.388  1.00  0.00     0.058 C 
ATOM     18  C   UNL A   1      34.094  18.775  24.650  1.00  0.00     0.010 C 
ENDBRANCH  16  17
ENDBRANCH  13  16
ENDBRANCH   7  13
BRANCH  11  19
ATOM     19  N   UNL A   1      31.947  26.013  24.018  1.00  0.00    -0.266 N 
ATOM     20  N   UNL A   1      33.024  26.838  24.073  1.00  0.00    -0.178 NA
ATOM     21  C   UNL A   1      30.953  26.509  24.864  1.00  0.00     0.039 A 
ATOM     22  C   UNL A   1      32.791  27.595  25.158  1.00  0.00     0.063 A 
ATOM     23  C   UNL A   1      31.634  27.200  25.846  1.00  0.00    -0.007 A 
ATOM     24  C   UNL A   1      29.480  26.389  24.782  1.00  0.00     0.066 C 
ATOM     25  C   UNL A   1      33.637  28.744  25.538  1.00  0.00     0.069 C 
ATOM     26  C   UNL A   1      31.149  27.636  27.178  1.00  0.00     0.048 C 
ENDBRANCH  11  19
ENDBRANCH   4   7
ENDBRANCH   2   3
ENDBRANCH   1   2
BRANCH   1  27
ATOM     27  C   UNL A   1      37.559  22.052  24.865  1.00  0.00     0.118 C 
BRANCH  27  28
ATOM     28  N   UNL A   1      38.361  21.120  25.650  1.00  0.00    -0.352 N 
ATOM     29  C   UNL A   1      39.480  21.317  26.437  1.00  0.00     0.251 C 
ATOM     30  H   UNL A   1      38.049  20.186  25.613  1.00  0.00     0.163 HD
ATOM     31  O   UNL A   1      40.071  20.319  26.854  1.00  0.00    -0.269 OA
BRANCH  29  32
ATOM     32  C   UNL A   1      40.009  22.666  26.798  1.00  0.00     0.039 A 
ATOM     33  C   UNL A   1      40.917  22.786  27.854  1.00  0.00     0.014 A 
ATOM     34  C   UNL A   1      39.536  23.836  26.210  1.00  0.00     0.014 A 
ATOM     35  C   UNL A   1      41.376  24.050  28.272  1.00  0.00     0.010 A 
ATOM     36  C   UNL A   1      40.063  25.095  26.564  1.00  0.00     0.010 A 
ATOM     37  C   UNL A   1      40.982  25.229  27.615  1.00  0.00    -0.014 A 
BRANCH  37  38
ATOM     38  C   UNL A   1      41.511  26.568  28.057  1.00  0.00     0.031 A 
ATOM     39  C   UNL A   1      42.927  27.010  27.739  1.00  0.00     0.074 A 
ATOM     40  C   UNL A   1      40.716  27.417  28.748  1.00  0.00     0.049 A 
ATOM     41  N   UNL A   1      43.511  28.163  27.971  1.00  0.00    -0.248 NA
ATOM     42  C   UNL A   1      43.809  26.023  27.104  1.00  0.00     0.031 C 
ATOM     43  C   UNL A   1      39.357  27.116  29.201  1.00  0.00     0.029 A 
ATOM     44  N   UNL A   1      40.922  28.709  29.179  1.00  0.00    -0.354 N 
ATOM     45  C   UNL A   1      44.822  28.035  27.516  1.00  0.00     0.074 A 
ATOM     46  C   UNL A   1      44.966  26.667  27.067  1.00  0.00     0.031 C 
ATOM     47  C   UNL A   1      38.832  28.203  29.787  1.00  0.00     0.029 A 
ATOM     48  C   UNL A   1      39.826  29.274  29.795  1.00  0.00     0.049 A 
ATOM     49  H   UNL A   1      41.774  29.187  29.057  1.00  0.00     0.167 HD
ATOM     50  C   UNL A   1      45.807  28.969  27.446  1.00  0.00     0.034 A 
ATOM     51  C   UNL A   1      39.628  30.509  30.305  1.00  0.00     0.034 A 
ATOM     52  C   UNL A   1      45.659  30.340  27.878  1.00  0.00     0.049 A 
ATOM     53  C   UNL A   1      40.733  31.534  30.214  1.00  0.00     0.074 A 
ATOM     54  C   UNL A   1      46.569  31.380  27.774  1.00  0.00     0.029 A 
ATOM     55  N   UNL A   1      44.537  30.864  28.506  1.00  0.00    -0.354 N 
ATOM     56  N   UNL A   1      41.933  31.413  29.696  1.00  0.00    -0.248 NA
ATOM     57  C   UNL A   1      40.448  32.868  30.761  1.00  0.00     0.031 C 
ATOM     58  C   UNL A   1      46.031  32.506  28.406  1.00  0.00     0.029 A 
ATOM     59  C   UNL A   1      44.748  32.197  28.828  1.00  0.00     0.049 A 
ATOM     60  H   UNL A   1      43.711  30.362  28.695  1.00  0.00     0.167 HD
ATOM     61  C   UNL A   1      42.532  32.663  29.833  1.00  0.00     0.074 A 
ATOM     62  C   UNL A   1      41.556  33.528  30.458  1.00  0.00     0.031 C 
ATOM     63  C   UNL A   1      43.780  33.057  29.469  1.00  0.00     0.034 A 
BRANCH  50  64
ATOM     64  C   UNL A   1      47.147  28.537  26.885  1.00  0.00     0.023 A 
ATOM     65  C   UNL A   1      47.327  28.279  25.514  1.00  0.00     0.031 A 
ATOM     66  C   UNL A   1      48.260  28.377  27.730  1.00  0.00     0.131 A 
ATOM     67  C   UNL A   1      48.559  27.801  25.043  1.00  0.00     0.055 A 
ATOM     68  C   UNL A   1      49.510  27.984  27.241  1.00  0.00     0.041 A 
ATOM     69  F   UNL A   1      48.154  28.593  29.051  1.00  0.00    -0.206 F 
ATOM     70  C   UNL A   1      49.661  27.677  25.893  1.00  0.00     0.022 A 
BRANCH  67  71
ATOM     71  S   UNL A   1      48.664  27.198  23.335  1.00  0.00     0.124 S 
ATOM     72  O   UNL A   1      47.658  28.027  22.669  1.00  0.00    -0.237 OA
ATOM     73  O   UNL A   1      50.056  27.485  22.986  1.00  0.00    -0.237 OA
ATOM     74  O   UNL A   1      48.327  25.788  23.443  1.00  0.00    -0.744 OA
ENDBRANCH  67  71
ENDBRANCH  50  64
BRANCH  51  75
ATOM     75  C   UNL A   1      38.326  30.863  30.951  1.00  0.00     0.023 A 
ATOM     76  C   UNL A   1      37.333  31.572  30.254  1.00  0.00     0.031 A 
ATOM     77  C   UNL A   1      38.076  30.537  32.296  1.00  0.00     0.131 A 
ATOM     78  C   UNL A   1      36.158  31.970  30.914  1.00  0.00     0.055 A 
ATOM     79  C   UNL A   1      36.883  30.884  32.932  1.00  0.00     0.041 A 
ATOM     80  F   UNL A   1      38.991  29.863  33.011  1.00  0.00    -0.206 F 
ATOM     81  C   UNL A   1      35.921  31.616  32.244  1.00  0.00     0.022 A 
BRANCH  78  82
ATOM     82  S   UNL A   1      34.981  33.037  30.037  1.00  0.00     0.124 S 
ATOM     83  O   UNL A   1      35.873  33.963  29.348  1.00  0.00    -0.237 OA
ATOM     84  O   UNL A   1      34.274  32.078  29.193  1.00  0.00    -0.237 OA
ATOM     85  O   UNL A   1      34.184  33.621  31.113  1.00  0.00    -0.744 OA
ENDBRANCH  78  82
ENDBRANCH  51  75
BRANCH  63  86
ATOM     86  C   UNL A   1      44.145  34.506  29.706  1.00  0.00     0.023 A 
ATOM     87  C   UNL A   1      43.737  35.527  28.828  1.00  0.00     0.031 A 
ATOM     88  C   UNL A   1      44.928  34.868  30.817  1.00  0.00     0.131 A 
ATOM     89  C   UNL A   1      44.165  36.846  29.042  1.00  0.00     0.055 A 
ATOM     90  C   UNL A   1      45.296  36.191  31.059  1.00  0.00     0.041 A 
ATOM     91  F   UNL A   1      45.351  33.937  31.687  1.00  0.00    -0.206 F 
ATOM     92  C   UNL A   1      44.928  37.188  30.161  1.00  0.00     0.022 A 
BRANCH  89  93
ATOM     93  S   UNL A   1      43.800  38.096  27.778  1.00  0.00     0.124 S 
ATOM     94  O   UNL A   1      45.127  38.627  27.484  1.00  0.00    -0.237 OA
ATOM     95  O   UNL A   1      43.182  37.302  26.722  1.00  0.00    -0.237 OA
ATOM     96  O   UNL A   1      42.900  39.023  28.462  1.00  0.00    -0.744 OA
ENDBRANCH  89  93
ENDBRANCH  63  86
ENDBRANCH  37  38
ENDBRANCH  29  32
ENDBRANCH  27  28
ENDBRANCH   1  27
TORSDOF 17
ENDMDL
