MODEL 1
REMARK VINA RESULT:     -10.1      0.000      0.000
REMARK SMILES CCN(CC)C(=O)[C@H](C)SCC(=O)NCCCNC(=O)c1ccc(-c2c3nc(c(-c4cc(S(=O)(=O)[O-])ccc4F)c4ccc([nH]4)c(-c4cc(S(=O)(=O)[O-])ccc4F)c4nc(c(-c5cc(S(=O)(=O)[O-])ccc5F)c5ccc2[nH]5)C=C4)C=C3)cc1
REMARK SMILES IDX 15 1 14 2 12 3 13 4 11 6 10 7 8 8 9 9 6 10 3 11 7 12 2 13
REMARK SMILES IDX 1 14 4 15 5 16 16 17 17 18 18 19 19 20 20 22 21 23 22 24
REMARK SMILES IDX 83 25 23 26 82 27 24 28 25 29 26 30 76 31 27 32 81 33 75 34
REMARK SMILES IDX 77 35 28 36 80 37 74 38 73 39 29 41 61 42 41 43 60 44 42 45
REMARK SMILES IDX 45 46 59 47 78 48 43 49 44 50 58 52 79 53 46 54 30 55 31 56
REMARK SMILES IDX 39 57 32 58 38 59 40 60 37 61 33 62 34 63 35 64 36 65 62 66
REMARK SMILES IDX 63 67 71 68 64 69 70 70 72 71 69 72 65 73 66 74 67 75 68 76
REMARK SMILES IDX 47 77 48 78 56 79 49 80 55 81 57 82 54 83 50 84 51 85 52 86
REMARK SMILES IDX 53 87
REMARK H PARENT 14 5 18 21 77 40 45 51
REMARK Flexibility Score: inf
ROOT
ATOM      1  C   UNL A   1      31.576  30.226  25.499  1.00  0.00     0.117 C 
ENDROOT
BRANCH   1   2
ATOM      2  N   UNL A   1      30.973  30.083  24.187  1.00  0.00    -0.355 N 
ATOM      3  C   UNL A   1      30.446  28.987  23.567  1.00  0.00     0.230 C 
ATOM      4  O   UNL A   1      29.811  29.171  22.521  1.00  0.00    -0.274 OA
ATOM      5  H   UNL A   1      30.938  30.912  23.657  1.00  0.00     0.163 HD
BRANCH   3   6
ATOM      6  C   UNL A   1      30.484  27.604  24.191  1.00  0.00     0.170 C 
BRANCH   6   7
ATOM      7  S   UNL A   1      31.868  26.512  23.744  1.00  0.00    -0.139 SA
BRANCH   7   8
ATOM      8  C   UNL A   1      32.039  25.360  25.171  1.00  0.00     0.133 C 
ATOM      9  C   UNL A   1      31.214  25.757  26.385  1.00  0.00     0.030 C 
BRANCH   8  10
ATOM     10  C   UNL A   1      31.775  23.897  24.790  1.00  0.00     0.235 C 
ATOM     11  N   UNL A   1      32.391  22.877  25.509  1.00  0.00    -0.342 N 
ATOM     12  O   UNL A   1      30.981  23.612  23.891  1.00  0.00    -0.274 OA
BRANCH  11  13
ATOM     13  C   UNL A   1      32.060  21.496  25.137  1.00  0.00     0.116 C 
ATOM     14  C   UNL A   1      32.888  21.006  23.955  1.00  0.00     0.027 C 
ENDBRANCH  11  13
BRANCH  11  15
ATOM     15  C   UNL A   1      33.442  23.060  26.511  1.00  0.00     0.116 C 
ATOM     16  C   UNL A   1      34.825  22.908  25.894  1.00  0.00     0.027 C 
ENDBRANCH  11  15
ENDBRANCH   8  10
ENDBRANCH   7   8
ENDBRANCH   6   7
ENDBRANCH   3   6
ENDBRANCH   1   2
BRANCH   1  17
ATOM     17  C   UNL A   1      31.383  31.606  26.131  1.00  0.00     0.042 C 
BRANCH  17  18
ATOM     18  C   UNL A   1      32.539  32.101  26.995  1.00  0.00     0.118 C 
BRANCH  18  19
ATOM     19  N   UNL A   1      32.396  33.495  27.386  1.00  0.00    -0.352 N 
ATOM     20  C   UNL A   1      33.035  34.245  28.343  1.00  0.00     0.251 C 
ATOM     21  H   UNL A   1      31.718  33.992  26.872  1.00  0.00     0.163 HD
ATOM     22  O   UNL A   1      32.589  35.361  28.603  1.00  0.00    -0.269 OA
BRANCH  20  23
ATOM     23  C   UNL A   1      34.224  33.745  29.078  1.00  0.00     0.039 A 
ATOM     24  C   UNL A   1      34.028  32.796  30.089  1.00  0.00     0.014 A 
ATOM     25  C   UNL A   1      35.510  34.240  28.850  1.00  0.00     0.014 A 
ATOM     26  C   UNL A   1      35.116  32.301  30.819  1.00  0.00     0.010 A 
ATOM     27  C   UNL A   1      36.605  33.700  29.534  1.00  0.00     0.010 A 
ATOM     28  C   UNL A   1      36.421  32.720  30.523  1.00  0.00    -0.014 A 
BRANCH  28  29
ATOM     29  C   UNL A   1      37.599  32.132  31.224  1.00  0.00     0.031 A 
ATOM     30  C   UNL A   1      38.403  31.032  30.582  1.00  0.00     0.074 A 
ATOM     31  C   UNL A   1      37.903  32.544  32.472  1.00  0.00     0.049 A 
ATOM     32  N   UNL A   1      39.397  30.337  31.077  1.00  0.00    -0.248 NA
ATOM     33  C   UNL A   1      38.023  30.644  29.216  1.00  0.00     0.031 C 
ATOM     34  C   UNL A   1      37.180  33.576  33.219  1.00  0.00     0.029 A 
ATOM     35  N   UNL A   1      38.884  32.136  33.342  1.00  0.00    -0.354 N 
ATOM     36  C   UNL A   1      39.745  29.414  30.095  1.00  0.00     0.074 A 
ATOM     37  C   UNL A   1      38.831  29.617  28.991  1.00  0.00     0.031 C 
ATOM     38  C   UNL A   1      37.742  33.721  34.429  1.00  0.00     0.029 A 
ATOM     39  C   UNL A   1      38.836  32.763  34.567  1.00  0.00     0.049 A 
ATOM     40  H   UNL A   1      39.559  31.456  33.112  1.00  0.00     0.167 HD
ATOM     41  C   UNL A   1      40.740  28.492  30.112  1.00  0.00     0.034 A 
ATOM     42  C   UNL A   1      39.570  32.578  35.683  1.00  0.00     0.034 A 
ATOM     43  C   UNL A   1      41.665  28.320  31.206  1.00  0.00     0.049 A 
ATOM     44  C   UNL A   1      40.673  31.549  35.672  1.00  0.00     0.074 A 
ATOM     45  C   UNL A   1      42.762  27.478  31.282  1.00  0.00     0.029 A 
ATOM     46  N   UNL A   1      41.599  28.991  32.421  1.00  0.00    -0.354 N 
ATOM     47  N   UNL A   1      41.029  30.732  34.707  1.00  0.00    -0.248 NA
ATOM     48  C   UNL A   1      41.478  31.424  36.894  1.00  0.00     0.031 C 
ATOM     49  C   UNL A   1      43.316  27.588  32.561  1.00  0.00     0.029 A 
ATOM     50  C   UNL A   1      42.613  28.553  33.262  1.00  0.00     0.049 A 
ATOM     51  H   UNL A   1      40.932  29.677  32.651  1.00  0.00     0.167 HD
ATOM     52  C   UNL A   1      42.119  30.020  35.199  1.00  0.00     0.074 A 
ATOM     53  C   UNL A   1      42.371  30.514  36.536  1.00  0.00     0.031 C 
ATOM     54  C   UNL A   1      42.849  29.045  34.598  1.00  0.00     0.034 A 
BRANCH  41  55
ATOM     55  C   UNL A   1      40.865  27.568  28.923  1.00  0.00     0.023 A 
ATOM     56  C   UNL A   1      41.863  27.740  27.949  1.00  0.00     0.031 A 
ATOM     57  C   UNL A   1      39.976  26.489  28.773  1.00  0.00     0.131 A 
ATOM     58  C   UNL A   1      41.912  26.880  26.840  1.00  0.00     0.055 A 
ATOM     59  C   UNL A   1      40.075  25.594  27.706  1.00  0.00     0.041 A 
ATOM     60  F   UNL A   1      38.992  26.286  29.664  1.00  0.00    -0.206 F 
ATOM     61  C   UNL A   1      41.042  25.794  26.725  1.00  0.00     0.022 A 
BRANCH  58  62
ATOM     62  S   UNL A   1      43.064  27.264  25.493  1.00  0.00     0.124 S 
ATOM     63  O   UNL A   1      44.158  27.909  26.216  1.00  0.00    -0.237 OA
ATOM     64  O   UNL A   1      43.354  25.947  24.939  1.00  0.00    -0.237 OA
ATOM     65  O   UNL A   1      42.292  28.151  24.625  1.00  0.00    -0.744 OA
ENDBRANCH  58  62
ENDBRANCH  41  55
BRANCH  42  66
ATOM     66  C   UNL A   1      39.274  33.355  36.922  1.00  0.00     0.023 A 
ATOM     67  C   UNL A   1      39.893  34.589  37.172  1.00  0.00     0.031 A 
ATOM     68  C   UNL A   1      38.408  32.841  37.904  1.00  0.00     0.131 A 
ATOM     69  C   UNL A   1      39.684  35.242  38.397  1.00  0.00     0.055 A 
ATOM     70  C   UNL A   1      38.157  33.523  39.097  1.00  0.00     0.041 A 
ATOM     71  F   UNL A   1      37.787  31.666  37.716  1.00  0.00    -0.206 F 
ATOM     72  C   UNL A   1      38.810  34.724  39.355  1.00  0.00     0.022 A 
BRANCH  69  73
ATOM     73  S   UNL A   1      40.653  36.731  38.763  1.00  0.00     0.124 S 
ATOM     74  O   UNL A   1      41.330  36.349  39.997  1.00  0.00    -0.237 OA
ATOM     75  O   UNL A   1      41.495  36.841  37.577  1.00  0.00    -0.237 OA
ATOM     76  O   UNL A   1      39.636  37.771  38.904  1.00  0.00    -0.744 OA
ENDBRANCH  69  73
ENDBRANCH  42  66
BRANCH  54  77
ATOM     77  C   UNL A   1      44.016  28.486  35.374  1.00  0.00     0.023 A 
ATOM     78  C   UNL A   1      43.856  27.438  36.297  1.00  0.00     0.031 A 
ATOM     79  C   UNL A   1      45.305  29.019  35.195  1.00  0.00     0.131 A 
ATOM     80  C   UNL A   1      44.956  26.994  37.048  1.00  0.00     0.055 A 
ATOM     81  C   UNL A   1      46.406  28.534  35.901  1.00  0.00     0.041 A 
ATOM     82  F   UNL A   1      45.514  30.023  34.328  1.00  0.00    -0.206 F 
ATOM     83  C   UNL A   1      46.233  27.525  36.844  1.00  0.00     0.022 A 
BRANCH  80  84
ATOM     84  S   UNL A   1      44.681  25.770  38.358  1.00  0.00     0.124 S 
ATOM     85  O   UNL A   1      43.783  24.823  37.705  1.00  0.00    -0.237 OA
ATOM     86  O   UNL A   1      46.033  25.287  38.623  1.00  0.00    -0.237 OA
ATOM     87  O   UNL A   1      44.081  26.551  39.438  1.00  0.00    -0.744 OA
ENDBRANCH  80  84
ENDBRANCH  54  77
ENDBRANCH  28  29
ENDBRANCH  20  23
ENDBRANCH  18  19
ENDBRANCH  17  18
ENDBRANCH   1  17
TORSDOF 18
ENDMDL
MODEL 2
REMARK VINA RESULT:     -10.1      2.635      3.400
REMARK SMILES CCN(CC)C(=O)[C@H](C)SCC(=O)NCCCNC(=O)c1ccc(-c2c3nc(c(-c4cc(S(=O)(=O)[O-])ccc4F)c4ccc([nH]4)c(-c4cc(S(=O)(=O)[O-])ccc4F)c4nc(c(-c5cc(S(=O)(=O)[O-])ccc5F)c5ccc2[nH]5)C=C4)C=C3)cc1
REMARK SMILES IDX 15 1 14 2 12 3 13 4 11 6 10 7 8 8 9 9 6 10 3 11 7 12 2 13
REMARK SMILES IDX 1 14 4 15 5 16 16 17 17 18 18 19 19 20 20 22 21 23 22 24
REMARK SMILES IDX 83 25 23 26 82 27 24 28 25 29 26 30 76 31 27 32 81 33 75 34
REMARK SMILES IDX 77 35 28 36 80 37 74 38 73 39 29 41 61 42 41 43 60 44 42 45
REMARK SMILES IDX 45 46 59 47 78 48 43 49 44 50 58 52 79 53 46 54 30 55 31 56
REMARK SMILES IDX 39 57 32 58 38 59 40 60 37 61 33 62 34 63 35 64 36 65 62 66
REMARK SMILES IDX 63 67 71 68 64 69 70 70 72 71 69 72 65 73 66 74 67 75 68 76
REMARK SMILES IDX 47 77 48 78 56 79 49 80 55 81 57 82 54 83 50 84 51 85 52 86
REMARK SMILES IDX 53 87
REMARK H PARENT 14 5 18 21 77 40 45 51
REMARK Flexibility Score: inf
ROOT
ATOM      1  C   UNL A   1      31.560  27.256  25.155  1.00  0.00     0.117 C 
ENDROOT
BRANCH   1   2
ATOM      2  N   UNL A   1      30.530  26.487  25.827  1.00  0.00    -0.355 N 
ATOM      3  C   UNL A   1      30.434  25.145  26.061  1.00  0.00     0.230 C 
ATOM      4  O   UNL A   1      29.548  24.761  26.834  1.00  0.00    -0.274 OA
ATOM      5  H   UNL A   1      29.777  27.019  26.172  1.00  0.00     0.163 HD
BRANCH   3   6
ATOM      6  C   UNL A   1      31.456  24.154  25.535  1.00  0.00     0.170 C 
BRANCH   6   7
ATOM      7  S   UNL A   1      31.487  23.843  23.743  1.00  0.00    -0.139 SA
BRANCH   7   8
ATOM      8  C   UNL A   1      32.564  22.362  23.541  1.00  0.00     0.133 C 
ATOM      9  C   UNL A   1      32.092  21.400  22.462  1.00  0.00     0.030 C 
BRANCH   8  10
ATOM     10  C   UNL A   1      34.041  22.725  23.337  1.00  0.00     0.235 C 
ATOM     11  N   UNL A   1      34.992  22.275  24.249  1.00  0.00    -0.342 N 
ATOM     12  O   UNL A   1      34.404  23.362  22.347  1.00  0.00    -0.274 OA
BRANCH  11  13
ATOM     13  C   UNL A   1      36.396  22.605  23.975  1.00  0.00     0.116 C 
ATOM     14  C   UNL A   1      37.345  21.511  24.449  1.00  0.00     0.027 C 
ENDBRANCH  11  13
BRANCH  11  15
ATOM     15  C   UNL A   1      34.701  21.620  25.525  1.00  0.00     0.116 C 
ATOM     16  C   UNL A   1      34.569  22.637  26.649  1.00  0.00     0.027 C 
ENDBRANCH  11  15
ENDBRANCH   8  10
ENDBRANCH   7   8
ENDBRANCH   6   7
ENDBRANCH   3   6
ENDBRANCH   1   2
BRANCH   1  17
ATOM     17  C   UNL A   1      31.394  28.772  25.282  1.00  0.00     0.042 C 
BRANCH  17  18
ATOM     18  C   UNL A   1      32.642  29.536  25.715  1.00  0.00     0.118 C 
BRANCH  18  19
ATOM     19  N   UNL A   1      32.353  30.897  26.140  1.00  0.00    -0.352 N 
ATOM     20  C   UNL A   1      32.964  31.715  27.059  1.00  0.00     0.251 C 
ATOM     21  H   UNL A   1      31.580  31.306  25.688  1.00  0.00     0.163 HD
ATOM     22  O   UNL A   1      32.400  32.763  27.372  1.00  0.00    -0.269 OA
BRANCH  20  23
ATOM     23  C   UNL A   1      34.261  31.366  27.693  1.00  0.00     0.039 A 
ATOM     24  C   UNL A   1      35.208  32.382  27.866  1.00  0.00     0.014 A 
ATOM     25  C   UNL A   1      34.593  30.057  28.049  1.00  0.00     0.014 A 
ATOM     26  C   UNL A   1      36.450  32.102  28.449  1.00  0.00     0.010 A 
ATOM     27  C   UNL A   1      35.808  29.788  28.689  1.00  0.00     0.010 A 
ATOM     28  C   UNL A   1      36.750  30.809  28.901  1.00  0.00    -0.014 A 
BRANCH  28  29
ATOM     29  C   UNL A   1      38.028  30.514  29.611  1.00  0.00     0.031 A 
ATOM     30  C   UNL A   1      39.029  29.556  29.021  1.00  0.00     0.074 A 
ATOM     31  C   UNL A   1      38.254  31.058  30.824  1.00  0.00     0.049 A 
ATOM     32  N   UNL A   1      40.147  29.107  29.536  1.00  0.00    -0.248 NA
ATOM     33  C   UNL A   1      38.722  29.012  27.690  1.00  0.00     0.031 C 
ATOM     34  C   UNL A   1      37.346  31.972  31.522  1.00  0.00     0.029 A 
ATOM     35  N   UNL A   1      39.305  30.911  31.696  1.00  0.00    -0.354 N 
ATOM     36  C   UNL A   1      40.664  28.210  28.606  1.00  0.00     0.074 A 
ATOM     37  C   UNL A   1      39.717  28.154  27.511  1.00  0.00     0.031 C 
ATOM     38  C   UNL A   1      37.879  32.304  32.707  1.00  0.00     0.029 A 
ATOM     39  C   UNL A   1      39.144  31.595  32.880  1.00  0.00     0.049 A 
ATOM     40  H   UNL A   1      40.100  30.366  31.494  1.00  0.00     0.167 HD
ATOM     41  C   UNL A   1      41.823  27.507  28.659  1.00  0.00     0.034 A 
ATOM     42  C   UNL A   1      39.910  31.633  33.989  1.00  0.00     0.034 A 
ATOM     43  C   UNL A   1      42.774  27.595  29.741  1.00  0.00     0.049 A 
ATOM     44  C   UNL A   1      41.196  30.845  34.018  1.00  0.00     0.074 A 
ATOM     45  C   UNL A   1      44.018  26.995  29.844  1.00  0.00     0.029 A 
ATOM     46  N   UNL A   1      42.586  28.317  30.912  1.00  0.00    -0.354 N 
ATOM     47  N   UNL A   1      41.700  30.055  33.098  1.00  0.00    -0.248 NA
ATOM     48  C   UNL A   1      42.021  30.963  35.228  1.00  0.00     0.031 C 
ATOM     49  C   UNL A   1      44.550  27.297  31.101  1.00  0.00     0.029 A 
ATOM     50  C   UNL A   1      43.674  28.146  31.756  1.00  0.00     0.049 A 
ATOM     51  H   UNL A   1      41.798  28.870  31.114  1.00  0.00     0.167 HD
ATOM     52  C   UNL A   1      42.914  29.608  33.610  1.00  0.00     0.074 A 
ATOM     53  C   UNL A   1      43.075  30.228  34.907  1.00  0.00     0.031 C 
ATOM     54  C   UNL A   1      43.820  28.761  33.054  1.00  0.00     0.034 A 
BRANCH  41  55
ATOM     55  C   UNL A   1      42.120  26.552  27.526  1.00  0.00     0.023 A 
ATOM     56  C   UNL A   1      41.715  25.207  27.561  1.00  0.00     0.031 A 
ATOM     57  C   UNL A   1      42.808  27.004  26.385  1.00  0.00     0.131 A 
ATOM     58  C   UNL A   1      42.050  24.348  26.502  1.00  0.00     0.055 A 
ATOM     59  C   UNL A   1      43.075  26.162  25.304  1.00  0.00     0.041 A 
ATOM     60  F   UNL A   1      43.234  28.274  26.303  1.00  0.00    -0.206 F 
ATOM     61  C   UNL A   1      42.705  24.822  25.364  1.00  0.00     0.022 A 
BRANCH  58  62
ATOM     62  S   UNL A   1      41.712  22.575  26.682  1.00  0.00     0.124 S 
ATOM     63  O   UNL A   1      40.258  22.566  26.821  1.00  0.00    -0.237 OA
ATOM     64  O   UNL A   1      42.237  22.026  25.437  1.00  0.00    -0.237 OA
ATOM     65  O   UNL A   1      42.450  22.206  27.888  1.00  0.00    -0.744 OA
ENDBRANCH  58  62
ENDBRANCH  41  55
BRANCH  42  66
ATOM     66  C   UNL A   1      39.475  32.414  35.184  1.00  0.00     0.023 A 
ATOM     67  C   UNL A   1      38.812  31.795  36.255  1.00  0.00     0.031 A 
ATOM     68  C   UNL A   1      39.665  33.807  35.242  1.00  0.00     0.131 A 
ATOM     69  C   UNL A   1      38.312  32.573  37.312  1.00  0.00     0.055 A 
ATOM     70  C   UNL A   1      39.218  34.568  36.324  1.00  0.00     0.041 A 
ATOM     71  F   UNL A   1      40.295  34.450  34.247  1.00  0.00    -0.206 F 
ATOM     72  C   UNL A   1      38.523  33.952  37.360  1.00  0.00     0.022 A 
BRANCH  69  73
ATOM     73  S   UNL A   1      37.291  31.765  38.575  1.00  0.00     0.124 S 
ATOM     74  O   UNL A   1      38.124  31.903  39.763  1.00  0.00    -0.237 OA
ATOM     75  O   UNL A   1      36.077  32.574  38.543  1.00  0.00    -0.237 OA
ATOM     76  O   UNL A   1      37.143  30.402  38.069  1.00  0.00    -0.744 OA
ENDBRANCH  69  73
ENDBRANCH  42  66
BRANCH  54  77
ATOM     77  C   UNL A   1      45.082  28.497  33.837  1.00  0.00     0.023 A 
ATOM     78  C   UNL A   1      45.211  27.375  34.675  1.00  0.00     0.031 A 
ATOM     79  C   UNL A   1      46.166  29.388  33.753  1.00  0.00     0.131 A 
ATOM     80  C   UNL A   1      46.377  27.204  35.439  1.00  0.00     0.055 A 
ATOM     81  C   UNL A   1      47.345  29.182  34.470  1.00  0.00     0.041 A 
ATOM     82  F   UNL A   1      46.095  30.477  32.970  1.00  0.00    -0.206 F 
ATOM     83  C   UNL A   1      47.450  28.092  35.328  1.00  0.00     0.022 A 
BRANCH  80  84
ATOM     84  S   UNL A   1      46.439  25.851  36.644  1.00  0.00     0.124 S 
ATOM     85  O   UNL A   1      45.043  25.428  36.698  1.00  0.00    -0.237 OA
ATOM     86  O   UNL A   1      47.364  24.913  36.014  1.00  0.00    -0.237 OA
ATOM     87  O   UNL A   1      46.940  26.494  37.858  1.00  0.00    -0.744 OA
ENDBRANCH  80  84
ENDBRANCH  54  77
ENDBRANCH  28  29
ENDBRANCH  20  23
ENDBRANCH  18  19
ENDBRANCH  17  18
ENDBRANCH   1  17
TORSDOF 18
ENDMDL
MODEL 3
REMARK VINA RESULT:     -10.0      5.206      8.805
REMARK SMILES CCN(CC)C(=O)[C@H](C)SCC(=O)NCCCNC(=O)c1ccc(-c2c3nc(c(-c4cc(S(=O)(=O)[O-])ccc4F)c4ccc([nH]4)c(-c4cc(S(=O)(=O)[O-])ccc4F)c4nc(c(-c5cc(S(=O)(=O)[O-])ccc5F)c5ccc2[nH]5)C=C4)C=C3)cc1
REMARK SMILES IDX 15 1 14 2 12 3 13 4 11 6 10 7 8 8 9 9 6 10 3 11 7 12 2 13
REMARK SMILES IDX 1 14 4 15 5 16 16 17 17 18 18 19 19 20 20 22 21 23 22 24
REMARK SMILES IDX 83 25 23 26 82 27 24 28 25 29 26 30 76 31 27 32 81 33 75 34
REMARK SMILES IDX 77 35 28 36 80 37 74 38 73 39 29 41 61 42 41 43 60 44 42 45
REMARK SMILES IDX 45 46 59 47 78 48 43 49 44 50 58 52 79 53 46 54 30 55 31 56
REMARK SMILES IDX 39 57 32 58 38 59 40 60 37 61 33 62 34 63 35 64 36 65 62 66
REMARK SMILES IDX 63 67 71 68 64 69 70 70 72 71 69 72 65 73 66 74 67 75 68 76
REMARK SMILES IDX 47 77 48 78 56 79 49 80 55 81 57 82 54 83 50 84 51 85 52 86
REMARK SMILES IDX 53 87
REMARK H PARENT 14 5 18 21 77 40 45 51
REMARK Flexibility Score: inf
ROOT
ATOM      1  C   UNL A   1      34.638  21.958  24.986  1.00  0.00     0.117 C 
ENDROOT
BRANCH   1   2
ATOM      2  N   UNL A   1      34.658  22.849  23.841  1.00  0.00    -0.355 N 
ATOM      3  C   UNL A   1      33.766  23.802  23.441  1.00  0.00     0.230 C 
ATOM      4  O   UNL A   1      34.115  24.566  22.532  1.00  0.00    -0.274 OA
ATOM      5  H   UNL A   1      35.444  22.751  23.257  1.00  0.00     0.163 HD
BRANCH   3   6
ATOM      6  C   UNL A   1      32.455  24.043  24.167  1.00  0.00     0.170 C 
BRANCH   6   7
ATOM      7  S   UNL A   1      32.510  24.996  25.716  1.00  0.00    -0.139 SA
BRANCH   7   8
ATOM      8  C   UNL A   1      31.282  26.349  25.479  1.00  0.00     0.133 C 
ATOM      9  C   UNL A   1      29.842  25.921  25.713  1.00  0.00     0.030 C 
BRANCH   8  10
ATOM     10  C   UNL A   1      31.616  27.604  26.297  1.00  0.00     0.235 C 
ATOM     11  N   UNL A   1      32.100  28.738  25.649  1.00  0.00    -0.342 N 
ATOM     12  O   UNL A   1      31.410  27.641  27.511  1.00  0.00    -0.274 OA
BRANCH  11  13
ATOM     13  C   UNL A   1      32.351  29.927  26.471  1.00  0.00     0.116 C 
ATOM     14  C   UNL A   1      31.399  31.068  26.135  1.00  0.00     0.027 C 
ENDBRANCH  11  13
BRANCH  11  15
ATOM     15  C   UNL A   1      32.508  28.804  24.245  1.00  0.00     0.116 C 
ATOM     16  C   UNL A   1      33.959  28.380  24.072  1.00  0.00     0.027 C 
ENDBRANCH  11  15
ENDBRANCH   8  10
ENDBRANCH   7   8
ENDBRANCH   6   7
ENDBRANCH   3   6
ENDBRANCH   1   2
BRANCH   1  17
ATOM     17  C   UNL A   1      35.379  22.495  26.212  1.00  0.00     0.042 C 
BRANCH  17  18
ATOM     18  C   UNL A   1      36.715  23.176  25.927  1.00  0.00     0.118 C 
BRANCH  18  19
ATOM     19  N   UNL A   1      37.849  22.275  26.063  1.00  0.00    -0.352 N 
ATOM     20  C   UNL A   1      39.169  22.508  26.362  1.00  0.00     0.251 C 
ATOM     21  H   UNL A   1      37.631  21.326  25.914  1.00  0.00     0.163 HD
ATOM     22  O   UNL A   1      39.970  21.584  26.225  1.00  0.00    -0.269 OA
BRANCH  20  23
ATOM     23  C   UNL A   1      39.656  23.834  26.821  1.00  0.00     0.039 A 
ATOM     24  C   UNL A   1      40.067  24.760  25.855  1.00  0.00     0.014 A 
ATOM     25  C   UNL A   1      39.789  24.156  28.174  1.00  0.00     0.014 A 
ATOM     26  C   UNL A   1      40.543  26.020  26.238  1.00  0.00     0.010 A 
ATOM     27  C   UNL A   1      40.204  25.437  28.555  1.00  0.00     0.010 A 
ATOM     28  C   UNL A   1      40.582  26.386  27.591  1.00  0.00    -0.014 A 
BRANCH  28  29
ATOM     29  C   UNL A   1      40.995  27.756  28.010  1.00  0.00     0.031 A 
ATOM     30  C   UNL A   1      42.447  28.158  27.997  1.00  0.00     0.074 A 
ATOM     31  C   UNL A   1      40.065  28.618  28.470  1.00  0.00     0.049 A 
ATOM     32  N   UNL A   1      43.002  29.269  28.414  1.00  0.00    -0.248 NA
ATOM     33  C   UNL A   1      43.402  27.172  27.469  1.00  0.00     0.031 C 
ATOM     34  C   UNL A   1      38.630  28.338  28.569  1.00  0.00     0.029 A 
ATOM     35  N   UNL A   1      40.184  29.896  28.959  1.00  0.00    -0.354 N 
ATOM     36  C   UNL A   1      44.370  29.108  28.224  1.00  0.00     0.074 A 
ATOM     37  C   UNL A   1      44.562  27.777  27.686  1.00  0.00     0.031 C 
ATOM     38  C   UNL A   1      38.006  29.409  29.082  1.00  0.00     0.029 A 
ATOM     39  C   UNL A   1      38.995  30.438  29.392  1.00  0.00     0.049 A 
ATOM     40  H   UNL A   1      41.041  30.380  28.997  1.00  0.00     0.167 HD
ATOM     41  C   UNL A   1      45.371  29.992  28.467  1.00  0.00     0.034 A 
ATOM     42  C   UNL A   1      38.728  31.616  29.992  1.00  0.00     0.034 A 
ATOM     43  C   UNL A   1      45.165  31.327  28.974  1.00  0.00     0.049 A 
ATOM     44  C   UNL A   1      39.859  32.581  30.246  1.00  0.00     0.074 A 
ATOM     45  C   UNL A   1      46.102  32.328  29.167  1.00  0.00     0.029 A 
ATOM     46  N   UNL A   1      43.943  31.847  29.379  1.00  0.00    -0.354 N 
ATOM     47  N   UNL A   1      41.140  32.435  29.996  1.00  0.00    -0.248 NA
ATOM     48  C   UNL A   1      39.507  33.872  30.852  1.00  0.00     0.031 C 
ATOM     49  C   UNL A   1      45.462  33.425  29.751  1.00  0.00     0.029 A 
ATOM     50  C   UNL A   1      44.110  33.140  29.855  1.00  0.00     0.049 A 
ATOM     51  H   UNL A   1      43.083  31.370  29.334  1.00  0.00     0.167 HD
ATOM     52  C   UNL A   1      41.739  33.629  30.388  1.00  0.00     0.074 A 
ATOM     53  C   UNL A   1      40.680  34.488  30.873  1.00  0.00     0.031 C 
ATOM     54  C   UNL A   1      43.049  33.985  30.347  1.00  0.00     0.034 A 
BRANCH  41  55
ATOM     55  C   UNL A   1      46.790  29.535  28.220  1.00  0.00     0.023 A 
ATOM     56  C   UNL A   1      47.569  28.944  29.229  1.00  0.00     0.031 A 
ATOM     57  C   UNL A   1      47.365  29.682  26.945  1.00  0.00     0.131 A 
ATOM     58  C   UNL A   1      48.896  28.573  28.961  1.00  0.00     0.055 A 
ATOM     59  C   UNL A   1      48.662  29.246  26.665  1.00  0.00     0.041 A 
ATOM     60  F   UNL A   1      46.675  30.255  25.946  1.00  0.00    -0.206 F 
ATOM     61  C   UNL A   1      49.439  28.698  27.681  1.00  0.00     0.022 A 
BRANCH  58  62
ATOM     62  S   UNL A   1      49.940  28.025  30.340  1.00  0.00     0.124 S 
ATOM     63  O   UNL A   1      51.222  27.814  29.672  1.00  0.00    -0.237 OA
ATOM     64  O   UNL A   1      49.876  29.159  31.255  1.00  0.00    -0.237 OA
ATOM     65  O   UNL A   1      49.280  26.808  30.806  1.00  0.00    -0.744 OA
ENDBRANCH  58  62
ENDBRANCH  41  55
BRANCH  42  66
ATOM     66  C   UNL A   1      37.340  31.946  30.430  1.00  0.00     0.023 A 
ATOM     67  C   UNL A   1      36.446  32.607  29.574  1.00  0.00     0.031 A 
ATOM     68  C   UNL A   1      36.909  31.655  31.737  1.00  0.00     0.131 A 
ATOM     69  C   UNL A   1      35.187  33.007  30.051  1.00  0.00     0.055 A 
ATOM     70  C   UNL A   1      35.634  32.003  32.188  1.00  0.00     0.041 A 
ATOM     71  F   UNL A   1      37.722  31.022  32.596  1.00  0.00    -0.206 F 
ATOM     72  C   UNL A   1      34.770  32.697  31.347  1.00  0.00     0.022 A 
BRANCH  69  73
ATOM     73  S   UNL A   1      34.139  34.030  28.980  1.00  0.00     0.124 S 
ATOM     74  O   UNL A   1      33.163  34.550  29.929  1.00  0.00    -0.237 OA
ATOM     75  O   UNL A   1      35.099  34.994  28.453  1.00  0.00    -0.237 OA
ATOM     76  O   UNL A   1      33.617  33.075  28.004  1.00  0.00    -0.744 OA
ENDBRANCH  69  73
ENDBRANCH  42  66
BRANCH  54  77
ATOM     77  C   UNL A   1      43.394  35.382  30.802  1.00  0.00     0.023 A 
ATOM     78  C   UNL A   1      43.398  36.470  29.912  1.00  0.00     0.031 A 
ATOM     79  C   UNL A   1      43.736  35.623  32.145  1.00  0.00     0.131 A 
ATOM     80  C   UNL A   1      43.791  37.740  30.363  1.00  0.00     0.055 A 
ATOM     81  C   UNL A   1      44.070  36.899  32.601  1.00  0.00     0.041 A 
ATOM     82  F   UNL A   1      43.751  34.619  33.037  1.00  0.00    -0.206 F 
ATOM     83  C   UNL A   1      44.112  37.963  31.705  1.00  0.00     0.022 A 
BRANCH  80  84
ATOM     84  S   UNL A   1      43.962  39.080  29.154  1.00  0.00     0.124 S 
ATOM     85  O   UNL A   1      44.700  40.084  29.916  1.00  0.00    -0.237 OA
ATOM     86  O   UNL A   1      44.699  38.434  28.073  1.00  0.00    -0.237 OA
ATOM     87  O   UNL A   1      42.580  39.435  28.836  1.00  0.00    -0.744 OA
ENDBRANCH  80  84
ENDBRANCH  54  77
ENDBRANCH  28  29
ENDBRANCH  20  23
ENDBRANCH  18  19
ENDBRANCH  17  18
ENDBRANCH   1  17
TORSDOF 18
ENDMDL
