MODEL 1
REMARK VINA RESULT:     -10.2      0.000      0.000
REMARK SMILES COCCOCC[C@@H]1CCC[C@]1([NH3+])C(=O)NCCCNC(=O)c1ccc(-c2c3nc(c(-c4cc(S(=O)(=O)[O-])ccc4F)c4ccc([nH]4)c(-c4cc(S(=O)(=O)[O-])ccc4F)c4nc(c(-c5cc(S(=O)(=O)[O-])ccc5F)c5ccc2[nH]5)C=C4)C=C3)cc1
REMARK SMILES IDX 14 1 15 2 16 3 12 5 8 6 9 7 10 8 11 9 7 10 6 11 5 12 4 13
REMARK SMILES IDX 3 14 2 15 1 16 13 17 17 21 18 22 19 23 20 24 21 25 22 27
REMARK SMILES IDX 23 28 24 29 85 30 25 31 84 32 26 33 27 34 28 35 78 36 29 37
REMARK SMILES IDX 83 38 77 39 79 40 30 41 82 42 76 43 75 44 31 46 63 47 43 48
REMARK SMILES IDX 62 49 44 50 47 51 61 52 80 53 45 54 46 55 60 57 81 58 48 59
REMARK SMILES IDX 32 60 33 61 41 62 34 63 40 64 42 65 39 66 35 67 36 68 37 69
REMARK SMILES IDX 38 70 64 71 65 72 73 73 66 74 72 75 74 76 71 77 67 78 68 79
REMARK SMILES IDX 69 80 70 81 49 82 50 83 58 84 51 85 57 86 59 87 56 88 52 89
REMARK SMILES IDX 53 90 54 91 55 92
REMARK H PARENT 16 4 13 18 13 19 13 20 20 26 79 45 47 56
REMARK Flexibility Score: inf
ROOT
ATOM      1  C   UNL A   1      32.489  25.279  24.502  1.00  0.00     0.281 C 
ATOM      2  O   UNL A   1      32.129  25.199  23.322  1.00  0.00    -0.268 OA
ATOM      3  N   UNL A   1      33.386  24.333  24.902  1.00  0.00    -0.351 N 
ATOM      4  H   UNL A   1      33.654  23.713  24.186  1.00  0.00     0.163 HD
ENDROOT
BRANCH   1   5
ATOM      5  C   UNL A   1      31.960  26.408  25.459  1.00  0.00     0.176 C 
ATOM      6  C   UNL A   1      31.256  27.617  24.777  1.00  0.00     0.063 C 
ATOM      7  C   UNL A   1      32.439  28.350  24.113  1.00  0.00     0.011 C 
ATOM      8  C   UNL A   1      33.625  28.172  25.049  1.00  0.00     0.008 C 
ATOM      9  C   UNL A   1      33.185  27.136  26.079  1.00  0.00     0.079 C 
BRANCH   6  10
ATOM     10  C   UNL A   1      30.142  27.475  23.728  1.00  0.00     0.039 C 
BRANCH  10  11
ATOM     11  C   UNL A   1      30.256  28.157  22.363  1.00  0.00     0.161 C 
BRANCH  11  12
ATOM     12  O   UNL A   1      29.284  29.162  22.105  1.00  0.00    -0.379 OA
BRANCH  12  13
ATOM     13  C   UNL A   1      29.490  30.450  22.681  1.00  0.00     0.188 C 
BRANCH  13  14
ATOM     14  C   UNL A   1      28.222  31.138  23.200  1.00  0.00     0.188 C 
BRANCH  14  15
ATOM     15  O   UNL A   1      27.975  32.367  22.512  1.00  0.00    -0.382 OA
ATOM     16  C   UNL A   1      28.794  33.427  22.996  1.00  0.00     0.195 C 
ENDBRANCH  14  15
ENDBRANCH  13  14
ENDBRANCH  12  13
ENDBRANCH  11  12
ENDBRANCH  10  11
ENDBRANCH   6  10
BRANCH   5  17
ATOM     17  N   UNL A   1      31.276  25.821  26.621  1.00  0.00    -0.345 N 
ATOM     18  H   UNL A   1      31.288  26.486  27.394  1.00  0.00     0.345 HD
ATOM     19  H   UNL A   1      31.757  24.966  26.900  1.00  0.00     0.345 HD
ATOM     20  H   UNL A   1      30.311  25.604  26.373  1.00  0.00     0.345 HD
ENDBRANCH   5  17
ENDBRANCH   1   5
BRANCH   3  21
ATOM     21  C   UNL A   1      34.017  24.064  26.177  1.00  0.00     0.118 C 
BRANCH  21  22
ATOM     22  C   UNL A   1      35.118  23.020  26.057  1.00  0.00     0.042 C 
BRANCH  22  23
ATOM     23  C   UNL A   1      36.502  23.614  25.871  1.00  0.00     0.118 C 
BRANCH  23  24
ATOM     24  N   UNL A   1      37.549  22.634  26.100  1.00  0.00    -0.352 N 
ATOM     25  C   UNL A   1      38.855  22.804  26.495  1.00  0.00     0.251 C 
ATOM     26  H   UNL A   1      37.280  21.699  25.948  1.00  0.00     0.163 HD
ATOM     27  O   UNL A   1      39.623  21.851  26.395  1.00  0.00    -0.269 OA
BRANCH  25  28
ATOM     28  C   UNL A   1      39.346  24.110  27.005  1.00  0.00     0.039 A 
ATOM     29  C   UNL A   1      39.940  24.998  26.105  1.00  0.00     0.014 A 
ATOM     30  C   UNL A   1      39.269  24.457  28.356  1.00  0.00     0.014 A 
ATOM     31  C   UNL A   1      40.409  26.237  26.552  1.00  0.00     0.010 A 
ATOM     32  C   UNL A   1      39.621  25.739  28.776  1.00  0.00     0.010 A 
ATOM     33  C   UNL A   1      40.225  26.635  27.887  1.00  0.00    -0.014 A 
BRANCH  33  34
ATOM     34  C   UNL A   1      40.694  27.967  28.359  1.00  0.00     0.031 A 
ATOM     35  C   UNL A   1      42.162  28.315  28.340  1.00  0.00     0.074 A 
ATOM     36  C   UNL A   1      39.800  28.854  28.838  1.00  0.00     0.049 A 
ATOM     37  N   UNL A   1      42.755  29.429  28.689  1.00  0.00    -0.248 NA
ATOM     38  C   UNL A   1      43.089  27.257  27.911  1.00  0.00     0.031 C 
ATOM     39  C   UNL A   1      38.364  28.607  28.988  1.00  0.00     0.029 A 
ATOM     40  N   UNL A   1      39.960  30.142  29.283  1.00  0.00    -0.354 N 
ATOM     41  C   UNL A   1      44.119  29.197  28.542  1.00  0.00     0.074 A 
ATOM     42  C   UNL A   1      44.265  27.812  28.151  1.00  0.00     0.031 C 
ATOM     43  C   UNL A   1      37.770  29.721  29.442  1.00  0.00     0.029 A 
ATOM     44  C   UNL A   1      38.783  30.748  29.657  1.00  0.00     0.049 A 
ATOM     45  H   UNL A   1      40.835  30.591  29.331  1.00  0.00     0.167 HD
ATOM     46  C   UNL A   1      45.152  30.066  28.685  1.00  0.00     0.034 A 
ATOM     47  C   UNL A   1      38.543  31.992  30.116  1.00  0.00     0.034 A 
ATOM     48  C   UNL A   1      44.981  31.450  29.059  1.00  0.00     0.049 A 
ATOM     49  C   UNL A   1      39.694  32.955  30.239  1.00  0.00     0.074 A 
ATOM     50  C   UNL A   1      45.942  32.442  29.160  1.00  0.00     0.029 A 
ATOM     51  N   UNL A   1      43.770  32.035  29.407  1.00  0.00    -0.354 N 
ATOM     52  N   UNL A   1      40.971  32.749  30.009  1.00  0.00    -0.248 NA
ATOM     53  C   UNL A   1      39.370  34.323  30.658  1.00  0.00     0.031 C 
ATOM     54  C   UNL A   1      45.324  33.602  29.642  1.00  0.00     0.029 A 
ATOM     55  C   UNL A   1      43.963  33.365  29.755  1.00  0.00     0.049 A 
ATOM     56  H   UNL A   1      42.900  31.575  29.407  1.00  0.00     0.167 HD
ATOM     57  C   UNL A   1      41.600  33.970  30.231  1.00  0.00     0.074 A 
ATOM     58  C   UNL A   1      40.556  34.910  30.594  1.00  0.00     0.031 C 
ATOM     59  C   UNL A   1      42.917  34.288  30.137  1.00  0.00     0.034 A 
BRANCH  46  60
ATOM     60  C   UNL A   1      46.551  29.527  28.464  1.00  0.00     0.023 A 
ATOM     61  C   UNL A   1      47.021  29.186  27.182  1.00  0.00     0.031 A 
ATOM     62  C   UNL A   1      47.409  29.299  29.553  1.00  0.00     0.131 A 
ATOM     63  C   UNL A   1      48.260  28.542  27.034  1.00  0.00     0.055 A 
ATOM     64  C   UNL A   1      48.683  28.748  29.389  1.00  0.00     0.041 A 
ATOM     65  F   UNL A   1      47.017  29.583  30.806  1.00  0.00    -0.206 F 
ATOM     66  C   UNL A   1      49.107  28.346  28.126  1.00  0.00     0.022 A 
BRANCH  63  67
ATOM     67  S   UNL A   1      48.661  27.797  25.428  1.00  0.00     0.124 S 
ATOM     68  O   UNL A   1      47.577  28.302  24.589  1.00  0.00    -0.237 OA
ATOM     69  O   UNL A   1      49.987  28.338  25.152  1.00  0.00    -0.237 OA
ATOM     70  O   UNL A   1      48.615  26.361  25.695  1.00  0.00    -0.744 OA
ENDBRANCH  63  67
ENDBRANCH  46  60
BRANCH  47  71
ATOM     71  C   UNL A   1      37.154  32.395  30.480  1.00  0.00     0.023 A 
ATOM     72  C   UNL A   1      36.259  32.887  29.517  1.00  0.00     0.031 A 
ATOM     73  C   UNL A   1      36.699  32.283  31.806  1.00  0.00     0.131 A 
ATOM     74  C   UNL A   1      34.964  33.276  29.898  1.00  0.00     0.055 A 
ATOM     75  C   UNL A   1      35.397  32.626  32.172  1.00  0.00     0.041 A 
ATOM     76  F   UNL A   1      37.511  31.808  32.763  1.00  0.00    -0.206 F 
ATOM     77  C   UNL A   1      34.524  33.135  31.215  1.00  0.00     0.022 A 
BRANCH  74  78
ATOM     78  S   UNL A   1      33.875  34.022  28.654  1.00  0.00     0.124 S 
ATOM     79  O   UNL A   1      32.825  34.601  29.484  1.00  0.00    -0.237 OA
ATOM     80  O   UNL A   1      34.769  34.969  27.996  1.00  0.00    -0.237 OA
ATOM     81  O   UNL A   1      33.467  32.883  27.833  1.00  0.00    -0.744 OA
ENDBRANCH  74  78
ENDBRANCH  47  71
BRANCH  59  82
ATOM     82  C   UNL A   1      43.294  35.728  30.392  1.00  0.00     0.023 A 
ATOM     83  C   UNL A   1      43.636  36.191  31.674  1.00  0.00     0.031 A 
ATOM     84  C   UNL A   1      43.291  36.657  29.334  1.00  0.00     0.131 A 
ATOM     85  C   UNL A   1      43.892  37.556  31.880  1.00  0.00     0.055 A 
ATOM     86  C   UNL A   1      43.615  37.999  29.532  1.00  0.00     0.041 A 
ATOM     87  F   UNL A   1      42.969  36.274  28.089  1.00  0.00    -0.206 F 
ATOM     88  C   UNL A   1      43.903  38.459  30.813  1.00  0.00     0.022 A 
BRANCH  85  89
ATOM     89  S   UNL A   1      44.096  38.157  33.580  1.00  0.00     0.124 S 
ATOM     90  O   UNL A   1      45.291  38.988  33.465  1.00  0.00    -0.237 OA
ATOM     91  O   UNL A   1      42.843  38.868  33.812  1.00  0.00    -0.237 OA
ATOM     92  O   UNL A   1      44.267  36.931  34.357  1.00  0.00    -0.744 OA
ENDBRANCH  85  89
ENDBRANCH  59  82
ENDBRANCH  33  34
ENDBRANCH  25  28
ENDBRANCH  23  24
ENDBRANCH  22  23
ENDBRANCH  21  22
ENDBRANCH   3  21
TORSDOF 20
ENDMDL
MODEL 2
REMARK VINA RESULT:     -10.1      4.639      9.509
REMARK SMILES COCCOCC[C@@H]1CCC[C@]1([NH3+])C(=O)NCCCNC(=O)c1ccc(-c2c3nc(c(-c4cc(S(=O)(=O)[O-])ccc4F)c4ccc([nH]4)c(-c4cc(S(=O)(=O)[O-])ccc4F)c4nc(c(-c5cc(S(=O)(=O)[O-])ccc5F)c5ccc2[nH]5)C=C4)C=C3)cc1
REMARK SMILES IDX 14 1 15 2 16 3 12 5 8 6 9 7 10 8 11 9 7 10 6 11 5 12 4 13
REMARK SMILES IDX 3 14 2 15 1 16 13 17 17 21 18 22 19 23 20 24 21 25 22 27
REMARK SMILES IDX 23 28 24 29 85 30 25 31 84 32 26 33 27 34 28 35 78 36 29 37
REMARK SMILES IDX 83 38 77 39 79 40 30 41 82 42 76 43 75 44 31 46 63 47 43 48
REMARK SMILES IDX 62 49 44 50 47 51 61 52 80 53 45 54 46 55 60 57 81 58 48 59
REMARK SMILES IDX 32 60 33 61 41 62 34 63 40 64 42 65 39 66 35 67 36 68 37 69
REMARK SMILES IDX 38 70 64 71 65 72 73 73 66 74 72 75 74 76 71 77 67 78 68 79
REMARK SMILES IDX 69 80 70 81 49 82 50 83 58 84 51 85 57 86 59 87 56 88 52 89
REMARK SMILES IDX 53 90 54 91 55 92
REMARK H PARENT 16 4 13 18 13 19 13 20 20 26 79 45 47 56
REMARK Flexibility Score: inf
ROOT
ATOM      1  C   UNL A   1      33.078  26.898  24.539  1.00  0.00     0.281 C 
ATOM      2  O   UNL A   1      33.991  26.071  24.433  1.00  0.00    -0.268 OA
ATOM      3  N   UNL A   1      32.542  27.016  25.787  1.00  0.00    -0.351 N 
ATOM      4  H   UNL A   1      32.970  26.439  26.459  1.00  0.00     0.163 HD
ENDROOT
BRANCH   1   5
ATOM      5  C   UNL A   1      32.591  27.761  23.318  1.00  0.00     0.176 C 
ATOM      6  C   UNL A   1      31.284  27.290  22.618  1.00  0.00     0.063 C 
ATOM      7  C   UNL A   1      31.748  26.014  21.887  1.00  0.00     0.011 C 
ATOM      8  C   UNL A   1      33.180  26.277  21.447  1.00  0.00     0.008 C 
ATOM      9  C   UNL A   1      33.598  27.564  22.151  1.00  0.00     0.079 C 
BRANCH   6  10
ATOM     10  C   UNL A   1      29.985  26.955  23.369  1.00  0.00     0.039 C 
BRANCH  10  11
ATOM     11  C   UNL A   1      28.981  28.051  23.730  1.00  0.00     0.161 C 
BRANCH  11  12
ATOM     12  O   UNL A   1      28.243  28.581  22.635  1.00  0.00    -0.379 OA
BRANCH  12  13
ATOM     13  C   UNL A   1      27.630  29.857  22.804  1.00  0.00     0.188 C 
BRANCH  13  14
ATOM     14  C   UNL A   1      27.959  30.882  21.713  1.00  0.00     0.188 C 
BRANCH  14  15
ATOM     15  O   UNL A   1      29.094  31.677  22.067  1.00  0.00    -0.382 OA
ATOM     16  C   UNL A   1      28.721  32.874  22.744  1.00  0.00     0.195 C 
ENDBRANCH  14  15
ENDBRANCH  13  14
ENDBRANCH  12  13
ENDBRANCH  11  12
ENDBRANCH  10  11
ENDBRANCH   6  10
BRANCH   5  17
ATOM     17  N   UNL A   1      32.689  29.195  23.628  1.00  0.00    -0.345 N 
ATOM     18  H   UNL A   1      33.635  29.411  23.940  1.00  0.00     0.345 HD
ATOM     19  H   UNL A   1      32.025  29.429  24.366  1.00  0.00     0.345 HD
ATOM     20  H   UNL A   1      32.475  29.738  22.792  1.00  0.00     0.345 HD
ENDBRANCH   5  17
ENDBRANCH   1   5
BRANCH   3  21
ATOM     21  C   UNL A   1      31.464  27.827  26.313  1.00  0.00     0.118 C 
BRANCH  21  22
ATOM     22  C   UNL A   1      31.949  28.790  27.386  1.00  0.00     0.042 C 
BRANCH  22  23
ATOM     23  C   UNL A   1      33.354  29.312  27.145  1.00  0.00     0.118 C 
BRANCH  23  24
ATOM     24  N   UNL A   1      33.443  30.747  27.347  1.00  0.00    -0.352 N 
ATOM     25  C   UNL A   1      34.369  31.492  28.038  1.00  0.00     0.251 C 
ATOM     26  H   UNL A   1      32.725  31.270  26.922  1.00  0.00     0.163 HD
ATOM     27  O   UNL A   1      34.113  32.670  28.272  1.00  0.00    -0.269 OA
BRANCH  25  28
ATOM     28  C   UNL A   1      35.641  30.893  28.519  1.00  0.00     0.039 A 
ATOM     29  C   UNL A   1      36.844  31.515  28.178  1.00  0.00     0.014 A 
ATOM     30  C   UNL A   1      35.671  29.711  29.264  1.00  0.00     0.014 A 
ATOM     31  C   UNL A   1      38.058  30.979  28.618  1.00  0.00     0.010 A 
ATOM     32  C   UNL A   1      36.869  29.250  29.806  1.00  0.00     0.010 A 
ATOM     33  C   UNL A   1      38.083  29.859  29.465  1.00  0.00    -0.014 A 
BRANCH  33  34
ATOM     34  C   UNL A   1      39.372  29.304  29.962  1.00  0.00     0.031 A 
ATOM     35  C   UNL A   1      40.041  29.889  31.181  1.00  0.00     0.074 A 
ATOM     36  C   UNL A   1      39.960  28.291  29.295  1.00  0.00     0.049 A 
ATOM     37  N   UNL A   1      41.151  29.526  31.772  1.00  0.00    -0.248 NA
ATOM     38  C   UNL A   1      39.400  31.064  31.790  1.00  0.00     0.031 C 
ATOM     39  C   UNL A   1      39.457  27.694  28.055  1.00  0.00     0.029 A 
ATOM     40  N   UNL A   1      41.103  27.580  29.562  1.00  0.00    -0.354 N 
ATOM     41  C   UNL A   1      41.349  30.438  32.806  1.00  0.00     0.074 A 
ATOM     42  C   UNL A   1      40.288  31.415  32.705  1.00  0.00     0.031 C 
ATOM     43  C   UNL A   1      40.259  26.679  27.698  1.00  0.00     0.029 A 
ATOM     44  C   UNL A   1      41.355  26.577  28.655  1.00  0.00     0.049 A 
ATOM     45  H   UNL A   1      41.688  27.771  30.331  1.00  0.00     0.167 HD
ATOM     46  C   UNL A   1      42.305  30.441  33.770  1.00  0.00     0.034 A 
ATOM     47  C   UNL A   1      42.352  25.672  28.602  1.00  0.00     0.034 A 
ATOM     48  C   UNL A   1      43.344  29.443  33.861  1.00  0.00     0.049 A 
ATOM     49  C   UNL A   1      43.387  25.667  29.696  1.00  0.00     0.074 A 
ATOM     50  C   UNL A   1      44.318  29.298  34.834  1.00  0.00     0.029 A 
ATOM     51  N   UNL A   1      43.554  28.426  32.938  1.00  0.00    -0.354 N 
ATOM     52  N   UNL A   1      43.510  26.481  30.720  1.00  0.00    -0.248 NA
ATOM     53  C   UNL A   1      44.400  24.608  29.641  1.00  0.00     0.031 C 
ATOM     54  C   UNL A   1      45.160  28.244  34.458  1.00  0.00     0.029 A 
ATOM     55  C   UNL A   1      44.660  27.671  33.300  1.00  0.00     0.049 A 
ATOM     56  H   UNL A   1      42.998  28.263  32.142  1.00  0.00     0.167 HD
ATOM     57  C   UNL A   1      44.602  26.015  31.447  1.00  0.00     0.074 A 
ATOM     58  C   UNL A   1      45.086  24.838  30.752  1.00  0.00     0.031 C 
ATOM     59  C   UNL A   1      45.148  26.510  32.588  1.00  0.00     0.034 A 
BRANCH  46  60
ATOM     60  C   UNL A   1      42.277  31.575  34.774  1.00  0.00     0.023 A 
ATOM     61  C   UNL A   1      41.391  31.576  35.868  1.00  0.00     0.031 A 
ATOM     62  C   UNL A   1      43.108  32.696  34.608  1.00  0.00     0.131 A 
ATOM     63  C   UNL A   1      41.283  32.713  36.685  1.00  0.00     0.055 A 
ATOM     64  C   UNL A   1      43.064  33.785  35.483  1.00  0.00     0.041 A 
ATOM     65  F   UNL A   1      43.962  32.769  33.574  1.00  0.00    -0.206 F 
ATOM     66  C   UNL A   1      42.133  33.807  36.517  1.00  0.00     0.022 A 
BRANCH  63  67
ATOM     67  S   UNL A   1      39.889  32.815  37.843  1.00  0.00     0.124 S 
ATOM     68  O   UNL A   1      40.522  32.429  39.102  1.00  0.00    -0.237 OA
ATOM     69  O   UNL A   1      39.489  34.213  37.732  1.00  0.00    -0.237 OA
ATOM     70  O   UNL A   1      38.932  31.846  37.314  1.00  0.00    -0.744 OA
ENDBRANCH  63  67
ENDBRANCH  46  60
BRANCH  47  71
ATOM     71  C   UNL A   1      42.407  24.693  27.478  1.00  0.00     0.023 A 
ATOM     72  C   UNL A   1      41.648  23.512  27.499  1.00  0.00     0.031 A 
ATOM     73  C   UNL A   1      43.221  24.934  26.357  1.00  0.00     0.131 A 
ATOM     74  C   UNL A   1      41.740  22.602  26.433  1.00  0.00     0.055 A 
ATOM     75  C   UNL A   1      43.272  24.050  25.278  1.00  0.00     0.041 A 
ATOM     76  F   UNL A   1      43.957  26.054  26.282  1.00  0.00    -0.206 F 
ATOM     77  C   UNL A   1      42.535  22.871  25.317  1.00  0.00     0.022 A 
BRANCH  74  78
ATOM     78  S   UNL A   1      40.842  21.030  26.548  1.00  0.00     0.124 S 
ATOM     79  O   UNL A   1      40.850  20.786  27.986  1.00  0.00    -0.237 OA
ATOM     80  O   UNL A   1      39.551  21.374  25.962  1.00  0.00    -0.237 OA
ATOM     81  O   UNL A   1      41.659  20.114  25.754  1.00  0.00    -0.744 OA
ENDBRANCH  74  78
ENDBRANCH  47  71
BRANCH  59  82
ATOM     82  C   UNL A   1      46.311  25.748  33.176  1.00  0.00     0.023 A 
ATOM     83  C   UNL A   1      46.125  24.591  33.953  1.00  0.00     0.031 A 
ATOM     84  C   UNL A   1      47.628  26.199  32.971  1.00  0.00     0.131 A 
ATOM     85  C   UNL A   1      47.229  23.966  34.554  1.00  0.00     0.055 A 
ATOM     86  C   UNL A   1      48.728  25.533  33.513  1.00  0.00     0.041 A 
ATOM     87  F   UNL A   1      47.867  27.300  32.241  1.00  0.00    -0.206 F 
ATOM     88  C   UNL A   1      48.531  24.419  34.322  1.00  0.00     0.022 A 
BRANCH  85  89
ATOM     89  S   UNL A   1      46.932  22.624  35.737  1.00  0.00     0.124 S 
ATOM     90  O   UNL A   1      47.846  22.969  36.822  1.00  0.00    -0.237 OA
ATOM     91  O   UNL A   1      45.510  22.773  36.029  1.00  0.00    -0.237 OA
ATOM     92  O   UNL A   1      47.289  21.421  34.987  1.00  0.00    -0.744 OA
ENDBRANCH  85  89
ENDBRANCH  59  82
ENDBRANCH  33  34
ENDBRANCH  25  28
ENDBRANCH  23  24
ENDBRANCH  22  23
ENDBRANCH  21  22
ENDBRANCH   3  21
TORSDOF 20
ENDMDL
MODEL 3
REMARK VINA RESULT:     -10.1      5.001     10.404
REMARK SMILES COCCOCC[C@@H]1CCC[C@]1([NH3+])C(=O)NCCCNC(=O)c1ccc(-c2c3nc(c(-c4cc(S(=O)(=O)[O-])ccc4F)c4ccc([nH]4)c(-c4cc(S(=O)(=O)[O-])ccc4F)c4nc(c(-c5cc(S(=O)(=O)[O-])ccc5F)c5ccc2[nH]5)C=C4)C=C3)cc1
REMARK SMILES IDX 14 1 15 2 16 3 12 5 8 6 9 7 10 8 11 9 7 10 6 11 5 12 4 13
REMARK SMILES IDX 3 14 2 15 1 16 13 17 17 21 18 22 19 23 20 24 21 25 22 27
REMARK SMILES IDX 23 28 24 29 85 30 25 31 84 32 26 33 27 34 28 35 78 36 29 37
REMARK SMILES IDX 83 38 77 39 79 40 30 41 82 42 76 43 75 44 31 46 63 47 43 48
REMARK SMILES IDX 62 49 44 50 47 51 61 52 80 53 45 54 46 55 60 57 81 58 48 59
REMARK SMILES IDX 32 60 33 61 41 62 34 63 40 64 42 65 39 66 35 67 36 68 37 69
REMARK SMILES IDX 38 70 64 71 65 72 73 73 66 74 72 75 74 76 71 77 67 78 68 79
REMARK SMILES IDX 69 80 70 81 49 82 50 83 58 84 51 85 57 86 59 87 56 88 52 89
REMARK SMILES IDX 53 90 54 91 55 92
REMARK H PARENT 16 4 13 18 13 19 13 20 20 26 79 45 47 56
REMARK Flexibility Score: inf
ROOT
ATOM      1  C   UNL A   1      32.842  24.567  25.043  1.00  0.00     0.281 C 
ATOM      2  O   UNL A   1      32.356  23.986  26.020  1.00  0.00    -0.268 OA
ATOM      3  N   UNL A   1      33.111  25.891  25.228  1.00  0.00    -0.351 N 
ATOM      4  H   UNL A   1      32.905  26.216  26.133  1.00  0.00     0.163 HD
ENDROOT
BRANCH   1   5
ATOM      5  C   UNL A   1      33.141  23.817  23.694  1.00  0.00     0.176 C 
ATOM      6  C   UNL A   1      33.310  22.273  23.786  1.00  0.00     0.063 C 
ATOM      7  C   UNL A   1      34.677  22.137  24.487  1.00  0.00     0.011 C 
ATOM      8  C   UNL A   1      35.527  23.294  23.983  1.00  0.00     0.008 C 
ATOM      9  C   UNL A   1      34.570  24.209  23.226  1.00  0.00     0.079 C 
BRANCH   6  10
ATOM     10  C   UNL A   1      32.318  21.346  24.506  1.00  0.00     0.039 C 
BRANCH  10  11
ATOM     11  C   UNL A   1      32.762  19.985  25.044  1.00  0.00     0.161 C 
BRANCH  11  12
ATOM     12  O   UNL A   1      33.107  19.025  24.053  1.00  0.00    -0.379 OA
BRANCH  12  13
ATOM     13  C   UNL A   1      32.654  17.686  24.239  1.00  0.00     0.188 C 
BRANCH  13  14
ATOM     14  C   UNL A   1      33.612  16.602  23.732  1.00  0.00     0.188 C 
BRANCH  14  15
ATOM     15  O   UNL A   1      33.889  15.632  24.747  1.00  0.00    -0.382 OA
ATOM     16  C   UNL A   1      35.213  15.751  25.256  1.00  0.00     0.195 C 
ENDBRANCH  14  15
ENDBRANCH  13  14
ENDBRANCH  12  13
ENDBRANCH  11  12
ENDBRANCH  10  11
ENDBRANCH   6  10
BRANCH   5  17
ATOM     17  N   UNL A   1      32.271  24.319  22.621  1.00  0.00    -0.345 N 
ATOM     18  H   UNL A   1      31.587  23.604  22.375  1.00  0.00     0.345 HD
ATOM     19  H   UNL A   1      32.837  24.544  21.802  1.00  0.00     0.345 HD
ATOM     20  H   UNL A   1      31.786  25.158  22.940  1.00  0.00     0.345 HD
ENDBRANCH   5  17
ENDBRANCH   1   5
BRANCH   3  21
ATOM     21  C   UNL A   1      33.641  26.910  24.346  1.00  0.00     0.118 C 
BRANCH  21  22
ATOM     22  C   UNL A   1      33.320  28.312  24.843  1.00  0.00     0.042 C 
BRANCH  22  23
ATOM     23  C   UNL A   1      33.807  28.583  26.255  1.00  0.00     0.118 C 
BRANCH  23  24
ATOM     24  N   UNL A   1      33.769  29.998  26.580  1.00  0.00    -0.352 N 
ATOM     25  C   UNL A   1      34.567  30.739  27.421  1.00  0.00     0.251 C 
ATOM     26  H   UNL A   1      33.060  30.508  26.127  1.00  0.00     0.163 HD
ATOM     27  O   UNL A   1      34.202  31.872  27.722  1.00  0.00    -0.269 OA
BRANCH  25  28
ATOM     28  C   UNL A   1      35.826  30.184  27.981  1.00  0.00     0.039 A 
ATOM     29  C   UNL A   1      36.987  30.249  27.207  1.00  0.00     0.014 A 
ATOM     30  C   UNL A   1      35.875  29.567  29.233  1.00  0.00     0.014 A 
ATOM     31  C   UNL A   1      38.190  29.740  27.706  1.00  0.00     0.010 A 
ATOM     32  C   UNL A   1      37.096  29.175  29.779  1.00  0.00     0.010 A 
ATOM     33  C   UNL A   1      38.265  29.227  29.011  1.00  0.00    -0.014 A 
BRANCH  33  34
ATOM     34  C   UNL A   1      39.551  28.713  29.558  1.00  0.00     0.031 A 
ATOM     35  C   UNL A   1      40.179  29.351  30.772  1.00  0.00     0.074 A 
ATOM     36  C   UNL A   1      40.174  27.690  28.939  1.00  0.00     0.049 A 
ATOM     37  N   UNL A   1      41.280  29.028  31.402  1.00  0.00    -0.248 NA
ATOM     38  C   UNL A   1      39.503  30.533  31.325  1.00  0.00     0.031 C 
ATOM     39  C   UNL A   1      39.713  27.042  27.709  1.00  0.00     0.029 A 
ATOM     40  N   UNL A   1      41.322  27.009  29.258  1.00  0.00    -0.354 N 
ATOM     41  C   UNL A   1      41.436  29.977  32.409  1.00  0.00     0.074 A 
ATOM     42  C   UNL A   1      40.361  30.931  32.249  1.00  0.00     0.031 C 
ATOM     43  C   UNL A   1      40.541  26.031  27.406  1.00  0.00     0.029 A 
ATOM     44  C   UNL A   1      41.614  25.981  28.392  1.00  0.00     0.049 A 
ATOM     45  H   UNL A   1      41.884  27.237  30.034  1.00  0.00     0.167 HD
ATOM     46  C   UNL A   1      42.367  30.030  33.395  1.00  0.00     0.034 A 
ATOM     47  C   UNL A   1      42.628  25.094  28.393  1.00  0.00     0.034 A 
ATOM     48  C   UNL A   1      43.421  29.055  33.546  1.00  0.00     0.049 A 
ATOM     49  C   UNL A   1      43.635  25.144  29.512  1.00  0.00     0.074 A 
ATOM     50  C   UNL A   1      44.373  28.961  34.547  1.00  0.00     0.029 A 
ATOM     51  N   UNL A   1      43.672  28.012  32.662  1.00  0.00    -0.354 N 
ATOM     52  N   UNL A   1      43.718  25.994  30.511  1.00  0.00    -0.248 NA
ATOM     53  C   UNL A   1      44.668  24.103  29.518  1.00  0.00     0.031 C 
ATOM     54  C   UNL A   1      45.243  27.910  34.227  1.00  0.00     0.029 A 
ATOM     55  C   UNL A   1      44.782  27.290  33.077  1.00  0.00     0.049 A 
ATOM     56  H   UNL A   1      43.139  27.813  31.859  1.00  0.00     0.167 HD
ATOM     57  C   UNL A   1      44.799  25.573  31.280  1.00  0.00     0.074 A 
ATOM     58  C   UNL A   1      45.321  24.382  30.637  1.00  0.00     0.031 C 
ATOM     59  C   UNL A   1      45.308  26.116  32.416  1.00  0.00     0.034 A 
BRANCH  46  60
ATOM     60  C   UNL A   1      42.294  31.195  34.360  1.00  0.00     0.023 A 
ATOM     61  C   UNL A   1      41.354  31.236  35.406  1.00  0.00     0.031 A 
ATOM     62  C   UNL A   1      43.138  32.308  34.201  1.00  0.00     0.131 A 
ATOM     63  C   UNL A   1      41.209  32.399  36.179  1.00  0.00     0.055 A 
ATOM     64  C   UNL A   1      43.056  33.424  35.037  1.00  0.00     0.041 A 
ATOM     65  F   UNL A   1      44.045  32.344  33.211  1.00  0.00    -0.206 F 
ATOM     66  C   UNL A   1      42.073  33.484  36.020  1.00  0.00     0.022 A 
BRANCH  63  67
ATOM     67  S   UNL A   1      39.759  32.544  37.261  1.00  0.00     0.124 S 
ATOM     68  O   UNL A   1      38.978  31.375  36.865  1.00  0.00    -0.237 OA
ATOM     69  O   UNL A   1      40.352  32.496  38.592  1.00  0.00    -0.237 OA
ATOM     70  O   UNL A   1      39.176  33.830  36.882  1.00  0.00    -0.744 OA
ENDBRANCH  63  67
ENDBRANCH  46  60
BRANCH  47  71
ATOM     71  C   UNL A   1      42.728  24.079  27.305  1.00  0.00     0.023 A 
ATOM     72  C   UNL A   1      41.984  22.889  27.344  1.00  0.00     0.031 A 
ATOM     73  C   UNL A   1      43.572  24.294  26.200  1.00  0.00     0.131 A 
ATOM     74  C   UNL A   1      42.119  21.946  26.312  1.00  0.00     0.055 A 
ATOM     75  C   UNL A   1      43.666  23.376  25.153  1.00  0.00     0.041 A 
ATOM     76  F   UNL A   1      44.296  25.421  26.110  1.00  0.00    -0.206 F 
ATOM     77  C   UNL A   1      42.943  22.189  25.211  1.00  0.00     0.022 A 
BRANCH  74  78
ATOM     78  S   UNL A   1      41.238  20.366  26.453  1.00  0.00     0.124 S 
ATOM     79  O   UNL A   1      41.495  20.004  27.841  1.00  0.00    -0.237 OA
ATOM     80  O   UNL A   1      39.868  20.753  26.133  1.00  0.00    -0.237 OA
ATOM     81  O   UNL A   1      41.893  19.522  25.455  1.00  0.00    -0.744 OA
ENDBRANCH  74  78
ENDBRANCH  47  71
BRANCH  59  82
ATOM     82  C   UNL A   1      46.470  25.395  33.058  1.00  0.00     0.023 A 
ATOM     83  C   UNL A   1      46.279  24.315  33.939  1.00  0.00     0.031 A 
ATOM     84  C   UNL A   1      47.789  25.809  32.798  1.00  0.00     0.131 A 
ATOM     85  C   UNL A   1      47.384  23.733  34.581  1.00  0.00     0.055 A 
ATOM     86  C   UNL A   1      48.888  25.181  33.386  1.00  0.00     0.041 A 
ATOM     87  F   UNL A   1      48.032  26.836  31.970  1.00  0.00    -0.206 F 
ATOM     88  C   UNL A   1      48.688  24.147  34.295  1.00  0.00     0.022 A 
BRANCH  85  89
ATOM     89  S   UNL A   1      47.086  22.507  35.884  1.00  0.00     0.124 S 
ATOM     90  O   UNL A   1      46.887  21.286  35.110  1.00  0.00    -0.237 OA
ATOM     91  O   UNL A   1      48.318  22.575  36.664  1.00  0.00    -0.237 OA
ATOM     92  O   UNL A   1      45.893  23.011  36.563  1.00  0.00    -0.744 OA
ENDBRANCH  85  89
ENDBRANCH  59  82
ENDBRANCH  33  34
ENDBRANCH  25  28
ENDBRANCH  23  24
ENDBRANCH  22  23
ENDBRANCH  21  22
ENDBRANCH   3  21
TORSDOF 20
ENDMDL
