MODEL 1
REMARK VINA RESULT:     -13.2      0.000      0.000
REMARK SMILES Cc1cc(C(=O)NCCCNC(=O)c2ccc(-c3c4nc(c(-c5cc(S(=O)(=O)[O-])ccc5F)c5ccc([nH]5)c(-c5cc(S(=O)(=O)[O-])ccc5F)c5nc(c(-c6cc(S(=O)(=O)[O-])ccc6F)c6ccc3[nH]6)C=C5)C=C4)cc2)ccc1NS(=O)(=O)c1c(F)cccc1F
REMARK SMILES IDX 9 1 8 2 7 3 5 4 6 5 4 7 1 8 2 9 3 10 79 11 78 12 77 13 80 14
REMARK SMILES IDX 81 16 82 17 83 18 84 19 85 20 90 21 86 22 87 23 89 24 91 25
REMARK SMILES IDX 88 26 10 27 11 28 12 29 13 31 14 32 15 33 76 34 16 35 75 36
REMARK SMILES IDX 17 37 18 38 19 39 69 40 20 41 74 42 68 43 70 44 21 45 73 46
REMARK SMILES IDX 67 47 66 48 22 50 54 51 34 52 53 53 35 54 38 55 52 56 71 57
REMARK SMILES IDX 36 58 37 59 51 61 72 62 39 63 23 64 24 65 32 66 25 67 31 68
REMARK SMILES IDX 33 69 30 70 26 71 27 72 28 73 29 74 55 75 56 76 64 77 57 78
REMARK SMILES IDX 63 79 65 80 62 81 58 82 59 83 60 84 61 85 40 86 41 87 49 88
REMARK SMILES IDX 42 89 48 90 50 91 47 92 43 93 44 94 45 95 46 96
REMARK H PARENT 7 6 80 15 11 30 70 49 38 60
REMARK Flexibility Score: inf
ROOT
ATOM      1  C   UNL A   1      33.072  31.290  27.275  1.00  0.00     0.042 C 
ENDROOT
BRANCH   1   2
ATOM      2  C   UNL A   1      32.033  30.427  26.582  1.00  0.00     0.118 C 
BRANCH   2   3
ATOM      3  N   UNL A   1      32.286  30.231  25.160  1.00  0.00    -0.352 N 
ATOM      4  C   UNL A   1      32.470  29.045  24.483  1.00  0.00     0.251 C 
ATOM      5  O   UNL A   1      32.792  29.026  23.298  1.00  0.00    -0.269 OA
ATOM      6  H   UNL A   1      32.334  31.050  24.615  1.00  0.00     0.163 HD
BRANCH   4   7
ATOM      7  C   UNL A   1      32.405  27.772  25.238  1.00  0.00     0.040 A 
ATOM      8  C   UNL A   1      29.718  25.256  26.077  1.00  0.00     0.046 C 
ATOM      9  C   UNL A   1      31.079  25.828  25.799  1.00  0.00    -0.026 A 
ATOM     10  C   UNL A   1      31.159  27.170  25.406  1.00  0.00     0.019 A 
ATOM     11  C   UNL A   1      32.272  25.091  25.924  1.00  0.00     0.052 A 
ATOM     12  C   UNL A   1      33.482  25.774  26.055  1.00  0.00     0.028 A 
ATOM     13  C   UNL A   1      33.551  27.125  25.704  1.00  0.00     0.016 A 
BRANCH  11  14
ATOM     14  N   UNL A   1      32.188  23.683  25.703  1.00  0.00    -0.279 N 
ATOM     15  H   UNL A   1      31.788  23.159  26.433  1.00  0.00     0.180 HD
BRANCH  14  16
ATOM     16  S   UNL A   1      32.680  22.808  24.368  1.00  0.00     0.267 S 
ATOM     17  O   UNL A   1      31.972  21.532  24.441  1.00  0.00    -0.201 OA
ATOM     18  O   UNL A   1      32.489  23.690  23.250  1.00  0.00    -0.201 OA
BRANCH  16  19
ATOM     19  C   UNL A   1      34.395  22.463  24.441  1.00  0.00     0.158 A 
ATOM     20  C   UNL A   1      35.255  23.327  23.771  1.00  0.00     0.146 A 
ATOM     21  C   UNL A   1      34.920  21.337  25.054  1.00  0.00     0.146 A 
ATOM     22  F   UNL A   1      34.814  24.490  23.271  1.00  0.00    -0.205 F 
ATOM     23  C   UNL A   1      36.607  23.024  23.618  1.00  0.00     0.041 A 
ATOM     24  C   UNL A   1      36.269  21.013  24.884  1.00  0.00     0.041 A 
ATOM     25  F   UNL A   1      34.165  20.526  25.806  1.00  0.00    -0.205 F 
ATOM     26  C   UNL A   1      37.110  21.840  24.143  1.00  0.00     0.006 A 
ENDBRANCH  16  19
ENDBRANCH  14  16
ENDBRANCH  11  14
ENDBRANCH   4   7
ENDBRANCH   2   3
ENDBRANCH   1   2
BRANCH   1  27
ATOM     27  C   UNL A   1      34.205  30.492  27.903  1.00  0.00     0.118 C 
BRANCH  27  28
ATOM     28  N   UNL A   1      35.081  31.312  28.758  1.00  0.00    -0.352 N 
ATOM     29  C   UNL A   1      36.236  30.965  29.442  1.00  0.00     0.251 C 
ATOM     30  H   UNL A   1      34.803  32.250  28.858  1.00  0.00     0.163 HD
ATOM     31  O   UNL A   1      36.897  31.782  30.075  1.00  0.00    -0.269 OA
BRANCH  29  32
ATOM     32  C   UNL A   1      36.749  29.589  29.276  1.00  0.00     0.039 A 
ATOM     33  C   UNL A   1      37.181  28.956  30.446  1.00  0.00     0.014 A 
ATOM     34  C   UNL A   1      37.216  29.199  28.027  1.00  0.00     0.014 A 
ATOM     35  C   UNL A   1      38.335  28.187  30.399  1.00  0.00     0.010 A 
ATOM     36  C   UNL A   1      38.418  28.518  27.994  1.00  0.00     0.010 A 
ATOM     37  C   UNL A   1      39.023  28.105  29.190  1.00  0.00    -0.014 A 
BRANCH  37  38
ATOM     38  C   UNL A   1      40.424  27.708  29.113  1.00  0.00     0.031 A 
ATOM     39  C   UNL A   1      40.756  26.356  28.642  1.00  0.00     0.074 A 
ATOM     40  C   UNL A   1      41.421  28.550  29.465  1.00  0.00     0.049 A 
ATOM     41  N   UNL A   1      41.800  25.695  29.009  1.00  0.00    -0.248 NA
ATOM     42  C   UNL A   1      39.883  25.613  27.747  1.00  0.00     0.031 C 
ATOM     43  C   UNL A   1      42.856  28.354  29.273  1.00  0.00     0.029 A 
ATOM     44  N   UNL A   1      41.335  29.666  30.295  1.00  0.00    -0.354 N 
ATOM     45  C   UNL A   1      41.892  24.589  28.200  1.00  0.00     0.074 A 
ATOM     46  C   UNL A   1      40.636  24.545  27.485  1.00  0.00     0.031 C 
ATOM     47  C   UNL A   1      43.521  29.119  30.152  1.00  0.00     0.029 A 
ATOM     48  C   UNL A   1      42.544  29.742  31.021  1.00  0.00     0.049 A 
ATOM     49  H   UNL A   1      40.573  30.287  30.363  1.00  0.00     0.167 HD
ATOM     50  C   UNL A   1      43.072  23.911  28.121  1.00  0.00     0.034 A 
ATOM     51  C   UNL A   1      42.532  29.684  32.385  1.00  0.00     0.034 A 
ATOM     52  C   UNL A   1      44.083  24.476  29.021  1.00  0.00     0.049 A 
ATOM     53  C   UNL A   1      43.202  28.437  32.945  1.00  0.00     0.074 A 
ATOM     54  C   UNL A   1      45.183  25.300  28.843  1.00  0.00     0.029 A 
ATOM     55  N   UNL A   1      43.860  24.440  30.389  1.00  0.00    -0.354 N 
ATOM     56  N   UNL A   1      43.799  27.520  32.230  1.00  0.00    -0.248 NA
ATOM     57  C   UNL A   1      43.154  28.084  34.362  1.00  0.00     0.031 C 
ATOM     58  C   UNL A   1      45.601  25.771  30.124  1.00  0.00     0.029 A 
ATOM     59  C   UNL A   1      44.777  25.211  31.082  1.00  0.00     0.049 A 
ATOM     60  H   UNL A   1      43.135  23.929  30.816  1.00  0.00     0.167 HD
ATOM     61  C   UNL A   1      44.125  26.448  33.028  1.00  0.00     0.074 A 
ATOM     62  C   UNL A   1      43.697  26.856  34.357  1.00  0.00     0.031 C 
ATOM     63  C   UNL A   1      44.668  25.290  32.535  1.00  0.00     0.034 A 
BRANCH  50  64
ATOM     64  C   UNL A   1      43.379  22.928  27.013  1.00  0.00     0.023 A 
ATOM     65  C   UNL A   1      42.814  21.639  27.059  1.00  0.00     0.031 A 
ATOM     66  C   UNL A   1      44.244  23.166  25.926  1.00  0.00     0.131 A 
ATOM     67  C   UNL A   1      43.204  20.636  26.153  1.00  0.00     0.055 A 
ATOM     68  C   UNL A   1      44.697  22.150  25.074  1.00  0.00     0.041 A 
ATOM     69  F   UNL A   1      44.640  24.403  25.597  1.00  0.00    -0.206 F 
ATOM     70  C   UNL A   1      44.187  20.869  25.195  1.00  0.00     0.022 A 
BRANCH  67  71
ATOM     71  S   UNL A   1      42.391  19.017  26.228  1.00  0.00     0.124 S 
ATOM     72  O   UNL A   1      42.475  18.695  27.649  1.00  0.00    -0.237 OA
ATOM     73  O   UNL A   1      41.062  19.319  25.710  1.00  0.00    -0.237 OA
ATOM     74  O   UNL A   1      43.217  18.184  25.356  1.00  0.00    -0.744 OA
ENDBRANCH  67  71
ENDBRANCH  50  64
BRANCH  51  75
ATOM     75  C   UNL A   1      41.331  30.375  32.952  1.00  0.00     0.023 A 
ATOM     76  C   UNL A   1      41.294  31.786  32.850  1.00  0.00     0.031 A 
ATOM     77  C   UNL A   1      40.116  29.700  33.128  1.00  0.00     0.131 A 
ATOM     78  C   UNL A   1      40.064  32.452  32.718  1.00  0.00     0.055 A 
ATOM     79  C   UNL A   1      38.896  30.381  33.076  1.00  0.00     0.041 A 
ATOM     80  F   UNL A   1      40.078  28.361  33.201  1.00  0.00    -0.206 F 
ATOM     81  C   UNL A   1      38.863  31.750  32.808  1.00  0.00     0.022 A 
BRANCH  78  82
ATOM     82  S   UNL A   1      40.047  34.173  32.127  1.00  0.00     0.124 S 
ATOM     83  O   UNL A   1      40.661  34.060  30.811  1.00  0.00    -0.237 OA
ATOM     84  O   UNL A   1      38.626  34.509  32.145  1.00  0.00    -0.237 OA
ATOM     85  O   UNL A   1      40.832  34.897  33.129  1.00  0.00    -0.744 OA
ENDBRANCH  78  82
ENDBRANCH  51  75
BRANCH  63  86
ATOM     86  C   UNL A   1      45.090  24.102  33.385  1.00  0.00     0.023 A 
ATOM     87  C   UNL A   1      46.407  23.924  33.839  1.00  0.00     0.031 A 
ATOM     88  C   UNL A   1      44.192  23.059  33.723  1.00  0.00     0.131 A 
ATOM     89  C   UNL A   1      46.752  22.855  34.688  1.00  0.00     0.055 A 
ATOM     90  C   UNL A   1      44.553  21.956  34.504  1.00  0.00     0.041 A 
ATOM     91  F   UNL A   1      42.913  23.061  33.325  1.00  0.00    -0.206 F 
ATOM     92  C   UNL A   1      45.835  21.861  35.016  1.00  0.00     0.022 A 
BRANCH  89  93
ATOM     93  S   UNL A   1      48.414  22.827  35.407  1.00  0.00     0.124 S 
ATOM     94  O   UNL A   1      49.189  22.130  34.386  1.00  0.00    -0.237 OA
ATOM     95  O   UNL A   1      48.696  24.253  35.554  1.00  0.00    -0.237 OA
ATOM     96  O   UNL A   1      48.236  22.097  36.661  1.00  0.00    -0.744 OA
ENDBRANCH  89  93
ENDBRANCH  63  86
ENDBRANCH  37  38
ENDBRANCH  29  32
ENDBRANCH  27  28
ENDBRANCH   1  27
TORSDOF 16
ENDMDL
MODEL 2
REMARK VINA RESULT:     -13.1      2.073      2.607
REMARK SMILES Cc1cc(C(=O)NCCCNC(=O)c2ccc(-c3c4nc(c(-c5cc(S(=O)(=O)[O-])ccc5F)c5ccc([nH]5)c(-c5cc(S(=O)(=O)[O-])ccc5F)c5nc(c(-c6cc(S(=O)(=O)[O-])ccc6F)c6ccc3[nH]6)C=C5)C=C4)cc2)ccc1NS(=O)(=O)c1c(F)cccc1F
REMARK SMILES IDX 9 1 8 2 7 3 5 4 6 5 4 7 1 8 2 9 3 10 79 11 78 12 77 13 80 14
REMARK SMILES IDX 81 16 82 17 83 18 84 19 85 20 90 21 86 22 87 23 89 24 91 25
REMARK SMILES IDX 88 26 10 27 11 28 12 29 13 31 14 32 15 33 76 34 16 35 75 36
REMARK SMILES IDX 17 37 18 38 19 39 69 40 20 41 74 42 68 43 70 44 21 45 73 46
REMARK SMILES IDX 67 47 66 48 22 50 54 51 34 52 53 53 35 54 38 55 52 56 71 57
REMARK SMILES IDX 36 58 37 59 51 61 72 62 39 63 23 64 24 65 32 66 25 67 31 68
REMARK SMILES IDX 33 69 30 70 26 71 27 72 28 73 29 74 55 75 56 76 64 77 57 78
REMARK SMILES IDX 63 79 65 80 62 81 58 82 59 83 60 84 61 85 40 86 41 87 49 88
REMARK SMILES IDX 42 89 48 90 50 91 47 92 43 93 44 94 45 95 46 96
REMARK H PARENT 7 6 80 15 11 30 70 49 38 60
REMARK Flexibility Score: inf
ROOT
ATOM      1  C   UNL A   1      33.003  31.159  27.398  1.00  0.00     0.042 C 
ENDROOT
BRANCH   1   2
ATOM      2  C   UNL A   1      32.733  29.933  26.543  1.00  0.00     0.118 C 
BRANCH   2   3
ATOM      3  N   UNL A   1      31.751  30.156  25.490  1.00  0.00    -0.352 N 
ATOM      4  C   UNL A   1      31.136  29.220  24.687  1.00  0.00     0.251 C 
ATOM      5  O   UNL A   1      30.409  29.553  23.755  1.00  0.00    -0.269 OA
ATOM      6  H   UNL A   1      31.496  31.093  25.331  1.00  0.00     0.163 HD
BRANCH   4   7
ATOM      7  C   UNL A   1      31.466  27.787  24.875  1.00  0.00     0.040 A 
ATOM      8  C   UNL A   1      33.989  25.380  23.428  1.00  0.00     0.046 C 
ATOM      9  C   UNL A   1      33.028  26.002  24.401  1.00  0.00    -0.026 A 
ATOM     10  C   UNL A   1      32.441  27.225  24.051  1.00  0.00     0.019 A 
ATOM     11  C   UNL A   1      32.682  25.416  25.633  1.00  0.00     0.052 A 
ATOM     12  C   UNL A   1      31.509  25.822  26.272  1.00  0.00     0.028 A 
ATOM     13  C   UNL A   1      30.900  27.021  25.894  1.00  0.00     0.016 A 
BRANCH  11  14
ATOM     14  N   UNL A   1      33.663  24.585  26.253  1.00  0.00    -0.279 N 
ATOM     15  H   UNL A   1      34.390  25.057  26.720  1.00  0.00     0.180 HD
BRANCH  14  16
ATOM     16  S   UNL A   1      33.741  22.917  26.289  1.00  0.00     0.267 S 
ATOM     17  O   UNL A   1      33.653  22.542  27.699  1.00  0.00    -0.201 OA
ATOM     18  O   UNL A   1      32.750  22.474  25.348  1.00  0.00    -0.201 OA
BRANCH  16  19
ATOM     19  C   UNL A   1      35.286  22.348  25.690  1.00  0.00     0.158 A 
ATOM     20  C   UNL A   1      35.384  21.006  25.338  1.00  0.00     0.146 A 
ATOM     21  C   UNL A   1      36.420  23.140  25.635  1.00  0.00     0.146 A 
ATOM     22  F   UNL A   1      34.293  20.231  25.256  1.00  0.00    -0.205 F 
ATOM     23  C   UNL A   1      36.616  20.429  25.035  1.00  0.00     0.041 A 
ATOM     24  C   UNL A   1      37.663  22.565  25.357  1.00  0.00     0.041 A 
ATOM     25  F   UNL A   1      36.370  24.460  25.854  1.00  0.00    -0.205 F 
ATOM     26  C   UNL A   1      37.769  21.203  25.084  1.00  0.00     0.006 A 
ENDBRANCH  16  19
ENDBRANCH  14  16
ENDBRANCH  11  14
ENDBRANCH   4   7
ENDBRANCH   2   3
ENDBRANCH   1   2
BRANCH   1  27
ATOM     27  C   UNL A   1      34.470  31.560  27.440  1.00  0.00     0.118 C 
BRANCH  27  28
ATOM     28  N   UNL A   1      34.909  31.995  28.777  1.00  0.00    -0.352 N 
ATOM     29  C   UNL A   1      35.677  31.332  29.722  1.00  0.00     0.251 C 
ATOM     30  H   UNL A   1      34.611  32.895  29.039  1.00  0.00     0.163 HD
ATOM     31  O   UNL A   1      36.012  31.853  30.781  1.00  0.00    -0.269 OA
BRANCH  29  32
ATOM     32  C   UNL A   1      36.217  30.004  29.363  1.00  0.00     0.039 A 
ATOM     33  C   UNL A   1      36.782  29.272  30.413  1.00  0.00     0.014 A 
ATOM     34  C   UNL A   1      36.575  29.767  28.041  1.00  0.00     0.014 A 
ATOM     35  C   UNL A   1      37.951  28.564  30.177  1.00  0.00     0.010 A 
ATOM     36  C   UNL A   1      37.790  29.146  27.824  1.00  0.00     0.010 A 
ATOM     37  C   UNL A   1      38.522  28.638  28.908  1.00  0.00    -0.014 A 
BRANCH  37  38
ATOM     38  C   UNL A   1      39.921  28.312  28.659  1.00  0.00     0.031 A 
ATOM     39  C   UNL A   1      40.290  26.916  28.389  1.00  0.00     0.074 A 
ATOM     40  C   UNL A   1      40.884  29.261  28.675  1.00  0.00     0.049 A 
ATOM     41  N   UNL A   1      41.433  26.397  28.680  1.00  0.00    -0.248 NA
ATOM     42  C   UNL A   1      39.352  25.967  27.809  1.00  0.00     0.031 C 
ATOM     43  C   UNL A   1      42.281  29.113  28.273  1.00  0.00     0.029 A 
ATOM     44  N   UNL A   1      40.835  30.509  29.293  1.00  0.00    -0.354 N 
ATOM     45  C   UNL A   1      41.491  25.163  28.080  1.00  0.00     0.074 A 
ATOM     46  C   UNL A   1      40.145  24.913  27.616  1.00  0.00     0.031 C 
ATOM     47  C   UNL A   1      43.009  30.068  28.870  1.00  0.00     0.029 A 
ATOM     48  C   UNL A   1      42.133  30.791  29.770  1.00  0.00     0.049 A 
ATOM     49  H   UNL A   1      40.043  31.087  29.380  1.00  0.00     0.167 HD
ATOM     50  C   UNL A   1      42.697  24.551  27.919  1.00  0.00     0.034 A 
ATOM     51  C   UNL A   1      42.347  30.995  31.103  1.00  0.00     0.034 A 
ATOM     52  C   UNL A   1      43.787  25.333  28.511  1.00  0.00     0.049 A 
ATOM     53  C   UNL A   1      43.206  29.919  31.752  1.00  0.00     0.074 A 
ATOM     54  C   UNL A   1      44.767  26.168  27.998  1.00  0.00     0.029 A 
ATOM     55  N   UNL A   1      43.791  25.548  29.881  1.00  0.00    -0.354 N 
ATOM     56  N   UNL A   1      43.758  28.917  31.120  1.00  0.00    -0.248 NA
ATOM     57  C   UNL A   1      43.419  29.843  33.195  1.00  0.00     0.031 C 
ATOM     58  C   UNL A   1      45.343  26.899  29.080  1.00  0.00     0.029 A 
ATOM     59  C   UNL A   1      44.737  26.488  30.253  1.00  0.00     0.049 A 
ATOM     60  H   UNL A   1      43.193  25.089  30.513  1.00  0.00     0.167 HD
ATOM     61  C   UNL A   1      44.301  28.038  32.028  1.00  0.00     0.074 A 
ATOM     62  C   UNL A   1      44.060  28.669  33.316  1.00  0.00     0.031 C 
ATOM     63  C   UNL A   1      44.857  26.839  31.664  1.00  0.00     0.034 A 
BRANCH  50  64
ATOM     64  C   UNL A   1      42.906  23.391  26.969  1.00  0.00     0.023 A 
ATOM     65  C   UNL A   1      42.314  22.148  27.258  1.00  0.00     0.031 A 
ATOM     66  C   UNL A   1      43.704  23.420  25.808  1.00  0.00     0.131 A 
ATOM     67  C   UNL A   1      42.619  20.998  26.506  1.00  0.00     0.055 A 
ATOM     68  C   UNL A   1      44.075  22.266  25.107  1.00  0.00     0.041 A 
ATOM     69  F   UNL A   1      44.109  24.574  25.258  1.00  0.00    -0.206 F 
ATOM     70  C   UNL A   1      43.542  21.039  25.466  1.00  0.00     0.022 A 
BRANCH  67  71
ATOM     71  S   UNL A   1      41.773  19.443  26.894  1.00  0.00     0.124 S 
ATOM     72  O   UNL A   1      41.022  19.185  25.669  1.00  0.00    -0.237 OA
ATOM     73  O   UNL A   1      42.891  18.547  27.168  1.00  0.00    -0.237 OA
ATOM     74  O   UNL A   1      40.957  19.783  28.058  1.00  0.00    -0.744 OA
ENDBRANCH  67  71
ENDBRANCH  50  64
BRANCH  51  75
ATOM     75  C   UNL A   1      41.198  31.714  31.737  1.00  0.00     0.023 A 
ATOM     76  C   UNL A   1      40.296  30.935  32.502  1.00  0.00     0.031 A 
ATOM     77  C   UNL A   1      41.247  33.092  31.987  1.00  0.00     0.131 A 
ATOM     78  C   UNL A   1      39.639  31.499  33.609  1.00  0.00     0.055 A 
ATOM     79  C   UNL A   1      40.528  33.661  33.043  1.00  0.00     0.041 A 
ATOM     80  F   UNL A   1      42.102  33.881  31.320  1.00  0.00    -0.206 F 
ATOM     81  C   UNL A   1      39.770  32.858  33.896  1.00  0.00     0.022 A 
BRANCH  78  82
ATOM     82  S   UNL A   1      38.869  30.400  34.837  1.00  0.00     0.124 S 
ATOM     83  O   UNL A   1      38.214  31.342  35.735  1.00  0.00    -0.237 OA
ATOM     84  O   UNL A   1      37.986  29.570  34.023  1.00  0.00    -0.237 OA
ATOM     85  O   UNL A   1      39.999  29.665  35.409  1.00  0.00    -0.744 OA
ENDBRANCH  78  82
ENDBRANCH  51  75
BRANCH  63  86
ATOM     86  C   UNL A   1      45.514  25.862  32.627  1.00  0.00     0.023 A 
ATOM     87  C   UNL A   1      44.779  25.057  33.510  1.00  0.00     0.031 A 
ATOM     88  C   UNL A   1      46.923  25.748  32.740  1.00  0.00     0.131 A 
ATOM     89  C   UNL A   1      45.411  24.107  34.336  1.00  0.00     0.055 A 
ATOM     90  C   UNL A   1      47.553  24.858  33.616  1.00  0.00     0.041 A 
ATOM     91  F   UNL A   1      47.761  26.484  31.999  1.00  0.00    -0.206 F 
ATOM     92  C   UNL A   1      46.796  24.009  34.403  1.00  0.00     0.022 A 
BRANCH  89  93
ATOM     93  S   UNL A   1      44.374  22.956  35.276  1.00  0.00     0.124 S 
ATOM     94  O   UNL A   1      44.920  21.657  34.896  1.00  0.00    -0.237 OA
ATOM     95  O   UNL A   1      44.637  23.376  36.650  1.00  0.00    -0.237 OA
ATOM     96  O   UNL A   1      43.024  23.231  34.790  1.00  0.00    -0.744 OA
ENDBRANCH  89  93
ENDBRANCH  63  86
ENDBRANCH  37  38
ENDBRANCH  29  32
ENDBRANCH  27  28
ENDBRANCH   1  27
TORSDOF 16
ENDMDL
MODEL 3
REMARK VINA RESULT:     -13.0      4.208     10.608
REMARK SMILES Cc1cc(C(=O)NCCCNC(=O)c2ccc(-c3c4nc(c(-c5cc(S(=O)(=O)[O-])ccc5F)c5ccc([nH]5)c(-c5cc(S(=O)(=O)[O-])ccc5F)c5nc(c(-c6cc(S(=O)(=O)[O-])ccc6F)c6ccc3[nH]6)C=C5)C=C4)cc2)ccc1NS(=O)(=O)c1c(F)cccc1F
REMARK SMILES IDX 9 1 8 2 7 3 5 4 6 5 4 7 1 8 2 9 3 10 79 11 78 12 77 13 80 14
REMARK SMILES IDX 81 16 82 17 83 18 84 19 85 20 90 21 86 22 87 23 89 24 91 25
REMARK SMILES IDX 88 26 10 27 11 28 12 29 13 31 14 32 15 33 76 34 16 35 75 36
REMARK SMILES IDX 17 37 18 38 19 39 69 40 20 41 74 42 68 43 70 44 21 45 73 46
REMARK SMILES IDX 67 47 66 48 22 50 54 51 34 52 53 53 35 54 38 55 52 56 71 57
REMARK SMILES IDX 36 58 37 59 51 61 72 62 39 63 23 64 24 65 32 66 25 67 31 68
REMARK SMILES IDX 33 69 30 70 26 71 27 72 28 73 29 74 55 75 56 76 64 77 57 78
REMARK SMILES IDX 63 79 65 80 62 81 58 82 59 83 60 84 61 85 40 86 41 87 49 88
REMARK SMILES IDX 42 89 48 90 50 91 47 92 43 93 44 94 45 95 46 96
REMARK H PARENT 7 6 80 15 11 30 70 49 38 60
REMARK Flexibility Score: inf
ROOT
ATOM      1  C   UNL A   1      38.692  21.451  25.745  1.00  0.00     0.042 C 
ENDROOT
BRANCH   1   2
ATOM      2  C   UNL A   1      37.399  21.257  24.971  1.00  0.00     0.118 C 
BRANCH   2   3
ATOM      3  N   UNL A   1      36.257  20.919  25.811  1.00  0.00    -0.352 N 
ATOM      4  C   UNL A   1      35.043  21.566  25.899  1.00  0.00     0.251 C 
ATOM      5  O   UNL A   1      34.204  21.245  26.736  1.00  0.00    -0.269 OA
ATOM      6  H   UNL A   1      36.367  20.131  26.390  1.00  0.00     0.163 HD
BRANCH   4   7
ATOM      7  C   UNL A   1      34.804  22.758  25.051  1.00  0.00     0.040 A 
ATOM      8  C   UNL A   1      33.211  23.414  21.692  1.00  0.00     0.046 C 
ATOM      9  C   UNL A   1      33.694  23.648  23.095  1.00  0.00    -0.026 A 
ATOM     10  C   UNL A   1      34.249  22.564  23.786  1.00  0.00     0.019 A 
ATOM     11  C   UNL A   1      33.627  24.897  23.741  1.00  0.00     0.052 A 
ATOM     12  C   UNL A   1      34.446  25.134  24.845  1.00  0.00     0.028 A 
ATOM     13  C   UNL A   1      35.035  24.055  25.510  1.00  0.00     0.016 A 
BRANCH  11  14
ATOM     14  N   UNL A   1      32.571  25.773  23.347  1.00  0.00    -0.279 N 
ATOM     15  H   UNL A   1      32.797  26.426  22.646  1.00  0.00     0.180 HD
BRANCH  14  16
ATOM     16  S   UNL A   1      31.003  25.836  23.918  1.00  0.00     0.267 S 
ATOM     17  O   UNL A   1      30.302  24.719  23.289  1.00  0.00    -0.201 OA
ATOM     18  O   UNL A   1      31.126  25.913  25.348  1.00  0.00    -0.201 OA
BRANCH  16  19
ATOM     19  C   UNL A   1      30.208  27.310  23.407  1.00  0.00     0.158 A 
ATOM     20  C   UNL A   1      28.827  27.383  23.562  1.00  0.00     0.146 A 
ATOM     21  C   UNL A   1      30.869  28.356  22.785  1.00  0.00     0.146 A 
ATOM     22  F   UNL A   1      28.160  26.457  24.265  1.00  0.00    -0.205 F 
ATOM     23  C   UNL A   1      28.095  28.434  23.010  1.00  0.00     0.041 A 
ATOM     24  C   UNL A   1      30.140  29.400  22.208  1.00  0.00     0.041 A 
ATOM     25  F   UNL A   1      32.204  28.397  22.703  1.00  0.00    -0.205 F 
ATOM     26  C   UNL A   1      28.750  29.428  22.294  1.00  0.00     0.006 A 
ENDBRANCH  16  19
ENDBRANCH  14  16
ENDBRANCH  11  14
ENDBRANCH   4   7
ENDBRANCH   2   3
ENDBRANCH   1   2
BRANCH   1  27
ATOM     27  C   UNL A   1      38.970  22.902  26.108  1.00  0.00     0.118 C 
BRANCH  27  28
ATOM     28  N   UNL A   1      40.387  23.154  26.421  1.00  0.00    -0.352 N 
ATOM     29  C   UNL A   1      41.042  24.346  26.692  1.00  0.00     0.251 C 
ATOM     30  H   UNL A   1      40.957  22.352  26.439  1.00  0.00     0.163 HD
ATOM     31  O   UNL A   1      42.229  24.391  26.994  1.00  0.00    -0.269 OA
BRANCH  29  32
ATOM     32  C   UNL A   1      40.230  25.580  26.750  1.00  0.00     0.039 A 
ATOM     33  C   UNL A   1      40.817  26.721  26.193  1.00  0.00     0.014 A 
ATOM     34  C   UNL A   1      39.233  25.675  27.714  1.00  0.00     0.014 A 
ATOM     35  C   UNL A   1      40.666  27.934  26.849  1.00  0.00     0.010 A 
ATOM     36  C   UNL A   1      39.162  26.858  28.424  1.00  0.00     0.010 A 
ATOM     37  C   UNL A   1      39.957  27.951  28.049  1.00  0.00    -0.014 A 
BRANCH  37  38
ATOM     38  C   UNL A   1      40.092  29.029  29.022  1.00  0.00     0.031 A 
ATOM     39  C   UNL A   1      39.035  30.046  29.108  1.00  0.00     0.074 A 
ATOM     40  C   UNL A   1      41.164  29.116  29.841  1.00  0.00     0.049 A 
ATOM     41  N   UNL A   1      39.229  31.267  29.472  1.00  0.00    -0.248 NA
ATOM     42  C   UNL A   1      37.660  29.765  28.726  1.00  0.00     0.031 C 
ATOM     43  C   UNL A   1      41.345  30.026  30.969  1.00  0.00     0.029 A 
ATOM     44  N   UNL A   1      42.420  28.542  29.657  1.00  0.00    -0.354 N 
ATOM     45  C   UNL A   1      37.996  31.844  29.652  1.00  0.00     0.074 A 
ATOM     46  C   UNL A   1      37.057  30.893  29.101  1.00  0.00     0.031 C 
ATOM     47  C   UNL A   1      42.658  30.163  31.212  1.00  0.00     0.029 A 
ATOM     48  C   UNL A   1      43.373  29.446  30.176  1.00  0.00     0.049 A 
ATOM     49  H   UNL A   1      42.609  27.669  29.243  1.00  0.00     0.167 HD
ATOM     50  C   UNL A   1      37.893  32.998  30.369  1.00  0.00     0.034 A 
ATOM     51  C   UNL A   1      44.341  29.964  29.366  1.00  0.00     0.034 A 
ATOM     52  C   UNL A   1      39.207  33.491  30.796  1.00  0.00     0.049 A 
ATOM     53  C   UNL A   1      44.213  31.466  29.150  1.00  0.00     0.074 A 
ATOM     54  C   UNL A   1      39.908  33.463  31.991  1.00  0.00     0.029 A 
ATOM     55  N   UNL A   1      40.127  33.872  29.831  1.00  0.00    -0.354 N 
ATOM     56  N   UNL A   1      43.318  32.231  29.716  1.00  0.00    -0.248 NA
ATOM     57  C   UNL A   1      45.033  32.198  28.187  1.00  0.00     0.031 C 
ATOM     58  C   UNL A   1      41.265  33.815  31.722  1.00  0.00     0.029 A 
ATOM     59  C   UNL A   1      41.384  34.086  30.372  1.00  0.00     0.049 A 
ATOM     60  H   UNL A   1      39.913  33.977  28.876  1.00  0.00     0.167 HD
ATOM     61  C   UNL A   1      43.363  33.489  29.160  1.00  0.00     0.074 A 
ATOM     62  C   UNL A   1      44.458  33.412  28.206  1.00  0.00     0.031 C 
ATOM     63  C   UNL A   1      42.470  34.478  29.481  1.00  0.00     0.034 A 
BRANCH  50  64
ATOM     64  C   UNL A   1      36.579  33.505  30.921  1.00  0.00     0.023 A 
ATOM     65  C   UNL A   1      35.664  34.133  30.055  1.00  0.00     0.031 A 
ATOM     66  C   UNL A   1      36.186  33.452  32.273  1.00  0.00     0.131 A 
ATOM     67  C   UNL A   1      34.512  34.774  30.546  1.00  0.00     0.055 A 
ATOM     68  C   UNL A   1      35.086  34.158  32.777  1.00  0.00     0.041 A 
ATOM     69  F   UNL A   1      36.810  32.664  33.159  1.00  0.00    -0.206 F 
ATOM     70  C   UNL A   1      34.248  34.840  31.911  1.00  0.00     0.022 A 
BRANCH  67  71
ATOM     71  S   UNL A   1      33.344  35.509  29.371  1.00  0.00     0.124 S 
ATOM     72  O   UNL A   1      34.235  36.103  28.379  1.00  0.00    -0.237 OA
ATOM     73  O   UNL A   1      32.575  34.347  28.938  1.00  0.00    -0.237 OA
ATOM     74  O   UNL A   1      32.602  36.468  30.187  1.00  0.00    -0.744 OA
ENDBRANCH  67  71
ENDBRANCH  50  64
BRANCH  51  75
ATOM     75  C   UNL A   1      44.806  28.961  28.357  1.00  0.00     0.023 A 
ATOM     76  C   UNL A   1      45.568  27.870  28.840  1.00  0.00     0.031 A 
ATOM     77  C   UNL A   1      44.158  28.811  27.124  1.00  0.00     0.131 A 
ATOM     78  C   UNL A   1      45.494  26.620  28.203  1.00  0.00     0.055 A 
ATOM     79  C   UNL A   1      44.153  27.584  26.453  1.00  0.00     0.041 A 
ATOM     80  F   UNL A   1      43.395  29.795  26.625  1.00  0.00    -0.206 F 
ATOM     81  C   UNL A   1      44.769  26.467  27.021  1.00  0.00     0.022 A 
BRANCH  78  82
ATOM     82  S   UNL A   1      46.087  25.141  29.080  1.00  0.00     0.124 S 
ATOM     83  O   UNL A   1      45.483  25.293  30.398  1.00  0.00    -0.237 OA
ATOM     84  O   UNL A   1      45.571  24.048  28.261  1.00  0.00    -0.237 OA
ATOM     85  O   UNL A   1      47.545  25.267  29.037  1.00  0.00    -0.744 OA
ENDBRANCH  78  82
ENDBRANCH  51  75
BRANCH  63  86
ATOM     86  C   UNL A   1      42.515  35.895  28.930  1.00  0.00     0.023 A 
ATOM     87  C   UNL A   1      43.185  36.942  29.583  1.00  0.00     0.031 A 
ATOM     88  C   UNL A   1      41.825  36.268  27.749  1.00  0.00     0.131 A 
ATOM     89  C   UNL A   1      43.274  38.226  29.011  1.00  0.00     0.055 A 
ATOM     90  C   UNL A   1      41.850  37.562  27.221  1.00  0.00     0.041 A 
ATOM     91  F   UNL A   1      41.102  35.393  27.039  1.00  0.00    -0.206 F 
ATOM     92  C   UNL A   1      42.600  38.547  27.838  1.00  0.00     0.022 A 
BRANCH  89  93
ATOM     93  S   UNL A   1      44.345  39.452  29.807  1.00  0.00     0.124 S 
ATOM     94  O   UNL A   1      45.453  39.562  28.864  1.00  0.00    -0.237 OA
ATOM     95  O   UNL A   1      43.460  40.611  29.884  1.00  0.00    -0.237 OA
ATOM     96  O   UNL A   1      44.678  38.839  31.090  1.00  0.00    -0.744 OA
ENDBRANCH  89  93
ENDBRANCH  63  86
ENDBRANCH  37  38
ENDBRANCH  29  32
ENDBRANCH  27  28
ENDBRANCH   1  27
TORSDOF 16
ENDMDL
