MODEL 1
REMARK VINA RESULT:     -12.2      0.000      0.000
REMARK SMILES Cc1c(NC(=S)NC(=O)CSc2ccc(Cl)cc2)cccc1C(=O)NCCCNC(=O)c1ccc(-c2c3nc(c(-c4cc(S(=O)(=O)[O-])ccc4F)c4ccc([nH]4)c(-c4cc(S(=O)(=O)[O-])ccc4F)c4nc(c(-c5cc(S(=O)(=O)[O-])ccc5F)c5ccc2[nH]5)C=C4)C=C3)cc1
REMARK SMILES IDX 23 1 24 2 25 3 22 5 1 6 2 7 3 8 19 9 21 10 20 11 4 12 5 14
REMARK SMILES IDX 6 15 7 16 8 17 9 19 10 20 11 21 12 22 13 23 18 24 14 25
REMARK SMILES IDX 17 26 15 27 16 28 26 29 27 30 28 31 29 32 30 33 31 35 32 36
REMARK SMILES IDX 33 37 94 38 34 39 93 40 35 41 36 42 37 43 87 44 38 45 92 46
REMARK SMILES IDX 86 47 88 48 39 49 91 50 85 51 84 52 40 54 72 55 52 56 71 57
REMARK SMILES IDX 53 58 56 59 70 60 89 61 54 62 55 63 69 65 90 66 57 67 41 68
REMARK SMILES IDX 42 69 50 70 43 71 49 72 51 73 48 74 44 75 45 76 46 77 47 78
REMARK SMILES IDX 73 79 74 80 82 81 75 82 81 83 83 84 80 85 76 86 77 87 78 88
REMARK SMILES IDX 79 89 58 90 59 91 67 92 60 93 66 94 68 95 65 96 61 97 62 98
REMARK SMILES IDX 63 99 64 100
REMARK H PARENT 25 4 4 13 7 18 29 34 88 53 56 64
REMARK Flexibility Score: inf
ROOT
ATOM      1  C   UNL A   1      32.597  28.765  23.943  1.00  0.00     0.251 C 
ATOM      2  O   UNL A   1      33.260  29.145  22.963  1.00  0.00    -0.269 OA
ATOM      3  N   UNL A   1      32.652  29.661  24.972  1.00  0.00    -0.352 N 
ATOM      4  H   UNL A   1      33.442  30.240  24.873  1.00  0.00     0.163 HD
ENDROOT
BRANCH   1   5
ATOM      5  C   UNL A   1      31.943  27.399  23.813  1.00  0.00     0.044 A 
ATOM      6  C   UNL A   1      33.934  25.839  23.555  1.00  0.00     0.047 C 
ATOM      7  C   UNL A   1      32.473  26.088  23.703  1.00  0.00    -0.015 A 
ATOM      8  C   UNL A   1      31.590  24.959  23.678  1.00  0.00     0.044 A 
ATOM      9  C   UNL A   1      30.212  25.135  23.597  1.00  0.00     0.026 A 
ATOM     10  C   UNL A   1      30.526  27.501  23.829  1.00  0.00     0.014 A 
ATOM     11  C   UNL A   1      29.676  26.406  23.689  1.00  0.00     0.003 A 
BRANCH   8  12
ATOM     12  N   UNL A   1      32.128  23.657  23.704  1.00  0.00    -0.332 N 
ATOM     13  H   UNL A   1      32.678  23.453  22.912  1.00  0.00     0.169 HD
BRANCH  12  14
ATOM     14  C   UNL A   1      32.058  22.634  24.566  1.00  0.00     0.177 C 
ATOM     15  S   UNL A   1      31.083  22.835  25.918  1.00  0.00    -0.040 S 
BRANCH  14  16
ATOM     16  N   UNL A   1      32.678  21.426  24.433  1.00  0.00    -0.302 N 
ATOM     17  C   UNL A   1      33.810  20.718  24.803  1.00  0.00     0.236 C 
ATOM     18  H   UNL A   1      32.119  20.848  23.866  1.00  0.00     0.172 HD
ATOM     19  O   UNL A   1      33.772  19.498  24.583  1.00  0.00    -0.274 OA
BRANCH  17  20
ATOM     20  C   UNL A   1      35.039  21.318  25.451  1.00  0.00     0.175 C 
BRANCH  20  21
ATOM     21  S   UNL A   1      35.802  22.665  24.510  1.00  0.00    -0.116 SA
BRANCH  21  22
ATOM     22  C   UNL A   1      37.339  22.764  25.384  1.00  0.00     0.008 A 
ATOM     23  C   UNL A   1      37.720  23.921  26.072  1.00  0.00     0.016 A 
ATOM     24  C   UNL A   1      38.158  21.633  25.412  1.00  0.00     0.016 A 
ATOM     25  C   UNL A   1      38.909  23.934  26.805  1.00  0.00     0.021 A 
ATOM     26  C   UNL A   1      39.343  21.645  26.143  1.00  0.00     0.021 A 
ATOM     27  C   UNL A   1      39.712  22.794  26.841  1.00  0.00     0.041 A 
ATOM     28  Cl  UNL A   1      41.165  22.793  27.762  1.00  0.00    -0.084 Cl
ENDBRANCH  21  22
ENDBRANCH  20  21
ENDBRANCH  17  20
ENDBRANCH  14  16
ENDBRANCH  12  14
ENDBRANCH   8  12
ENDBRANCH   1   5
BRANCH   3  29
ATOM     29  C   UNL A   1      31.910  30.032  26.174  1.00  0.00     0.118 C 
BRANCH  29  30
ATOM     30  C   UNL A   1      32.655  30.948  27.136  1.00  0.00     0.042 C 
BRANCH  30  31
ATOM     31  C   UNL A   1      34.016  30.444  27.579  1.00  0.00     0.118 C 
BRANCH  31  32
ATOM     32  N   UNL A   1      34.641  31.253  28.635  1.00  0.00    -0.352 N 
ATOM     33  C   UNL A   1      35.850  31.022  29.284  1.00  0.00     0.251 C 
ATOM     34  H   UNL A   1      34.144  32.054  28.917  1.00  0.00     0.163 HD
ATOM     35  O   UNL A   1      36.296  31.761  30.139  1.00  0.00    -0.269 OA
BRANCH  33  36
ATOM     36  C   UNL A   1      36.658  29.885  28.780  1.00  0.00     0.039 A 
ATOM     37  C   UNL A   1      37.027  28.954  29.755  1.00  0.00     0.014 A 
ATOM     38  C   UNL A   1      37.430  30.091  27.640  1.00  0.00     0.014 A 
ATOM     39  C   UNL A   1      38.334  28.488  29.763  1.00  0.00     0.010 A 
ATOM     40  C   UNL A   1      38.755  29.704  27.702  1.00  0.00     0.010 A 
ATOM     41  C   UNL A   1      39.223  28.985  28.812  1.00  0.00    -0.014 A 
BRANCH  41  42
ATOM     42  C   UNL A   1      40.668  28.848  28.962  1.00  0.00     0.031 A 
ATOM     43  C   UNL A   1      41.330  27.719  28.291  1.00  0.00     0.074 A 
ATOM     44  C   UNL A   1      41.399  29.662  29.757  1.00  0.00     0.049 A 
ATOM     45  N   UNL A   1      42.344  27.086  28.770  1.00  0.00    -0.248 NA
ATOM     46  C   UNL A   1      40.832  27.166  27.040  1.00  0.00     0.031 C 
ATOM     47  C   UNL A   1      42.853  29.678  29.904  1.00  0.00     0.029 A 
ATOM     48  N   UNL A   1      40.942  30.485  30.785  1.00  0.00    -0.354 N 
ATOM     49  C   UNL A   1      42.794  26.232  27.794  1.00  0.00     0.074 A 
ATOM     50  C   UNL A   1      41.780  26.268  26.766  1.00  0.00     0.031 C 
ATOM     51  C   UNL A   1      43.166  30.235  31.084  1.00  0.00     0.029 A 
ATOM     52  C   UNL A   1      41.929  30.509  31.790  1.00  0.00     0.049 A 
ATOM     53  H   UNL A   1      40.083  30.964  30.804  1.00  0.00     0.167 HD
ATOM     54  C   UNL A   1      44.037  25.684  27.900  1.00  0.00     0.034 A 
ATOM     55  C   UNL A   1      41.632  30.111  33.060  1.00  0.00     0.034 A 
ATOM     56  C   UNL A   1      44.703  26.079  29.144  1.00  0.00     0.049 A 
ATOM     57  C   UNL A   1      42.336  28.829  33.476  1.00  0.00     0.074 A 
ATOM     58  C   UNL A   1      45.683  27.007  29.463  1.00  0.00     0.029 A 
ATOM     59  N   UNL A   1      44.154  25.684  30.355  1.00  0.00    -0.354 N 
ATOM     60  N   UNL A   1      43.224  28.186  32.766  1.00  0.00    -0.248 NA
ATOM     61  C   UNL A   1      41.992  28.117  34.706  1.00  0.00     0.031 C 
ATOM     62  C   UNL A   1      45.702  27.167  30.882  1.00  0.00     0.029 A 
ATOM     63  C   UNL A   1      44.757  26.318  31.428  1.00  0.00     0.049 A 
ATOM     64  H   UNL A   1      43.423  25.030  30.441  1.00  0.00     0.167 HD
ATOM     65  C   UNL A   1      43.487  26.968  33.352  1.00  0.00     0.074 A 
ATOM     66  C   UNL A   1      42.691  26.980  34.569  1.00  0.00     0.031 C 
ATOM     67  C   UNL A   1      44.285  26.014  32.774  1.00  0.00     0.034 A 
BRANCH  54  68
ATOM     68  C   UNL A   1      44.737  25.036  26.727  1.00  0.00     0.023 A 
ATOM     69  C   UNL A   1      44.468  23.689  26.422  1.00  0.00     0.031 A 
ATOM     70  C   UNL A   1      45.709  25.655  25.916  1.00  0.00     0.131 A 
ATOM     71  C   UNL A   1      45.230  22.992  25.464  1.00  0.00     0.055 A 
ATOM     72  C   UNL A   1      46.526  24.945  25.028  1.00  0.00     0.041 A 
ATOM     73  F   UNL A   1      45.869  26.987  25.901  1.00  0.00    -0.206 F 
ATOM     74  C   UNL A   1      46.299  23.597  24.810  1.00  0.00     0.022 A 
BRANCH  71  75
ATOM     75  S   UNL A   1      44.786  21.281  25.066  1.00  0.00     0.124 S 
ATOM     76  O   UNL A   1      45.988  20.551  25.450  1.00  0.00    -0.237 OA
ATOM     77  O   UNL A   1      43.606  21.072  25.897  1.00  0.00    -0.237 OA
ATOM     78  O   UNL A   1      44.525  21.327  23.627  1.00  0.00    -0.744 OA
ENDBRANCH  71  75
ENDBRANCH  54  68
BRANCH  55  79
ATOM     79  C   UNL A   1      40.252  30.512  33.463  1.00  0.00     0.023 A 
ATOM     80  C   UNL A   1      40.013  31.878  33.733  1.00  0.00     0.031 A 
ATOM     81  C   UNL A   1      39.149  29.697  33.174  1.00  0.00     0.131 A 
ATOM     82  C   UNL A   1      38.729  32.416  33.556  1.00  0.00     0.055 A 
ATOM     83  C   UNL A   1      37.866  30.234  33.030  1.00  0.00     0.041 A 
ATOM     84  F   UNL A   1      39.315  28.397  32.887  1.00  0.00    -0.206 F 
ATOM     85  C   UNL A   1      37.662  31.604  33.170  1.00  0.00     0.022 A 
BRANCH  82  86
ATOM     86  S   UNL A   1      38.478  34.214  33.586  1.00  0.00     0.124 S 
ATOM     87  O   UNL A   1      37.776  34.409  34.848  1.00  0.00    -0.237 OA
ATOM     88  O   UNL A   1      39.838  34.741  33.523  1.00  0.00    -0.237 OA
ATOM     89  O   UNL A   1      37.689  34.443  32.374  1.00  0.00    -0.744 OA
ENDBRANCH  82  86
ENDBRANCH  55  79
BRANCH  67  90
ATOM     90  C   UNL A   1      44.633  24.676  33.412  1.00  0.00     0.023 A 
ATOM     91  C   UNL A   1      45.475  24.562  34.529  1.00  0.00     0.031 A 
ATOM     92  C   UNL A   1      44.176  23.445  32.877  1.00  0.00     0.131 A 
ATOM     93  C   UNL A   1      45.714  23.318  35.145  1.00  0.00     0.055 A 
ATOM     94  C   UNL A   1      44.475  22.202  33.445  1.00  0.00     0.041 A 
ATOM     95  F   UNL A   1      43.405  23.383  31.783  1.00  0.00    -0.206 F 
ATOM     96  C   UNL A   1      45.227  22.133  34.604  1.00  0.00     0.022 A 
BRANCH  93  97
ATOM     97  S   UNL A   1      46.628  23.289  36.710  1.00  0.00     0.124 S 
ATOM     98  O   UNL A   1      45.632  22.783  37.648  1.00  0.00    -0.237 OA
ATOM     99  O   UNL A   1      47.724  22.377  36.395  1.00  0.00    -0.237 OA
ATOM    100  O   UNL A   1      47.018  24.684  36.908  1.00  0.00    -0.744 OA
ENDBRANCH  93  97
ENDBRANCH  67  90
ENDBRANCH  41  42
ENDBRANCH  33  36
ENDBRANCH  31  32
ENDBRANCH  30  31
ENDBRANCH  29  30
ENDBRANCH   3  29
TORSDOF 19
ENDMDL
MODEL 2
REMARK VINA RESULT:     -11.7      2.436      3.409
REMARK SMILES Cc1c(NC(=S)NC(=O)CSc2ccc(Cl)cc2)cccc1C(=O)NCCCNC(=O)c1ccc(-c2c3nc(c(-c4cc(S(=O)(=O)[O-])ccc4F)c4ccc([nH]4)c(-c4cc(S(=O)(=O)[O-])ccc4F)c4nc(c(-c5cc(S(=O)(=O)[O-])ccc5F)c5ccc2[nH]5)C=C4)C=C3)cc1
REMARK SMILES IDX 23 1 24 2 25 3 22 5 1 6 2 7 3 8 19 9 21 10 20 11 4 12 5 14
REMARK SMILES IDX 6 15 7 16 8 17 9 19 10 20 11 21 12 22 13 23 18 24 14 25
REMARK SMILES IDX 17 26 15 27 16 28 26 29 27 30 28 31 29 32 30 33 31 35 32 36
REMARK SMILES IDX 33 37 94 38 34 39 93 40 35 41 36 42 37 43 87 44 38 45 92 46
REMARK SMILES IDX 86 47 88 48 39 49 91 50 85 51 84 52 40 54 72 55 52 56 71 57
REMARK SMILES IDX 53 58 56 59 70 60 89 61 54 62 55 63 69 65 90 66 57 67 41 68
REMARK SMILES IDX 42 69 50 70 43 71 49 72 51 73 48 74 44 75 45 76 46 77 47 78
REMARK SMILES IDX 73 79 74 80 82 81 75 82 81 83 83 84 80 85 76 86 77 87 78 88
REMARK SMILES IDX 79 89 58 90 59 91 67 92 60 93 66 94 68 95 65 96 61 97 62 98
REMARK SMILES IDX 63 99 64 100
REMARK H PARENT 25 4 4 13 7 18 29 34 88 53 56 64
REMARK Flexibility Score: inf
ROOT
ATOM      1  C   UNL A   1      32.100  28.288  27.169  1.00  0.00     0.251 C 
ATOM      2  O   UNL A   1      31.365  27.976  28.122  1.00  0.00    -0.269 OA
ATOM      3  N   UNL A   1      33.099  29.137  27.554  1.00  0.00    -0.352 N 
ATOM      4  H   UNL A   1      32.854  29.587  28.395  1.00  0.00     0.163 HD
ENDROOT
BRANCH   1   5
ATOM      5  C   UNL A   1      31.703  27.729  25.813  1.00  0.00     0.044 A 
ATOM      6  C   UNL A   1      32.650  25.370  25.871  1.00  0.00     0.047 C 
ATOM      7  C   UNL A   1      31.861  26.452  25.219  1.00  0.00    -0.015 A 
ATOM      8  C   UNL A   1      31.297  26.189  23.927  1.00  0.00     0.044 A 
ATOM      9  C   UNL A   1      30.735  27.216  23.174  1.00  0.00     0.026 A 
ATOM     10  C   UNL A   1      31.027  28.704  25.031  1.00  0.00     0.014 A 
ATOM     11  C   UNL A   1      30.585  28.471  23.730  1.00  0.00     0.003 A 
BRANCH   8  12
ATOM     12  N   UNL A   1      31.342  24.882  23.403  1.00  0.00    -0.332 N 
ATOM     13  H   UNL A   1      30.580  24.327  23.689  1.00  0.00     0.169 HD
BRANCH  12  14
ATOM     14  C   UNL A   1      32.192  24.224  22.603  1.00  0.00     0.177 C 
ATOM     15  S   UNL A   1      33.380  25.128  21.835  1.00  0.00    -0.040 S 
BRANCH  14  16
ATOM     16  N   UNL A   1      32.205  22.878  22.378  1.00  0.00    -0.302 N 
ATOM     17  C   UNL A   1      32.210  21.651  23.019  1.00  0.00     0.236 C 
ATOM     18  H   UNL A   1      32.219  22.724  21.406  1.00  0.00     0.172 HD
ATOM     19  O   UNL A   1      31.979  20.670  22.295  1.00  0.00    -0.274 OA
BRANCH  17  20
ATOM     20  C   UNL A   1      32.454  21.441  24.497  1.00  0.00     0.175 C 
BRANCH  20  21
ATOM     21  S   UNL A   1      33.679  20.164  24.882  1.00  0.00    -0.116 SA
BRANCH  21  22
ATOM     22  C   UNL A   1      35.048  21.217  25.277  1.00  0.00     0.008 A 
ATOM     23  C   UNL A   1      36.365  20.850  24.983  1.00  0.00     0.016 A 
ATOM     24  C   UNL A   1      34.780  22.459  25.857  1.00  0.00     0.016 A 
ATOM     25  C   UNL A   1      37.410  21.739  25.250  1.00  0.00     0.021 A 
ATOM     26  C   UNL A   1      35.821  23.346  26.122  1.00  0.00     0.021 A 
ATOM     27  C   UNL A   1      37.132  22.985  25.813  1.00  0.00     0.041 A 
ATOM     28  Cl  UNL A   1      38.408  24.096  26.119  1.00  0.00    -0.084 Cl
ENDBRANCH  21  22
ENDBRANCH  20  21
ENDBRANCH  17  20
ENDBRANCH  14  16
ENDBRANCH  12  14
ENDBRANCH   8  12
ENDBRANCH   1   5
BRANCH   3  29
ATOM     29  C   UNL A   1      34.415  29.589  27.112  1.00  0.00     0.118 C 
BRANCH  29  30
ATOM     30  C   UNL A   1      35.535  29.406  28.128  1.00  0.00     0.042 C 
BRANCH  30  31
ATOM     31  C   UNL A   1      35.924  30.660  28.889  1.00  0.00     0.118 C 
BRANCH  31  32
ATOM     32  N   UNL A   1      34.825  31.618  29.070  1.00  0.00    -0.352 N 
ATOM     33  C   UNL A   1      34.768  32.698  29.946  1.00  0.00     0.251 C 
ATOM     34  H   UNL A   1      34.032  31.479  28.503  1.00  0.00     0.163 HD
ATOM     35  O   UNL A   1      33.817  33.450  30.012  1.00  0.00    -0.269 OA
BRANCH  33  36
ATOM     36  C   UNL A   1      36.005  32.984  30.715  1.00  0.00     0.039 A 
ATOM     37  C   UNL A   1      36.924  33.804  30.055  1.00  0.00     0.014 A 
ATOM     38  C   UNL A   1      36.410  32.050  31.664  1.00  0.00     0.014 A 
ATOM     39  C   UNL A   1      38.266  33.452  30.087  1.00  0.00     0.010 A 
ATOM     40  C   UNL A   1      37.730  31.643  31.619  1.00  0.00     0.010 A 
ATOM     41  C   UNL A   1      38.632  32.286  30.758  1.00  0.00    -0.014 A 
BRANCH  41  42
ATOM     42  C   UNL A   1      39.924  31.645  30.540  1.00  0.00     0.031 A 
ATOM     43  C   UNL A   1      39.948  30.357  29.830  1.00  0.00     0.074 A 
ATOM     44  C   UNL A   1      41.078  32.143  31.039  1.00  0.00     0.049 A 
ATOM     45  N   UNL A   1      40.774  29.403  30.086  1.00  0.00    -0.248 NA
ATOM     46  C   UNL A   1      38.966  30.022  28.809  1.00  0.00     0.031 C 
ATOM     47  C   UNL A   1      42.431  31.641  30.802  1.00  0.00     0.029 A 
ATOM     48  N   UNL A   1      41.233  33.069  32.068  1.00  0.00    -0.354 N 
ATOM     49  C   UNL A   1      40.616  28.449  29.112  1.00  0.00     0.074 A 
ATOM     50  C   UNL A   1      39.434  28.848  28.384  1.00  0.00     0.031 C 
ATOM     51  C   UNL A   1      43.227  32.045  31.802  1.00  0.00     0.029 A 
ATOM     52  C   UNL A   1      42.405  32.738  32.776  1.00  0.00     0.049 A 
ATOM     53  H   UNL A   1      40.630  33.822  32.264  1.00  0.00     0.167 HD
ATOM     54  C   UNL A   1      41.574  27.495  28.943  1.00  0.00     0.034 A 
ATOM     55  C   UNL A   1      42.352  32.465  34.111  1.00  0.00     0.034 A 
ATOM     56  C   UNL A   1      42.651  27.623  29.929  1.00  0.00     0.049 A 
ATOM     57  C   UNL A   1      42.660  31.014  34.449  1.00  0.00     0.074 A 
ATOM     58  C   UNL A   1      43.937  28.142  29.895  1.00  0.00     0.029 A 
ATOM     59  N   UNL A   1      42.357  27.443  31.272  1.00  0.00    -0.354 N 
ATOM     60  N   UNL A   1      43.042  30.102  33.596  1.00  0.00    -0.248 NA
ATOM     61  C   UNL A   1      42.446  30.466  35.787  1.00  0.00     0.031 C 
ATOM     62  C   UNL A   1      44.400  28.278  31.239  1.00  0.00     0.029 A 
ATOM     63  C   UNL A   1      43.411  27.817  32.088  1.00  0.00     0.049 A 
ATOM     64  H   UNL A   1      41.500  27.090  31.606  1.00  0.00     0.167 HD
ATOM     65  C   UNL A   1      43.023  28.867  34.206  1.00  0.00     0.074 A 
ATOM     66  C   UNL A   1      42.648  29.155  35.581  1.00  0.00     0.031 C 
ATOM     67  C   UNL A   1      43.254  27.695  33.533  1.00  0.00     0.034 A 
BRANCH  54  68
ATOM     68  C   UNL A   1      41.658  26.646  27.695  1.00  0.00     0.023 A 
ATOM     69  C   UNL A   1      41.727  25.246  27.817  1.00  0.00     0.031 A 
ATOM     70  C   UNL A   1      41.733  27.141  26.377  1.00  0.00     0.131 A 
ATOM     71  C   UNL A   1      41.995  24.430  26.701  1.00  0.00     0.055 A 
ATOM     72  C   UNL A   1      42.086  26.343  25.282  1.00  0.00     0.041 A 
ATOM     73  F   UNL A   1      41.406  28.408  26.082  1.00  0.00    -0.206 F 
ATOM     74  C   UNL A   1      42.237  24.976  25.444  1.00  0.00     0.022 A 
BRANCH  71  75
ATOM     75  S   UNL A   1      41.998  22.630  26.912  1.00  0.00     0.124 S 
ATOM     76  O   UNL A   1      43.275  22.398  27.579  1.00  0.00    -0.237 OA
ATOM     77  O   UNL A   1      40.800  22.415  27.715  1.00  0.00    -0.237 OA
ATOM     78  O   UNL A   1      41.919  22.129  25.540  1.00  0.00    -0.744 OA
ENDBRANCH  71  75
ENDBRANCH  54  68
BRANCH  55  79
ATOM     79  C   UNL A   1      41.360  33.328  34.818  1.00  0.00     0.023 A 
ATOM     80  C   UNL A   1      40.047  32.831  34.979  1.00  0.00     0.031 A 
ATOM     81  C   UNL A   1      41.778  34.367  35.661  1.00  0.00     0.131 A 
ATOM     82  C   UNL A   1      39.259  33.263  36.056  1.00  0.00     0.055 A 
ATOM     83  C   UNL A   1      40.974  34.816  36.713  1.00  0.00     0.041 A 
ATOM     84  F   UNL A   1      43.020  34.865  35.571  1.00  0.00    -0.206 F 
ATOM     85  C   UNL A   1      39.733  34.229  36.945  1.00  0.00     0.022 A 
BRANCH  82  86
ATOM     86  S   UNL A   1      37.711  32.406  36.460  1.00  0.00     0.124 S 
ATOM     87  O   UNL A   1      37.258  31.948  35.153  1.00  0.00    -0.237 OA
ATOM     88  O   UNL A   1      38.140  31.364  37.388  1.00  0.00    -0.237 OA
ATOM     89  O   UNL A   1      36.912  33.467  37.077  1.00  0.00    -0.744 OA
ENDBRANCH  82  86
ENDBRANCH  55  79
BRANCH  67  90
ATOM     90  C   UNL A   1      43.285  26.317  34.181  1.00  0.00     0.023 A 
ATOM     91  C   UNL A   1      44.409  25.478  34.132  1.00  0.00     0.031 A 
ATOM     92  C   UNL A   1      42.151  25.764  34.827  1.00  0.00     0.131 A 
ATOM     93  C   UNL A   1      44.434  24.243  34.810  1.00  0.00     0.055 A 
ATOM     94  C   UNL A   1      42.152  24.504  35.436  1.00  0.00     0.041 A 
ATOM     95  F   UNL A   1      40.986  26.420  34.913  1.00  0.00    -0.206 F 
ATOM     96  C   UNL A   1      43.308  23.745  35.455  1.00  0.00     0.022 A 
BRANCH  93  97
ATOM     97  S   UNL A   1      45.997  23.328  34.882  1.00  0.00     0.124 S 
ATOM     98  O   UNL A   1      46.116  23.017  36.302  1.00  0.00    -0.237 OA
ATOM     99  O   UNL A   1      45.716  22.194  34.005  1.00  0.00    -0.237 OA
ATOM    100  O   UNL A   1      46.979  24.281  34.369  1.00  0.00    -0.744 OA
ENDBRANCH  93  97
ENDBRANCH  67  90
ENDBRANCH  41  42
ENDBRANCH  33  36
ENDBRANCH  31  32
ENDBRANCH  30  31
ENDBRANCH  29  30
ENDBRANCH   3  29
TORSDOF 19
ENDMDL
MODEL 3
REMARK VINA RESULT:     -11.5      3.091      4.851
REMARK SMILES Cc1c(NC(=S)NC(=O)CSc2ccc(Cl)cc2)cccc1C(=O)NCCCNC(=O)c1ccc(-c2c3nc(c(-c4cc(S(=O)(=O)[O-])ccc4F)c4ccc([nH]4)c(-c4cc(S(=O)(=O)[O-])ccc4F)c4nc(c(-c5cc(S(=O)(=O)[O-])ccc5F)c5ccc2[nH]5)C=C4)C=C3)cc1
REMARK SMILES IDX 23 1 24 2 25 3 22 5 1 6 2 7 3 8 19 9 21 10 20 11 4 12 5 14
REMARK SMILES IDX 6 15 7 16 8 17 9 19 10 20 11 21 12 22 13 23 18 24 14 25
REMARK SMILES IDX 17 26 15 27 16 28 26 29 27 30 28 31 29 32 30 33 31 35 32 36
REMARK SMILES IDX 33 37 94 38 34 39 93 40 35 41 36 42 37 43 87 44 38 45 92 46
REMARK SMILES IDX 86 47 88 48 39 49 91 50 85 51 84 52 40 54 72 55 52 56 71 57
REMARK SMILES IDX 53 58 56 59 70 60 89 61 54 62 55 63 69 65 90 66 57 67 41 68
REMARK SMILES IDX 42 69 50 70 43 71 49 72 51 73 48 74 44 75 45 76 46 77 47 78
REMARK SMILES IDX 73 79 74 80 82 81 75 82 81 83 83 84 80 85 76 86 77 87 78 88
REMARK SMILES IDX 79 89 58 90 59 91 67 92 60 93 66 94 68 95 65 96 61 97 62 98
REMARK SMILES IDX 63 99 64 100
REMARK H PARENT 25 4 4 13 7 18 29 34 88 53 56 64
REMARK Flexibility Score: inf
ROOT
ATOM      1  C   UNL A   1      34.426  29.363  26.872  1.00  0.00     0.251 C 
ATOM      2  O   UNL A   1      35.085  28.390  27.275  1.00  0.00    -0.269 OA
ATOM      3  N   UNL A   1      34.524  30.430  27.720  1.00  0.00    -0.352 N 
ATOM      4  H   UNL A   1      34.805  30.126  28.613  1.00  0.00     0.163 HD
ENDROOT
BRANCH   1   5
ATOM      5  C   UNL A   1      33.625  29.141  25.599  1.00  0.00     0.044 A 
ATOM      6  C   UNL A   1      31.467  30.405  26.057  1.00  0.00     0.047 C 
ATOM      7  C   UNL A   1      32.362  29.617  25.165  1.00  0.00    -0.015 A 
ATOM      8  C   UNL A   1      31.891  29.297  23.850  1.00  0.00     0.044 A 
ATOM      9  C   UNL A   1      32.580  28.392  23.047  1.00  0.00     0.026 A 
ATOM     10  C   UNL A   1      34.325  28.304  24.690  1.00  0.00     0.014 A 
ATOM     11  C   UNL A   1      33.806  27.905  23.459  1.00  0.00     0.003 A 
BRANCH   8  12
ATOM     12  N   UNL A   1      30.700  29.884  23.377  1.00  0.00    -0.332 N 
ATOM     13  H   UNL A   1      30.685  30.862  23.486  1.00  0.00     0.169 HD
BRANCH  12  14
ATOM     14  C   UNL A   1      29.583  29.406  22.814  1.00  0.00     0.177 C 
ATOM     15  S   UNL A   1      28.849  30.356  21.639  1.00  0.00    -0.040 S 
BRANCH  14  16
ATOM     16  N   UNL A   1      28.999  28.202  23.080  1.00  0.00    -0.302 N 
ATOM     17  C   UNL A   1      29.086  27.089  23.899  1.00  0.00     0.236 C 
ATOM     18  H   UNL A   1      28.241  28.078  22.463  1.00  0.00     0.172 HD
ATOM     19  O   UNL A   1      28.104  26.331  23.876  1.00  0.00    -0.274 OA
BRANCH  17  20
ATOM     20  C   UNL A   1      30.255  26.761  24.802  1.00  0.00     0.175 C 
BRANCH  20  21
ATOM     21  S   UNL A   1      30.244  25.075  25.463  1.00  0.00    -0.116 SA
BRANCH  21  22
ATOM     22  C   UNL A   1      31.904  24.614  25.049  1.00  0.00     0.008 A 
ATOM     23  C   UNL A   1      32.247  24.185  23.763  1.00  0.00     0.016 A 
ATOM     24  C   UNL A   1      32.887  24.731  26.034  1.00  0.00     0.016 A 
ATOM     25  C   UNL A   1      33.580  23.895  23.460  1.00  0.00     0.021 A 
ATOM     26  C   UNL A   1      34.216  24.443  25.732  1.00  0.00     0.021 A 
ATOM     27  C   UNL A   1      34.559  24.032  24.444  1.00  0.00     0.041 A 
ATOM     28  Cl  UNL A   1      36.206  23.703  24.073  1.00  0.00    -0.084 Cl
ENDBRANCH  21  22
ENDBRANCH  20  21
ENDBRANCH  17  20
ENDBRANCH  14  16
ENDBRANCH  12  14
ENDBRANCH   8  12
ENDBRANCH   1   5
BRANCH   3  29
ATOM     29  C   UNL A   1      34.344  31.879  27.719  1.00  0.00     0.118 C 
BRANCH  29  30
ATOM     30  C   UNL A   1      35.331  32.652  28.584  1.00  0.00     0.042 C 
BRANCH  30  31
ATOM     31  C   UNL A   1      35.508  32.115  29.993  1.00  0.00     0.118 C 
BRANCH  31  32
ATOM     32  N   UNL A   1      34.381  32.401  30.891  1.00  0.00    -0.352 N 
ATOM     33  C   UNL A   1      34.430  32.852  32.207  1.00  0.00     0.251 C 
ATOM     34  H   UNL A   1      33.482  32.256  30.516  1.00  0.00     0.163 HD
ATOM     35  O   UNL A   1      33.437  33.078  32.868  1.00  0.00    -0.269 OA
BRANCH  33  36
ATOM     36  C   UNL A   1      35.775  33.186  32.735  1.00  0.00     0.039 A 
ATOM     37  C   UNL A   1      36.538  34.013  31.905  1.00  0.00     0.014 A 
ATOM     38  C   UNL A   1      36.370  32.287  33.614  1.00  0.00     0.014 A 
ATOM     39  C   UNL A   1      37.873  33.695  31.702  1.00  0.00     0.010 A 
ATOM     40  C   UNL A   1      37.672  31.912  33.340  1.00  0.00     0.010 A 
ATOM     41  C   UNL A   1      38.386  32.555  32.319  1.00  0.00    -0.014 A 
BRANCH  41  42
ATOM     42  C   UNL A   1      39.636  31.941  31.886  1.00  0.00     0.031 A 
ATOM     43  C   UNL A   1      39.562  30.757  31.016  1.00  0.00     0.074 A 
ATOM     44  C   UNL A   1      40.846  32.363  32.321  1.00  0.00     0.049 A 
ATOM     45  N   UNL A   1      40.392  29.774  31.058  1.00  0.00    -0.248 NA
ATOM     46  C   UNL A   1      38.473  30.564  30.068  1.00  0.00     0.031 C 
ATOM     47  C   UNL A   1      42.156  31.889  31.879  1.00  0.00     0.029 A 
ATOM     48  N   UNL A   1      41.124  33.145  33.439  1.00  0.00    -0.354 N 
ATOM     49  C   UNL A   1      40.116  28.956  29.990  1.00  0.00     0.074 A 
ATOM     50  C   UNL A   1      38.873  29.453  29.448  1.00  0.00     0.031 C 
ATOM     51  C   UNL A   1      43.060  32.154  32.834  1.00  0.00     0.029 A 
ATOM     52  C   UNL A   1      42.356  32.718  33.971  1.00  0.00     0.049 A 
ATOM     53  H   UNL A   1      40.559  33.869  33.794  1.00  0.00     0.167 HD
ATOM     54  C   UNL A   1      41.033  28.027  29.599  1.00  0.00     0.034 A 
ATOM     55  C   UNL A   1      42.436  32.272  35.258  1.00  0.00     0.034 A 
ATOM     56  C   UNL A   1      42.208  28.019  30.475  1.00  0.00     0.049 A 
ATOM     57  C   UNL A   1      42.750  30.789  35.370  1.00  0.00     0.074 A 
ATOM     58  C   UNL A   1      43.493  28.531  30.373  1.00  0.00     0.029 A 
ATOM     59  N   UNL A   1      42.051  27.666  31.806  1.00  0.00    -0.354 N 
ATOM     60  N   UNL A   1      43.024  29.993  34.370  1.00  0.00    -0.248 NA
ATOM     61  C   UNL A   1      42.665  30.071  36.641  1.00  0.00     0.031 C 
ATOM     62  C   UNL A   1      44.095  28.487  31.667  1.00  0.00     0.029 A 
ATOM     63  C   UNL A   1      43.191  27.924  32.548  1.00  0.00     0.049 A 
ATOM     64  H   UNL A   1      41.227  27.277  32.180  1.00  0.00     0.167 HD
ATOM     65  C   UNL A   1      43.045  28.690  34.814  1.00  0.00     0.074 A 
ATOM     66  C   UNL A   1      42.819  28.797  36.246  1.00  0.00     0.031 C 
ATOM     67  C   UNL A   1      43.183  27.614  33.973  1.00  0.00     0.034 A 
BRANCH  54  68
ATOM     68  C   UNL A   1      40.971  27.349  28.249  1.00  0.00     0.023 A 
ATOM     69  C   UNL A   1      40.846  25.949  28.186  1.00  0.00     0.031 A 
ATOM     70  C   UNL A   1      41.085  28.000  27.005  1.00  0.00     0.131 A 
ATOM     71  C   UNL A   1      40.974  25.260  26.965  1.00  0.00     0.055 A 
ATOM     72  C   UNL A   1      41.300  27.315  25.803  1.00  0.00     0.041 A 
ATOM     73  F   UNL A   1      40.932  29.327  26.888  1.00  0.00    -0.206 F 
ATOM     74  C   UNL A   1      41.263  25.931  25.781  1.00  0.00     0.022 A 
BRANCH  71  75
ATOM     75  S   UNL A   1      40.731  23.464  26.942  1.00  0.00     0.124 S 
ATOM     76  O   UNL A   1      39.304  23.347  26.666  1.00  0.00    -0.237 OA
ATOM     77  O   UNL A   1      41.634  23.049  25.875  1.00  0.00    -0.237 OA
ATOM     78  O   UNL A   1      41.136  23.052  28.287  1.00  0.00    -0.744 OA
ENDBRANCH  71  75
ENDBRANCH  54  68
BRANCH  55  79
ATOM     79  C   UNL A   1      41.540  33.041  36.171  1.00  0.00     0.023 A 
ATOM     80  C   UNL A   1      40.188  32.638  36.263  1.00  0.00     0.031 A 
ATOM     81  C   UNL A   1      42.065  33.825  37.208  1.00  0.00     0.131 A 
ATOM     82  C   UNL A   1      39.459  32.889  37.435  1.00  0.00     0.055 A 
ATOM     83  C   UNL A   1      41.321  34.098  38.360  1.00  0.00     0.041 A 
ATOM     84  F   UNL A   1      43.347  34.218  37.186  1.00  0.00    -0.206 F 
ATOM     85  C   UNL A   1      40.034  33.586  38.499  1.00  0.00     0.022 A 
BRANCH  82  86
ATOM     86  S   UNL A   1      37.843  32.103  37.693  1.00  0.00     0.124 S 
ATOM     87  O   UNL A   1      36.927  33.082  37.121  1.00  0.00    -0.237 OA
ATOM     88  O   UNL A   1      37.967  30.843  36.967  1.00  0.00    -0.237 OA
ATOM     89  O   UNL A   1      37.791  31.954  39.149  1.00  0.00    -0.744 OA
ENDBRANCH  82  86
ENDBRANCH  55  79
BRANCH  67  90
ATOM     90  C   UNL A   1      43.253  26.163  34.431  1.00  0.00     0.023 A 
ATOM     91  C   UNL A   1      44.406  25.376  34.285  1.00  0.00     0.031 A 
ATOM     92  C   UNL A   1      42.133  25.491  34.980  1.00  0.00     0.131 A 
ATOM     93  C   UNL A   1      44.467  24.062  34.790  1.00  0.00     0.055 A 
ATOM     94  C   UNL A   1      42.171  24.162  35.414  1.00  0.00     0.041 A 
ATOM     95  F   UNL A   1      40.946  26.092  35.137  1.00  0.00    -0.206 F 
ATOM     96  C   UNL A   1      43.351  23.445  35.346  1.00  0.00     0.022 A 
BRANCH  93  97
ATOM     97  S   UNL A   1      46.059  23.197  34.760  1.00  0.00     0.124 S 
ATOM     98  O   UNL A   1      46.382  23.081  36.178  1.00  0.00    -0.237 OA
ATOM     99  O   UNL A   1      45.705  21.950  34.087  1.00  0.00    -0.237 OA
ATOM    100  O   UNL A   1      46.924  24.092  33.995  1.00  0.00    -0.744 OA
ENDBRANCH  93  97
ENDBRANCH  67  90
ENDBRANCH  41  42
ENDBRANCH  33  36
ENDBRANCH  31  32
ENDBRANCH  30  31
ENDBRANCH  29  30
ENDBRANCH   3  29
TORSDOF 19
ENDMDL
