MODEL 1
REMARK VINA RESULT:      -8.9      0.000      0.000
REMARK SMILES CCCCCCOC(=O)Nc1cccc(-c2ccc([C@@H](C)C(=O)NCCCNC(=O)c3ccc(-c4c5nc(c(-c6cc(S(=O)(=O)[O-])ccc6F)c6ccc([nH]6)c(-c6cc(S(=O)(=O)[O-])ccc6F)c6nc(c(-c7cc(S(=O)(=O)[O-])ccc7F)c7ccc4[nH]7)C=C6)C=C5)cc3)cc2F)c1
REMARK SMILES IDX 20 1 21 2 19 3 16 4 17 5 95 6 18 7 94 8 96 9 15 10 11 11
REMARK SMILES IDX 12 12 97 13 13 14 14 15 10 16 8 17 9 18 7 20 6 21 5 22 4 23
REMARK SMILES IDX 3 24 2 25 1 26 22 27 23 28 24 29 25 31 26 32 27 33 28 34
REMARK SMILES IDX 29 35 30 37 31 38 32 39 93 40 33 41 92 42 34 43 35 44 36 45
REMARK SMILES IDX 86 46 37 47 91 48 85 49 87 50 38 51 90 52 84 53 83 54 39 56
REMARK SMILES IDX 71 57 51 58 70 59 52 60 55 61 69 62 88 63 53 64 54 65 68 67
REMARK SMILES IDX 89 68 56 69 40 70 41 71 49 72 42 73 48 74 50 75 47 76 43 77
REMARK SMILES IDX 44 78 45 79 46 80 72 81 73 82 81 83 74 84 80 85 82 86 79 87
REMARK SMILES IDX 75 88 76 89 77 90 78 91 57 92 58 93 66 94 59 95 65 96 67 97
REMARK SMILES IDX 64 98 60 99 61 100 62 101 63 102
REMARK H PARENT 10 19 24 30 28 36 87 55 55 66
REMARK Flexibility Score: inf
ROOT
ATOM      1  C   UNL A   1      35.902  34.150  32.645  1.00  0.00     0.105 C 
ATOM      2  C   UNL A   1      35.936  33.824  34.136  1.00  0.00     0.023 C 
ENDROOT
BRANCH   1   3
ATOM      3  C   UNL A   1      37.250  34.196  31.944  1.00  0.00    -0.033 A 
ATOM      4  C   UNL A   1      39.854  34.121  30.754  1.00  0.00     0.018 A 
ATOM      5  C   UNL A   1      38.695  33.871  30.003  1.00  0.00     0.012 A 
ATOM      6  C   UNL A   1      39.663  34.460  32.104  1.00  0.00     0.131 A 
ATOM      7  C   UNL A   1      37.418  33.940  30.579  1.00  0.00     0.005 A 
ATOM      8  C   UNL A   1      38.399  34.475  32.695  1.00  0.00     0.044 A 
ATOM      9  F   UNL A   1      40.708  34.788  32.881  1.00  0.00    -0.206 F 
BRANCH   4  10
ATOM     10  C   UNL A   1      41.199  34.019  30.146  1.00  0.00    -0.013 A 
ATOM     11  C   UNL A   1      43.372  32.893  29.987  1.00  0.00     0.045 A 
ATOM     12  C   UNL A   1      43.830  33.874  29.112  1.00  0.00     0.026 A 
ATOM     13  C   UNL A   1      42.063  32.961  30.479  1.00  0.00     0.035 A 
ATOM     14  C   UNL A   1      42.972  34.895  28.709  1.00  0.00     0.003 A 
ATOM     15  C   UNL A   1      41.676  34.973  29.230  1.00  0.00     0.009 A 
BRANCH  11  16
ATOM     16  N   UNL A   1      44.280  31.928  30.444  1.00  0.00    -0.291 N 
ATOM     17  C   UNL A   1      44.502  30.679  29.929  1.00  0.00     0.411 C 
ATOM     18  O   UNL A   1      44.926  29.773  30.629  1.00  0.00    -0.224 OA
ATOM     19  H   UNL A   1      44.822  32.178  31.227  1.00  0.00     0.173 HD
BRANCH  17  20
ATOM     20  O   UNL A   1      44.320  30.621  28.584  1.00  0.00    -0.449 OA
BRANCH  20  21
ATOM     21  C   UNL A   1      43.292  29.758  28.075  1.00  0.00     0.235 C 
BRANCH  21  22
ATOM     22  C   UNL A   1      43.857  28.451  27.507  1.00  0.00     0.042 C 
BRANCH  22  23
ATOM     23  C   UNL A   1      44.904  28.601  26.396  1.00  0.00     0.003 C 
BRANCH  23  24
ATOM     24  C   UNL A   1      46.207  27.822  26.619  1.00  0.00    -0.000 C 
BRANCH  24  25
ATOM     25  C   UNL A   1      46.308  27.101  27.962  1.00  0.00    -0.003 C 
ATOM     26  C   UNL A   1      47.243  27.800  28.935  1.00  0.00     0.004 C 
ENDBRANCH  24  25
ENDBRANCH  23  24
ENDBRANCH  22  23
ENDBRANCH  21  22
ENDBRANCH  20  21
ENDBRANCH  17  20
ENDBRANCH  11  16
ENDBRANCH   4  10
ENDBRANCH   1   3
BRANCH   1  27
ATOM     27  C   UNL A   1      34.976  35.318  32.270  1.00  0.00     0.227 C 
ATOM     28  O   UNL A   1      34.964  36.339  32.967  1.00  0.00    -0.274 OA
ATOM     29  N   UNL A   1      34.149  35.313  31.188  1.00  0.00    -0.356 N 
ATOM     30  H   UNL A   1      33.657  36.155  31.055  1.00  0.00     0.163 HD
BRANCH  29  31
ATOM     31  C   UNL A   1      33.863  34.296  30.197  1.00  0.00     0.117 C 
BRANCH  31  32
ATOM     32  C   UNL A   1      34.376  34.674  28.810  1.00  0.00     0.042 C 
BRANCH  32  33
ATOM     33  C   UNL A   1      35.064  33.533  28.072  1.00  0.00     0.118 C 
BRANCH  33  34
ATOM     34  N   UNL A   1      34.147  32.442  27.782  1.00  0.00    -0.352 N 
ATOM     35  C   UNL A   1      34.361  31.091  27.679  1.00  0.00     0.251 C 
ATOM     36  H   UNL A   1      33.214  32.720  27.636  1.00  0.00     0.163 HD
ATOM     37  O   UNL A   1      33.472  30.399  27.185  1.00  0.00    -0.269 OA
BRANCH  35  38
ATOM     38  C   UNL A   1      35.624  30.459  28.138  1.00  0.00     0.039 A 
ATOM     39  C   UNL A   1      35.636  29.828  29.388  1.00  0.00     0.014 A 
ATOM     40  C   UNL A   1      36.809  30.549  27.404  1.00  0.00     0.014 A 
ATOM     41  C   UNL A   1      36.819  29.272  29.882  1.00  0.00     0.010 A 
ATOM     42  C   UNL A   1      37.967  29.916  27.857  1.00  0.00     0.010 A 
ATOM     43  C   UNL A   1      37.994  29.297  29.115  1.00  0.00    -0.014 A 
BRANCH  43  44
ATOM     44  C   UNL A   1      39.268  28.740  29.644  1.00  0.00     0.031 A 
ATOM     45  C   UNL A   1      39.904  29.350  30.868  1.00  0.00     0.074 A 
ATOM     46  C   UNL A   1      39.868  27.714  29.011  1.00  0.00     0.049 A 
ATOM     47  N   UNL A   1      41.031  29.042  31.460  1.00  0.00    -0.248 NA
ATOM     48  C   UNL A   1      39.194  30.480  31.486  1.00  0.00     0.031 C 
ATOM     49  C   UNL A   1      39.373  27.069  27.791  1.00  0.00     0.029 A 
ATOM     50  N   UNL A   1      41.022  27.032  29.300  1.00  0.00    -0.354 N 
ATOM     51  C   UNL A   1      41.172  29.950  32.506  1.00  0.00     0.074 A 
ATOM     52  C   UNL A   1      40.051  30.861  32.421  1.00  0.00     0.031 C 
ATOM     53  C   UNL A   1      40.203  26.067  27.457  1.00  0.00     0.029 A 
ATOM     54  C   UNL A   1      41.306  26.021  28.412  1.00  0.00     0.049 A 
ATOM     55  H   UNL A   1      41.595  27.247  30.071  1.00  0.00     0.167 HD
ATOM     56  C   UNL A   1      42.131  30.005  33.464  1.00  0.00     0.034 A 
ATOM     57  C   UNL A   1      42.338  25.155  28.372  1.00  0.00     0.034 A 
ATOM     58  C   UNL A   1      43.231  29.073  33.547  1.00  0.00     0.049 A 
ATOM     59  C   UNL A   1      43.383  25.222  29.456  1.00  0.00     0.074 A 
ATOM     60  C   UNL A   1      44.237  29.005  34.495  1.00  0.00     0.029 A 
ATOM     61  N   UNL A   1      43.469  28.043  32.644  1.00  0.00    -0.354 N 
ATOM     62  N   UNL A   1      43.479  26.058  30.464  1.00  0.00    -0.248 NA
ATOM     63  C   UNL A   1      44.447  24.211  29.409  1.00  0.00     0.031 C 
ATOM     64  C   UNL A   1      45.113  27.974  34.136  1.00  0.00     0.029 A 
ATOM     65  C   UNL A   1      44.614  27.348  33.003  1.00  0.00     0.049 A 
ATOM     66  H   UNL A   1      42.907  27.839  31.862  1.00  0.00     0.167 HD
ATOM     67  C   UNL A   1      44.595  25.652  31.190  1.00  0.00     0.074 A 
ATOM     68  C   UNL A   1      45.124  24.484  30.514  1.00  0.00     0.031 C 
ATOM     69  C   UNL A   1      45.134  26.190  32.314  1.00  0.00     0.034 A 
BRANCH  56  70
ATOM     70  C   UNL A   1      42.037  31.122  34.478  1.00  0.00     0.023 A 
ATOM     71  C   UNL A   1      42.721  32.340  34.303  1.00  0.00     0.031 A 
ATOM     72  C   UNL A   1      41.289  30.956  35.657  1.00  0.00     0.131 A 
ATOM     73  C   UNL A   1      42.715  33.302  35.325  1.00  0.00     0.055 A 
ATOM     74  C   UNL A   1      41.215  31.956  36.631  1.00  0.00     0.041 A 
ATOM     75  F   UNL A   1      40.629  29.812  35.893  1.00  0.00    -0.206 F 
ATOM     76  C   UNL A   1      41.946  33.130  36.477  1.00  0.00     0.022 A 
BRANCH  73  77
ATOM     77  S   UNL A   1      43.854  34.708  35.195  1.00  0.00     0.124 S 
ATOM     78  O   UNL A   1      42.954  35.776  34.762  1.00  0.00    -0.237 OA
ATOM     79  O   UNL A   1      44.374  34.822  36.553  1.00  0.00    -0.237 OA
ATOM     80  O   UNL A   1      44.821  34.275  34.189  1.00  0.00    -0.744 OA
ENDBRANCH  73  77
ENDBRANCH  56  70
BRANCH  57  81
ATOM     81  C   UNL A   1      42.434  24.144  27.280  1.00  0.00     0.023 A 
ATOM     82  C   UNL A   1      41.652  22.979  27.301  1.00  0.00     0.031 A 
ATOM     83  C   UNL A   1      43.341  24.310  26.219  1.00  0.00     0.131 A 
ATOM     84  C   UNL A   1      41.825  22.000  26.309  1.00  0.00     0.055 A 
ATOM     85  C   UNL A   1      43.473  23.357  25.206  1.00  0.00     0.041 A 
ATOM     86  F   UNL A   1      44.107  25.410  26.145  1.00  0.00    -0.206 F 
ATOM     87  C   UNL A   1      42.721  22.188  25.256  1.00  0.00     0.022 A 
BRANCH  84  88
ATOM     88  S   UNL A   1      40.915  20.438  26.462  1.00  0.00     0.124 S 
ATOM     89  O   UNL A   1      41.646  19.576  25.541  1.00  0.00    -0.237 OA
ATOM     90  O   UNL A   1      41.067  20.137  27.882  1.00  0.00    -0.237 OA
ATOM     91  O   UNL A   1      39.560  20.793  26.044  1.00  0.00    -0.744 OA
ENDBRANCH  84  88
ENDBRANCH  57  81
BRANCH  69  92
ATOM     92  C   UNL A   1      46.328  25.480  32.905  1.00  0.00     0.023 A 
ATOM     93  C   UNL A   1      46.184  24.394  33.786  1.00  0.00     0.031 A 
ATOM     94  C   UNL A   1      47.630  25.923  32.609  1.00  0.00     0.131 A 
ATOM     95  C   UNL A   1      47.317  23.836  34.399  1.00  0.00     0.055 A 
ATOM     96  C   UNL A   1      48.756  25.320  33.170  1.00  0.00     0.041 A 
ATOM     97  F   UNL A   1      47.828  26.956  31.775  1.00  0.00    -0.206 F 
ATOM     98  C   UNL A   1      48.602  24.283  34.084  1.00  0.00     0.022 A 
BRANCH  95  99
ATOM     99  S   UNL A   1      47.078  22.602  35.706  1.00  0.00     0.124 S 
ATOM    100  O   UNL A   1      46.743  23.437  36.856  1.00  0.00    -0.237 OA
ATOM    101  O   UNL A   1      45.991  21.788  35.172  1.00  0.00    -0.237 OA
ATOM    102  O   UNL A   1      48.374  21.931  35.785  1.00  0.00    -0.744 OA
ENDBRANCH  95  99
ENDBRANCH  69  92
ENDBRANCH  43  44
ENDBRANCH  35  38
ENDBRANCH  33  34
ENDBRANCH  32  33
ENDBRANCH  31  32
ENDBRANCH  29  31
ENDBRANCH   1  27
TORSDOF 22
ENDMDL
MODEL 2
REMARK VINA RESULT:      -8.6      5.060     11.831
REMARK SMILES CCCCCCOC(=O)Nc1cccc(-c2ccc([C@@H](C)C(=O)NCCCNC(=O)c3ccc(-c4c5nc(c(-c6cc(S(=O)(=O)[O-])ccc6F)c6ccc([nH]6)c(-c6cc(S(=O)(=O)[O-])ccc6F)c6nc(c(-c7cc(S(=O)(=O)[O-])ccc7F)c7ccc4[nH]7)C=C6)C=C5)cc3)cc2F)c1
REMARK SMILES IDX 20 1 21 2 19 3 16 4 17 5 95 6 18 7 94 8 96 9 15 10 11 11
REMARK SMILES IDX 12 12 97 13 13 14 14 15 10 16 8 17 9 18 7 20 6 21 5 22 4 23
REMARK SMILES IDX 3 24 2 25 1 26 22 27 23 28 24 29 25 31 26 32 27 33 28 34
REMARK SMILES IDX 29 35 30 37 31 38 32 39 93 40 33 41 92 42 34 43 35 44 36 45
REMARK SMILES IDX 86 46 37 47 91 48 85 49 87 50 38 51 90 52 84 53 83 54 39 56
REMARK SMILES IDX 71 57 51 58 70 59 52 60 55 61 69 62 88 63 53 64 54 65 68 67
REMARK SMILES IDX 89 68 56 69 40 70 41 71 49 72 42 73 48 74 50 75 47 76 43 77
REMARK SMILES IDX 44 78 45 79 46 80 72 81 73 82 81 83 74 84 80 85 82 86 79 87
REMARK SMILES IDX 75 88 76 89 77 90 78 91 57 92 58 93 66 94 59 95 65 96 67 97
REMARK SMILES IDX 64 98 60 99 61 100 62 101 63 102
REMARK H PARENT 10 19 24 30 28 36 87 55 55 66
REMARK Flexibility Score: inf
ROOT
ATOM      1  C   UNL A   1      33.170  23.244  22.431  1.00  0.00     0.105 C 
ATOM      2  C   UNL A   1      34.688  23.407  22.476  1.00  0.00     0.023 C 
ENDROOT
BRANCH   1   3
ATOM      3  C   UNL A   1      32.360  24.498  22.715  1.00  0.00    -0.033 A 
ATOM      4  C   UNL A   1      30.833  26.901  23.036  1.00  0.00     0.018 A 
ATOM      5  C   UNL A   1      30.324  25.649  23.417  1.00  0.00     0.012 A 
ATOM      6  C   UNL A   1      32.147  26.915  22.540  1.00  0.00     0.131 A 
ATOM      7  C   UNL A   1      31.084  24.477  23.290  1.00  0.00     0.005 A 
ATOM      8  C   UNL A   1      32.887  25.746  22.359  1.00  0.00     0.044 A 
ATOM      9  F   UNL A   1      32.746  28.075  22.221  1.00  0.00    -0.206 F 
BRANCH   4  10
ATOM     10  C   UNL A   1      30.016  28.129  23.148  1.00  0.00    -0.013 A 
ATOM     11  C   UNL A   1      29.759  30.437  23.938  1.00  0.00     0.045 A 
ATOM     12  C   UNL A   1      28.435  30.449  23.506  1.00  0.00     0.026 A 
ATOM     13  C   UNL A   1      30.540  29.292  23.740  1.00  0.00     0.035 A 
ATOM     14  C   UNL A   1      27.911  29.336  22.852  1.00  0.00     0.003 A 
ATOM     15  C   UNL A   1      28.689  28.186  22.687  1.00  0.00     0.009 A 
BRANCH  11  16
ATOM     16  N   UNL A   1      30.234  31.534  24.669  1.00  0.00    -0.291 N 
ATOM     17  C   UNL A   1      30.990  31.513  25.811  1.00  0.00     0.411 C 
ATOM     18  O   UNL A   1      30.954  32.435  26.610  1.00  0.00    -0.224 OA
ATOM     19  H   UNL A   1      29.998  32.423  24.321  1.00  0.00     0.173 HD
BRANCH  17  20
ATOM     20  O   UNL A   1      31.833  30.449  25.868  1.00  0.00    -0.449 OA
BRANCH  20  21
ATOM     21  C   UNL A   1      32.886  30.470  26.844  1.00  0.00     0.235 C 
BRANCH  21  22
ATOM     22  C   UNL A   1      32.979  29.157  27.630  1.00  0.00     0.042 C 
BRANCH  22  23
ATOM     23  C   UNL A   1      31.773  28.217  27.507  1.00  0.00     0.003 C 
BRANCH  23  24
ATOM     24  C   UNL A   1      31.806  27.268  26.302  1.00  0.00    -0.000 C 
BRANCH  24  25
ATOM     25  C   UNL A   1      32.685  26.031  26.478  1.00  0.00    -0.003 C 
ATOM     26  C   UNL A   1      33.961  26.096  25.655  1.00  0.00     0.004 C 
ENDBRANCH  24  25
ENDBRANCH  23  24
ENDBRANCH  22  23
ENDBRANCH  21  22
ENDBRANCH  20  21
ENDBRANCH  17  20
ENDBRANCH  11  16
ENDBRANCH   4  10
ENDBRANCH   1   3
BRANCH   1  27
ATOM     27  C   UNL A   1      32.642  21.996  23.155  1.00  0.00     0.227 C 
ATOM     28  O   UNL A   1      31.867  21.229  22.568  1.00  0.00    -0.274 OA
ATOM     29  N   UNL A   1      32.981  21.656  24.428  1.00  0.00    -0.356 N 
ATOM     30  H   UNL A   1      32.600  20.801  24.731  1.00  0.00     0.163 HD
BRANCH  29  31
ATOM     31  C   UNL A   1      33.803  22.323  25.418  1.00  0.00     0.117 C 
BRANCH  31  32
ATOM     32  C   UNL A   1      34.947  21.443  25.913  1.00  0.00     0.042 C 
BRANCH  32  33
ATOM     33  C   UNL A   1      36.331  22.037  25.678  1.00  0.00     0.118 C 
BRANCH  33  34
ATOM     34  N   UNL A   1      37.374  21.024  25.735  1.00  0.00    -0.352 N 
ATOM     35  C   UNL A   1      38.723  21.135  25.956  1.00  0.00     0.251 C 
ATOM     36  H   UNL A   1      37.057  20.103  25.591  1.00  0.00     0.163 HD
ATOM     37  O   UNL A   1      39.432  20.159  25.714  1.00  0.00    -0.269 OA
BRANCH  35  38
ATOM     38  C   UNL A   1      39.334  22.388  26.467  1.00  0.00     0.039 A 
ATOM     39  C   UNL A   1      38.856  23.609  25.978  1.00  0.00     0.014 A 
ATOM     40  C   UNL A   1      40.418  22.380  27.348  1.00  0.00     0.014 A 
ATOM     41  C   UNL A   1      39.443  24.809  26.388  1.00  0.00     0.010 A 
ATOM     42  C   UNL A   1      40.944  23.580  27.827  1.00  0.00     0.010 A 
ATOM     43  C   UNL A   1      40.484  24.807  27.330  1.00  0.00    -0.014 A 
BRANCH  43  44
ATOM     44  C   UNL A   1      41.141  26.075  27.748  1.00  0.00     0.031 A 
ATOM     45  C   UNL A   1      42.566  26.354  27.342  1.00  0.00     0.074 A 
ATOM     46  C   UNL A   1      40.472  26.956  28.518  1.00  0.00     0.049 A 
ATOM     47  N   UNL A   1      43.331  27.374  27.640  1.00  0.00    -0.248 NA
ATOM     48  C   UNL A   1      43.229  25.330  26.521  1.00  0.00     0.031 C 
ATOM     49  C   UNL A   1      39.104  26.778  29.013  1.00  0.00     0.029 A 
ATOM     50  N   UNL A   1      40.849  28.176  29.020  1.00  0.00    -0.354 N 
ATOM     51  C   UNL A   1      44.567  27.106  27.058  1.00  0.00     0.074 A 
ATOM     52  C   UNL A   1      44.467  25.796  26.452  1.00  0.00     0.031 C 
ATOM     53  C   UNL A   1      38.749  27.862  29.720  1.00  0.00     0.029 A 
ATOM     54  C   UNL A   1      39.870  28.795  29.762  1.00  0.00     0.049 A 
ATOM     55  H   UNL A   1      41.737  28.571  28.863  1.00  0.00     0.167 HD
ATOM     56  C   UNL A   1      45.674  27.888  27.011  1.00  0.00     0.034 A 
ATOM     57  C   UNL A   1      39.877  29.980  30.404  1.00  0.00     0.034 A 
ATOM     58  C   UNL A   1      45.750  29.203  27.602  1.00  0.00     0.049 A 
ATOM     59  C   UNL A   1      41.112  30.841  30.324  1.00  0.00     0.074 A 
ATOM     60  C   UNL A   1      46.802  30.102  27.582  1.00  0.00     0.029 A 
ATOM     61  N   UNL A   1      44.727  29.809  28.324  1.00  0.00    -0.354 N 
ATOM     62  N   UNL A   1      42.258  30.593  29.732  1.00  0.00    -0.248 NA
ATOM     63  C   UNL A   1      41.044  32.154  30.978  1.00  0.00     0.031 C 
ATOM     64  C   UNL A   1      46.438  31.224  28.336  1.00  0.00     0.029 A 
ATOM     65  C   UNL A   1      45.131  31.059  28.766  1.00  0.00     0.049 A 
ATOM     66  H   UNL A   1      43.845  29.407  28.496  1.00  0.00     0.167 HD
ATOM     67  C   UNL A   1      43.035  31.734  29.916  1.00  0.00     0.074 A 
ATOM     68  C   UNL A   1      42.217  32.675  30.654  1.00  0.00     0.031 C 
ATOM     69  C   UNL A   1      44.306  31.984  29.509  1.00  0.00     0.034 A 
BRANCH  56  70
ATOM     70  C   UNL A   1      46.892  27.326  26.313  1.00  0.00     0.023 A 
ATOM     71  C   UNL A   1      47.943  26.723  27.031  1.00  0.00     0.031 A 
ATOM     72  C   UNL A   1      47.029  27.429  24.918  1.00  0.00     0.131 A 
ATOM     73  C   UNL A   1      49.114  26.331  26.364  1.00  0.00     0.055 A 
ATOM     74  C   UNL A   1      48.160  26.955  24.250  1.00  0.00     0.041 A 
ATOM     75  F   UNL A   1      46.072  28.011  24.178  1.00  0.00    -0.206 F 
ATOM     76  C   UNL A   1      49.220  26.418  24.975  1.00  0.00     0.022 A 
BRANCH  73  77
ATOM     77  S   UNL A   1      50.556  25.853  27.357  1.00  0.00     0.124 S 
ATOM     78  O   UNL A   1      50.414  24.399  27.399  1.00  0.00    -0.237 OA
ATOM     79  O   UNL A   1      51.669  26.364  26.566  1.00  0.00    -0.237 OA
ATOM     80  O   UNL A   1      50.332  26.529  28.633  1.00  0.00    -0.744 OA
ENDBRANCH  73  77
ENDBRANCH  56  70
BRANCH  57  81
ATOM     81  C   UNL A   1      38.680  30.432  31.170  1.00  0.00     0.023 A 
ATOM     82  C   UNL A   1      37.648  31.148  30.544  1.00  0.00     0.031 A 
ATOM     83  C   UNL A   1      38.571  30.188  32.550  1.00  0.00     0.131 A 
ATOM     84  C   UNL A   1      36.575  31.639  31.303  1.00  0.00     0.055 A 
ATOM     85  C   UNL A   1      37.475  30.635  33.293  1.00  0.00     0.041 A 
ATOM     86  F   UNL A   1      39.525  29.500  33.197  1.00  0.00    -0.206 F 
ATOM     87  C   UNL A   1      36.476  31.377  32.670  1.00  0.00     0.022 A 
BRANCH  84  88
ATOM     88  S   UNL A   1      35.347  32.698  30.489  1.00  0.00     0.124 S 
ATOM     89  O   UNL A   1      36.059  33.968  30.402  1.00  0.00    -0.237 OA
ATOM     90  O   UNL A   1      35.131  31.996  29.228  1.00  0.00    -0.237 OA
ATOM     91  O   UNL A   1      34.215  32.677  31.413  1.00  0.00    -0.744 OA
ENDBRANCH  84  88
ENDBRANCH  57  81
BRANCH  69  92
ATOM     92  C   UNL A   1      44.862  33.354  29.815  1.00  0.00     0.023 A 
ATOM     93  C   UNL A   1      44.716  34.430  28.920  1.00  0.00     0.031 A 
ATOM     94  C   UNL A   1      45.580  33.575  31.003  1.00  0.00     0.131 A 
ATOM     95  C   UNL A   1      45.344  35.655  29.193  1.00  0.00     0.055 A 
ATOM     96  C   UNL A   1      46.147  34.816  31.300  1.00  0.00     0.041 A 
ATOM     97  F   UNL A   1      45.752  32.585  31.894  1.00  0.00    -0.206 F 
ATOM     98  C   UNL A   1      46.046  35.859  30.384  1.00  0.00     0.022 A 
BRANCH  95  99
ATOM     99  S   UNL A   1      45.338  36.938  27.912  1.00  0.00     0.124 S 
ATOM    100  O   UNL A   1      44.095  37.648  28.198  1.00  0.00    -0.237 OA
ATOM    101  O   UNL A   1      46.569  37.669  28.197  1.00  0.00    -0.237 OA
ATOM    102  O   UNL A   1      45.343  36.177  26.664  1.00  0.00    -0.744 OA
ENDBRANCH  95  99
ENDBRANCH  69  92
ENDBRANCH  43  44
ENDBRANCH  35  38
ENDBRANCH  33  34
ENDBRANCH  32  33
ENDBRANCH  31  32
ENDBRANCH  29  31
ENDBRANCH   1  27
TORSDOF 22
ENDMDL
MODEL 3
REMARK VINA RESULT:      -8.3      2.858      4.478
REMARK SMILES CCCCCCOC(=O)Nc1cccc(-c2ccc([C@@H](C)C(=O)NCCCNC(=O)c3ccc(-c4c5nc(c(-c6cc(S(=O)(=O)[O-])ccc6F)c6ccc([nH]6)c(-c6cc(S(=O)(=O)[O-])ccc6F)c6nc(c(-c7cc(S(=O)(=O)[O-])ccc7F)c7ccc4[nH]7)C=C6)C=C5)cc3)cc2F)c1
REMARK SMILES IDX 20 1 21 2 19 3 16 4 17 5 95 6 18 7 94 8 96 9 15 10 11 11
REMARK SMILES IDX 12 12 97 13 13 14 14 15 10 16 8 17 9 18 7 20 6 21 5 22 4 23
REMARK SMILES IDX 3 24 2 25 1 26 22 27 23 28 24 29 25 31 26 32 27 33 28 34
REMARK SMILES IDX 29 35 30 37 31 38 32 39 93 40 33 41 92 42 34 43 35 44 36 45
REMARK SMILES IDX 86 46 37 47 91 48 85 49 87 50 38 51 90 52 84 53 83 54 39 56
REMARK SMILES IDX 71 57 51 58 70 59 52 60 55 61 69 62 88 63 53 64 54 65 68 67
REMARK SMILES IDX 89 68 56 69 40 70 41 71 49 72 42 73 48 74 50 75 47 76 43 77
REMARK SMILES IDX 44 78 45 79 46 80 72 81 73 82 81 83 74 84 80 85 82 86 79 87
REMARK SMILES IDX 75 88 76 89 77 90 78 91 57 92 58 93 66 94 59 95 65 96 67 97
REMARK SMILES IDX 64 98 60 99 61 100 62 101 63 102
REMARK H PARENT 10 19 24 30 28 36 87 55 55 66
REMARK Flexibility Score: inf
ROOT
ATOM      1  C   UNL A   1      36.978  33.452  32.438  1.00  0.00     0.105 C 
ATOM      2  C   UNL A   1      37.336  32.930  33.828  1.00  0.00     0.023 C 
ENDROOT
BRANCH   1   3
ATOM      3  C   UNL A   1      38.143  33.926  31.586  1.00  0.00    -0.033 A 
ATOM      4  C   UNL A   1      40.450  34.644  30.048  1.00  0.00     0.018 A 
ATOM      5  C   UNL A   1      39.214  34.376  29.439  1.00  0.00     0.012 A 
ATOM      6  C   UNL A   1      40.479  34.591  31.451  1.00  0.00     0.131 A 
ATOM      7  C   UNL A   1      38.077  34.057  30.195  1.00  0.00     0.005 A 
ATOM      8  C   UNL A   1      39.365  34.219  32.205  1.00  0.00     0.044 A 
ATOM      9  F   UNL A   1      41.598  34.905  32.125  1.00  0.00    -0.206 F 
BRANCH   4  10
ATOM     10  C   UNL A   1      41.652  34.954  29.243  1.00  0.00    -0.013 A 
ATOM     11  C   UNL A   1      42.791  36.372  27.598  1.00  0.00     0.045 A 
ATOM     12  C   UNL A   1      43.878  35.502  27.583  1.00  0.00     0.026 A 
ATOM     13  C   UNL A   1      41.702  36.105  28.435  1.00  0.00     0.035 A 
ATOM     14  C   UNL A   1      43.886  34.392  28.425  1.00  0.00     0.003 A 
ATOM     15  C   UNL A   1      42.781  34.116  29.236  1.00  0.00     0.009 A 
BRANCH  11  16
ATOM     16  N   UNL A   1      42.769  37.430  26.679  1.00  0.00    -0.291 N 
ATOM     17  C   UNL A   1      42.886  38.769  26.943  1.00  0.00     0.411 C 
ATOM     18  O   UNL A   1      42.398  39.605  26.199  1.00  0.00    -0.224 OA
ATOM     19  H   UNL A   1      42.657  37.182  25.734  1.00  0.00     0.173 HD
BRANCH  17  20
ATOM     20  O   UNL A   1      43.682  39.029  28.013  1.00  0.00    -0.449 OA
BRANCH  20  21
ATOM     21  C   UNL A   1      43.078  39.593  29.187  1.00  0.00     0.235 C 
BRANCH  21  22
ATOM     22  C   UNL A   1      43.866  39.270  30.461  1.00  0.00     0.042 C 
BRANCH  22  23
ATOM     23  C   UNL A   1      43.323  39.884  31.758  1.00  0.00     0.003 C 
BRANCH  23  24
ATOM     24  C   UNL A   1      42.548  41.197  31.584  1.00  0.00    -0.000 C 
BRANCH  24  25
ATOM     25  C   UNL A   1      42.345  42.002  32.867  1.00  0.00    -0.003 C 
ATOM     26  C   UNL A   1      43.465  42.997  33.119  1.00  0.00     0.004 C 
ENDBRANCH  24  25
ENDBRANCH  23  24
ENDBRANCH  22  23
ENDBRANCH  21  22
ENDBRANCH  20  21
ENDBRANCH  17  20
ENDBRANCH  11  16
ENDBRANCH   4  10
ENDBRANCH   1   3
BRANCH   1  27
ATOM     27  C   UNL A   1      35.769  34.401  32.407  1.00  0.00     0.227 C 
ATOM     28  O   UNL A   1      35.716  35.352  33.196  1.00  0.00    -0.274 OA
ATOM     29  N   UNL A   1      34.726  34.273  31.542  1.00  0.00    -0.356 N 
ATOM     30  H   UNL A   1      34.055  34.989  31.614  1.00  0.00     0.163 HD
BRANCH  29  31
ATOM     31  C   UNL A   1      34.425  33.276  30.535  1.00  0.00     0.117 C 
BRANCH  31  32
ATOM     32  C   UNL A   1      34.108  33.897  29.178  1.00  0.00     0.042 C 
BRANCH  32  33
ATOM     33  C   UNL A   1      34.748  33.171  28.001  1.00  0.00     0.118 C 
BRANCH  33  34
ATOM     34  N   UNL A   1      34.021  31.961  27.648  1.00  0.00    -0.352 N 
ATOM     35  C   UNL A   1      34.433  30.655  27.576  1.00  0.00     0.251 C 
ATOM     36  H   UNL A   1      33.073  32.105  27.424  1.00  0.00     0.163 HD
ATOM     37  O   UNL A   1      33.694  29.844  27.019  1.00  0.00    -0.269 OA
BRANCH  35  38
ATOM     38  C   UNL A   1      35.730  30.208  28.143  1.00  0.00     0.039 A 
ATOM     39  C   UNL A   1      36.862  30.238  27.319  1.00  0.00     0.014 A 
ATOM     40  C   UNL A   1      35.837  29.685  29.434  1.00  0.00     0.014 A 
ATOM     41  C   UNL A   1      38.090  29.773  27.795  1.00  0.00     0.010 A 
ATOM     42  C   UNL A   1      37.081  29.304  29.939  1.00  0.00     0.010 A 
ATOM     43  C   UNL A   1      38.216  29.315  29.116  1.00  0.00    -0.014 A 
BRANCH  43  44
ATOM     44  C   UNL A   1      39.509  28.783  29.623  1.00  0.00     0.031 A 
ATOM     45  C   UNL A   1      40.199  29.461  30.780  1.00  0.00     0.074 A 
ATOM     46  C   UNL A   1      40.079  27.717  29.027  1.00  0.00     0.049 A 
ATOM     47  N   UNL A   1      41.349  29.183  31.341  1.00  0.00    -0.248 NA
ATOM     48  C   UNL A   1      39.520  30.630  31.359  1.00  0.00     0.031 C 
ATOM     49  C   UNL A   1      39.530  27.004  27.870  1.00  0.00     0.029 A 
ATOM     50  N   UNL A   1      41.242  27.048  29.307  1.00  0.00    -0.354 N 
ATOM     51  C   UNL A   1      41.537  30.150  32.324  1.00  0.00     0.074 A 
ATOM     52  C   UNL A   1      40.417  31.061  32.232  1.00  0.00     0.031 C 
ATOM     53  C   UNL A   1      40.342  25.980  27.562  1.00  0.00     0.029 A 
ATOM     54  C   UNL A   1      41.484  25.984  28.469  1.00  0.00     0.049 A 
ATOM     55  H   UNL A   1      41.848  27.305  30.039  1.00  0.00     0.167 HD
ATOM     56  C   UNL A   1      42.537  30.256  33.236  1.00  0.00     0.034 A 
ATOM     57  C   UNL A   1      42.511  25.112  28.437  1.00  0.00     0.034 A 
ATOM     58  C   UNL A   1      43.637  29.325  33.327  1.00  0.00     0.049 A 
ATOM     59  C   UNL A   1      43.602  25.237  29.470  1.00  0.00     0.074 A 
ATOM     60  C   UNL A   1      44.682  29.308  34.234  1.00  0.00     0.029 A 
ATOM     61  N   UNL A   1      43.833  28.242  32.478  1.00  0.00    -0.354 N 
ATOM     62  N   UNL A   1      43.743  26.131  30.421  1.00  0.00    -0.248 NA
ATOM     63  C   UNL A   1      44.660  24.219  29.438  1.00  0.00     0.031 C 
ATOM     64  C   UNL A   1      45.538  28.252  33.900  1.00  0.00     0.029 A 
ATOM     65  C   UNL A   1      44.990  27.563  32.829  1.00  0.00     0.049 A 
ATOM     66  H   UNL A   1      43.237  27.994  31.734  1.00  0.00     0.167 HD
ATOM     67  C   UNL A   1      44.888  25.762  31.122  1.00  0.00     0.074 A 
ATOM     68  C   UNL A   1      45.384  24.553  30.495  1.00  0.00     0.031 C 
ATOM     69  C   UNL A   1      45.476  26.363  32.188  1.00  0.00     0.034 A 
BRANCH  56  70
ATOM     70  C   UNL A   1      42.490  31.432  34.185  1.00  0.00     0.023 A 
ATOM     71  C   UNL A   1      41.654  31.436  35.318  1.00  0.00     0.031 A 
ATOM     72  C   UNL A   1      43.255  32.584  33.934  1.00  0.00     0.131 A 
ATOM     73  C   UNL A   1      41.538  32.594  36.101  1.00  0.00     0.055 A 
ATOM     74  C   UNL A   1      43.202  33.702  34.771  1.00  0.00     0.041 A 
ATOM     75  F   UNL A   1      44.057  32.653  32.860  1.00  0.00    -0.206 F 
ATOM     76  C   UNL A   1      42.326  33.718  35.852  1.00  0.00     0.022 A 
BRANCH  73  77
ATOM     77  S   UNL A   1      40.228  32.662  37.355  1.00  0.00     0.124 S 
ATOM     78  O   UNL A   1      39.749  34.035  37.204  1.00  0.00    -0.237 OA
ATOM     79  O   UNL A   1      39.314  31.614  36.915  1.00  0.00    -0.237 OA
ATOM     80  O   UNL A   1      40.935  32.392  38.605  1.00  0.00    -0.744 OA
ENDBRANCH  73  77
ENDBRANCH  56  70
BRANCH  57  81
ATOM     81  C   UNL A   1      42.557  24.036  27.404  1.00  0.00     0.023 A 
ATOM     82  C   UNL A   1      41.894  22.815  27.600  1.00  0.00     0.031 A 
ATOM     83  C   UNL A   1      43.301  24.202  26.222  1.00  0.00     0.131 A 
ATOM     84  C   UNL A   1      42.026  21.787  26.654  1.00  0.00     0.055 A 
ATOM     85  C   UNL A   1      43.387  23.193  25.259  1.00  0.00     0.041 A 
ATOM     86  F   UNL A   1      43.947  25.353  25.981  1.00  0.00    -0.206 F 
ATOM     87  C   UNL A   1      42.758  21.972  25.480  1.00  0.00     0.022 A 
BRANCH  84  88
ATOM     88  S   UNL A   1      41.289  20.170  27.021  1.00  0.00     0.124 S 
ATOM     89  O   UNL A   1      40.810  20.363  28.384  1.00  0.00    -0.237 OA
ATOM     90  O   UNL A   1      40.264  20.063  25.988  1.00  0.00    -0.237 OA
ATOM     91  O   UNL A   1      42.413  19.246  26.878  1.00  0.00    -0.744 OA
ENDBRANCH  84  88
ENDBRANCH  57  81
BRANCH  69  92
ATOM     92  C   UNL A   1      46.692  25.682  32.769  1.00  0.00     0.023 A 
ATOM     93  C   UNL A   1      47.986  25.928  32.275  1.00  0.00     0.031 A 
ATOM     94  C   UNL A   1      46.548  24.745  33.807  1.00  0.00     0.131 A 
ATOM     95  C   UNL A   1      49.073  25.190  32.768  1.00  0.00     0.055 A 
ATOM     96  C   UNL A   1      47.643  24.063  34.339  1.00  0.00     0.041 A 
ATOM     97  F   UNL A   1      45.336  24.470  34.317  1.00  0.00    -0.206 F 
ATOM     98  C   UNL A   1      48.911  24.271  33.808  1.00  0.00     0.022 A 
BRANCH  95  99
ATOM     99  S   UNL A   1      50.681  25.359  31.947  1.00  0.00     0.124 S 
ATOM    100  O   UNL A   1      50.560  24.411  30.844  1.00  0.00    -0.237 OA
ATOM    101  O   UNL A   1      50.694  26.771  31.575  1.00  0.00    -0.237 OA
ATOM    102  O   UNL A   1      51.638  24.982  32.985  1.00  0.00    -0.744 OA
ENDBRANCH  95  99
ENDBRANCH  69  92
ENDBRANCH  43  44
ENDBRANCH  35  38
ENDBRANCH  33  34
ENDBRANCH  32  33
ENDBRANCH  31  32
ENDBRANCH  29  31
ENDBRANCH   1  27
TORSDOF 22
ENDMDL
