MODEL 1
REMARK VINA RESULT:     -12.4      0.000      0.000
REMARK SMILES CCOC(=O)c1c(NC(=O)[C@H]2[C@@H]3CC[C@@H](C3)[C@@H]2C(=O)NCCCNC(=O)c2ccc(-c3c4nc(c(-c5cc(S(=O)(=O)[O-])ccc5F)c5ccc([nH]5)c(-c5cc(S(=O)(=O)[O-])ccc5F)c5nc(c(-c6cc(S(=O)(=O)[O-])ccc6F)c6ccc3[nH]6)C=C5)C=C4)cc2)sc2c1CCCC2
REMARK SMILES IDX 21 1 20 2 18 3 19 4 17 6 11 7 12 8 13 9 16 10 15 11 14 12
REMARK SMILES IDX 9 13 8 14 10 16 7 17 6 18 92 19 90 20 91 21 93 22 96 23
REMARK SMILES IDX 94 24 95 25 4 26 5 27 3 28 2 29 1 30 22 31 23 32 24 33 25 34
REMARK SMILES IDX 26 36 27 37 28 38 89 39 29 40 88 41 30 42 31 43 32 44 82 45
REMARK SMILES IDX 33 46 87 47 81 48 83 49 34 50 86 51 80 52 79 53 35 55 67 56
REMARK SMILES IDX 47 57 66 58 48 59 51 60 65 61 84 62 49 63 50 64 64 66 85 67
REMARK SMILES IDX 52 68 36 69 37 70 45 71 38 72 44 73 46 74 43 75 39 76 40 77
REMARK SMILES IDX 41 78 42 79 68 80 69 81 77 82 70 83 76 84 78 85 75 86 71 87
REMARK SMILES IDX 72 88 73 89 74 90 53 91 54 92 62 93 55 94 61 95 63 96 60 97
REMARK SMILES IDX 56 98 57 99 58 100 59 101
REMARK H PARENT 20 5 8 15 24 35 83 54 51 65
REMARK Flexibility Score: inf
ROOT
ATOM      1  C   UNL A   1      36.968  22.822  23.619  1.00  0.00     0.117 C 
ENDROOT
BRANCH   1   2
ATOM      2  N   UNL A   1      36.233  23.693  24.520  1.00  0.00    -0.356 N 
ATOM      3  C   UNL A   1      34.947  24.137  24.489  1.00  0.00     0.224 C 
ATOM      4  O   UNL A   1      34.564  24.761  25.480  1.00  0.00    -0.275 OA
ATOM      5  H   UNL A   1      36.757  24.018  25.288  1.00  0.00     0.163 HD
BRANCH   3   6
ATOM      6  C   UNL A   1      34.026  23.816  23.311  1.00  0.00     0.094 C 
ATOM      7  C   UNL A   1      32.809  24.770  23.105  1.00  0.00     0.094 C 
ATOM      8  C   UNL A   1      31.623  23.773  22.959  1.00  0.00     0.002 C 
ATOM      9  C   UNL A   1      31.254  23.234  24.346  1.00  0.00     0.005 C 
ATOM     10  C   UNL A   1      32.283  22.550  22.315  1.00  0.00     0.009 C 
ATOM     11  C   UNL A   1      33.334  22.425  23.419  1.00  0.00     0.002 C 
ATOM     12  C   UNL A   1      32.416  22.288  24.654  1.00  0.00     0.005 C 
BRANCH   7  13
ATOM     13  C   UNL A   1      32.904  25.610  21.834  1.00  0.00     0.229 C 
ATOM     14  N   UNL A   1      32.555  26.926  21.807  1.00  0.00    -0.317 N 
ATOM     15  H   UNL A   1      32.484  27.298  20.899  1.00  0.00     0.170 HD
ATOM     16  O   UNL A   1      33.204  25.097  20.750  1.00  0.00    -0.274 OA
BRANCH  14  17
ATOM     17  C   UNL A   1      32.282  27.837  22.800  1.00  0.00     0.110 A 
ATOM     18  C   UNL A   1      31.205  28.589  23.236  1.00  0.00     0.098 A 
ATOM     19  C   UNL A   1      31.590  29.427  24.359  1.00  0.00    -0.017 A 
ATOM     20  S   UNL A   1      33.659  28.027  23.797  1.00  0.00    -0.122 S 
ATOM     21  C   UNL A   1      32.895  29.197  24.748  1.00  0.00     0.011 A 
ATOM     22  C   UNL A   1      30.680  30.323  25.160  1.00  0.00     0.038 C 
ATOM     23  C   UNL A   1      33.579  29.843  25.913  1.00  0.00     0.047 C 
ATOM     24  C   UNL A   1      31.449  31.189  26.170  1.00  0.00     0.005 C 
ATOM     25  C   UNL A   1      32.539  30.393  26.898  1.00  0.00     0.006 C 
BRANCH  18  26
ATOM     26  C   UNL A   1      29.826  28.424  22.803  1.00  0.00     0.341 C 
ATOM     27  O   UNL A   1      29.002  27.797  23.453  1.00  0.00    -0.246 OA
BRANCH  26  28
ATOM     28  O   UNL A   1      29.557  29.065  21.631  1.00  0.00    -0.462 OA
BRANCH  28  29
ATOM     29  C   UNL A   1      29.413  30.492  21.723  1.00  0.00     0.230 C 
ATOM     30  C   UNL A   1      28.109  30.876  22.400  1.00  0.00     0.049 C 
ENDBRANCH  28  29
ENDBRANCH  26  28
ENDBRANCH  18  26
ENDBRANCH  14  17
ENDBRANCH   7  13
ENDBRANCH   3   6
ENDBRANCH   1   2
BRANCH   1  31
ATOM     31  C   UNL A   1      37.203  21.439  24.213  1.00  0.00     0.042 C 
BRANCH  31  32
ATOM     32  C   UNL A   1      37.486  21.432  25.718  1.00  0.00     0.118 C 
BRANCH  32  33
ATOM     33  N   UNL A   1      38.602  20.562  26.043  1.00  0.00    -0.352 N 
ATOM     34  C   UNL A   1      39.873  20.906  26.431  1.00  0.00     0.251 C 
ATOM     35  H   UNL A   1      38.422  19.596  25.977  1.00  0.00     0.163 HD
ATOM     36  O   UNL A   1      40.755  20.048  26.385  1.00  0.00    -0.269 OA
BRANCH  34  37
ATOM     37  C   UNL A   1      40.204  22.273  26.913  1.00  0.00     0.039 A 
ATOM     38  C   UNL A   1      39.692  23.369  26.206  1.00  0.00     0.014 A 
ATOM     39  C   UNL A   1      41.115  22.491  27.952  1.00  0.00     0.014 A 
ATOM     40  C   UNL A   1      40.093  24.671  26.529  1.00  0.00     0.010 A 
ATOM     41  C   UNL A   1      41.505  23.795  28.284  1.00  0.00     0.010 A 
ATOM     42  C   UNL A   1      41.017  24.893  27.559  1.00  0.00    -0.014 A 
BRANCH  42  43
ATOM     43  C   UNL A   1      41.557  26.254  27.812  1.00  0.00     0.031 A 
ATOM     44  C   UNL A   1      42.928  26.619  27.304  1.00  0.00     0.074 A 
ATOM     45  C   UNL A   1      40.839  27.165  28.496  1.00  0.00     0.049 A 
ATOM     46  N   UNL A   1      43.626  27.707  27.508  1.00  0.00    -0.248 NA
ATOM     47  C   UNL A   1      43.601  25.617  26.465  1.00  0.00     0.031 C 
ATOM     48  C   UNL A   1      39.494  26.959  29.031  1.00  0.00     0.029 A 
ATOM     49  N   UNL A   1      41.151  28.452  28.858  1.00  0.00    -0.354 N 
ATOM     50  C   UNL A   1      44.832  27.512  26.844  1.00  0.00     0.074 A 
ATOM     51  C   UNL A   1      44.768  26.200  26.233  1.00  0.00     0.031 C 
ATOM     52  C   UNL A   1      39.097  28.081  29.656  1.00  0.00     0.029 A 
ATOM     53  C   UNL A   1      40.166  29.075  29.584  1.00  0.00     0.049 A 
ATOM     54  H   UNL A   1      42.001  28.888  28.620  1.00  0.00     0.167 HD
ATOM     55  C   UNL A   1      45.900  28.345  26.753  1.00  0.00     0.034 A 
ATOM     56  C   UNL A   1      40.133  30.300  30.143  1.00  0.00     0.034 A 
ATOM     57  C   UNL A   1      45.968  29.657  27.344  1.00  0.00     0.049 A 
ATOM     58  C   UNL A   1      41.318  31.217  30.009  1.00  0.00     0.074 A 
ATOM     59  C   UNL A   1      47.015  30.563  27.327  1.00  0.00     0.029 A 
ATOM     60  N   UNL A   1      44.936  30.259  28.049  1.00  0.00    -0.354 N 
ATOM     61  N   UNL A   1      42.477  30.989  29.440  1.00  0.00    -0.248 NA
ATOM     62  C   UNL A   1      41.186  32.558  30.599  1.00  0.00     0.031 C 
ATOM     63  C   UNL A   1      46.624  31.705  28.040  1.00  0.00     0.029 A 
ATOM     64  C   UNL A   1      45.321  31.521  28.471  1.00  0.00     0.049 A 
ATOM     65  H   UNL A   1      44.059  29.849  28.224  1.00  0.00     0.167 HD
ATOM     66  C   UNL A   1      43.213  32.157  29.605  1.00  0.00     0.074 A 
ATOM     67  C   UNL A   1      42.368  33.091  30.321  1.00  0.00     0.031 C 
ATOM     68  C   UNL A   1      44.476  32.433  29.198  1.00  0.00     0.034 A 
BRANCH  55  69
ATOM     69  C   UNL A   1      47.106  27.820  26.027  1.00  0.00     0.023 A 
ATOM     70  C   UNL A   1      47.288  28.040  24.651  1.00  0.00     0.031 A 
ATOM     71  C   UNL A   1      48.063  27.056  26.715  1.00  0.00     0.131 A 
ATOM     72  C   UNL A   1      48.383  27.458  23.996  1.00  0.00     0.055 A 
ATOM     73  C   UNL A   1      49.176  26.520  26.067  1.00  0.00     0.041 A 
ATOM     74  F   UNL A   1      47.918  26.801  28.026  1.00  0.00    -0.206 F 
ATOM     75  C   UNL A   1      49.336  26.713  24.697  1.00  0.00     0.022 A 
BRANCH  72  76
ATOM     76  S   UNL A   1      48.501  27.610  22.193  1.00  0.00     0.124 S 
ATOM     77  O   UNL A   1      49.629  28.527  22.047  1.00  0.00    -0.237 OA
ATOM     78  O   UNL A   1      48.736  26.233  21.773  1.00  0.00    -0.237 OA
ATOM     79  O   UNL A   1      47.203  28.164  21.810  1.00  0.00    -0.744 OA
ENDBRANCH  72  76
ENDBRANCH  55  69
BRANCH  56  80
ATOM     80  C   UNL A   1      38.952  30.725  30.932  1.00  0.00     0.023 A 
ATOM     81  C   UNL A   1      37.827  31.284  30.309  1.00  0.00     0.031 A 
ATOM     82  C   UNL A   1      38.953  30.599  32.331  1.00  0.00     0.131 A 
ATOM     83  C   UNL A   1      36.748  31.719  31.092  1.00  0.00     0.055 A 
ATOM     84  C   UNL A   1      37.874  31.022  33.104  1.00  0.00     0.041 A 
ATOM     85  F   UNL A   1      40.009  30.060  32.960  1.00  0.00    -0.206 F 
ATOM     86  C   UNL A   1      36.764  31.592  32.485  1.00  0.00     0.022 A 
BRANCH  83  87
ATOM     87  S   UNL A   1      35.327  32.487  30.267  1.00  0.00     0.124 S 
ATOM     88  O   UNL A   1      35.088  31.568  29.159  1.00  0.00    -0.237 OA
ATOM     89  O   UNL A   1      34.327  32.486  31.329  1.00  0.00    -0.237 OA
ATOM     90  O   UNL A   1      35.827  33.806  29.886  1.00  0.00    -0.744 OA
ENDBRANCH  83  87
ENDBRANCH  56  80
BRANCH  68  91
ATOM     91  C   UNL A   1      45.000  33.806  29.503  1.00  0.00     0.023 A 
ATOM     92  C   UNL A   1      44.757  34.886  28.641  1.00  0.00     0.031 A 
ATOM     93  C   UNL A   1      45.760  34.027  30.664  1.00  0.00     0.131 A 
ATOM     94  C   UNL A   1      45.295  36.147  28.940  1.00  0.00     0.055 A 
ATOM     95  C   UNL A   1      46.277  35.288  30.966  1.00  0.00     0.041 A 
ATOM     96  F   UNL A   1      46.020  33.020  31.510  1.00  0.00    -0.206 F 
ATOM     97  C   UNL A   1      46.050  36.355  30.100  1.00  0.00     0.022 A 
BRANCH  94  98
ATOM     98  S   UNL A   1      45.028  37.512  27.775  1.00  0.00     0.124 S 
ATOM     99  O   UNL A   1      43.729  37.174  27.200  1.00  0.00    -0.237 OA
ATOM    100  O   UNL A   1      45.054  38.680  28.649  1.00  0.00    -0.237 OA
ATOM    101  O   UNL A   1      46.158  37.405  26.854  1.00  0.00    -0.744 OA
ENDBRANCH  94  98
ENDBRANCH  68  91
ENDBRANCH  42  43
ENDBRANCH  34  37
ENDBRANCH  32  33
ENDBRANCH  31  32
ENDBRANCH   1  31
TORSDOF 18
ENDMDL
MODEL 2
REMARK VINA RESULT:     -12.0      1.429      7.347
REMARK SMILES CCOC(=O)c1c(NC(=O)[C@H]2[C@@H]3CC[C@@H](C3)[C@@H]2C(=O)NCCCNC(=O)c2ccc(-c3c4nc(c(-c5cc(S(=O)(=O)[O-])ccc5F)c5ccc([nH]5)c(-c5cc(S(=O)(=O)[O-])ccc5F)c5nc(c(-c6cc(S(=O)(=O)[O-])ccc6F)c6ccc3[nH]6)C=C5)C=C4)cc2)sc2c1CCCC2
REMARK SMILES IDX 21 1 20 2 18 3 19 4 17 6 11 7 12 8 13 9 16 10 15 11 14 12
REMARK SMILES IDX 9 13 8 14 10 16 7 17 6 18 92 19 90 20 91 21 93 22 96 23
REMARK SMILES IDX 94 24 95 25 4 26 5 27 3 28 2 29 1 30 22 31 23 32 24 33 25 34
REMARK SMILES IDX 26 36 27 37 28 38 89 39 29 40 88 41 30 42 31 43 32 44 82 45
REMARK SMILES IDX 33 46 87 47 81 48 83 49 34 50 86 51 80 52 79 53 35 55 67 56
REMARK SMILES IDX 47 57 66 58 48 59 51 60 65 61 84 62 49 63 50 64 64 66 85 67
REMARK SMILES IDX 52 68 36 69 37 70 45 71 38 72 44 73 46 74 43 75 39 76 40 77
REMARK SMILES IDX 41 78 42 79 68 80 69 81 77 82 70 83 76 84 78 85 75 86 71 87
REMARK SMILES IDX 72 88 73 89 74 90 53 91 54 92 62 93 55 94 61 95 63 96 60 97
REMARK SMILES IDX 56 98 57 99 58 100 59 101
REMARK H PARENT 20 5 8 15 24 35 83 54 51 65
REMARK Flexibility Score: inf
ROOT
ATOM      1  C   UNL A   1      36.995  22.984  23.651  1.00  0.00     0.117 C 
ENDROOT
BRANCH   1   2
ATOM      2  N   UNL A   1      36.232  23.780  24.598  1.00  0.00    -0.356 N 
ATOM      3  C   UNL A   1      34.930  24.177  24.592  1.00  0.00     0.224 C 
ATOM      4  O   UNL A   1      34.528  24.735  25.614  1.00  0.00    -0.275 OA
ATOM      5  H   UNL A   1      36.746  24.085  25.380  1.00  0.00     0.163 HD
BRANCH   3   6
ATOM      6  C   UNL A   1      34.017  23.882  23.401  1.00  0.00     0.094 C 
ATOM      7  C   UNL A   1      32.829  24.868  23.179  1.00  0.00     0.094 C 
ATOM      8  C   UNL A   1      31.619  23.904  23.016  1.00  0.00     0.002 C 
ATOM      9  C   UNL A   1      31.216  23.374  24.397  1.00  0.00     0.005 C 
ATOM     10  C   UNL A   1      32.254  22.664  22.380  1.00  0.00     0.009 C 
ATOM     11  C   UNL A   1      33.287  22.510  23.498  1.00  0.00     0.002 C 
ATOM     12  C   UNL A   1      32.348  22.396  24.720  1.00  0.00     0.005 C 
BRANCH   7  13
ATOM     13  C   UNL A   1      32.964  25.706  21.911  1.00  0.00     0.229 C 
ATOM     14  N   UNL A   1      32.638  27.028  21.877  1.00  0.00    -0.317 N 
ATOM     15  H   UNL A   1      32.592  27.401  20.967  1.00  0.00     0.170 HD
ATOM     16  O   UNL A   1      33.279  25.189  20.833  1.00  0.00    -0.274 OA
BRANCH  14  17
ATOM     17  C   UNL A   1      32.359  27.944  22.864  1.00  0.00     0.110 A 
ATOM     18  C   UNL A   1      31.406  28.913  23.127  1.00  0.00     0.098 A 
ATOM     19  C   UNL A   1      31.706  29.598  24.372  1.00  0.00    -0.017 A 
ATOM     20  S   UNL A   1      33.485  27.770  24.140  1.00  0.00    -0.122 S 
ATOM     21  C   UNL A   1      32.806  29.054  25.005  1.00  0.00     0.011 A 
ATOM     22  C   UNL A   1      30.863  30.655  25.038  1.00  0.00     0.038 C 
ATOM     23  C   UNL A   1      33.339  29.481  26.338  1.00  0.00     0.047 C 
ATOM     24  C   UNL A   1      31.559  31.281  26.256  1.00  0.00     0.005 C 
ATOM     25  C   UNL A   1      32.253  30.227  27.126  1.00  0.00     0.006 C 
BRANCH  18  26
ATOM     26  C   UNL A   1      30.158  29.091  22.401  1.00  0.00     0.341 C 
ATOM     27  O   UNL A   1      29.848  30.150  21.874  1.00  0.00    -0.246 OA
BRANCH  26  28
ATOM     28  O   UNL A   1      29.406  27.956  22.349  1.00  0.00    -0.462 OA
BRANCH  28  29
ATOM     29  C   UNL A   1      28.322  27.886  23.290  1.00  0.00     0.230 C 
ATOM     30  C   UNL A   1      27.344  29.032  23.095  1.00  0.00     0.049 C 
ENDBRANCH  28  29
ENDBRANCH  26  28
ENDBRANCH  18  26
ENDBRANCH  14  17
ENDBRANCH   7  13
ENDBRANCH   3   6
ENDBRANCH   1   2
BRANCH   1  31
ATOM     31  C   UNL A   1      37.028  21.508  24.030  1.00  0.00     0.042 C 
BRANCH  31  32
ATOM     32  C   UNL A   1      37.172  21.238  25.530  1.00  0.00     0.118 C 
BRANCH  32  33
ATOM     33  N   UNL A   1      38.208  20.254  25.793  1.00  0.00    -0.352 N 
ATOM     34  C   UNL A   1      39.512  20.462  26.167  1.00  0.00     0.251 C 
ATOM     35  H   UNL A   1      37.938  19.314  25.690  1.00  0.00     0.163 HD
ATOM     36  O   UNL A   1      40.309  19.530  26.066  1.00  0.00    -0.269 OA
BRANCH  34  37
ATOM     37  C   UNL A   1      39.978  21.771  26.699  1.00  0.00     0.039 A 
ATOM     38  C   UNL A   1      39.499  22.942  26.097  1.00  0.00     0.014 A 
ATOM     39  C   UNL A   1      40.975  21.859  27.678  1.00  0.00     0.014 A 
ATOM     40  C   UNL A   1      40.018  24.190  26.462  1.00  0.00     0.010 A 
ATOM     41  C   UNL A   1      41.484  23.109  28.053  1.00  0.00     0.010 A 
ATOM     42  C   UNL A   1      41.028  24.282  27.430  1.00  0.00    -0.014 A 
BRANCH  42  43
ATOM     43  C   UNL A   1      41.684  25.584  27.719  1.00  0.00     0.031 A 
ATOM     44  C   UNL A   1      40.950  26.629  28.516  1.00  0.00     0.074 A 
ATOM     45  C   UNL A   1      42.927  25.844  27.270  1.00  0.00     0.049 A 
ATOM     46  N   UNL A   1      41.294  27.862  28.786  1.00  0.00    -0.248 NA
ATOM     47  C   UNL A   1      39.648  26.230  29.074  1.00  0.00     0.031 C 
ATOM     48  C   UNL A   1      43.763  24.922  26.503  1.00  0.00     0.029 A 
ATOM     49  N   UNL A   1      43.699  26.971  27.398  1.00  0.00    -0.354 N 
ATOM     50  C   UNL A   1      40.243  28.397  29.523  1.00  0.00     0.074 A 
ATOM     51  C   UNL A   1      39.249  27.352  29.655  1.00  0.00     0.031 C 
ATOM     52  C   UNL A   1      44.933  25.523  26.225  1.00  0.00     0.029 A 
ATOM     53  C   UNL A   1      44.920  26.877  26.777  1.00  0.00     0.049 A 
ATOM     54  H   UNL A   1      43.406  27.773  27.890  1.00  0.00     0.167 HD
ATOM     55  C   UNL A   1      40.112  29.645  30.039  1.00  0.00     0.034 A 
ATOM     56  C   UNL A   1      45.909  27.782  26.650  1.00  0.00     0.034 A 
ATOM     57  C   UNL A   1      41.101  30.687  29.925  1.00  0.00     0.049 A 
ATOM     58  C   UNL A   1      45.753  29.153  27.251  1.00  0.00     0.074 A 
ATOM     59  C   UNL A   1      41.046  31.989  30.392  1.00  0.00     0.029 A 
ATOM     60  N   UNL A   1      42.334  30.540  29.309  1.00  0.00    -0.354 N 
ATOM     61  N   UNL A   1      44.724  29.664  27.881  1.00  0.00    -0.248 NA
ATOM     62  C   UNL A   1      46.898  30.067  27.118  1.00  0.00     0.031 C 
ATOM     63  C   UNL A   1      42.240  32.635  30.041  1.00  0.00     0.029 A 
ATOM     64  C   UNL A   1      43.049  31.724  29.385  1.00  0.00     0.049 A 
ATOM     65  H   UNL A   1      42.655  29.714  28.880  1.00  0.00     0.167 HD
ATOM     66  C   UNL A   1      45.096  30.961  28.218  1.00  0.00     0.074 A 
ATOM     67  C   UNL A   1      46.445  31.154  27.727  1.00  0.00     0.031 C 
ATOM     68  C   UNL A   1      44.383  31.907  28.877  1.00  0.00     0.034 A 
BRANCH  55  69
ATOM     69  C   UNL A   1      38.812  29.958  30.725  1.00  0.00     0.023 A 
ATOM     70  C   UNL A   1      37.816  30.725  30.097  1.00  0.00     0.031 A 
ATOM     71  C   UNL A   1      38.588  29.517  32.040  1.00  0.00     0.131 A 
ATOM     72  C   UNL A   1      36.656  31.068  30.807  1.00  0.00     0.055 A 
ATOM     73  C   UNL A   1      37.411  29.820  32.723  1.00  0.00     0.041 A 
ATOM     74  F   UNL A   1      39.521  28.800  32.687  1.00  0.00    -0.206 F 
ATOM     75  C   UNL A   1      36.439  30.608  32.109  1.00  0.00     0.022 A 
BRANCH  72  76
ATOM     76  S   UNL A   1      35.468  32.202  30.038  1.00  0.00     0.124 S 
ATOM     77  O   UNL A   1      35.006  31.416  28.896  1.00  0.00    -0.237 OA
ATOM     78  O   UNL A   1      34.496  32.413  31.105  1.00  0.00    -0.237 OA
ATOM     79  O   UNL A   1      36.280  33.368  29.696  1.00  0.00    -0.744 OA
ENDBRANCH  72  76
ENDBRANCH  55  69
BRANCH  56  80
ATOM     80  C   UNL A   1      47.128  27.446  25.875  1.00  0.00     0.023 A 
ATOM     81  C   UNL A   1      47.218  27.731  24.505  1.00  0.00     0.031 A 
ATOM     82  C   UNL A   1      48.210  26.806  26.501  1.00  0.00     0.131 A 
ATOM     83  C   UNL A   1      48.366  27.354  23.794  1.00  0.00     0.055 A 
ATOM     84  C   UNL A   1      49.355  26.445  25.793  1.00  0.00     0.041 A 
ATOM     85  F   UNL A   1      48.164  26.527  27.814  1.00  0.00    -0.206 F 
ATOM     86  C   UNL A   1      49.435  26.713  24.429  1.00  0.00     0.022 A 
BRANCH  83  87
ATOM     87  S   UNL A   1      48.435  27.686  22.013  1.00  0.00     0.124 S 
ATOM     88  O   UNL A   1      49.570  28.597  21.918  1.00  0.00    -0.237 OA
ATOM     89  O   UNL A   1      48.637  26.348  21.466  1.00  0.00    -0.237 OA
ATOM     90  O   UNL A   1      47.132  28.282  21.728  1.00  0.00    -0.744 OA
ENDBRANCH  83  87
ENDBRANCH  56  80
BRANCH  68  91
ATOM     91  C   UNL A   1      45.067  33.221  29.118  1.00  0.00     0.023 A 
ATOM     92  C   UNL A   1      45.830  33.444  30.275  1.00  0.00     0.031 A 
ATOM     93  C   UNL A   1      44.941  34.263  28.183  1.00  0.00     0.131 A 
ATOM     94  C   UNL A   1      46.423  34.699  30.484  1.00  0.00     0.055 A 
ATOM     95  C   UNL A   1      45.549  35.502  28.387  1.00  0.00     0.041 A 
ATOM     96  F   UNL A   1      44.216  34.092  27.067  1.00  0.00    -0.206 F 
ATOM     97  C   UNL A   1      46.291  35.727  29.545  1.00  0.00     0.022 A 
BRANCH  94  98
ATOM     98  S   UNL A   1      47.344  34.985  32.020  1.00  0.00     0.124 S 
ATOM     99  O   UNL A   1      46.275  35.051  33.012  1.00  0.00    -0.237 OA
ATOM    100  O   UNL A   1      48.209  33.812  32.091  1.00  0.00    -0.237 OA
ATOM    101  O   UNL A   1      48.038  36.249  31.774  1.00  0.00    -0.744 OA
ENDBRANCH  94  98
ENDBRANCH  68  91
ENDBRANCH  42  43
ENDBRANCH  34  37
ENDBRANCH  32  33
ENDBRANCH  31  32
ENDBRANCH   1  31
TORSDOF 18
ENDMDL
MODEL 3
REMARK VINA RESULT:     -11.9      4.990      7.508
REMARK SMILES CCOC(=O)c1c(NC(=O)[C@H]2[C@@H]3CC[C@@H](C3)[C@@H]2C(=O)NCCCNC(=O)c2ccc(-c3c4nc(c(-c5cc(S(=O)(=O)[O-])ccc5F)c5ccc([nH]5)c(-c5cc(S(=O)(=O)[O-])ccc5F)c5nc(c(-c6cc(S(=O)(=O)[O-])ccc6F)c6ccc3[nH]6)C=C5)C=C4)cc2)sc2c1CCCC2
REMARK SMILES IDX 21 1 20 2 18 3 19 4 17 6 11 7 12 8 13 9 16 10 15 11 14 12
REMARK SMILES IDX 9 13 8 14 10 16 7 17 6 18 92 19 90 20 91 21 93 22 96 23
REMARK SMILES IDX 94 24 95 25 4 26 5 27 3 28 2 29 1 30 22 31 23 32 24 33 25 34
REMARK SMILES IDX 26 36 27 37 28 38 89 39 29 40 88 41 30 42 31 43 32 44 82 45
REMARK SMILES IDX 33 46 87 47 81 48 83 49 34 50 86 51 80 52 79 53 35 55 67 56
REMARK SMILES IDX 47 57 66 58 48 59 51 60 65 61 84 62 49 63 50 64 64 66 85 67
REMARK SMILES IDX 52 68 36 69 37 70 45 71 38 72 44 73 46 74 43 75 39 76 40 77
REMARK SMILES IDX 41 78 42 79 68 80 69 81 77 82 70 83 76 84 78 85 75 86 71 87
REMARK SMILES IDX 72 88 73 89 74 90 53 91 54 92 62 93 55 94 61 95 63 96 60 97
REMARK SMILES IDX 56 98 57 99 58 100 59 101
REMARK H PARENT 20 5 8 15 24 35 83 54 51 65
REMARK Flexibility Score: inf
ROOT
ATOM      1  C   UNL A   1      34.068  27.681  25.209  1.00  0.00     0.117 C 
ENDROOT
BRANCH   1   2
ATOM      2  N   UNL A   1      33.325  26.604  25.841  1.00  0.00    -0.356 N 
ATOM      3  C   UNL A   1      33.574  25.267  25.920  1.00  0.00     0.224 C 
ATOM      4  O   UNL A   1      32.824  24.618  26.651  1.00  0.00    -0.275 OA
ATOM      5  H   UNL A   1      32.497  26.890  26.291  1.00  0.00     0.163 HD
BRANCH   3   6
ATOM      6  C   UNL A   1      34.758  24.638  25.186  1.00  0.00     0.094 C 
ATOM      7  C   UNL A   1      34.467  23.318  24.407  1.00  0.00     0.094 C 
ATOM      8  C   UNL A   1      35.608  22.380  24.896  1.00  0.00     0.002 C 
ATOM      9  C   UNL A   1      35.273  21.885  26.308  1.00  0.00     0.005 C 
ATOM     10  C   UNL A   1      36.756  23.356  25.171  1.00  0.00     0.009 C 
ATOM     11  C   UNL A   1      35.921  24.207  26.129  1.00  0.00     0.002 C 
ATOM     12  C   UNL A   1      35.511  23.133  27.162  1.00  0.00     0.005 C 
BRANCH   7  13
ATOM     13  C   UNL A   1      34.572  23.472  22.892  1.00  0.00     0.229 C 
ATOM     14  N   UNL A   1      33.605  24.086  22.156  1.00  0.00    -0.317 N 
ATOM     15  H   UNL A   1      33.702  23.955  21.186  1.00  0.00     0.170 HD
ATOM     16  O   UNL A   1      35.497  22.950  22.259  1.00  0.00    -0.274 OA
BRANCH  14  17
ATOM     17  C   UNL A   1      32.518  24.854  22.503  1.00  0.00     0.110 A 
ATOM     18  C   UNL A   1      31.325  24.697  23.189  1.00  0.00     0.098 A 
ATOM     19  C   UNL A   1      30.559  25.931  23.168  1.00  0.00    -0.017 A 
ATOM     20  S   UNL A   1      32.767  26.465  21.983  1.00  0.00    -0.122 S 
ATOM     21  C   UNL A   1      31.249  26.954  22.547  1.00  0.00     0.011 A 
ATOM     22  C   UNL A   1      29.250  26.184  23.871  1.00  0.00     0.038 C 
ATOM     23  C   UNL A   1      30.773  28.368  22.418  1.00  0.00     0.047 C 
ATOM     24  C   UNL A   1      28.637  27.543  23.501  1.00  0.00     0.005 C 
ATOM     25  C   UNL A   1      29.690  28.658  23.466  1.00  0.00     0.006 C 
BRANCH  18  26
ATOM     26  C   UNL A   1      30.965  23.550  24.008  1.00  0.00     0.341 C 
ATOM     27  O   UNL A   1      30.282  23.650  25.017  1.00  0.00    -0.246 OA
BRANCH  26  28
ATOM     28  O   UNL A   1      31.438  22.372  23.511  1.00  0.00    -0.462 OA
BRANCH  28  29
ATOM     29  C   UNL A   1      31.853  21.408  24.493  1.00  0.00     0.230 C 
ATOM     30  C   UNL A   1      32.529  20.213  23.845  1.00  0.00     0.049 C 
ENDBRANCH  28  29
ENDBRANCH  26  28
ENDBRANCH  18  26
ENDBRANCH  14  17
ENDBRANCH   7  13
ENDBRANCH   3   6
ENDBRANCH   1   2
BRANCH   1  31
ATOM     31  C   UNL A   1      33.233  28.946  25.054  1.00  0.00     0.042 C 
BRANCH  31  32
ATOM     32  C   UNL A   1      32.475  29.368  26.315  1.00  0.00     0.118 C 
BRANCH  32  33
ATOM     33  N   UNL A   1      32.359  30.813  26.405  1.00  0.00    -0.352 N 
ATOM     34  C   UNL A   1      33.130  31.693  27.122  1.00  0.00     0.251 C 
ATOM     35  H   UNL A   1      31.629  31.215  25.879  1.00  0.00     0.163 HD
ATOM     36  O   UNL A   1      32.709  32.835  27.301  1.00  0.00    -0.269 OA
BRANCH  34  37
ATOM     37  C   UNL A   1      34.457  31.306  27.672  1.00  0.00     0.039 A 
ATOM     38  C   UNL A   1      34.625  29.996  28.142  1.00  0.00     0.014 A 
ATOM     39  C   UNL A   1      35.481  32.240  27.861  1.00  0.00     0.014 A 
ATOM     40  C   UNL A   1      35.803  29.626  28.803  1.00  0.00     0.010 A 
ATOM     41  C   UNL A   1      36.665  31.865  28.509  1.00  0.00     0.010 A 
ATOM     42  C   UNL A   1      36.826  30.563  29.007  1.00  0.00    -0.014 A 
BRANCH  42  43
ATOM     43  C   UNL A   1      38.014  30.220  29.831  1.00  0.00     0.031 A 
ATOM     44  C   UNL A   1      39.059  29.286  29.280  1.00  0.00     0.074 A 
ATOM     45  C   UNL A   1      38.166  30.729  31.068  1.00  0.00     0.049 A 
ATOM     46  N   UNL A   1      40.109  28.775  29.869  1.00  0.00    -0.248 NA
ATOM     47  C   UNL A   1      38.887  28.866  27.881  1.00  0.00     0.031 C 
ATOM     48  C   UNL A   1      37.245  31.658  31.723  1.00  0.00     0.029 A 
ATOM     49  N   UNL A   1      39.157  30.529  31.995  1.00  0.00    -0.354 N 
ATOM     50  C   UNL A   1      40.712  27.952  28.924  1.00  0.00     0.074 A 
ATOM     51  C   UNL A   1      39.906  28.034  27.722  1.00  0.00     0.031 C 
ATOM     52  C   UNL A   1      37.716  31.946  32.950  1.00  0.00     0.029 A 
ATOM     53  C   UNL A   1      38.957  31.206  33.173  1.00  0.00     0.049 A 
ATOM     54  H   UNL A   1      39.940  29.954  31.832  1.00  0.00     0.167 HD
ATOM     55  C   UNL A   1      41.830  27.194  29.042  1.00  0.00     0.034 A 
ATOM     56  C   UNL A   1      39.679  31.217  34.310  1.00  0.00     0.034 A 
ATOM     57  C   UNL A   1      42.647  27.117  30.227  1.00  0.00     0.049 A 
ATOM     58  C   UNL A   1      40.930  30.387  34.412  1.00  0.00     0.074 A 
ATOM     59  C   UNL A   1      43.783  26.357  30.450  1.00  0.00     0.029 A 
ATOM     60  N   UNL A   1      42.421  27.840  31.388  1.00  0.00    -0.354 N 
ATOM     61  N   UNL A   1      41.444  29.561  33.534  1.00  0.00    -0.248 NA
ATOM     62  C   UNL A   1      41.693  30.493  35.664  1.00  0.00     0.031 C 
ATOM     63  C   UNL A   1      44.232  26.606  31.754  1.00  0.00     0.029 A 
ATOM     64  C   UNL A   1      43.394  27.545  32.330  1.00  0.00     0.049 A 
ATOM     65  H   UNL A   1      41.676  28.470  31.524  1.00  0.00     0.167 HD
ATOM     66  C   UNL A   1      42.591  29.046  34.129  1.00  0.00     0.074 A 
ATOM     67  C   UNL A   1      42.698  29.658  35.437  1.00  0.00     0.031 C 
ATOM     68  C   UNL A   1      43.478  28.149  33.634  1.00  0.00     0.034 A 
BRANCH  55  69
ATOM     69  C   UNL A   1      42.195  26.339  27.861  1.00  0.00     0.023 A 
ATOM     70  C   UNL A   1      41.724  25.020  27.736  1.00  0.00     0.031 A 
ATOM     71  C   UNL A   1      43.055  26.839  26.870  1.00  0.00     0.131 A 
ATOM     72  C   UNL A   1      42.159  24.228  26.664  1.00  0.00     0.055 A 
ATOM     73  C   UNL A   1      43.446  26.062  25.779  1.00  0.00     0.041 A 
ATOM     74  F   UNL A   1      43.547  28.085  26.959  1.00  0.00    -0.206 F 
ATOM     75  C   UNL A   1      43.004  24.745  25.677  1.00  0.00     0.022 A 
BRANCH  72  76
ATOM     76  S   UNL A   1      41.679  22.480  26.620  1.00  0.00     0.124 S 
ATOM     77  O   UNL A   1      42.292  21.975  27.847  1.00  0.00    -0.237 OA
ATOM     78  O   UNL A   1      40.223  22.552  26.615  1.00  0.00    -0.237 OA
ATOM     79  O   UNL A   1      42.282  21.990  25.382  1.00  0.00    -0.744 OA
ENDBRANCH  72  76
ENDBRANCH  55  69
BRANCH  56  80
ATOM     80  C   UNL A   1      39.215  32.005  35.477  1.00  0.00     0.023 A 
ATOM     81  C   UNL A   1      38.482  31.406  36.511  1.00  0.00     0.031 A 
ATOM     82  C   UNL A   1      39.479  33.383  35.550  1.00  0.00     0.131 A 
ATOM     83  C   UNL A   1      38.017  32.193  37.574  1.00  0.00     0.055 A 
ATOM     84  C   UNL A   1      39.026  34.159  36.616  1.00  0.00     0.041 A 
ATOM     85  F   UNL A   1      40.187  33.988  34.583  1.00  0.00    -0.206 F 
ATOM     86  C   UNL A   1      38.284  33.564  37.634  1.00  0.00     0.022 A 
BRANCH  83  87
ATOM     87  S   UNL A   1      37.027  31.404  38.873  1.00  0.00     0.124 S 
ATOM     88  O   UNL A   1      36.896  30.042  38.368  1.00  0.00    -0.237 OA
ATOM     89  O   UNL A   1      37.878  31.576  40.045  1.00  0.00    -0.237 OA
ATOM     90  O   UNL A   1      35.793  32.187  38.882  1.00  0.00    -0.744 OA
ENDBRANCH  83  87
ENDBRANCH  56  80
BRANCH  68  91
ATOM     91  C   UNL A   1      44.646  27.800  34.510  1.00  0.00     0.023 A 
ATOM     92  C   UNL A   1      44.585  26.726  35.412  1.00  0.00     0.031 A 
ATOM     93  C   UNL A   1      45.826  28.561  34.446  1.00  0.00     0.131 A 
ATOM     94  C   UNL A   1      45.683  26.454  36.242  1.00  0.00     0.055 A 
ATOM     95  C   UNL A   1      46.922  28.274  35.261  1.00  0.00     0.041 A 
ATOM     96  F   UNL A   1      45.922  29.598  33.601  1.00  0.00    -0.206 F 
ATOM     97  C   UNL A   1      46.853  27.218  36.168  1.00  0.00     0.022 A 
BRANCH  94  98
ATOM     98  S   UNL A   1      45.555  25.106  37.449  1.00  0.00     0.124 S 
ATOM     99  O   UNL A   1      46.673  25.390  38.345  1.00  0.00    -0.237 OA
ATOM    100  O   UNL A   1      44.223  25.310  38.007  1.00  0.00    -0.237 OA
ATOM    101  O   UNL A   1      45.705  23.901  36.635  1.00  0.00    -0.744 OA
ENDBRANCH  94  98
ENDBRANCH  68  91
ENDBRANCH  42  43
ENDBRANCH  34  37
ENDBRANCH  32  33
ENDBRANCH  31  32
ENDBRANCH   1  31
TORSDOF 18
ENDMDL
