MODEL 1
REMARK VINA RESULT:     -10.5      0.000      0.000
REMARK SMILES Nc1nc(N)nc(N/C=C/C(=O)NCCCNC(=O)c2ccc(-c3c4nc(c(-c5cc(S(=O)(=O)[O-])ccc5F)c5ccc([nH]5)c(-c5cc(S(=O)(=O)[O-])ccc5F)c5nc(c(-c6cc(S(=O)(=O)[O-])ccc6F)c6ccc3[nH]6)C=C5)C=C4)cc2)n1
REMARK SMILES IDX 15 1 14 2 13 3 11 4 12 5 10 7 9 8 8 9 7 11 2 12 3 13 83 14
REMARK SMILES IDX 4 15 6 16 1 17 5 20 16 23 17 24 18 25 19 27 20 28 21 29
REMARK SMILES IDX 82 30 22 31 81 32 23 33 24 34 25 35 75 36 26 37 80 38 74 39
REMARK SMILES IDX 76 40 27 41 79 42 73 43 72 44 28 46 60 47 40 48 59 49 41 50
REMARK SMILES IDX 44 51 58 52 77 53 42 54 43 55 57 57 78 58 45 59 29 60 30 61
REMARK SMILES IDX 38 62 31 63 37 64 39 65 36 66 32 67 33 68 34 69 35 70 61 71
REMARK SMILES IDX 62 72 70 73 63 74 69 75 71 76 68 77 64 78 65 79 66 80 67 81
REMARK SMILES IDX 46 82 47 83 55 84 48 85 54 86 56 87 53 88 49 89 50 90 51 91
REMARK SMILES IDX 52 92
REMARK H PARENT 13 6 8 10 1 18 1 19 5 21 5 22 17 26 76 45 44 56
REMARK Flexibility Score: inf
ROOT
ATOM      1  C   UNL A   1      34.651  34.793  28.292  1.00  0.00     0.042 C 
ENDROOT
BRANCH   1   2
ATOM      2  C   UNL A   1      33.196  34.908  28.746  1.00  0.00     0.118 C 
BRANCH   2   3
ATOM      3  N   UNL A   1      32.948  36.162  29.444  1.00  0.00    -0.352 N 
ATOM      4  C   UNL A   1      33.048  36.506  30.755  1.00  0.00     0.245 C 
ATOM      5  O   UNL A   1      32.894  37.684  31.076  1.00  0.00    -0.270 OA
ATOM      6  H   UNL A   1      32.653  36.896  28.857  1.00  0.00     0.163 HD
BRANCH   4   7
ATOM      7  C   UNL A   1      33.433  35.532  31.803  1.00  0.00     0.089 C 
ATOM      8  C   UNL A   1      34.161  35.809  32.889  1.00  0.00     0.091 C 
BRANCH   8   9
ATOM      9  N   UNL A   1      34.510  34.967  33.909  1.00  0.00    -0.330 N 
ATOM     10  H   UNL A   1      33.899  34.911  34.678  1.00  0.00     0.169 HD
BRANCH   9  11
ATOM     11  C   UNL A   1      35.663  34.179  33.949  1.00  0.00     0.233 A 
ATOM     12  C   UNL A   1      36.647  32.202  33.602  1.00  0.00     0.226 A 
ATOM     13  N   UNL A   1      37.793  32.607  34.124  1.00  0.00    -0.177 NA
ATOM     14  N   UNL A   1      35.548  32.934  33.505  1.00  0.00    -0.177 NA
ATOM     15  C   UNL A   1      37.800  33.855  34.554  1.00  0.00     0.226 A 
ATOM     16  N   UNL A   1      36.777  34.683  34.477  1.00  0.00    -0.177 NA
BRANCH  12  17
ATOM     17  N   UNL A   1      36.603  30.927  33.109  1.00  0.00    -0.368 N 
ATOM     18  H   UNL A   1      36.686  30.769  32.141  1.00  0.00     0.159 HD
ATOM     19  H   UNL A   1      36.486  30.167  33.723  1.00  0.00     0.159 HD
ENDBRANCH  12  17
BRANCH  15  20
ATOM     20  N   UNL A   1      38.948  34.326  35.126  1.00  0.00    -0.368 N 
ATOM     21  H   UNL A   1      39.734  33.740  35.206  1.00  0.00     0.159 HD
ATOM     22  H   UNL A   1      38.987  35.253  35.458  1.00  0.00     0.159 HD
ENDBRANCH  15  20
ENDBRANCH   9  11
ENDBRANCH   8   9
ENDBRANCH   4   7
ENDBRANCH   2   3
ENDBRANCH   1   2
BRANCH   1  23
ATOM     23  C   UNL A   1      35.234  33.393  28.478  1.00  0.00     0.118 C 
BRANCH  23  24
ATOM     24  N   UNL A   1      34.319  32.356  28.014  1.00  0.00    -0.352 N 
ATOM     25  C   UNL A   1      34.539  31.022  27.772  1.00  0.00     0.251 C 
ATOM     26  H   UNL A   1      33.398  32.661  27.848  1.00  0.00     0.163 HD
ATOM     27  O   UNL A   1      33.695  30.380  27.154  1.00  0.00    -0.269 OA
BRANCH  25  28
ATOM     28  C   UNL A   1      35.783  30.365  28.232  1.00  0.00     0.039 A 
ATOM     29  C   UNL A   1      36.891  30.342  27.378  1.00  0.00     0.014 A 
ATOM     30  C   UNL A   1      35.854  29.742  29.480  1.00  0.00     0.014 A 
ATOM     31  C   UNL A   1      38.087  29.759  27.804  1.00  0.00     0.010 A 
ATOM     32  C   UNL A   1      37.065  29.221  29.930  1.00  0.00     0.010 A 
ATOM     33  C   UNL A   1      38.196  29.229  29.099  1.00  0.00    -0.014 A 
BRANCH  33  34
ATOM     34  C   UNL A   1      39.487  28.698  29.615  1.00  0.00     0.031 A 
ATOM     35  C   UNL A   1      40.222  29.425  30.707  1.00  0.00     0.074 A 
ATOM     36  C   UNL A   1      40.032  27.608  29.040  1.00  0.00     0.049 A 
ATOM     37  N   UNL A   1      41.411  29.194  31.201  1.00  0.00    -0.248 NA
ATOM     38  C   UNL A   1      39.538  30.582  31.302  1.00  0.00     0.031 C 
ATOM     39  C   UNL A   1      39.425  26.833  27.955  1.00  0.00     0.029 A 
ATOM     40  N   UNL A   1      41.226  26.970  29.273  1.00  0.00    -0.354 N 
ATOM     41  C   UNL A   1      41.625  30.183  32.154  1.00  0.00     0.074 A 
ATOM     42  C   UNL A   1      40.463  31.047  32.128  1.00  0.00     0.031 C 
ATOM     43  C   UNL A   1      40.242  25.818  27.628  1.00  0.00     0.029 A 
ATOM     44  C   UNL A   1      41.455  25.901  28.436  1.00  0.00     0.049 A 
ATOM     45  H   UNL A   1      41.860  27.251  29.972  1.00  0.00     0.167 HD
ATOM     46  C   UNL A   1      42.685  30.344  32.987  1.00  0.00     0.034 A 
ATOM     47  C   UNL A   1      42.528  25.094  28.314  1.00  0.00     0.034 A 
ATOM     48  C   UNL A   1      43.832  29.467  33.002  1.00  0.00     0.049 A 
ATOM     49  C   UNL A   1      43.715  25.324  29.214  1.00  0.00     0.074 A 
ATOM     50  C   UNL A   1      44.935  29.506  33.838  1.00  0.00     0.029 A 
ATOM     51  N   UNL A   1      44.033  28.402  32.132  1.00  0.00    -0.354 N 
ATOM     52  N   UNL A   1      43.885  26.239  30.141  1.00  0.00    -0.248 NA
ATOM     53  C   UNL A   1      44.855  24.412  29.054  1.00  0.00     0.031 C 
ATOM     54  C   UNL A   1      45.833  28.515  33.428  1.00  0.00     0.029 A 
ATOM     55  C   UNL A   1      45.257  27.802  32.388  1.00  0.00     0.049 A 
ATOM     56  H   UNL A   1      43.399  28.116  31.436  1.00  0.00     0.167 HD
ATOM     57  C   UNL A   1      45.138  25.991  30.694  1.00  0.00     0.074 A 
ATOM     58  C   UNL A   1      45.674  24.835  30.006  1.00  0.00     0.031 C 
ATOM     59  C   UNL A   1      45.786  26.656  31.684  1.00  0.00     0.034 A 
BRANCH  46  60
ATOM     60  C   UNL A   1      42.662  31.528  33.924  1.00  0.00     0.023 A 
ATOM     61  C   UNL A   1      42.061  31.455  35.193  1.00  0.00     0.031 A 
ATOM     62  C   UNL A   1      43.232  32.755  33.538  1.00  0.00     0.131 A 
ATOM     63  C   UNL A   1      41.974  32.602  35.996  1.00  0.00     0.055 A 
ATOM     64  C   UNL A   1      43.216  33.871  34.378  1.00  0.00     0.041 A 
ATOM     65  F   UNL A   1      43.804  32.894  32.332  1.00  0.00    -0.206 F 
ATOM     66  C   UNL A   1      42.571  33.803  35.609  1.00  0.00     0.022 A 
BRANCH  63  67
ATOM     67  S   UNL A   1      40.943  32.538  37.487  1.00  0.00     0.124 S 
ATOM     68  O   UNL A   1      41.777  31.747  38.388  1.00  0.00    -0.237 OA
ATOM     69  O   UNL A   1      40.791  33.949  37.827  1.00  0.00    -0.237 OA
ATOM     70  O   UNL A   1      39.724  31.872  37.032  1.00  0.00    -0.744 OA
ENDBRANCH  63  67
ENDBRANCH  46  60
BRANCH  47  71
ATOM     71  C   UNL A   1      42.547  24.012  27.289  1.00  0.00     0.023 A 
ATOM     72  C   UNL A   1      41.946  22.769  27.541  1.00  0.00     0.031 A 
ATOM     73  C   UNL A   1      43.201  24.190  26.057  1.00  0.00     0.131 A 
ATOM     74  C   UNL A   1      42.051  21.736  26.596  1.00  0.00     0.055 A 
ATOM     75  C   UNL A   1      43.255  23.178  25.096  1.00  0.00     0.041 A 
ATOM     76  F   UNL A   1      43.790  25.360  25.762  1.00  0.00    -0.206 F 
ATOM     77  C   UNL A   1      42.688  21.937  25.369  1.00  0.00     0.022 A 
BRANCH  74  78
ATOM     78  S   UNL A   1      41.416  20.094  27.032  1.00  0.00     0.124 S 
ATOM     79  O   UNL A   1      40.765  20.358  28.309  1.00  0.00    -0.237 OA
ATOM     80  O   UNL A   1      40.532  19.803  25.907  1.00  0.00    -0.237 OA
ATOM     81  O   UNL A   1      42.622  19.271  27.103  1.00  0.00    -0.744 OA
ENDBRANCH  74  78
ENDBRANCH  47  71
BRANCH  59  82
ATOM     82  C   UNL A   1      47.129  26.117  32.111  1.00  0.00     0.023 A 
ATOM     83  C   UNL A   1      47.259  25.218  33.184  1.00  0.00     0.031 A 
ATOM     84  C   UNL A   1      48.295  26.508  31.429  1.00  0.00     0.131 A 
ATOM     85  C   UNL A   1      48.533  24.776  33.574  1.00  0.00     0.055 A 
ATOM     86  C   UNL A   1      49.553  26.019  31.784  1.00  0.00     0.041 A 
ATOM     87  F   UNL A   1      48.229  27.368  30.400  1.00  0.00    -0.206 F 
ATOM     88  C   UNL A   1      49.678  25.156  32.868  1.00  0.00     0.022 A 
BRANCH  85  89
ATOM     89  S   UNL A   1      48.684  23.756  35.065  1.00  0.00     0.124 S 
ATOM     90  O   UNL A   1      47.698  22.709  34.816  1.00  0.00    -0.237 OA
ATOM     91  O   UNL A   1      50.082  23.338  35.020  1.00  0.00    -0.237 OA
ATOM     92  O   UNL A   1      48.348  24.678  36.149  1.00  0.00    -0.744 OA
ENDBRANCH  85  89
ENDBRANCH  59  82
ENDBRANCH  33  34
ENDBRANCH  25  28
ENDBRANCH  23  24
ENDBRANCH   1  23
TORSDOF 17
ENDMDL
MODEL 2
REMARK VINA RESULT:     -10.4      1.376      1.809
REMARK SMILES Nc1nc(N)nc(N/C=C/C(=O)NCCCNC(=O)c2ccc(-c3c4nc(c(-c5cc(S(=O)(=O)[O-])ccc5F)c5ccc([nH]5)c(-c5cc(S(=O)(=O)[O-])ccc5F)c5nc(c(-c6cc(S(=O)(=O)[O-])ccc6F)c6ccc3[nH]6)C=C5)C=C4)cc2)n1
REMARK SMILES IDX 15 1 14 2 13 3 11 4 12 5 10 7 9 8 8 9 7 11 2 12 3 13 83 14
REMARK SMILES IDX 4 15 6 16 1 17 5 20 16 23 17 24 18 25 19 27 20 28 21 29
REMARK SMILES IDX 82 30 22 31 81 32 23 33 24 34 25 35 75 36 26 37 80 38 74 39
REMARK SMILES IDX 76 40 27 41 79 42 73 43 72 44 28 46 60 47 40 48 59 49 41 50
REMARK SMILES IDX 44 51 58 52 77 53 42 54 43 55 57 57 78 58 45 59 29 60 30 61
REMARK SMILES IDX 38 62 31 63 37 64 39 65 36 66 32 67 33 68 34 69 35 70 61 71
REMARK SMILES IDX 62 72 70 73 63 74 69 75 71 76 68 77 64 78 65 79 66 80 67 81
REMARK SMILES IDX 46 82 47 83 55 84 48 85 54 86 56 87 53 88 49 89 50 90 51 91
REMARK SMILES IDX 52 92
REMARK H PARENT 13 6 8 10 1 18 1 19 5 21 5 22 17 26 76 45 44 56
REMARK Flexibility Score: inf
ROOT
ATOM      1  C   UNL A   1      34.528  34.914  29.026  1.00  0.00     0.042 C 
ENDROOT
BRANCH   1   2
ATOM      2  C   UNL A   1      33.075  35.350  29.216  1.00  0.00     0.118 C 
BRANCH   2   3
ATOM      3  N   UNL A   1      32.976  36.544  30.043  1.00  0.00    -0.352 N 
ATOM      4  C   UNL A   1      33.188  36.749  31.370  1.00  0.00     0.245 C 
ATOM      5  O   UNL A   1      33.151  37.898  31.810  1.00  0.00    -0.270 OA
ATOM      6  H   UNL A   1      32.705  37.352  29.550  1.00  0.00     0.163 HD
BRANCH   4   7
ATOM      7  C   UNL A   1      33.557  35.650  32.293  1.00  0.00     0.089 C 
ATOM      8  C   UNL A   1      34.429  35.744  33.300  1.00  0.00     0.091 C 
BRANCH   8   9
ATOM      9  N   UNL A   1      34.778  34.783  34.209  1.00  0.00    -0.330 N 
ATOM     10  H   UNL A   1      34.094  34.510  34.862  1.00  0.00     0.169 HD
BRANCH   9  11
ATOM     11  C   UNL A   1      36.024  34.156  34.286  1.00  0.00     0.233 A 
ATOM     12  C   UNL A   1      38.253  34.311  34.243  1.00  0.00     0.226 A 
ATOM     13  N   UNL A   1      38.411  32.999  34.296  1.00  0.00    -0.177 NA
ATOM     14  N   UNL A   1      37.090  34.942  34.215  1.00  0.00    -0.177 NA
ATOM     15  C   UNL A   1      37.290  32.303  34.345  1.00  0.00     0.226 A 
ATOM     16  N   UNL A   1      36.080  32.828  34.358  1.00  0.00    -0.177 NA
BRANCH  12  17
ATOM     17  N   UNL A   1      39.388  35.075  34.229  1.00  0.00    -0.368 N 
ATOM     18  H   UNL A   1      40.121  34.881  34.856  1.00  0.00     0.159 HD
ATOM     19  H   UNL A   1      39.471  35.820  33.591  1.00  0.00     0.159 HD
ENDBRANCH  12  17
BRANCH  15  20
ATOM     20  N   UNL A   1      37.384  30.941  34.379  1.00  0.00    -0.368 N 
ATOM     21  H   UNL A   1      37.839  30.461  33.649  1.00  0.00     0.159 HD
ATOM     22  H   UNL A   1      36.998  30.440  35.133  1.00  0.00     0.159 HD
ENDBRANCH  15  20
ENDBRANCH   9  11
ENDBRANCH   8   9
ENDBRANCH   4   7
ENDBRANCH   2   3
ENDBRANCH   1   2
BRANCH   1  23
ATOM     23  C   UNL A   1      34.767  33.442  29.362  1.00  0.00     0.118 C 
BRANCH  23  24
ATOM     24  N   UNL A   1      34.057  32.553  28.450  1.00  0.00    -0.352 N 
ATOM     25  C   UNL A   1      34.466  31.386  27.851  1.00  0.00     0.251 C 
ATOM     26  H   UNL A   1      33.140  32.834  28.229  1.00  0.00     0.163 HD
ATOM     27  O   UNL A   1      33.801  30.924  26.929  1.00  0.00    -0.269 OA
BRANCH  25  28
ATOM     28  C   UNL A   1      35.699  30.700  28.296  1.00  0.00     0.039 A 
ATOM     29  C   UNL A   1      36.914  31.035  27.689  1.00  0.00     0.014 A 
ATOM     30  C   UNL A   1      35.661  29.706  29.276  1.00  0.00     0.014 A 
ATOM     31  C   UNL A   1      38.097  30.426  28.117  1.00  0.00     0.010 A 
ATOM     32  C   UNL A   1      36.848  29.148  29.747  1.00  0.00     0.010 A 
ATOM     33  C   UNL A   1      38.079  29.507  29.177  1.00  0.00    -0.014 A 
BRANCH  33  34
ATOM     34  C   UNL A   1      39.335  28.923  29.721  1.00  0.00     0.031 A 
ATOM     35  C   UNL A   1      40.050  29.595  30.861  1.00  0.00     0.074 A 
ATOM     36  C   UNL A   1      39.871  27.836  29.131  1.00  0.00     0.049 A 
ATOM     37  N   UNL A   1      41.213  29.315  31.390  1.00  0.00    -0.248 NA
ATOM     38  C   UNL A   1      39.376  30.752  31.468  1.00  0.00     0.031 C 
ATOM     39  C   UNL A   1      39.283  27.113  28.001  1.00  0.00     0.029 A 
ATOM     40  N   UNL A   1      41.038  27.158  29.386  1.00  0.00    -0.354 N 
ATOM     41  C   UNL A   1      41.419  30.267  32.381  1.00  0.00     0.074 A 
ATOM     42  C   UNL A   1      40.283  31.164  32.341  1.00  0.00     0.031 C 
ATOM     43  C   UNL A   1      40.083  26.086  27.671  1.00  0.00     0.029 A 
ATOM     44  C   UNL A   1      41.267  26.109  28.524  1.00  0.00     0.049 A 
ATOM     45  H   UNL A   1      41.653  27.399  30.115  1.00  0.00     0.167 HD
ATOM     46  C   UNL A   1      42.452  30.372  33.256  1.00  0.00     0.034 A 
ATOM     47  C   UNL A   1      42.322  25.277  28.414  1.00  0.00     0.034 A 
ATOM     48  C   UNL A   1      43.574  29.463  33.283  1.00  0.00     0.049 A 
ATOM     49  C   UNL A   1      43.482  25.445  29.362  1.00  0.00     0.074 A 
ATOM     50  C   UNL A   1      44.646  29.444  34.158  1.00  0.00     0.029 A 
ATOM     51  N   UNL A   1      43.777  28.420  32.388  1.00  0.00    -0.354 N 
ATOM     52  N   UNL A   1      43.642  26.325  30.324  1.00  0.00    -0.248 NA
ATOM     53  C   UNL A   1      44.601  24.506  29.214  1.00  0.00     0.031 C 
ATOM     54  C   UNL A   1      45.531  28.441  33.750  1.00  0.00     0.029 A 
ATOM     55  C   UNL A   1      44.974  27.778  32.667  1.00  0.00     0.049 A 
ATOM     56  H   UNL A   1      43.161  28.174  31.661  1.00  0.00     0.167 HD
ATOM     57  C   UNL A   1      44.867  26.025  30.913  1.00  0.00     0.074 A 
ATOM     58  C   UNL A   1      45.396  24.876  30.207  1.00  0.00     0.031 C 
ATOM     59  C   UNL A   1      45.496  26.640  31.947  1.00  0.00     0.034 A 
BRANCH  46  60
ATOM     60  C   UNL A   1      42.428  31.527  34.229  1.00  0.00     0.023 A 
ATOM     61  C   UNL A   1      41.610  31.512  35.373  1.00  0.00     0.031 A 
ATOM     62  C   UNL A   1      43.218  32.668  34.002  1.00  0.00     0.131 A 
ATOM     63  C   UNL A   1      41.541  32.643  36.201  1.00  0.00     0.055 A 
ATOM     64  C   UNL A   1      43.208  33.757  34.878  1.00  0.00     0.041 A 
ATOM     65  F   UNL A   1      44.005  32.751  32.918  1.00  0.00    -0.206 F 
ATOM     66  C   UNL A   1      42.355  33.755  35.976  1.00  0.00     0.022 A 
BRANCH  63  67
ATOM     67  S   UNL A   1      40.266  32.693  37.490  1.00  0.00     0.124 S 
ATOM     68  O   UNL A   1      41.047  32.392  38.688  1.00  0.00    -0.237 OA
ATOM     69  O   UNL A   1      39.761  34.057  37.382  1.00  0.00    -0.237 OA
ATOM     70  O   UNL A   1      39.330  31.647  37.087  1.00  0.00    -0.744 OA
ENDBRANCH  63  67
ENDBRANCH  46  60
BRANCH  47  71
ATOM     71  C   UNL A   1      42.348  24.226  27.357  1.00  0.00     0.023 A 
ATOM     72  C   UNL A   1      41.733  22.982  27.559  1.00  0.00     0.031 A 
ATOM     73  C   UNL A   1      43.025  24.437  26.142  1.00  0.00     0.131 A 
ATOM     74  C   UNL A   1      41.844  21.978  26.585  1.00  0.00     0.055 A 
ATOM     75  C   UNL A   1      43.086  23.454  25.151  1.00  0.00     0.041 A 
ATOM     76  F   UNL A   1      43.629  25.609  25.893  1.00  0.00    -0.206 F 
ATOM     77  C   UNL A   1      42.504  22.211  25.375  1.00  0.00     0.022 A 
BRANCH  74  78
ATOM     78  S   UNL A   1      41.188  20.329  26.958  1.00  0.00     0.124 S 
ATOM     79  O   UNL A   1      42.352  19.485  26.714  1.00  0.00    -0.237 OA
ATOM     80  O   UNL A   1      40.780  20.474  28.352  1.00  0.00    -0.237 OA
ATOM     81  O   UNL A   1      40.092  20.175  26.004  1.00  0.00    -0.744 OA
ENDBRANCH  74  78
ENDBRANCH  47  71
BRANCH  59  82
ATOM     82  C   UNL A   1      46.808  26.050  32.403  1.00  0.00     0.023 A 
ATOM     83  C   UNL A   1      48.026  26.390  31.789  1.00  0.00     0.031 A 
ATOM     84  C   UNL A   1      46.838  25.136  33.471  1.00  0.00     0.131 A 
ATOM     85  C   UNL A   1      49.217  25.784  32.218  1.00  0.00     0.055 A 
ATOM     86  C   UNL A   1      48.032  24.581  33.932  1.00  0.00     0.041 A 
ATOM     87  F   UNL A   1      45.702  24.772  34.090  1.00  0.00    -0.206 F 
ATOM     88  C   UNL A   1      49.229  24.896  33.298  1.00  0.00     0.022 A 
BRANCH  85  89
ATOM     89  S   UNL A   1      50.744  26.111  31.296  1.00  0.00     0.124 S 
ATOM     90  O   UNL A   1      51.029  24.805  30.711  1.00  0.00    -0.237 OA
ATOM     91  O   UNL A   1      50.330  27.152  30.361  1.00  0.00    -0.237 OA
ATOM     92  O   UNL A   1      51.683  26.545  32.329  1.00  0.00    -0.744 OA
ENDBRANCH  85  89
ENDBRANCH  59  82
ENDBRANCH  33  34
ENDBRANCH  25  28
ENDBRANCH  23  24
ENDBRANCH   1  23
TORSDOF 17
ENDMDL
MODEL 3
REMARK VINA RESULT:     -10.3      7.027     10.814
REMARK SMILES Nc1nc(N)nc(N/C=C/C(=O)NCCCNC(=O)c2ccc(-c3c4nc(c(-c5cc(S(=O)(=O)[O-])ccc5F)c5ccc([nH]5)c(-c5cc(S(=O)(=O)[O-])ccc5F)c5nc(c(-c6cc(S(=O)(=O)[O-])ccc6F)c6ccc3[nH]6)C=C5)C=C4)cc2)n1
REMARK SMILES IDX 15 1 14 2 13 3 11 4 12 5 10 7 9 8 8 9 7 11 2 12 3 13 83 14
REMARK SMILES IDX 4 15 6 16 1 17 5 20 16 23 17 24 18 25 19 27 20 28 21 29
REMARK SMILES IDX 82 30 22 31 81 32 23 33 24 34 25 35 75 36 26 37 80 38 74 39
REMARK SMILES IDX 76 40 27 41 79 42 73 43 72 44 28 46 60 47 40 48 59 49 41 50
REMARK SMILES IDX 44 51 58 52 77 53 42 54 43 55 57 57 78 58 45 59 29 60 30 61
REMARK SMILES IDX 38 62 31 63 37 64 39 65 36 66 32 67 33 68 34 69 35 70 61 71
REMARK SMILES IDX 62 72 70 73 63 74 69 75 71 76 68 77 64 78 65 79 66 80 67 81
REMARK SMILES IDX 46 82 47 83 55 84 48 85 54 86 56 87 53 88 49 89 50 90 51 91
REMARK SMILES IDX 52 92
REMARK H PARENT 13 6 8 10 1 18 1 19 5 21 5 22 17 26 76 45 44 56
REMARK Flexibility Score: inf
ROOT
ATOM      1  C   UNL A   1      35.341  22.151  26.467  1.00  0.00     0.042 C 
ENDROOT
BRANCH   1   2
ATOM      2  C   UNL A   1      33.987  22.704  26.019  1.00  0.00     0.118 C 
BRANCH   2   3
ATOM      3  N   UNL A   1      33.965  22.974  24.588  1.00  0.00    -0.352 N 
ATOM      4  C   UNL A   1      33.369  22.329  23.552  1.00  0.00     0.245 C 
ATOM      5  O   UNL A   1      33.406  22.836  22.431  1.00  0.00    -0.270 OA
ATOM      6  H   UNL A   1      34.477  23.773  24.323  1.00  0.00     0.163 HD
BRANCH   4   7
ATOM      7  C   UNL A   1      32.591  21.081  23.737  1.00  0.00     0.089 C 
ATOM      8  C   UNL A   1      33.067  19.937  24.237  1.00  0.00     0.091 C 
BRANCH   8   9
ATOM      9  N   UNL A   1      32.391  18.771  24.472  1.00  0.00    -0.330 N 
ATOM     10  H   UNL A   1      31.409  18.799  24.415  1.00  0.00     0.169 HD
BRANCH   9  11
ATOM     11  C   UNL A   1      32.981  17.544  24.786  1.00  0.00     0.233 A 
ATOM     12  C   UNL A   1      32.749  15.380  25.295  1.00  0.00     0.226 A 
ATOM     13  N   UNL A   1      34.044  15.224  25.509  1.00  0.00    -0.177 NA
ATOM     14  N   UNL A   1      32.160  16.515  24.952  1.00  0.00    -0.177 NA
ATOM     15  C   UNL A   1      34.774  16.311  25.336  1.00  0.00     0.226 A 
ATOM     16  N   UNL A   1      34.299  17.483  24.963  1.00  0.00    -0.177 NA
BRANCH  12  17
ATOM     17  N   UNL A   1      31.957  14.273  25.427  1.00  0.00    -0.368 N 
ATOM     18  H   UNL A   1      32.366  13.387  25.561  1.00  0.00     0.159 HD
ATOM     19  H   UNL A   1      30.978  14.360  25.385  1.00  0.00     0.159 HD
ENDBRANCH  12  17
BRANCH  15  20
ATOM     20  N   UNL A   1      36.118  16.221  25.564  1.00  0.00    -0.368 N 
ATOM     21  H   UNL A   1      36.652  15.539  25.096  1.00  0.00     0.159 HD
ATOM     22  H   UNL A   1      36.551  16.838  26.197  1.00  0.00     0.159 HD
ENDBRANCH  15  20
ENDBRANCH   9  11
ENDBRANCH   8   9
ENDBRANCH   4   7
ENDBRANCH   2   3
ENDBRANCH   1   2
BRANCH   1  23
ATOM     23  C   UNL A   1      36.370  22.082  25.339  1.00  0.00     0.118 C 
BRANCH  23  24
ATOM     24  N   UNL A   1      37.314  20.987  25.529  1.00  0.00    -0.352 N 
ATOM     25  C   UNL A   1      38.648  21.013  25.857  1.00  0.00     0.251 C 
ATOM     26  H   UNL A   1      36.935  20.088  25.403  1.00  0.00     0.163 HD
ATOM     27  O   UNL A   1      39.314  19.990  25.727  1.00  0.00    -0.269 OA
BRANCH  25  28
ATOM     28  C   UNL A   1      39.284  22.258  26.342  1.00  0.00     0.039 A 
ATOM     29  C   UNL A   1      40.356  22.165  27.235  1.00  0.00     0.014 A 
ATOM     30  C   UNL A   1      38.808  23.513  25.953  1.00  0.00     0.014 A 
ATOM     31  C   UNL A   1      40.994  23.326  27.679  1.00  0.00     0.010 A 
ATOM     32  C   UNL A   1      39.486  24.665  26.344  1.00  0.00     0.010 A 
ATOM     33  C   UNL A   1      40.591  24.584  27.206  1.00  0.00    -0.014 A 
BRANCH  33  34
ATOM     34  C   UNL A   1      41.319  25.826  27.580  1.00  0.00     0.031 A 
ATOM     35  C   UNL A   1      40.632  26.892  28.388  1.00  0.00     0.074 A 
ATOM     36  C   UNL A   1      42.570  26.025  27.120  1.00  0.00     0.049 A 
ATOM     37  N   UNL A   1      41.051  28.089  28.707  1.00  0.00    -0.248 NA
ATOM     38  C   UNL A   1      39.283  26.577  28.880  1.00  0.00     0.031 C 
ATOM     39  C   UNL A   1      43.331  25.074  26.306  1.00  0.00     0.029 A 
ATOM     40  N   UNL A   1      43.418  27.096  27.255  1.00  0.00    -0.354 N 
ATOM     41  C   UNL A   1      40.015  28.677  29.424  1.00  0.00     0.074 A 
ATOM     42  C   UNL A   1      38.927  27.721  29.444  1.00  0.00     0.031 C 
ATOM     43  C   UNL A   1      44.535  25.598  26.027  1.00  0.00     0.029 A 
ATOM     44  C   UNL A   1      44.614  26.942  26.591  1.00  0.00     0.049 A 
ATOM     45  H   UNL A   1      43.193  27.900  27.777  1.00  0.00     0.167 HD
ATOM     46  C   UNL A   1      39.981  29.894  30.024  1.00  0.00     0.034 A 
ATOM     47  C   UNL A   1      45.647  27.794  26.431  1.00  0.00     0.034 A 
ATOM     48  C   UNL A   1      41.079  30.831  29.996  1.00  0.00     0.049 A 
ATOM     49  C   UNL A   1      45.566  29.160  27.063  1.00  0.00     0.074 A 
ATOM     50  C   UNL A   1      41.173  32.067  30.614  1.00  0.00     0.029 A 
ATOM     51  N   UNL A   1      42.270  30.645  29.304  1.00  0.00    -0.354 N 
ATOM     52  N   UNL A   1      44.596  29.685  27.774  1.00  0.00    -0.248 NA
ATOM     53  C   UNL A   1      46.720  30.048  26.874  1.00  0.00     0.031 C 
ATOM     54  C   UNL A   1      42.384  32.656  30.237  1.00  0.00     0.029 A 
ATOM     55  C   UNL A   1      43.086  31.757  29.450  1.00  0.00     0.049 A 
ATOM     56  H   UNL A   1      42.500  29.840  28.787  1.00  0.00     0.167 HD
ATOM     57  C   UNL A   1      45.037  30.953  28.142  1.00  0.00     0.074 A 
ATOM     58  C   UNL A   1      46.365  31.108  27.585  1.00  0.00     0.031 C 
ATOM     59  C   UNL A   1      44.404  31.903  28.877  1.00  0.00     0.034 A 
BRANCH  46  60
ATOM     60  C   UNL A   1      38.706  30.288  30.731  1.00  0.00     0.023 A 
ATOM     61  C   UNL A   1      37.659  30.942  30.057  1.00  0.00     0.031 A 
ATOM     62  C   UNL A   1      38.540  30.025  32.102  1.00  0.00     0.131 A 
ATOM     63  C   UNL A   1      36.532  31.379  30.768  1.00  0.00     0.055 A 
ATOM     64  C   UNL A   1      37.377  30.387  32.787  1.00  0.00     0.041 A 
ATOM     65  F   UNL A   1      39.511  29.421  32.806  1.00  0.00    -0.206 F 
ATOM     66  C   UNL A   1      36.371  31.083  32.123  1.00  0.00     0.022 A 
BRANCH  63  67
ATOM     67  S   UNL A   1      35.347  32.466  29.928  1.00  0.00     0.124 S 
ATOM     68  O   UNL A   1      34.335  32.655  30.964  1.00  0.00    -0.237 OA
ATOM     69  O   UNL A   1      36.161  33.633  29.608  1.00  0.00    -0.237 OA
ATOM     70  O   UNL A   1      34.912  31.674  28.780  1.00  0.00    -0.744 OA
ENDBRANCH  63  67
ENDBRANCH  46  60
BRANCH  47  71
ATOM     71  C   UNL A   1      46.835  27.398  25.622  1.00  0.00     0.023 A 
ATOM     72  C   UNL A   1      46.986  27.837  24.298  1.00  0.00     0.031 A 
ATOM     73  C   UNL A   1      47.818  26.540  26.148  1.00  0.00     0.131 A 
ATOM     74  C   UNL A   1      48.068  27.382  23.528  1.00  0.00     0.055 A 
ATOM     75  C   UNL A   1      48.923  26.134  25.396  1.00  0.00     0.041 A 
ATOM     76  F   UNL A   1      47.726  26.092  27.410  1.00  0.00    -0.206 F 
ATOM     77  C   UNL A   1      49.045  26.546  24.073  1.00  0.00     0.022 A 
BRANCH  74  78
ATOM     78  S   UNL A   1      48.132  27.830  21.772  1.00  0.00     0.124 S 
ATOM     79  O   UNL A   1      49.287  28.720  21.736  1.00  0.00    -0.237 OA
ATOM     80  O   UNL A   1      48.303  26.529  21.134  1.00  0.00    -0.237 OA
ATOM     81  O   UNL A   1      46.841  28.473  21.538  1.00  0.00    -0.744 OA
ENDBRANCH  74  78
ENDBRANCH  47  71
BRANCH  59  82
ATOM     82  C   UNL A   1      45.164  33.176  29.157  1.00  0.00     0.023 A 
ATOM     83  C   UNL A   1      45.168  34.250  28.251  1.00  0.00     0.031 A 
ATOM     84  C   UNL A   1      45.892  33.315  30.352  1.00  0.00     0.131 A 
ATOM     85  C   UNL A   1      45.924  35.399  28.533  1.00  0.00     0.055 A 
ATOM     86  C   UNL A   1      46.595  34.482  30.654  1.00  0.00     0.041 A 
ATOM     87  F   UNL A   1      45.927  32.318  31.251  1.00  0.00    -0.206 F 
ATOM     88  C   UNL A   1      46.622  35.528  29.737  1.00  0.00     0.022 A 
BRANCH  85  89
ATOM     89  S   UNL A   1      46.048  36.694  27.269  1.00  0.00     0.124 S 
ATOM     90  O   UNL A   1      47.013  37.610  27.870  1.00  0.00    -0.237 OA
ATOM     91  O   UNL A   1      46.514  35.952  26.103  1.00  0.00    -0.237 OA
ATOM     92  O   UNL A   1      44.683  37.209  27.170  1.00  0.00    -0.744 OA
ENDBRANCH  85  89
ENDBRANCH  59  82
ENDBRANCH  33  34
ENDBRANCH  25  28
ENDBRANCH  23  24
ENDBRANCH   1  23
TORSDOF 17
ENDMDL
