MODEL 1
REMARK VINA RESULT:     -11.6      0.000      0.000
REMARK SMILES CCC1(CC)CCN(C(=O)NC(CC)(CC)C(=O)NCCCNC(=O)c2ccc(-c3c4nc(c(-c5cc(S(=O)(=O)[O-])ccc5F)c5ccc([nH]5)c(-c5cc(S(=O)(=O)[O-])ccc5F)c5nc(c(-c6cc(S(=O)(=O)[O-])ccc6F)c6ccc3[nH]6)C=C5)C=C4)cc2)CC1
REMARK SMILES IDX 21 1 20 2 19 3 17 4 18 5 12 7 11 8 3 9 6 10 90 11 7 12 89 13
REMARK SMILES IDX 8 14 9 15 10 16 2 18 1 19 4 20 5 21 13 22 14 23 15 24 16 25
REMARK SMILES IDX 22 26 23 27 24 28 25 30 26 31 27 32 88 33 28 34 87 35 29 36
REMARK SMILES IDX 30 37 31 38 81 39 32 40 86 41 80 42 82 43 33 44 85 45 79 46
REMARK SMILES IDX 78 47 34 49 66 50 46 51 65 52 47 53 50 54 64 55 83 56 48 57
REMARK SMILES IDX 49 58 63 60 84 61 51 62 35 63 36 64 44 65 37 66 43 67 45 68
REMARK SMILES IDX 42 69 38 70 39 71 40 72 41 73 67 74 68 75 76 76 69 77 75 78
REMARK SMILES IDX 77 79 74 80 70 81 71 82 72 83 73 84 52 85 53 86 61 87 54 88
REMARK SMILES IDX 60 89 62 90 59 91 55 92 56 93 57 94 58 95
REMARK H PARENT 19 6 11 17 23 29 82 48 50 59
REMARK Flexibility Score: inf
ROOT
ATOM      1  C   UNL A   1      31.679  31.884  26.671  1.00  0.00     0.042 C 
ENDROOT
BRANCH   1   2
ATOM      2  C   UNL A   1      31.826  30.397  26.361  1.00  0.00     0.117 C 
BRANCH   2   3
ATOM      3  N   UNL A   1      31.943  30.132  24.939  1.00  0.00    -0.354 N 
ATOM      4  C   UNL A   1      32.390  28.898  24.518  1.00  0.00     0.245 C 
ATOM      5  O   UNL A   1      33.603  28.708  24.493  1.00  0.00    -0.272 OA
ATOM      6  H   UNL A   1      31.704  30.826  24.281  1.00  0.00     0.163 HD
BRANCH   4   7
ATOM      7  C   UNL A   1      31.322  27.844  24.085  1.00  0.00     0.120 C 
BRANCH   7   8
ATOM      8  N   UNL A   1      31.741  26.825  23.061  1.00  0.00    -0.323 N 
ATOM      9  C   UNL A   1      34.032  23.338  25.562  1.00  0.00    -0.027 C 
ATOM     10  C   UNL A   1      33.916  23.035  24.034  1.00  0.00     0.028 C 
ATOM     11  C   UNL A   1      33.442  24.761  25.808  1.00  0.00     0.028 C 
ATOM     12  C   UNL A   1      34.330  24.197  23.108  1.00  0.00     0.122 C 
ATOM     13  C   UNL A   1      33.995  25.816  24.850  1.00  0.00     0.122 C 
ATOM     14  N   UNL A   1      33.658  25.442  23.502  1.00  0.00    -0.325 N 
ATOM     15  C   UNL A   1      32.703  25.967  22.690  1.00  0.00     0.318 C 
ATOM     16  O   UNL A   1      32.605  25.601  21.510  1.00  0.00    -0.249 OA
ATOM     17  H   UNL A   1      31.019  26.762  22.395  1.00  0.00     0.166 HD
BRANCH   9  18
ATOM     18  C   UNL A   1      35.484  23.329  26.129  1.00  0.00     0.004 C 
ATOM     19  C   UNL A   1      36.500  22.414  25.465  1.00  0.00     0.004 C 
ENDBRANCH   9  18
BRANCH   9  20
ATOM     20  C   UNL A   1      33.116  22.355  26.366  1.00  0.00     0.004 C 
ATOM     21  C   UNL A   1      33.605  21.909  27.735  1.00  0.00     0.004 C 
ENDBRANCH   9  20
ENDBRANCH   7   8
BRANCH   7  22
ATOM     22  C   UNL A   1      29.997  28.525  23.599  1.00  0.00     0.035 C 
ATOM     23  C   UNL A   1      30.038  29.212  22.236  1.00  0.00     0.007 C 
ENDBRANCH   7  22
BRANCH   7  24
ATOM     24  C   UNL A   1      31.087  27.032  25.418  1.00  0.00     0.035 C 
ATOM     25  C   UNL A   1      30.041  25.910  25.339  1.00  0.00     0.007 C 
ENDBRANCH   7  24
ENDBRANCH   4   7
ENDBRANCH   2   3
ENDBRANCH   1   2
BRANCH   1  26
ATOM     26  C   UNL A   1      32.919  32.503  27.313  1.00  0.00     0.118 C 
BRANCH  26  27
ATOM     27  N   UNL A   1      32.717  33.908  27.641  1.00  0.00    -0.352 N 
ATOM     28  C   UNL A   1      33.248  34.644  28.673  1.00  0.00     0.251 C 
ATOM     29  H   UNL A   1      32.114  34.400  27.039  1.00  0.00     0.163 HD
ATOM     30  O   UNL A   1      32.752  35.727  28.959  1.00  0.00    -0.269 OA
BRANCH  28  31
ATOM     31  C   UNL A   1      34.393  34.112  29.442  1.00  0.00     0.039 A 
ATOM     32  C   UNL A   1      34.149  33.290  30.543  1.00  0.00     0.014 A 
ATOM     33  C   UNL A   1      35.705  34.432  29.082  1.00  0.00     0.014 A 
ATOM     34  C   UNL A   1      35.224  32.735  31.243  1.00  0.00     0.010 A 
ATOM     35  C   UNL A   1      36.772  33.809  29.724  1.00  0.00     0.010 A 
ATOM     36  C   UNL A   1      36.544  32.960  30.816  1.00  0.00    -0.014 A 
BRANCH  36  37
ATOM     37  C   UNL A   1      37.698  32.328  31.508  1.00  0.00     0.031 A 
ATOM     38  C   UNL A   1      38.446  31.200  30.849  1.00  0.00     0.074 A 
ATOM     39  C   UNL A   1      38.038  32.734  32.748  1.00  0.00     0.049 A 
ATOM     40  N   UNL A   1      39.425  30.469  31.318  1.00  0.00    -0.248 NA
ATOM     41  C   UNL A   1      38.015  30.826  29.493  1.00  0.00     0.031 C 
ATOM     42  C   UNL A   1      37.371  33.797  33.503  1.00  0.00     0.029 A 
ATOM     43  N   UNL A   1      39.028  32.301  33.595  1.00  0.00    -0.354 N 
ATOM     44  C   UNL A   1      39.726  29.551  30.317  1.00  0.00     0.074 A 
ATOM     45  C   UNL A   1      38.774  29.769  29.250  1.00  0.00     0.031 C 
ATOM     46  C   UNL A   1      37.987  33.953  34.684  1.00  0.00     0.029 A 
ATOM     47  C   UNL A   1      39.058  32.968  34.798  1.00  0.00     0.049 A 
ATOM     48  H   UNL A   1      39.657  31.580  33.364  1.00  0.00     0.167 HD
ATOM     49  C   UNL A   1      40.721  28.630  30.280  1.00  0.00     0.034 A 
ATOM     50  C   UNL A   1      39.850  32.795  35.876  1.00  0.00     0.034 A 
ATOM     51  C   UNL A   1      41.663  28.424  31.353  1.00  0.00     0.049 A 
ATOM     52  C   UNL A   1      40.913  31.725  35.832  1.00  0.00     0.074 A 
ATOM     53  C   UNL A   1      42.725  27.539  31.410  1.00  0.00     0.029 A 
ATOM     54  N   UNL A   1      41.654  29.109  32.562  1.00  0.00    -0.354 N 
ATOM     55  N   UNL A   1      41.208  30.890  34.862  1.00  0.00    -0.248 NA
ATOM     56  C   UNL A   1      41.757  31.583  37.025  1.00  0.00     0.031 C 
ATOM     57  C   UNL A   1      43.314  27.640  32.675  1.00  0.00     0.029 A 
ATOM     58  C   UNL A   1      42.674  28.646  33.380  1.00  0.00     0.049 A 
ATOM     59  H   UNL A   1      41.015  29.819  32.804  1.00  0.00     0.167 HD
ATOM     60  C   UNL A   1      42.297  30.151  35.317  1.00  0.00     0.074 A 
ATOM     61  C   UNL A   1      42.615  30.651  36.639  1.00  0.00     0.031 C 
ATOM     62  C   UNL A   1      42.978  29.152  34.698  1.00  0.00     0.034 A 
BRANCH  49  63
ATOM     63  C   UNL A   1      40.822  27.769  29.042  1.00  0.00     0.023 A 
ATOM     64  C   UNL A   1      41.743  28.058  28.020  1.00  0.00     0.031 A 
ATOM     65  C   UNL A   1      39.976  26.660  28.868  1.00  0.00     0.131 A 
ATOM     66  C   UNL A   1      41.744  27.300  26.839  1.00  0.00     0.055 A 
ATOM     67  C   UNL A   1      40.041  25.856  27.728  1.00  0.00     0.041 A 
ATOM     68  F   UNL A   1      39.061  26.345  29.799  1.00  0.00    -0.206 F 
ATOM     69  C   UNL A   1      40.918  26.184  26.697  1.00  0.00     0.022 A 
BRANCH  66  70
ATOM     70  S   UNL A   1      42.732  27.886  25.436  1.00  0.00     0.124 S 
ATOM     71  O   UNL A   1      42.793  26.691  24.599  1.00  0.00    -0.237 OA
ATOM     72  O   UNL A   1      41.929  28.988  24.921  1.00  0.00    -0.237 OA
ATOM     73  O   UNL A   1      44.002  28.272  26.051  1.00  0.00    -0.744 OA
ENDBRANCH  66  70
ENDBRANCH  49  63
BRANCH  50  74
ATOM     74  C   UNL A   1      39.673  33.639  37.094  1.00  0.00     0.023 A 
ATOM     75  C   UNL A   1      39.157  33.092  38.281  1.00  0.00     0.031 A 
ATOM     76  C   UNL A   1      39.953  35.017  37.074  1.00  0.00     0.131 A 
ATOM     77  C   UNL A   1      38.878  33.927  39.373  1.00  0.00     0.055 A 
ATOM     78  C   UNL A   1      39.734  35.832  38.185  1.00  0.00     0.041 A 
ATOM     79  F   UNL A   1      40.451  35.593  35.968  1.00  0.00    -0.206 F 
ATOM     80  C   UNL A   1      39.176  35.291  39.339  1.00  0.00     0.022 A 
BRANCH  77  81
ATOM     81  S   UNL A   1      38.009  33.222  40.802  1.00  0.00     0.124 S 
ATOM     82  O   UNL A   1      38.489  34.071  41.887  1.00  0.00    -0.237 OA
ATOM     83  O   UNL A   1      36.611  33.395  40.422  1.00  0.00    -0.237 OA
ATOM     84  O   UNL A   1      38.478  31.839  40.836  1.00  0.00    -0.744 OA
ENDBRANCH  77  81
ENDBRANCH  50  74
BRANCH  62  85
ATOM     85  C   UNL A   1      44.169  28.578  35.426  1.00  0.00     0.023 A 
ATOM     86  C   UNL A   1      44.042  27.512  36.334  1.00  0.00     0.031 A 
ATOM     87  C   UNL A   1      45.450  29.118  35.217  1.00  0.00     0.131 A 
ATOM     88  C   UNL A   1      45.166  27.062  37.044  1.00  0.00     0.055 A 
ATOM     89  C   UNL A   1      46.575  28.621  35.875  1.00  0.00     0.041 A 
ATOM     90  F   UNL A   1      45.631  30.139  34.363  1.00  0.00    -0.206 F 
ATOM     91  C   UNL A   1      46.434  27.597  36.807  1.00  0.00     0.022 A 
BRANCH  88  92
ATOM     92  S   UNL A   1      44.931  25.830  38.356  1.00  0.00     0.124 S 
ATOM     93  O   UNL A   1      44.326  24.721  37.625  1.00  0.00    -0.237 OA
ATOM     94  O   UNL A   1      46.293  25.614  38.830  1.00  0.00    -0.237 OA
ATOM     95  O   UNL A   1      44.044  26.504  39.303  1.00  0.00    -0.744 OA
ENDBRANCH  88  92
ENDBRANCH  62  85
ENDBRANCH  36  37
ENDBRANCH  28  31
ENDBRANCH  26  27
ENDBRANCH   1  26
TORSDOF 18
ENDMDL
MODEL 2
REMARK VINA RESULT:     -11.5      3.451      8.241
REMARK SMILES CCC1(CC)CCN(C(=O)NC(CC)(CC)C(=O)NCCCNC(=O)c2ccc(-c3c4nc(c(-c5cc(S(=O)(=O)[O-])ccc5F)c5ccc([nH]5)c(-c5cc(S(=O)(=O)[O-])ccc5F)c5nc(c(-c6cc(S(=O)(=O)[O-])ccc6F)c6ccc3[nH]6)C=C5)C=C4)cc2)CC1
REMARK SMILES IDX 21 1 20 2 19 3 17 4 18 5 12 7 11 8 3 9 6 10 90 11 7 12 89 13
REMARK SMILES IDX 8 14 9 15 10 16 2 18 1 19 4 20 5 21 13 22 14 23 15 24 16 25
REMARK SMILES IDX 22 26 23 27 24 28 25 30 26 31 27 32 88 33 28 34 87 35 29 36
REMARK SMILES IDX 30 37 31 38 81 39 32 40 86 41 80 42 82 43 33 44 85 45 79 46
REMARK SMILES IDX 78 47 34 49 66 50 46 51 65 52 47 53 50 54 64 55 83 56 48 57
REMARK SMILES IDX 49 58 63 60 84 61 51 62 35 63 36 64 44 65 37 66 43 67 45 68
REMARK SMILES IDX 42 69 38 70 39 71 40 72 41 73 67 74 68 75 76 76 69 77 75 78
REMARK SMILES IDX 77 79 74 80 70 81 71 82 72 83 73 84 52 85 53 86 61 87 54 88
REMARK SMILES IDX 60 89 62 90 59 91 55 92 56 93 57 94 58 95
REMARK H PARENT 19 6 11 17 23 29 82 48 50 59
REMARK Flexibility Score: inf
ROOT
ATOM      1  C   UNL A   1      32.262  29.678  26.961  1.00  0.00     0.042 C 
ENDROOT
BRANCH   1   2
ATOM      2  C   UNL A   1      31.863  28.283  27.437  1.00  0.00     0.117 C 
BRANCH   2   3
ATOM      3  N   UNL A   1      32.316  27.236  26.538  1.00  0.00    -0.354 N 
ATOM      4  C   UNL A   1      31.559  26.927  25.429  1.00  0.00     0.245 C 
ATOM      5  O   UNL A   1      30.607  26.167  25.581  1.00  0.00    -0.272 OA
ATOM      6  H   UNL A   1      33.156  26.754  26.718  1.00  0.00     0.163 HD
BRANCH   4   7
ATOM      7  C   UNL A   1      31.981  27.550  24.060  1.00  0.00     0.120 C 
BRANCH   7   8
ATOM      8  N   UNL A   1      31.850  26.678  22.841  1.00  0.00    -0.323 N 
ATOM      9  C   UNL A   1      33.037  22.198  24.320  1.00  0.00    -0.027 C 
ATOM     10  C   UNL A   1      32.603  22.265  22.820  1.00  0.00     0.028 C 
ATOM     11  C   UNL A   1      33.047  23.656  24.874  1.00  0.00     0.028 C 
ATOM     12  C   UNL A   1      33.279  23.382  21.999  1.00  0.00     0.122 C 
ATOM     13  C   UNL A   1      33.808  24.635  23.978  1.00  0.00     0.122 C 
ATOM     14  N   UNL A   1      33.171  24.675  22.689  1.00  0.00    -0.325 N 
ATOM     15  C   UNL A   1      32.370  25.641  22.168  1.00  0.00     0.318 C 
ATOM     16  O   UNL A   1      31.979  25.574  20.994  1.00  0.00    -0.249 OA
ATOM     17  H   UNL A   1      31.069  26.995  22.334  1.00  0.00     0.166 HD
BRANCH   9  18
ATOM     18  C   UNL A   1      34.449  21.590  24.573  1.00  0.00     0.004 C 
ATOM     19  C   UNL A   1      34.986  21.612  25.994  1.00  0.00     0.004 C 
ENDBRANCH   9  18
BRANCH   9  20
ATOM     20  C   UNL A   1      31.947  21.438  25.150  1.00  0.00     0.004 C 
ATOM     21  C   UNL A   1      30.942  22.283  25.917  1.00  0.00     0.004 C 
ENDBRANCH   9  20
ENDBRANCH   7   8
BRANCH   7  22
ATOM     22  C   UNL A   1      33.438  28.126  24.109  1.00  0.00     0.035 C 
ATOM     23  C   UNL A   1      34.017  28.641  22.793  1.00  0.00     0.007 C 
ENDBRANCH   7  22
BRANCH   7  24
ATOM     24  C   UNL A   1      30.921  28.704  23.871  1.00  0.00     0.035 C 
ATOM     25  C   UNL A   1      30.227  28.753  22.502  1.00  0.00     0.007 C 
ENDBRANCH   7  24
ENDBRANCH   4   7
ENDBRANCH   2   3
ENDBRANCH   1   2
BRANCH   1  26
ATOM     26  C   UNL A   1      33.675  30.085  27.372  1.00  0.00     0.118 C 
BRANCH  26  27
ATOM     27  N   UNL A   1      33.710  31.424  27.943  1.00  0.00    -0.352 N 
ATOM     28  C   UNL A   1      34.579  31.951  28.869  1.00  0.00     0.251 C 
ATOM     29  H   UNL A   1      33.014  32.039  27.620  1.00  0.00     0.163 HD
ATOM     30  O   UNL A   1      34.290  32.996  29.440  1.00  0.00    -0.269 OA
BRANCH  28  31
ATOM     31  C   UNL A   1      35.836  31.241  29.184  1.00  0.00     0.039 A 
ATOM     32  C   UNL A   1      37.043  31.751  28.704  1.00  0.00     0.014 A 
ATOM     33  C   UNL A   1      35.822  30.069  29.945  1.00  0.00     0.014 A 
ATOM     34  C   UNL A   1      38.243  31.120  29.043  1.00  0.00     0.010 A 
ATOM     35  C   UNL A   1      37.022  29.494  30.355  1.00  0.00     0.010 A 
ATOM     36  C   UNL A   1      38.246  30.008  29.903  1.00  0.00    -0.014 A 
BRANCH  36  37
ATOM     37  C   UNL A   1      39.515  29.362  30.327  1.00  0.00     0.031 A 
ATOM     38  C   UNL A   1      40.255  29.874  31.534  1.00  0.00     0.074 A 
ATOM     39  C   UNL A   1      40.028  28.351  29.596  1.00  0.00     0.049 A 
ATOM     40  N   UNL A   1      41.411  29.499  32.018  1.00  0.00    -0.248 NA
ATOM     41  C   UNL A   1      39.621  30.973  32.278  1.00  0.00     0.031 C 
ATOM     42  C   UNL A   1      39.419  27.787  28.389  1.00  0.00     0.029 A 
ATOM     43  N   UNL A   1      41.178  27.619  29.757  1.00  0.00    -0.354 N 
ATOM     44  C   UNL A   1      41.644  30.315  33.120  1.00  0.00     0.074 A 
ATOM     45  C   UNL A   1      40.544  31.253  33.185  1.00  0.00     0.031 C 
ATOM     46  C   UNL A   1      40.184  26.781  27.939  1.00  0.00     0.029 A 
ATOM     47  C   UNL A   1      41.365  26.660  28.789  1.00  0.00     0.049 A 
ATOM     48  H   UNL A   1      41.810  27.767  30.497  1.00  0.00     0.167 HD
ATOM     49  C   UNL A   1      42.665  30.269  34.012  1.00  0.00     0.034 A 
ATOM     50  C   UNL A   1      42.379  25.792  28.599  1.00  0.00     0.034 A 
ATOM     51  C   UNL A   1      43.754  29.326  33.935  1.00  0.00     0.049 A 
ATOM     52  C   UNL A   1      43.532  25.798  29.573  1.00  0.00     0.074 A 
ATOM     53  C   UNL A   1      44.825  29.173  34.798  1.00  0.00     0.029 A 
ATOM     54  N   UNL A   1      43.917  28.379  32.932  1.00  0.00    -0.354 N 
ATOM     55  N   UNL A   1      43.717  26.552  30.632  1.00  0.00    -0.248 NA
ATOM     56  C   UNL A   1      44.606  24.827  29.331  1.00  0.00     0.031 C 
ATOM     57  C   UNL A   1      45.668  28.183  34.281  1.00  0.00     0.029 A 
ATOM     58  C   UNL A   1      45.084  27.659  33.140  1.00  0.00     0.049 A 
ATOM     59  H   UNL A   1      43.295  28.240  32.180  1.00  0.00     0.167 HD
ATOM     60  C   UNL A   1      44.910  26.118  31.202  1.00  0.00     0.074 A 
ATOM     61  C   UNL A   1      45.391  25.027  30.380  1.00  0.00     0.031 C 
ATOM     62  C   UNL A   1      45.552  26.574  32.309  1.00  0.00     0.034 A 
BRANCH  49  63
ATOM     63  C   UNL A   1      42.650  31.279  35.135  1.00  0.00     0.023 A 
ATOM     64  C   UNL A   1      43.086  32.602  34.941  1.00  0.00     0.031 A 
ATOM     65  C   UNL A   1      42.216  30.915  36.423  1.00  0.00     0.131 A 
ATOM     66  C   UNL A   1      43.154  33.487  36.027  1.00  0.00     0.055 A 
ATOM     67  C   UNL A   1      42.205  31.825  37.481  1.00  0.00     0.041 A 
ATOM     68  F   UNL A   1      41.809  29.661  36.678  1.00  0.00    -0.206 F 
ATOM     69  C   UNL A   1      42.691  33.116  37.290  1.00  0.00     0.022 A 
BRANCH  66  70
ATOM     70  S   UNL A   1      43.995  35.076  35.795  1.00  0.00     0.124 S 
ATOM     71  O   UNL A   1      44.433  34.978  34.405  1.00  0.00    -0.237 OA
ATOM     72  O   UNL A   1      42.933  36.039  36.064  1.00  0.00    -0.237 OA
ATOM     73  O   UNL A   1      45.072  35.041  36.784  1.00  0.00    -0.744 OA
ENDBRANCH  66  70
ENDBRANCH  49  63
BRANCH  50  74
ATOM     74  C   UNL A   1      42.369  24.849  27.443  1.00  0.00     0.023 A 
ATOM     75  C   UNL A   1      41.571  23.693  27.462  1.00  0.00     0.031 A 
ATOM     76  C   UNL A   1      43.205  25.051  26.330  1.00  0.00     0.131 A 
ATOM     77  C   UNL A   1      41.673  22.754  26.424  1.00  0.00     0.055 A 
ATOM     78  C   UNL A   1      43.254  24.146  25.268  1.00  0.00     0.041 A 
ATOM     79  F   UNL A   1      43.986  26.140  26.256  1.00  0.00    -0.206 F 
ATOM     80  C   UNL A   1      42.497  22.979  25.320  1.00  0.00     0.022 A 
BRANCH  77  81
ATOM     81  S   UNL A   1      40.794  21.176  26.595  1.00  0.00     0.124 S 
ATOM     82  O   UNL A   1      41.640  20.281  25.813  1.00  0.00    -0.237 OA
ATOM     83  O   UNL A   1      40.810  20.976  28.040  1.00  0.00    -0.237 OA
ATOM     84  O   UNL A   1      39.480  21.455  26.021  1.00  0.00    -0.744 OA
ENDBRANCH  77  81
ENDBRANCH  50  74
BRANCH  62  85
ATOM     85  C   UNL A   1      46.812  25.852  32.720  1.00  0.00     0.023 A 
ATOM     86  C   UNL A   1      46.793  24.794  33.646  1.00  0.00     0.031 A 
ATOM     87  C   UNL A   1      48.053  26.240  32.187  1.00  0.00     0.131 A 
ATOM     88  C   UNL A   1      47.998  24.203  34.056  1.00  0.00     0.055 A 
ATOM     89  C   UNL A   1      49.241  25.604  32.547  1.00  0.00     0.041 A 
ATOM     90  F   UNL A   1      48.132  27.247  31.301  1.00  0.00    -0.206 F 
ATOM     91  C   UNL A   1      49.219  24.588  33.498  1.00  0.00     0.022 A 
BRANCH  88  92
ATOM     92  S   UNL A   1      47.958  22.987  35.402  1.00  0.00     0.124 S 
ATOM     93  O   UNL A   1      49.377  22.721  35.613  1.00  0.00    -0.237 OA
ATOM     94  O   UNL A   1      47.281  23.719  36.466  1.00  0.00    -0.237 OA
ATOM     95  O   UNL A   1      47.198  21.873  34.834  1.00  0.00    -0.744 OA
ENDBRANCH  88  92
ENDBRANCH  62  85
ENDBRANCH  36  37
ENDBRANCH  28  31
ENDBRANCH  26  27
ENDBRANCH   1  26
TORSDOF 18
ENDMDL
MODEL 3
REMARK VINA RESULT:     -11.5      2.820      8.203
REMARK SMILES CCC1(CC)CCN(C(=O)NC(CC)(CC)C(=O)NCCCNC(=O)c2ccc(-c3c4nc(c(-c5cc(S(=O)(=O)[O-])ccc5F)c5ccc([nH]5)c(-c5cc(S(=O)(=O)[O-])ccc5F)c5nc(c(-c6cc(S(=O)(=O)[O-])ccc6F)c6ccc3[nH]6)C=C5)C=C4)cc2)CC1
REMARK SMILES IDX 21 1 20 2 19 3 17 4 18 5 12 7 11 8 3 9 6 10 90 11 7 12 89 13
REMARK SMILES IDX 8 14 9 15 10 16 2 18 1 19 4 20 5 21 13 22 14 23 15 24 16 25
REMARK SMILES IDX 22 26 23 27 24 28 25 30 26 31 27 32 88 33 28 34 87 35 29 36
REMARK SMILES IDX 30 37 31 38 81 39 32 40 86 41 80 42 82 43 33 44 85 45 79 46
REMARK SMILES IDX 78 47 34 49 66 50 46 51 65 52 47 53 50 54 64 55 83 56 48 57
REMARK SMILES IDX 49 58 63 60 84 61 51 62 35 63 36 64 44 65 37 66 43 67 45 68
REMARK SMILES IDX 42 69 38 70 39 71 40 72 41 73 67 74 68 75 76 76 69 77 75 78
REMARK SMILES IDX 77 79 74 80 70 81 71 82 72 83 73 84 52 85 53 86 61 87 54 88
REMARK SMILES IDX 60 89 62 90 59 91 55 92 56 93 57 94 58 95
REMARK H PARENT 19 6 11 17 23 29 82 48 50 59
REMARK Flexibility Score: inf
ROOT
ATOM      1  C   UNL A   1      31.728  29.692  26.740  1.00  0.00     0.042 C 
ENDROOT
BRANCH   1   2
ATOM      2  C   UNL A   1      31.758  28.388  27.535  1.00  0.00     0.117 C 
BRANCH   2   3
ATOM      3  N   UNL A   1      32.503  27.341  26.859  1.00  0.00    -0.354 N 
ATOM      4  C   UNL A   1      31.819  26.392  26.131  1.00  0.00     0.245 C 
ATOM      5  O   UNL A   1      31.338  25.441  26.740  1.00  0.00    -0.272 OA
ATOM      6  H   UNL A   1      33.485  27.309  26.919  1.00  0.00     0.163 HD
BRANCH   4   7
ATOM      7  C   UNL A   1      31.724  26.587  24.583  1.00  0.00     0.120 C 
BRANCH   7   8
ATOM      8  N   UNL A   1      31.766  25.348  23.733  1.00  0.00    -0.323 N 
ATOM      9  C   UNL A   1      35.355  22.631  25.576  1.00  0.00    -0.027 C 
ATOM     10  C   UNL A   1      34.607  21.950  24.386  1.00  0.00     0.028 C 
ATOM     11  C   UNL A   1      34.762  24.063  25.751  1.00  0.00     0.028 C 
ATOM     12  C   UNL A   1      34.412  22.845  23.145  1.00  0.00     0.122 C 
ATOM     13  C   UNL A   1      34.690  24.848  24.440  1.00  0.00     0.122 C 
ATOM     14  N   UNL A   1      33.836  24.142  23.523  1.00  0.00    -0.325 N 
ATOM     15  C   UNL A   1      32.560  24.435  23.155  1.00  0.00     0.318 C 
ATOM     16  O   UNL A   1      31.992  23.781  22.269  1.00  0.00    -0.249 OA
ATOM     17  H   UNL A   1      30.837  25.110  23.511  1.00  0.00     0.166 HD
BRANCH   9  18
ATOM     18  C   UNL A   1      36.895  22.781  25.390  1.00  0.00     0.004 C 
ATOM     19  C   UNL A   1      37.611  23.833  26.221  1.00  0.00     0.004 C 
ENDBRANCH   9  18
BRANCH   9  20
ATOM     20  C   UNL A   1      35.028  21.873  26.908  1.00  0.00     0.004 C 
ATOM     21  C   UNL A   1      33.597  21.946  27.417  1.00  0.00     0.004 C 
ENDBRANCH   9  20
ENDBRANCH   7   8
BRANCH   7  22
ATOM     22  C   UNL A   1      32.807  27.591  24.058  1.00  0.00     0.035 C 
ATOM     23  C   UNL A   1      32.314  28.728  23.165  1.00  0.00     0.007 C 
ENDBRANCH   7  22
BRANCH   7  24
ATOM     24  C   UNL A   1      30.271  27.176  24.404  1.00  0.00     0.035 C 
ATOM     25  C   UNL A   1      29.198  26.175  23.950  1.00  0.00     0.007 C 
ENDBRANCH   7  24
ENDBRANCH   4   7
ENDBRANCH   2   3
ENDBRANCH   1   2
BRANCH   1  26
ATOM     26  C   UNL A   1      33.105  30.322  26.541  1.00  0.00     0.118 C 
BRANCH  26  27
ATOM     27  N   UNL A   1      33.111  31.735  26.890  1.00  0.00    -0.352 N 
ATOM     28  C   UNL A   1      33.925  32.410  27.768  1.00  0.00     0.251 C 
ATOM     29  H   UNL A   1      32.436  32.286  26.432  1.00  0.00     0.163 HD
ATOM     30  O   UNL A   1      33.607  33.531  28.145  1.00  0.00    -0.269 OA
BRANCH  28  31
ATOM     31  C   UNL A   1      35.160  31.768  28.266  1.00  0.00     0.039 A 
ATOM     32  C   UNL A   1      36.356  32.486  28.244  1.00  0.00     0.014 A 
ATOM     33  C   UNL A   1      35.138  30.455  28.746  1.00  0.00     0.014 A 
ATOM     34  C   UNL A   1      37.517  31.910  28.766  1.00  0.00     0.010 A 
ATOM     35  C   UNL A   1      36.273  29.916  29.344  1.00  0.00     0.010 A 
ATOM     36  C   UNL A   1      37.477  30.634  29.355  1.00  0.00    -0.014 A 
BRANCH  36  37
ATOM     37  C   UNL A   1      38.687  30.029  29.972  1.00  0.00     0.031 A 
ATOM     38  C   UNL A   1      39.137  30.471  31.339  1.00  0.00     0.074 A 
ATOM     39  C   UNL A   1      39.408  29.123  29.280  1.00  0.00     0.049 A 
ATOM     40  N   UNL A   1      40.203  30.123  32.012  1.00  0.00    -0.248 NA
ATOM     41  C   UNL A   1      38.287  31.456  32.025  1.00  0.00     0.031 C 
ATOM     42  C   UNL A   1      39.091  28.638  27.935  1.00  0.00     0.029 A 
ATOM     43  N   UNL A   1      40.559  28.451  29.610  1.00  0.00    -0.354 N 
ATOM     44  C   UNL A   1      40.153  30.847  33.200  1.00  0.00     0.074 A 
ATOM     45  C   UNL A   1      38.992  31.706  33.117  1.00  0.00     0.031 C 
ATOM     46  C   UNL A   1      40.005  27.726  27.569  1.00  0.00     0.029 A 
ATOM     47  C   UNL A   1      41.004  27.599  28.625  1.00  0.00     0.049 A 
ATOM     48  H   UNL A   1      41.023  28.568  30.470  1.00  0.00     0.167 HD
ATOM     49  C   UNL A   1      40.982  30.780  34.272  1.00  0.00     0.034 A 
ATOM     50  C   UNL A   1      42.100  26.815  28.574  1.00  0.00     0.034 A 
ATOM     51  C   UNL A   1      42.136  29.916  34.339  1.00  0.00     0.049 A 
ATOM     52  C   UNL A   1      43.038  26.801  29.756  1.00  0.00     0.074 A 
ATOM     53  C   UNL A   1      43.028  29.749  35.384  1.00  0.00     0.029 A 
ATOM     54  N   UNL A   1      42.563  29.078  33.317  1.00  0.00    -0.354 N 
ATOM     55  N   UNL A   1      42.955  27.463  30.887  1.00  0.00    -0.248 NA
ATOM     56  C   UNL A   1      44.212  25.924  29.658  1.00  0.00     0.031 C 
ATOM     57  C   UNL A   1      44.029  28.864  34.970  1.00  0.00     0.029 A 
ATOM     58  C   UNL A   1      43.720  28.414  33.697  1.00  0.00     0.049 A 
ATOM     59  H   UNL A   1      42.112  28.972  32.448  1.00  0.00     0.167 HD
ATOM     60  C   UNL A   1      44.046  27.051  31.648  1.00  0.00     0.074 A 
ATOM     61  C   UNL A   1      44.760  26.073  30.855  1.00  0.00     0.031 C 
ATOM     62  C   UNL A   1      44.423  27.441  32.893  1.00  0.00     0.034 A 
BRANCH  49  63
ATOM     63  C   UNL A   1      40.672  31.678  35.445  1.00  0.00     0.023 A 
ATOM     64  C   UNL A   1      39.600  31.409  36.315  1.00  0.00     0.031 A 
ATOM     65  C   UNL A   1      41.439  32.832  35.689  1.00  0.00     0.131 A 
ATOM     66  C   UNL A   1      39.276  32.316  37.334  1.00  0.00     0.055 A 
ATOM     67  C   UNL A   1      41.165  33.686  36.759  1.00  0.00     0.041 A 
ATOM     68  F   UNL A   1      42.462  33.156  34.881  1.00  0.00    -0.206 F 
ATOM     69  C   UNL A   1      40.067  33.439  37.580  1.00  0.00     0.022 A 
BRANCH  66  70
ATOM     70  S   UNL A   1      37.720  32.084  38.236  1.00  0.00     0.124 S 
ATOM     71  O   UNL A   1      36.902  33.167  37.696  1.00  0.00    -0.237 OA
ATOM     72  O   UNL A   1      37.329  30.733  37.850  1.00  0.00    -0.237 OA
ATOM     73  O   UNL A   1      38.109  32.246  39.636  1.00  0.00    -0.744 OA
ENDBRANCH  66  70
ENDBRANCH  49  63
BRANCH  50  74
ATOM     74  C   UNL A   1      42.388  25.985  27.368  1.00  0.00     0.023 A 
ATOM     75  C   UNL A   1      41.996  24.637  27.311  1.00  0.00     0.031 A 
ATOM     76  C   UNL A   1      43.117  26.503  26.283  1.00  0.00     0.131 A 
ATOM     77  C   UNL A   1      42.388  23.839  26.225  1.00  0.00     0.055 A 
ATOM     78  C   UNL A   1      43.449  25.722  25.175  1.00  0.00     0.041 A 
ATOM     79  F   UNL A   1      43.515  27.785  26.282  1.00  0.00    -0.206 F 
ATOM     80  C   UNL A   1      43.099  24.376  25.150  1.00  0.00     0.022 A 
BRANCH  77  81
ATOM     81  S   UNL A   1      42.053  22.057  26.295  1.00  0.00     0.124 S 
ATOM     82  O   UNL A   1      42.898  21.556  25.217  1.00  0.00    -0.237 OA
ATOM     83  O   UNL A   1      42.475  21.723  27.650  1.00  0.00    -0.237 OA
ATOM     84  O   UNL A   1      40.614  21.973  26.053  1.00  0.00    -0.744 OA
ENDBRANCH  77  81
ENDBRANCH  50  74
BRANCH  62  85
ATOM     85  C   UNL A   1      45.632  26.762  33.490  1.00  0.00     0.023 A 
ATOM     86  C   UNL A   1      46.929  27.285  33.339  1.00  0.00     0.031 A 
ATOM     87  C   UNL A   1      45.484  25.563  34.209  1.00  0.00     0.131 A 
ATOM     88  C   UNL A   1      48.030  26.578  33.847  1.00  0.00     0.055 A 
ATOM     89  C   UNL A   1      46.575  24.900  34.769  1.00  0.00     0.041 A 
ATOM     90  F   UNL A   1      44.269  25.015  34.382  1.00  0.00    -0.206 F 
ATOM     91  C   UNL A   1      47.860  25.400  34.577  1.00  0.00     0.022 A 
BRANCH  88  92
ATOM     92  S   UNL A   1      49.699  27.171  33.456  1.00  0.00     0.124 S 
ATOM     93  O   UNL A   1      49.482  28.605  33.295  1.00  0.00    -0.237 OA
ATOM     94  O   UNL A   1      50.458  26.770  34.635  1.00  0.00    -0.237 OA
ATOM     95  O   UNL A   1      50.038  26.455  32.227  1.00  0.00    -0.744 OA
ENDBRANCH  88  92
ENDBRANCH  62  85
ENDBRANCH  36  37
ENDBRANCH  28  31
ENDBRANCH  26  27
ENDBRANCH   1  26
TORSDOF 18
ENDMDL
