MODEL 1
REMARK VINA RESULT:     -12.1      0.000      0.000
REMARK SMILES CCc1c(C)nn(CC(=O)N[C@H](C(=O)NCCCNC(=O)c2ccc(-c3c4nc(c(-c5cc(S(=O)(=O)[O-])ccc5F)c5ccc([nH]5)c(-c5cc(S(=O)(=O)[O-])ccc5F)c5nc(c(-c6cc(S(=O)(=O)[O-])ccc6F)c6ccc3[nH]6)C=C5)C=C4)cc2)c2c(C)n[nH]c2C)c1C
REMARK SMILES IDX 16 1 15 2 13 3 14 4 12 6 11 7 9 8 10 9 8 11 7 12 3 13 4 14
REMARK SMILES IDX 92 15 5 16 6 17 93 18 2 19 1 20 85 21 86 22 90 23 87 24
REMARK SMILES IDX 88 25 89 26 91 27 17 29 18 30 19 31 20 32 21 34 22 35 23 36
REMARK SMILES IDX 84 37 24 38 83 39 25 40 26 41 27 42 77 43 28 44 82 45 76 46
REMARK SMILES IDX 78 47 29 48 81 49 75 50 74 51 30 53 62 54 42 55 61 56 43 57
REMARK SMILES IDX 46 58 60 59 79 60 44 61 45 62 59 64 80 65 47 66 31 67 32 68
REMARK SMILES IDX 40 69 33 70 39 71 41 72 38 73 34 74 35 75 36 76 37 77 63 78
REMARK SMILES IDX 64 79 72 80 65 81 71 82 73 83 70 84 66 85 67 86 68 87 69 88
REMARK SMILES IDX 48 89 49 90 57 91 50 92 56 93 58 94 55 95 51 96 52 97 53 98
REMARK SMILES IDX 54 99
REMARK H PARENT 15 5 11 10 89 28 19 33 78 52 46 63
REMARK Flexibility Score: inf
ROOT
ATOM      1  C   UNL A   1      36.693  21.279  24.766  1.00  0.00     0.117 C 
ENDROOT
BRANCH   1   2
ATOM      2  N   UNL A   1      36.191  21.780  26.023  1.00  0.00    -0.354 N 
ATOM      3  C   UNL A   1      34.975  22.151  26.468  1.00  0.00     0.247 C 
ATOM      4  O   UNL A   1      34.783  21.576  27.563  1.00  0.00    -0.272 OA
ATOM      5  H   UNL A   1      36.893  21.872  26.707  1.00  0.00     0.163 HD
BRANCH   3   6
ATOM      6  C   UNL A   1      33.811  23.023  25.813  1.00  0.00     0.206 C 
BRANCH   6   7
ATOM      7  N   UNL A   1      33.260  22.037  24.903  1.00  0.00    -0.339 N 
ATOM      8  C   UNL A   1      33.008  22.283  23.580  1.00  0.00     0.242 C 
ATOM      9  O   UNL A   1      32.407  21.392  22.968  1.00  0.00    -0.273 OA
ATOM     10  H   UNL A   1      33.056  21.140  25.256  1.00  0.00     0.164 HD
BRANCH   8  11
ATOM     11  C   UNL A   1      33.615  23.478  22.855  1.00  0.00     0.244 C 
BRANCH  11  12
ATOM     12  N   UNL A   1      32.904  24.747  22.527  1.00  0.00    -0.260 N 
ATOM     13  C   UNL A   1      31.844  26.722  22.802  1.00  0.00    -0.004 A 
ATOM     14  C   UNL A   1      33.144  26.879  22.287  1.00  0.00     0.063 A 
ATOM     15  C   UNL A   1      31.651  25.337  22.831  1.00  0.00     0.039 A 
ATOM     16  C   UNL A   1      33.913  28.089  21.930  1.00  0.00     0.069 C 
ATOM     17  N   UNL A   1      33.752  25.710  22.094  1.00  0.00    -0.177 NA
ATOM     18  C   UNL A   1      30.268  24.798  23.091  1.00  0.00     0.066 C 
BRANCH  13  19
ATOM     19  C   UNL A   1      30.769  27.695  23.223  1.00  0.00     0.036 C 
ATOM     20  C   UNL A   1      31.086  28.717  24.282  1.00  0.00     0.009 C 
ENDBRANCH  13  19
ENDBRANCH  11  12
ENDBRANCH   8  11
ENDBRANCH   6   7
BRANCH   6  21
ATOM     21  C   UNL A   1      32.488  23.832  26.255  1.00  0.00     0.027 A 
ATOM     22  C   UNL A   1      32.610  25.293  26.229  1.00  0.00     0.065 A 
ATOM     23  C   UNL A   1      31.078  23.706  26.498  1.00  0.00     0.038 A 
ATOM     24  C   UNL A   1      33.765  26.124  25.804  1.00  0.00     0.069 C 
ATOM     25  N   UNL A   1      31.497  25.940  26.555  1.00  0.00    -0.180 NA
ATOM     26  N   UNL A   1      30.618  24.981  26.736  1.00  0.00    -0.282 N 
ATOM     27  C   UNL A   1      29.912  22.735  26.573  1.00  0.00     0.066 C 
ATOM     28  H   UNL A   1      29.694  25.162  27.023  1.00  0.00     0.190 HD
ENDBRANCH   6  21
ENDBRANCH   3   6
ENDBRANCH   1   2
BRANCH   1  29
ATOM     29  C   UNL A   1      37.788  20.218  24.938  1.00  0.00     0.042 C 
BRANCH  29  30
ATOM     30  C   UNL A   1      38.914  20.519  25.944  1.00  0.00     0.118 C 
BRANCH  30  31
ATOM     31  N   UNL A   1      39.987  19.535  25.945  1.00  0.00    -0.352 N 
ATOM     32  C   UNL A   1      41.345  19.689  26.076  1.00  0.00     0.251 C 
ATOM     33  H   UNL A   1      39.689  18.603  25.834  1.00  0.00     0.163 HD
ATOM     34  O   UNL A   1      42.074  18.703  25.883  1.00  0.00    -0.269 OA
BRANCH  32  35
ATOM     35  C   UNL A   1      41.968  20.995  26.403  1.00  0.00     0.039 A 
ATOM     36  C   UNL A   1      42.251  21.883  25.360  1.00  0.00     0.014 A 
ATOM     37  C   UNL A   1      42.331  21.337  27.709  1.00  0.00     0.014 A 
ATOM     38  C   UNL A   1      42.815  23.136  25.634  1.00  0.00     0.010 A 
ATOM     39  C   UNL A   1      42.827  22.614  27.989  1.00  0.00     0.010 A 
ATOM     40  C   UNL A   1      43.069  23.535  26.956  1.00  0.00    -0.014 A 
BRANCH  40  41
ATOM     41  C   UNL A   1      43.565  24.909  27.264  1.00  0.00     0.031 A 
ATOM     42  C   UNL A   1      42.631  25.960  27.810  1.00  0.00     0.074 A 
ATOM     43  C   UNL A   1      44.849  25.231  26.999  1.00  0.00     0.049 A 
ATOM     44  N   UNL A   1      42.866  27.221  28.073  1.00  0.00    -0.248 NA
ATOM     45  C   UNL A   1      41.246  25.544  28.071  1.00  0.00     0.031 C 
ATOM     46  C   UNL A   1      45.847  24.320  26.436  1.00  0.00     0.029 A 
ATOM     47  N   UNL A   1      45.536  26.411  27.158  1.00  0.00    -0.354 N 
ATOM     48  C   UNL A   1      41.658  27.753  28.514  1.00  0.00     0.074 A 
ATOM     49  C   UNL A   1      40.682  26.688  28.432  1.00  0.00     0.031 C 
ATOM     50  C   UNL A   1      47.018  24.965  26.317  1.00  0.00     0.029 A 
ATOM     51  C   UNL A   1      46.848  26.351  26.744  1.00  0.00     0.049 A 
ATOM     52  H   UNL A   1      45.128  27.225  27.532  1.00  0.00     0.167 HD
ATOM     53  C   UNL A   1      41.393  29.007  28.962  1.00  0.00     0.034 A 
ATOM     54  C   UNL A   1      47.804  27.301  26.692  1.00  0.00     0.034 A 
ATOM     55  C   UNL A   1      42.380  30.057  29.054  1.00  0.00     0.049 A 
ATOM     56  C   UNL A   1      47.477  28.692  27.175  1.00  0.00     0.074 A 
ATOM     57  C   UNL A   1      42.228  31.339  29.557  1.00  0.00     0.029 A 
ATOM     58  N   UNL A   1      43.697  29.957  28.625  1.00  0.00    -0.354 N 
ATOM     59  N   UNL A   1      46.343  29.159  27.645  1.00  0.00    -0.248 NA
ATOM     60  C   UNL A   1      48.562  29.681  27.134  1.00  0.00     0.031 C 
ATOM     61  C   UNL A   1      43.425  32.035  29.357  1.00  0.00     0.029 A 
ATOM     62  C   UNL A   1      44.355  31.164  28.815  1.00  0.00     0.049 A 
ATOM     63  H   UNL A   1      44.105  29.146  28.242  1.00  0.00     0.167 HD
ATOM     64  C   UNL A   1      46.590  30.487  27.984  1.00  0.00     0.074 A 
ATOM     65  C   UNL A   1      47.984  30.739  27.683  1.00  0.00     0.031 C 
ATOM     66  C   UNL A   1      45.742  31.413  28.502  1.00  0.00     0.034 A 
BRANCH  53  67
ATOM     67  C   UNL A   1      39.968  29.324  29.359  1.00  0.00     0.023 A 
ATOM     68  C   UNL A   1      39.570  29.396  30.704  1.00  0.00     0.031 A 
ATOM     69  C   UNL A   1      38.992  29.558  28.373  1.00  0.00     0.131 A 
ATOM     70  C   UNL A   1      38.222  29.625  31.026  1.00  0.00     0.055 A 
ATOM     71  C   UNL A   1      37.671  29.867  28.700  1.00  0.00     0.041 A 
ATOM     72  F   UNL A   1      39.306  29.485  27.070  1.00  0.00    -0.206 F 
ATOM     73  C   UNL A   1      37.275  29.887  30.035  1.00  0.00     0.022 A 
BRANCH  70  74
ATOM     74  S   UNL A   1      37.698  29.433  32.751  1.00  0.00     0.124 S 
ATOM     75  O   UNL A   1      36.408  30.119  32.746  1.00  0.00    -0.237 OA
ATOM     76  O   UNL A   1      37.648  27.982  32.906  1.00  0.00    -0.237 OA
ATOM     77  O   UNL A   1      38.750  30.105  33.507  1.00  0.00    -0.744 OA
ENDBRANCH  70  74
ENDBRANCH  53  67
BRANCH  54  78
ATOM     78  C   UNL A   1      49.156  26.988  26.141  1.00  0.00     0.023 A 
ATOM     79  C   UNL A   1      49.528  27.388  24.848  1.00  0.00     0.031 A 
ATOM     80  C   UNL A   1      50.082  26.235  26.886  1.00  0.00     0.131 A 
ATOM     81  C   UNL A   1      50.764  26.986  24.317  1.00  0.00     0.055 A 
ATOM     82  C   UNL A   1      51.337  25.891  26.377  1.00  0.00     0.041 A 
ATOM     83  F   UNL A   1      49.783  25.827  28.130  1.00  0.00    -0.206 F 
ATOM     84  C   UNL A   1      51.677  26.254  25.078  1.00  0.00     0.022 A 
BRANCH  81  85
ATOM     85  S   UNL A   1      51.121  27.347  22.575  1.00  0.00     0.124 S 
ATOM     86  O   UNL A   1      49.953  26.783  21.911  1.00  0.00    -0.237 OA
ATOM     87  O   UNL A   1      51.216  28.803  22.582  1.00  0.00    -0.237 OA
ATOM     88  O   UNL A   1      52.379  26.644  22.334  1.00  0.00    -0.744 OA
ENDBRANCH  81  85
ENDBRANCH  54  78
BRANCH  66  89
ATOM     89  C   UNL A   1      46.318  32.773  28.820  1.00  0.00     0.023 A 
ATOM     90  C   UNL A   1      46.332  33.815  27.875  1.00  0.00     0.031 A 
ATOM     91  C   UNL A   1      46.876  33.026  30.087  1.00  0.00     0.131 A 
ATOM     92  C   UNL A   1      46.945  35.037  28.190  1.00  0.00     0.055 A 
ATOM     93  C   UNL A   1      47.423  34.266  30.417  1.00  0.00     0.041 A 
ATOM     94  F   UNL A   1      46.897  32.067  31.028  1.00  0.00    -0.206 F 
ATOM     95  C   UNL A   1      47.473  35.276  29.461  1.00  0.00     0.022 A 
BRANCH  92  96
ATOM     96  S   UNL A   1      47.138  36.277  26.880  1.00  0.00     0.124 S 
ATOM     97  O   UNL A   1      46.583  37.471  27.509  1.00  0.00    -0.237 OA
ATOM     98  O   UNL A   1      48.582  36.283  26.666  1.00  0.00    -0.237 OA
ATOM     99  O   UNL A   1      46.350  35.735  25.774  1.00  0.00    -0.744 OA
ENDBRANCH  92  96
ENDBRANCH  66  89
ENDBRANCH  40  41
ENDBRANCH  32  35
ENDBRANCH  30  31
ENDBRANCH  29  30
ENDBRANCH   1  29
TORSDOF 18
ENDMDL
MODEL 2
REMARK VINA RESULT:     -11.6      2.066      2.994
REMARK SMILES CCc1c(C)nn(CC(=O)N[C@H](C(=O)NCCCNC(=O)c2ccc(-c3c4nc(c(-c5cc(S(=O)(=O)[O-])ccc5F)c5ccc([nH]5)c(-c5cc(S(=O)(=O)[O-])ccc5F)c5nc(c(-c6cc(S(=O)(=O)[O-])ccc6F)c6ccc3[nH]6)C=C5)C=C4)cc2)c2c(C)n[nH]c2C)c1C
REMARK SMILES IDX 16 1 15 2 13 3 14 4 12 6 11 7 9 8 10 9 8 11 7 12 3 13 4 14
REMARK SMILES IDX 92 15 5 16 6 17 93 18 2 19 1 20 85 21 86 22 90 23 87 24
REMARK SMILES IDX 88 25 89 26 91 27 17 29 18 30 19 31 20 32 21 34 22 35 23 36
REMARK SMILES IDX 84 37 24 38 83 39 25 40 26 41 27 42 77 43 28 44 82 45 76 46
REMARK SMILES IDX 78 47 29 48 81 49 75 50 74 51 30 53 62 54 42 55 61 56 43 57
REMARK SMILES IDX 46 58 60 59 79 60 44 61 45 62 59 64 80 65 47 66 31 67 32 68
REMARK SMILES IDX 40 69 33 70 39 71 41 72 38 73 34 74 35 75 36 76 37 77 63 78
REMARK SMILES IDX 64 79 72 80 65 81 71 82 73 83 70 84 66 85 67 86 68 87 69 88
REMARK SMILES IDX 48 89 49 90 57 91 50 92 56 93 58 94 55 95 51 96 52 97 53 98
REMARK SMILES IDX 54 99
REMARK H PARENT 15 5 11 10 89 28 19 33 78 52 46 63
REMARK Flexibility Score: inf
ROOT
ATOM      1  C   UNL A   1      35.632  23.029  23.268  1.00  0.00     0.117 C 
ENDROOT
BRANCH   1   2
ATOM      2  N   UNL A   1      34.374  22.360  23.500  1.00  0.00    -0.354 N 
ATOM      3  C   UNL A   1      33.083  22.721  23.381  1.00  0.00     0.247 C 
ATOM      4  O   UNL A   1      32.499  21.825  22.734  1.00  0.00    -0.272 OA
ATOM      5  H   UNL A   1      34.486  21.434  23.815  1.00  0.00     0.163 HD
BRANCH   3   6
ATOM      6  C   UNL A   1      32.295  24.048  23.791  1.00  0.00     0.206 C 
BRANCH   6   7
ATOM      7  N   UNL A   1      31.836  24.464  22.479  1.00  0.00    -0.339 N 
ATOM      8  C   UNL A   1      32.142  25.674  21.918  1.00  0.00     0.242 C 
ATOM      9  O   UNL A   1      31.561  25.943  20.859  1.00  0.00    -0.273 OA
ATOM     10  H   UNL A   1      31.271  23.842  21.965  1.00  0.00     0.164 HD
BRANCH   8  11
ATOM     11  C   UNL A   1      33.281  26.539  22.444  1.00  0.00     0.244 C 
BRANCH  11  12
ATOM     12  N   UNL A   1      33.129  27.739  23.316  1.00  0.00    -0.260 N 
ATOM     13  C   UNL A   1      32.316  29.122  24.905  1.00  0.00    -0.004 A 
ATOM     14  C   UNL A   1      33.546  28.546  25.274  1.00  0.00     0.063 A 
ATOM     15  C   UNL A   1      32.120  28.698  23.587  1.00  0.00     0.039 A 
ATOM     16  C   UNL A   1      34.355  28.676  26.505  1.00  0.00     0.069 C 
ATOM     17  N   UNL A   1      34.038  27.759  24.320  1.00  0.00    -0.177 NA
ATOM     18  C   UNL A   1      31.020  29.328  22.773  1.00  0.00     0.066 C 
BRANCH  13  19
ATOM     19  C   UNL A   1      31.344  30.037  25.611  1.00  0.00     0.036 C 
ATOM     20  C   UNL A   1      31.884  31.126  26.500  1.00  0.00     0.009 C 
ENDBRANCH  13  19
ENDBRANCH  11  12
ENDBRANCH   8  11
ENDBRANCH   6   7
BRANCH   6  21
ATOM     21  C   UNL A   1      31.064  24.503  24.727  1.00  0.00     0.027 A 
ATOM     22  C   UNL A   1      31.119  24.022  26.111  1.00  0.00     0.065 A 
ATOM     23  C   UNL A   1      29.953  25.407  24.824  1.00  0.00     0.038 A 
ATOM     24  C   UNL A   1      32.177  23.218  26.776  1.00  0.00     0.069 C 
ATOM     25  N   UNL A   1      30.119  24.442  26.876  1.00  0.00    -0.180 NA
ATOM     26  N   UNL A   1      29.431  25.234  26.085  1.00  0.00    -0.282 N 
ATOM     27  C   UNL A   1      29.155  26.478  24.099  1.00  0.00     0.066 C 
ATOM     28  H   UNL A   1      28.599  25.673  26.376  1.00  0.00     0.190 HD
ENDBRANCH   6  21
ENDBRANCH   3   6
ENDBRANCH   1   2
BRANCH   1  29
ATOM     29  C   UNL A   1      36.839  22.232  23.782  1.00  0.00     0.042 C 
BRANCH  29  30
ATOM     30  C   UNL A   1      36.819  21.790  25.256  1.00  0.00     0.118 C 
BRANCH  30  31
ATOM     31  N   UNL A   1      37.811  20.776  25.585  1.00  0.00    -0.352 N 
ATOM     32  C   UNL A   1      39.088  20.895  26.076  1.00  0.00     0.251 C 
ATOM     33  H   UNL A   1      37.517  19.849  25.429  1.00  0.00     0.163 HD
ATOM     34  O   UNL A   1      39.801  19.881  26.124  1.00  0.00    -0.269 OA
BRANCH  32  35
ATOM     35  C   UNL A   1      39.650  22.195  26.516  1.00  0.00     0.039 A 
ATOM     36  C   UNL A   1      40.739  22.192  27.395  1.00  0.00     0.014 A 
ATOM     37  C   UNL A   1      39.091  23.415  26.126  1.00  0.00     0.014 A 
ATOM     38  C   UNL A   1      41.313  23.400  27.811  1.00  0.00     0.010 A 
ATOM     39  C   UNL A   1      39.709  24.618  26.484  1.00  0.00     0.010 A 
ATOM     40  C   UNL A   1      40.833  24.627  27.326  1.00  0.00    -0.014 A 
BRANCH  40  41
ATOM     41  C   UNL A   1      41.509  25.912  27.676  1.00  0.00     0.031 A 
ATOM     42  C   UNL A   1      40.771  26.991  28.428  1.00  0.00     0.074 A 
ATOM     43  C   UNL A   1      42.777  26.132  27.267  1.00  0.00     0.049 A 
ATOM     44  N   UNL A   1      41.173  28.192  28.760  1.00  0.00    -0.248 NA
ATOM     45  C   UNL A   1      39.393  26.687  28.839  1.00  0.00     0.031 C 
ATOM     46  C   UNL A   1      43.591  25.187  26.501  1.00  0.00     0.029 A 
ATOM     47  N   UNL A   1      43.602  27.220  27.428  1.00  0.00    -0.354 N 
ATOM     48  C   UNL A   1      40.095  28.794  29.403  1.00  0.00     0.074 A 
ATOM     49  C   UNL A   1      39.007  27.840  29.366  1.00  0.00     0.031 C 
ATOM     50  C   UNL A   1      44.800  25.725  26.277  1.00  0.00     0.029 A 
ATOM     51  C   UNL A   1      44.837  27.073  26.836  1.00  0.00     0.049 A 
ATOM     52  H   UNL A   1      43.335  28.030  27.920  1.00  0.00     0.167 HD
ATOM     53  C   UNL A   1      40.026  30.018  29.985  1.00  0.00     0.034 A 
ATOM     54  C   UNL A   1      45.876  27.927  26.734  1.00  0.00     0.034 A 
ATOM     55  C   UNL A   1      41.125  30.954  30.029  1.00  0.00     0.049 A 
ATOM     56  C   UNL A   1      45.766  29.291  27.370  1.00  0.00     0.074 A 
ATOM     57  C   UNL A   1      41.177  32.191  30.651  1.00  0.00     0.029 A 
ATOM     58  N   UNL A   1      42.358  30.769  29.418  1.00  0.00    -0.354 N 
ATOM     59  N   UNL A   1      44.757  29.817  28.026  1.00  0.00    -0.248 NA
ATOM     60  C   UNL A   1      46.937  30.169  27.264  1.00  0.00     0.031 C 
ATOM     61  C   UNL A   1      42.407  32.784  30.349  1.00  0.00     0.029 A 
ATOM     62  C   UNL A   1      43.161  31.884  29.616  1.00  0.00     0.049 A 
ATOM     63  H   UNL A   1      42.624  29.963  28.918  1.00  0.00     0.167 HD
ATOM     64  C   UNL A   1      45.187  31.077  28.436  1.00  0.00     0.074 A 
ATOM     65  C   UNL A   1      46.551  31.220  27.972  1.00  0.00     0.031 C 
ATOM     66  C   UNL A   1      44.517  32.026  29.139  1.00  0.00     0.034 A 
BRANCH  53  67
ATOM     67  C   UNL A   1      38.705  30.431  30.595  1.00  0.00     0.023 A 
ATOM     68  C   UNL A   1      37.717  31.096  29.848  1.00  0.00     0.031 A 
ATOM     69  C   UNL A   1      38.430  30.156  31.948  1.00  0.00     0.131 A 
ATOM     70  C   UNL A   1      36.534  31.523  30.473  1.00  0.00     0.055 A 
ATOM     71  C   UNL A   1      37.218  30.511  32.542  1.00  0.00     0.041 A 
ATOM     72  F   UNL A   1      39.342  29.542  32.718  1.00  0.00    -0.206 F 
ATOM     73  C   UNL A   1      36.266  31.212  31.807  1.00  0.00     0.022 A 
BRANCH  70  74
ATOM     74  S   UNL A   1      35.415  32.615  29.555  1.00  0.00     0.124 S 
ATOM     75  O   UNL A   1      36.291  33.742  29.244  1.00  0.00    -0.237 OA
ATOM     76  O   UNL A   1      35.020  31.782  28.424  1.00  0.00    -0.237 OA
ATOM     77  O   UNL A   1      34.355  32.906  30.515  1.00  0.00    -0.744 OA
ENDBRANCH  70  74
ENDBRANCH  53  67
BRANCH  54  78
ATOM     78  C   UNL A   1      47.106  27.540  25.981  1.00  0.00     0.023 A 
ATOM     79  C   UNL A   1      47.267  27.871  24.627  1.00  0.00     0.031 A 
ATOM     80  C   UNL A   1      48.120  26.781  26.596  1.00  0.00     0.131 A 
ATOM     81  C   UNL A   1      48.384  27.400  23.917  1.00  0.00     0.055 A 
ATOM     82  C   UNL A   1      49.259  26.368  25.902  1.00  0.00     0.041 A 
ATOM     83  F   UNL A   1      48.021  26.437  27.890  1.00  0.00    -0.206 F 
ATOM     84  C   UNL A   1      49.388  26.665  24.549  1.00  0.00     0.022 A 
BRANCH  81  85
ATOM     85  S   UNL A   1      48.454  27.676  22.125  1.00  0.00     0.124 S 
ATOM     86  O   UNL A   1      49.592  28.578  22.009  1.00  0.00    -0.237 OA
ATOM     87  O   UNL A   1      48.653  26.321  21.619  1.00  0.00    -0.237 OA
ATOM     88  O   UNL A   1      47.152  28.267  21.822  1.00  0.00    -0.744 OA
ENDBRANCH  81  85
ENDBRANCH  54  78
BRANCH  66  89
ATOM     89  C   UNL A   1      45.272  33.287  29.488  1.00  0.00     0.023 A 
ATOM     90  C   UNL A   1      45.267  34.415  28.646  1.00  0.00     0.031 A 
ATOM     91  C   UNL A   1      46.022  33.357  30.676  1.00  0.00     0.131 A 
ATOM     92  C   UNL A   1      46.044  35.536  28.973  1.00  0.00     0.055 A 
ATOM     93  C   UNL A   1      46.738  34.501  31.031  1.00  0.00     0.041 A 
ATOM     94  F   UNL A   1      46.069  32.310  31.516  1.00  0.00    -0.206 F 
ATOM     95  C   UNL A   1      46.764  35.594  30.170  1.00  0.00     0.022 A 
BRANCH  92  96
ATOM     96  S   UNL A   1      46.187  36.880  27.763  1.00  0.00     0.124 S 
ATOM     97  O   UNL A   1      46.319  36.146  26.510  1.00  0.00    -0.237 OA
ATOM     98  O   UNL A   1      44.932  37.602  27.950  1.00  0.00    -0.237 OA
ATOM     99  O   UNL A   1      47.386  37.600  28.190  1.00  0.00    -0.744 OA
ENDBRANCH  92  96
ENDBRANCH  66  89
ENDBRANCH  40  41
ENDBRANCH  32  35
ENDBRANCH  30  31
ENDBRANCH  29  30
ENDBRANCH   1  29
TORSDOF 18
ENDMDL
MODEL 3
REMARK VINA RESULT:     -11.5      1.541      7.518
REMARK SMILES CCc1c(C)nn(CC(=O)N[C@H](C(=O)NCCCNC(=O)c2ccc(-c3c4nc(c(-c5cc(S(=O)(=O)[O-])ccc5F)c5ccc([nH]5)c(-c5cc(S(=O)(=O)[O-])ccc5F)c5nc(c(-c6cc(S(=O)(=O)[O-])ccc6F)c6ccc3[nH]6)C=C5)C=C4)cc2)c2c(C)n[nH]c2C)c1C
REMARK SMILES IDX 16 1 15 2 13 3 14 4 12 6 11 7 9 8 10 9 8 11 7 12 3 13 4 14
REMARK SMILES IDX 92 15 5 16 6 17 93 18 2 19 1 20 85 21 86 22 90 23 87 24
REMARK SMILES IDX 88 25 89 26 91 27 17 29 18 30 19 31 20 32 21 34 22 35 23 36
REMARK SMILES IDX 84 37 24 38 83 39 25 40 26 41 27 42 77 43 28 44 82 45 76 46
REMARK SMILES IDX 78 47 29 48 81 49 75 50 74 51 30 53 62 54 42 55 61 56 43 57
REMARK SMILES IDX 46 58 60 59 79 60 44 61 45 62 59 64 80 65 47 66 31 67 32 68
REMARK SMILES IDX 40 69 33 70 39 71 41 72 38 73 34 74 35 75 36 76 37 77 63 78
REMARK SMILES IDX 64 79 72 80 65 81 71 82 73 83 70 84 66 85 67 86 68 87 69 88
REMARK SMILES IDX 48 89 49 90 57 91 50 92 56 93 58 94 55 95 51 96 52 97 53 98
REMARK SMILES IDX 54 99
REMARK H PARENT 15 5 11 10 89 28 19 33 78 52 46 63
REMARK Flexibility Score: inf
ROOT
ATOM      1  C   UNL A   1      36.597  20.962  24.763  1.00  0.00     0.117 C 
ENDROOT
BRANCH   1   2
ATOM      2  N   UNL A   1      36.150  21.515  26.019  1.00  0.00    -0.354 N 
ATOM      3  C   UNL A   1      34.965  21.956  26.482  1.00  0.00     0.247 C 
ATOM      4  O   UNL A   1      34.770  21.417  27.593  1.00  0.00    -0.272 OA
ATOM      5  H   UNL A   1      36.872  21.586  26.684  1.00  0.00     0.163 HD
BRANCH   3   6
ATOM      6  C   UNL A   1      33.831  22.872  25.832  1.00  0.00     0.206 C 
BRANCH   6   7
ATOM      7  N   UNL A   1      33.237  21.906  24.927  1.00  0.00    -0.339 N 
ATOM      8  C   UNL A   1      32.946  22.175  23.617  1.00  0.00     0.242 C 
ATOM      9  O   UNL A   1      32.313  21.301  23.012  1.00  0.00    -0.273 OA
ATOM     10  H   UNL A   1      33.032  21.008  25.274  1.00  0.00     0.164 HD
BRANCH   8  11
ATOM     11  C   UNL A   1      33.546  23.371  22.889  1.00  0.00     0.244 C 
BRANCH  11  12
ATOM     12  N   UNL A   1      32.837  24.647  22.584  1.00  0.00    -0.260 N 
ATOM     13  C   UNL A   1      31.781  26.619  22.894  1.00  0.00    -0.004 A 
ATOM     14  C   UNL A   1      33.081  26.782  22.379  1.00  0.00     0.063 A 
ATOM     15  C   UNL A   1      31.585  25.234  22.900  1.00  0.00     0.039 A 
ATOM     16  C   UNL A   1      33.851  27.997  22.041  1.00  0.00     0.069 C 
ATOM     17  N   UNL A   1      33.685  25.616  22.165  1.00  0.00    -0.177 NA
ATOM     18  C   UNL A   1      30.202  24.694  23.154  1.00  0.00     0.066 C 
BRANCH  13  19
ATOM     19  C   UNL A   1      30.709  27.587  23.333  1.00  0.00     0.036 C 
ATOM     20  C   UNL A   1      30.272  28.670  22.383  1.00  0.00     0.009 C 
ENDBRANCH  13  19
ENDBRANCH  11  12
ENDBRANCH   8  11
ENDBRANCH   6   7
BRANCH   6  21
ATOM     21  C   UNL A   1      32.543  23.732  26.281  1.00  0.00     0.027 A 
ATOM     22  C   UNL A   1      32.718  25.187  26.244  1.00  0.00     0.065 A 
ATOM     23  C   UNL A   1      31.132  23.659  26.539  1.00  0.00     0.038 A 
ATOM     24  C   UNL A   1      33.899  25.972  25.803  1.00  0.00     0.069 C 
ATOM     25  N   UNL A   1      31.633  25.876  26.576  1.00  0.00    -0.180 NA
ATOM     26  N   UNL A   1      30.721  24.952  26.772  1.00  0.00    -0.282 N 
ATOM     27  C   UNL A   1      29.931  22.732  26.630  1.00  0.00     0.066 C 
ATOM     28  H   UNL A   1      29.807  25.168  27.067  1.00  0.00     0.190 HD
ENDBRANCH   6  21
ENDBRANCH   3   6
ENDBRANCH   1   2
BRANCH   1  29
ATOM     29  C   UNL A   1      37.787  20.006  24.918  1.00  0.00     0.042 C 
BRANCH  29  30
ATOM     30  C   UNL A   1      38.837  20.352  25.989  1.00  0.00     0.118 C 
BRANCH  30  31
ATOM     31  N   UNL A   1      40.019  19.501  25.959  1.00  0.00    -0.352 N 
ATOM     32  C   UNL A   1      41.349  19.807  26.106  1.00  0.00     0.251 C 
ATOM     33  H   UNL A   1      39.832  18.546  25.808  1.00  0.00     0.163 HD
ATOM     34  O   UNL A   1      42.189  18.922  25.879  1.00  0.00    -0.269 OA
BRANCH  32  35
ATOM     35  C   UNL A   1      41.813  21.162  26.490  1.00  0.00     0.039 A 
ATOM     36  C   UNL A   1      42.018  22.112  25.484  1.00  0.00     0.014 A 
ATOM     37  C   UNL A   1      42.106  21.497  27.815  1.00  0.00     0.014 A 
ATOM     38  C   UNL A   1      42.431  23.410  25.812  1.00  0.00     0.010 A 
ATOM     39  C   UNL A   1      42.449  22.812  28.148  1.00  0.00     0.010 A 
ATOM     40  C   UNL A   1      42.609  23.788  27.152  1.00  0.00    -0.014 A 
BRANCH  40  41
ATOM     41  C   UNL A   1      42.940  25.198  27.516  1.00  0.00     0.031 A 
ATOM     42  C   UNL A   1      44.351  25.716  27.385  1.00  0.00     0.074 A 
ATOM     43  C   UNL A   1      41.979  26.001  28.021  1.00  0.00     0.049 A 
ATOM     44  N   UNL A   1      44.837  26.887  27.715  1.00  0.00    -0.248 NA
ATOM     45  C   UNL A   1      45.348  24.789  26.834  1.00  0.00     0.031 C 
ATOM     46  C   UNL A   1      40.584  25.613  28.234  1.00  0.00     0.029 A 
ATOM     47  N   UNL A   1      42.027  27.305  28.454  1.00  0.00    -0.354 N 
ATOM     48  C   UNL A   1      46.198  26.832  27.427  1.00  0.00     0.074 A 
ATOM     49  C   UNL A   1      46.465  25.494  26.945  1.00  0.00     0.031 C 
ATOM     50  C   UNL A   1      39.906  26.657  28.735  1.00  0.00     0.029 A 
ATOM     51  C   UNL A   1      40.823  27.776  28.931  1.00  0.00     0.049 A 
ATOM     52  H   UNL A   1      42.845  27.851  28.427  1.00  0.00     0.167 HD
ATOM     53  C   UNL A   1      47.131  27.811  27.537  1.00  0.00     0.034 A 
ATOM     54  C   UNL A   1      40.493  28.963  29.481  1.00  0.00     0.034 A 
ATOM     55  C   UNL A   1      46.848  29.148  28.005  1.00  0.00     0.049 A 
ATOM     56  C   UNL A   1      41.555  30.027  29.613  1.00  0.00     0.074 A 
ATOM     57  C   UNL A   1      47.709  30.230  28.090  1.00  0.00     0.029 A 
ATOM     58  N   UNL A   1      45.618  29.586  28.478  1.00  0.00    -0.354 N 
ATOM     59  N   UNL A   1      42.824  29.973  29.279  1.00  0.00    -0.248 NA
ATOM     60  C   UNL A   1      41.137  31.314  30.183  1.00  0.00     0.031 C 
ATOM     61  C   UNL A   1      47.023  31.293  28.688  1.00  0.00     0.029 A 
ATOM     62  C   UNL A   1      45.709  30.907  28.893  1.00  0.00     0.049 A 
ATOM     63  H   UNL A   1      44.800  29.038  28.514  1.00  0.00     0.167 HD
ATOM     64  C   UNL A   1      43.346  31.231  29.571  1.00  0.00     0.074 A 
ATOM     65  C   UNL A   1      42.251  32.025  30.088  1.00  0.00     0.031 C 
ATOM     66  C   UNL A   1      44.615  31.690  29.419  1.00  0.00     0.034 A 
BRANCH  53  67
ATOM     67  C   UNL A   1      48.558  27.464  27.176  1.00  0.00     0.023 A 
ATOM     68  C   UNL A   1      49.091  27.742  25.906  1.00  0.00     0.031 A 
ATOM     69  C   UNL A   1      49.400  26.845  28.119  1.00  0.00     0.131 A 
ATOM     70  C   UNL A   1      50.400  27.340  25.590  1.00  0.00     0.055 A 
ATOM     71  C   UNL A   1      50.726  26.522  27.826  1.00  0.00     0.041 A 
ATOM     72  F   UNL A   1      48.942  26.536  29.343  1.00  0.00    -0.206 F 
ATOM     73  C   UNL A   1      51.229  26.756  26.550  1.00  0.00     0.022 A 
BRANCH  70  74
ATOM     74  S   UNL A   1      50.953  27.461  23.868  1.00  0.00     0.124 S 
ATOM     75  O   UNL A   1      52.168  26.650  23.890  1.00  0.00    -0.237 OA
ATOM     76  O   UNL A   1      49.823  26.899  23.134  1.00  0.00    -0.237 OA
ATOM     77  O   UNL A   1      51.171  28.892  23.677  1.00  0.00    -0.744 OA
ENDBRANCH  70  74
ENDBRANCH  53  67
BRANCH  54  78
ATOM     78  C   UNL A   1      39.106  29.211  29.976  1.00  0.00     0.023 A 
ATOM     79  C   UNL A   1      38.167  29.905  29.196  1.00  0.00     0.031 A 
ATOM     80  C   UNL A   1      38.716  28.803  31.265  1.00  0.00     0.131 A 
ATOM     81  C   UNL A   1      36.907  30.218  29.730  1.00  0.00     0.055 A 
ATOM     82  C   UNL A   1      37.439  29.063  31.768  1.00  0.00     0.041 A 
ATOM     83  F   UNL A   1      39.571  28.134  32.054  1.00  0.00    -0.206 F 
ATOM     84  C   UNL A   1      36.531  29.789  31.004  1.00  0.00     0.022 A 
BRANCH  81  85
ATOM     85  S   UNL A   1      35.799  31.289  28.772  1.00  0.00     0.124 S 
ATOM     86  O   UNL A   1      34.922  31.814  29.811  1.00  0.00    -0.237 OA
ATOM     87  O   UNL A   1      36.735  32.240  28.180  1.00  0.00    -0.237 OA
ATOM     88  O   UNL A   1      35.170  30.367  27.828  1.00  0.00    -0.744 OA
ENDBRANCH  81  85
ENDBRANCH  54  78
BRANCH  66  89
ATOM     89  C   UNL A   1      44.873  33.135  29.775  1.00  0.00     0.023 A 
ATOM     90  C   UNL A   1      44.698  34.175  28.843  1.00  0.00     0.031 A 
ATOM     91  C   UNL A   1      45.316  33.478  31.066  1.00  0.00     0.131 A 
ATOM     92  C   UNL A   1      45.022  35.493  29.195  1.00  0.00     0.055 A 
ATOM     93  C   UNL A   1      45.571  34.800  31.432  1.00  0.00     0.041 A 
ATOM     94  F   UNL A   1      45.506  32.528  31.997  1.00  0.00    -0.206 F 
ATOM     95  C   UNL A   1      45.439  35.816  30.490  1.00  0.00     0.022 A 
BRANCH  92  96
ATOM     96  S   UNL A   1      44.994  36.771  27.908  1.00  0.00     0.124 S 
ATOM     97  O   UNL A   1      43.582  37.135  27.874  1.00  0.00    -0.237 OA
ATOM     98  O   UNL A   1      45.899  37.779  28.449  1.00  0.00    -0.237 OA
ATOM     99  O   UNL A   1      45.483  36.072  26.720  1.00  0.00    -0.744 OA
ENDBRANCH  92  96
ENDBRANCH  66  89
ENDBRANCH  40  41
ENDBRANCH  32  35
ENDBRANCH  30  31
ENDBRANCH  29  30
ENDBRANCH   1  29
TORSDOF 18
ENDMDL
