MODEL 1
REMARK VINA RESULT:     -11.3      0.000      0.000
REMARK SMILES CC(C)[C@@H](NC(=O)[C@@](C)([NH3+])C(F)(F)F)C(=O)NCCCNC(=O)c1ccc(-c2c3nc(c(-c4cc(S(=O)(=O)[O-])ccc4F)c4ccc([nH]4)c(-c4cc(S(=O)(=O)[O-])ccc4F)c4nc(c(-c5cc(S(=O)(=O)[O-])ccc5F)c5ccc2[nH]5)C=C4)C=C3)cc1
REMARK SMILES IDX 19 1 18 2 17 3 15 4 16 5 4 7 2 8 1 9 3 10 5 11 6 12 7 14
REMARK SMILES IDX 8 15 9 16 10 17 11 21 12 22 13 23 14 24 20 25 21 26 22 27
REMARK SMILES IDX 23 29 24 30 25 31 86 32 26 33 85 34 27 35 28 36 29 37 79 38
REMARK SMILES IDX 30 39 84 40 78 41 80 42 31 43 83 44 77 45 76 46 32 48 64 49
REMARK SMILES IDX 44 50 63 51 45 52 48 53 62 54 81 55 46 56 47 57 61 59 82 60
REMARK SMILES IDX 49 61 33 62 34 63 42 64 35 65 41 66 43 67 40 68 36 69 37 70
REMARK SMILES IDX 38 71 39 72 65 73 66 74 74 75 67 76 73 77 75 78 72 79 68 80
REMARK SMILES IDX 69 81 70 82 71 83 50 84 51 85 59 86 52 87 58 88 60 89 57 90
REMARK SMILES IDX 53 91 54 92 55 93 56 94
REMARK H PARENT 17 6 5 13 10 18 10 19 10 20 21 28 80 47 48 58
REMARK Flexibility Score: inf
ROOT
ATOM      1  C   UNL A   1      31.707  28.878  26.687  1.00  0.00     0.042 C 
ENDROOT
BRANCH   1   2
ATOM      2  C   UNL A   1      31.470  27.690  25.780  1.00  0.00     0.117 C 
BRANCH   2   3
ATOM      3  N   UNL A   1      31.054  26.507  26.518  1.00  0.00    -0.354 N 
ATOM      4  C   UNL A   1      31.590  25.255  26.478  1.00  0.00     0.242 C 
ATOM      5  O   UNL A   1      31.298  24.465  27.381  1.00  0.00    -0.273 OA
ATOM      6  H   UNL A   1      30.287  26.627  27.124  1.00  0.00     0.163 HD
BRANCH   4   7
ATOM      7  C   UNL A   1      32.462  24.813  25.297  1.00  0.00     0.174 C 
BRANCH   7   8
ATOM      8  C   UNL A   1      33.831  25.566  25.389  1.00  0.00     0.015 C 
ATOM      9  C   UNL A   1      35.024  24.619  25.546  1.00  0.00     0.010 C 
ATOM     10  C   UNL A   1      34.090  26.487  24.185  1.00  0.00     0.010 C 
ENDBRANCH   7   8
BRANCH   7  11
ATOM     11  N   UNL A   1      32.634  23.351  25.282  1.00  0.00    -0.338 N 
ATOM     12  C   UNL A   1      32.700  22.425  24.277  1.00  0.00     0.291 C 
ATOM     13  H   UNL A   1      32.718  22.958  26.181  1.00  0.00     0.164 HD
ATOM     14  O   UNL A   1      33.178  21.343  24.640  1.00  0.00    -0.267 OA
BRANCH  12  15
ATOM     15  C   UNL A   1      32.120  22.609  22.848  1.00  0.00     0.267 C 
ATOM     16  C   UNL A   1      31.942  21.262  22.125  1.00  0.00     0.100 C 
BRANCH  15  17
ATOM     17  N   UNL A   1      30.798  23.322  22.888  1.00  0.00    -0.337 N 
ATOM     18  H   UNL A   1      30.726  23.951  22.089  1.00  0.00     0.345 HD
ATOM     19  H   UNL A   1      30.727  23.861  23.752  1.00  0.00     0.345 HD
ATOM     20  H   UNL A   1      30.042  22.638  22.852  1.00  0.00     0.345 HD
ENDBRANCH  15  17
BRANCH  15  21
ATOM     21  C   UNL A   1      33.210  23.380  22.033  1.00  0.00     0.453 C 
ATOM     22  F   UNL A   1      32.944  24.698  21.899  1.00  0.00    -0.164 F 
ATOM     23  F   UNL A   1      34.454  23.238  22.542  1.00  0.00    -0.164 F 
ATOM     24  F   UNL A   1      33.262  22.874  20.765  1.00  0.00    -0.164 F 
ENDBRANCH  15  21
ENDBRANCH  12  15
ENDBRANCH   7  11
ENDBRANCH   4   7
ENDBRANCH   2   3
ENDBRANCH   1   2
BRANCH   1  25
ATOM     25  C   UNL A   1      32.666  29.899  26.098  1.00  0.00     0.118 C 
BRANCH  25  26
ATOM     26  N   UNL A   1      32.452  31.255  26.589  1.00  0.00    -0.352 N 
ATOM     27  C   UNL A   1      33.286  32.024  27.371  1.00  0.00     0.251 C 
ATOM     28  H   UNL A   1      31.601  31.676  26.328  1.00  0.00     0.163 HD
ATOM     29  O   UNL A   1      32.918  33.119  27.783  1.00  0.00    -0.269 OA
BRANCH  27  30
ATOM     30  C   UNL A   1      34.603  31.473  27.749  1.00  0.00     0.039 A 
ATOM     31  C   UNL A   1      35.664  32.350  27.972  1.00  0.00     0.014 A 
ATOM     32  C   UNL A   1      34.736  30.110  28.020  1.00  0.00     0.014 A 
ATOM     33  C   UNL A   1      36.828  31.872  28.577  1.00  0.00     0.010 A 
ATOM     34  C   UNL A   1      35.846  29.664  28.724  1.00  0.00     0.010 A 
ATOM     35  C   UNL A   1      36.904  30.539  29.019  1.00  0.00    -0.014 A 
BRANCH  35  36
ATOM     36  C   UNL A   1      38.069  30.038  29.796  1.00  0.00     0.031 A 
ATOM     37  C   UNL A   1      38.290  30.528  31.203  1.00  0.00     0.074 A 
ATOM     38  C   UNL A   1      38.974  29.226  29.209  1.00  0.00     0.049 A 
ATOM     39  N   UNL A   1      39.304  30.321  32.001  1.00  0.00    -0.248 NA
ATOM     40  C   UNL A   1      37.252  31.406  31.767  1.00  0.00     0.031 C 
ATOM     41  C   UNL A   1      38.910  28.740  27.826  1.00  0.00     0.029 A 
ATOM     42  N   UNL A   1      40.135  28.677  29.692  1.00  0.00    -0.354 N 
ATOM     43  C   UNL A   1      39.045  31.074  33.142  1.00  0.00     0.074 A 
ATOM     44  C   UNL A   1      37.809  31.786  32.906  1.00  0.00     0.031 C 
ATOM     45  C   UNL A   1      39.966  27.946  27.586  1.00  0.00     0.029 A 
ATOM     46  C   UNL A   1      40.809  27.900  28.776  1.00  0.00     0.049 A 
ATOM     47  H   UNL A   1      40.457  28.823  30.611  1.00  0.00     0.167 HD
ATOM     48  C   UNL A   1      39.761  31.144  34.292  1.00  0.00     0.034 A 
ATOM     49  C   UNL A   1      41.980  27.238  28.878  1.00  0.00     0.034 A 
ATOM     50  C   UNL A   1      40.958  30.381  34.534  1.00  0.00     0.049 A 
ATOM     51  C   UNL A   1      42.730  27.294  30.186  1.00  0.00     0.074 A 
ATOM     52  C   UNL A   1      41.706  30.300  35.695  1.00  0.00     0.029 A 
ATOM     53  N   UNL A   1      41.579  29.562  33.601  1.00  0.00    -0.354 N 
ATOM     54  N   UNL A   1      42.432  27.956  31.281  1.00  0.00    -0.248 NA
ATOM     55  C   UNL A   1      43.965  26.505  30.278  1.00  0.00     0.031 C 
ATOM     56  C   UNL A   1      42.808  29.476  35.448  1.00  0.00     0.029 A 
ATOM     57  C   UNL A   1      42.713  28.991  34.154  1.00  0.00     0.049 A 
ATOM     58  H   UNL A   1      41.260  29.410  32.683  1.00  0.00     0.167 HD
ATOM     59  C   UNL A   1      43.427  27.636  32.199  1.00  0.00     0.074 A 
ATOM     60  C   UNL A   1      44.323  26.711  31.537  1.00  0.00     0.031 C 
ATOM     61  C   UNL A   1      43.591  28.067  33.476  1.00  0.00     0.034 A 
BRANCH  48  62
ATOM     62  C   UNL A   1      39.268  32.082  35.364  1.00  0.00     0.023 A 
ATOM     63  C   UNL A   1      39.699  33.418  35.435  1.00  0.00     0.031 A 
ATOM     64  C   UNL A   1      38.362  31.630  36.339  1.00  0.00     0.131 A 
ATOM     65  C   UNL A   1      39.279  34.234  36.496  1.00  0.00     0.055 A 
ATOM     66  C   UNL A   1      37.886  32.470  37.348  1.00  0.00     0.041 A 
ATOM     67  F   UNL A   1      37.931  30.359  36.334  1.00  0.00    -0.206 F 
ATOM     68  C   UNL A   1      38.355  33.777  37.439  1.00  0.00     0.022 A 
BRANCH  65  69
ATOM     69  S   UNL A   1      40.051  35.862  36.694  1.00  0.00     0.124 S 
ATOM     70  O   UNL A   1      39.648  36.530  35.460  1.00  0.00    -0.237 OA
ATOM     71  O   UNL A   1      39.435  36.358  37.919  1.00  0.00    -0.237 OA
ATOM     72  O   UNL A   1      41.476  35.555  36.793  1.00  0.00    -0.744 OA
ENDBRANCH  65  69
ENDBRANCH  48  62
BRANCH  49  73
ATOM     73  C   UNL A   1      42.532  26.473  27.722  1.00  0.00     0.023 A 
ATOM     74  C   UNL A   1      42.115  25.158  27.459  1.00  0.00     0.031 A 
ATOM     75  C   UNL A   1      43.533  27.021  26.901  1.00  0.00     0.131 A 
ATOM     76  C   UNL A   1      42.738  24.413  26.444  1.00  0.00     0.055 A 
ATOM     77  C   UNL A   1      44.112  26.295  25.857  1.00  0.00     0.041 A 
ATOM     78  F   UNL A   1      43.964  28.277  27.101  1.00  0.00    -0.206 F 
ATOM     79  C   UNL A   1      43.726  24.977  25.634  1.00  0.00     0.022 A 
BRANCH  76  80
ATOM     80  S   UNL A   1      42.314  22.658  26.270  1.00  0.00     0.124 S 
ATOM     81  O   UNL A   1      42.895  22.339  24.972  1.00  0.00    -0.237 OA
ATOM     82  O   UNL A   1      42.977  22.073  27.431  1.00  0.00    -0.237 OA
ATOM     83  O   UNL A   1      40.854  22.655  26.320  1.00  0.00    -0.744 OA
ENDBRANCH  76  80
ENDBRANCH  49  73
BRANCH  61  84
ATOM     84  C   UNL A   1      44.754  27.499  34.246  1.00  0.00     0.023 A 
ATOM     85  C   UNL A   1      44.614  26.364  35.061  1.00  0.00     0.031 A 
ATOM     86  C   UNL A   1      46.019  28.107  34.161  1.00  0.00     0.131 A 
ATOM     87  C   UNL A   1      45.710  25.901  35.803  1.00  0.00     0.055 A 
ATOM     88  C   UNL A   1      47.119  27.609  34.860  1.00  0.00     0.041 A 
ATOM     89  F   UNL A   1      46.205  29.195  33.396  1.00  0.00    -0.206 F 
ATOM     90  C   UNL A   1      46.965  26.507  35.696  1.00  0.00     0.022 A 
BRANCH  87  91
ATOM     91  S   UNL A   1      45.454  24.541  36.975  1.00  0.00     0.124 S 
ATOM     92  O   UNL A   1      45.136  23.429  36.084  1.00  0.00    -0.237 OA
ATOM     93  O   UNL A   1      46.744  24.466  37.653  1.00  0.00    -0.237 OA
ATOM     94  O   UNL A   1      44.345  25.007  37.805  1.00  0.00    -0.744 OA
ENDBRANCH  87  91
ENDBRANCH  61  84
ENDBRANCH  35  36
ENDBRANCH  27  30
ENDBRANCH  25  26
ENDBRANCH   1  25
TORSDOF 18
ENDMDL
MODEL 2
REMARK VINA RESULT:     -11.2      3.249      8.534
REMARK SMILES CC(C)[C@@H](NC(=O)[C@@](C)([NH3+])C(F)(F)F)C(=O)NCCCNC(=O)c1ccc(-c2c3nc(c(-c4cc(S(=O)(=O)[O-])ccc4F)c4ccc([nH]4)c(-c4cc(S(=O)(=O)[O-])ccc4F)c4nc(c(-c5cc(S(=O)(=O)[O-])ccc5F)c5ccc2[nH]5)C=C4)C=C3)cc1
REMARK SMILES IDX 19 1 18 2 17 3 15 4 16 5 4 7 2 8 1 9 3 10 5 11 6 12 7 14
REMARK SMILES IDX 8 15 9 16 10 17 11 21 12 22 13 23 14 24 20 25 21 26 22 27
REMARK SMILES IDX 23 29 24 30 25 31 86 32 26 33 85 34 27 35 28 36 29 37 79 38
REMARK SMILES IDX 30 39 84 40 78 41 80 42 31 43 83 44 77 45 76 46 32 48 64 49
REMARK SMILES IDX 44 50 63 51 45 52 48 53 62 54 81 55 46 56 47 57 61 59 82 60
REMARK SMILES IDX 49 61 33 62 34 63 42 64 35 65 41 66 43 67 40 68 36 69 37 70
REMARK SMILES IDX 38 71 39 72 65 73 66 74 74 75 67 76 73 77 75 78 72 79 68 80
REMARK SMILES IDX 69 81 70 82 71 83 50 84 51 85 59 86 52 87 58 88 60 89 57 90
REMARK SMILES IDX 53 91 54 92 55 93 56 94
REMARK H PARENT 17 6 5 13 10 18 10 19 10 20 21 28 80 47 48 58
REMARK Flexibility Score: inf
ROOT
ATOM      1  C   UNL A   1      32.369  31.174  26.883  1.00  0.00     0.042 C 
ENDROOT
BRANCH   1   2
ATOM      2  C   UNL A   1      33.015  29.851  26.534  1.00  0.00     0.117 C 
BRANCH   2   3
ATOM      3  N   UNL A   1      32.118  28.725  26.748  1.00  0.00    -0.354 N 
ATOM      4  C   UNL A   1      31.468  27.974  25.817  1.00  0.00     0.242 C 
ATOM      5  O   UNL A   1      30.991  26.891  26.168  1.00  0.00    -0.273 OA
ATOM      6  H   UNL A   1      31.961  28.475  27.688  1.00  0.00     0.163 HD
BRANCH   4   7
ATOM      7  C   UNL A   1      31.258  28.501  24.392  1.00  0.00     0.174 C 
BRANCH   7   8
ATOM      8  C   UNL A   1      32.345  27.858  23.466  1.00  0.00     0.015 C 
ATOM      9  C   UNL A   1      31.750  26.937  22.398  1.00  0.00     0.010 C 
ATOM     10  C   UNL A   1      33.237  28.902  22.774  1.00  0.00     0.010 C 
ENDBRANCH   7   8
BRANCH   7  11
ATOM     11  N   UNL A   1      29.893  28.223  23.918  1.00  0.00    -0.338 N 
ATOM     12  C   UNL A   1      28.956  28.975  23.263  1.00  0.00     0.291 C 
ATOM     13  H   UNL A   1      29.590  27.307  24.114  1.00  0.00     0.164 HD
ATOM     14  O   UNL A   1      28.059  28.297  22.747  1.00  0.00    -0.267 OA
BRANCH  12  15
ATOM     15  C   UNL A   1      28.898  30.527  23.255  1.00  0.00     0.267 C 
ATOM     16  C   UNL A   1      27.518  31.050  23.691  1.00  0.00     0.100 C 
BRANCH  15  17
ATOM     17  N   UNL A   1      29.950  31.113  24.154  1.00  0.00    -0.337 N 
ATOM     18  H   UNL A   1      30.213  30.427  24.862  1.00  0.00     0.345 HD
ATOM     19  H   UNL A   1      29.582  31.948  24.610  1.00  0.00     0.345 HD
ATOM     20  H   UNL A   1      30.770  31.362  23.601  1.00  0.00     0.345 HD
ENDBRANCH  15  17
BRANCH  15  21
ATOM     21  C   UNL A   1      29.055  30.961  21.761  1.00  0.00     0.453 C 
ATOM     22  F   UNL A   1      29.323  32.277  21.612  1.00  0.00    -0.164 F 
ATOM     23  F   UNL A   1      29.994  30.251  21.097  1.00  0.00    -0.164 F 
ATOM     24  F   UNL A   1      27.879  30.738  21.103  1.00  0.00    -0.164 F 
ENDBRANCH  15  21
ENDBRANCH  12  15
ENDBRANCH   7  11
ENDBRANCH   4   7
ENDBRANCH   2   3
ENDBRANCH   1   2
BRANCH   1  25
ATOM     25  C   UNL A   1      33.326  32.152  27.543  1.00  0.00     0.118 C 
BRANCH  25  26
ATOM     26  N   UNL A   1      32.789  33.501  27.671  1.00  0.00    -0.352 N 
ATOM     27  C   UNL A   1      33.191  34.506  28.525  1.00  0.00     0.251 C 
ATOM     28  H   UNL A   1      32.043  33.724  27.070  1.00  0.00     0.163 HD
ATOM     29  O   UNL A   1      32.572  35.563  28.578  1.00  0.00    -0.269 OA
BRANCH  27  30
ATOM     30  C   UNL A   1      34.345  34.256  29.414  1.00  0.00     0.039 A 
ATOM     31  C   UNL A   1      34.124  33.668  30.659  1.00  0.00     0.014 A 
ATOM     32  C   UNL A   1      35.642  34.471  28.946  1.00  0.00     0.014 A 
ATOM     33  C   UNL A   1      35.214  33.192  31.390  1.00  0.00     0.010 A 
ATOM     34  C   UNL A   1      36.710  33.894  29.621  1.00  0.00     0.010 A 
ATOM     35  C   UNL A   1      36.510  33.240  30.847  1.00  0.00    -0.014 A 
BRANCH  35  36
ATOM     36  C   UNL A   1      37.670  32.610  31.534  1.00  0.00     0.031 A 
ATOM     37  C   UNL A   1      38.405  31.480  30.866  1.00  0.00     0.074 A 
ATOM     38  C   UNL A   1      37.997  32.986  32.789  1.00  0.00     0.049 A 
ATOM     39  N   UNL A   1      39.350  30.711  31.340  1.00  0.00    -0.248 NA
ATOM     40  C   UNL A   1      37.987  31.137  29.496  1.00  0.00     0.031 C 
ATOM     41  C   UNL A   1      37.314  34.021  33.573  1.00  0.00     0.029 A 
ATOM     42  N   UNL A   1      38.977  32.533  33.636  1.00  0.00    -0.354 N 
ATOM     43  C   UNL A   1      39.610  29.774  30.346  1.00  0.00     0.074 A 
ATOM     44  C   UNL A   1      38.682  30.035  29.268  1.00  0.00     0.031 C 
ATOM     45  C   UNL A   1      37.913  34.140  34.769  1.00  0.00     0.029 A 
ATOM     46  C   UNL A   1      38.991  33.162  34.862  1.00  0.00     0.049 A 
ATOM     47  H   UNL A   1      39.614  31.822  33.390  1.00  0.00     0.167 HD
ATOM     48  C   UNL A   1      40.554  28.801  30.324  1.00  0.00     0.034 A 
ATOM     49  C   UNL A   1      39.776  32.964  35.941  1.00  0.00     0.034 A 
ATOM     50  C   UNL A   1      41.511  28.594  31.380  1.00  0.00     0.049 A 
ATOM     51  C   UNL A   1      40.851  31.908  35.870  1.00  0.00     0.074 A 
ATOM     52  C   UNL A   1      42.570  27.704  31.419  1.00  0.00     0.029 A 
ATOM     53  N   UNL A   1      41.529  29.288  32.582  1.00  0.00    -0.354 N 
ATOM     54  N   UNL A   1      41.127  31.076  34.891  1.00  0.00    -0.248 NA
ATOM     55  C   UNL A   1      41.726  31.770  37.041  1.00  0.00     0.031 C 
ATOM     56  C   UNL A   1      43.195  27.823  32.664  1.00  0.00     0.029 A 
ATOM     57  C   UNL A   1      42.566  28.832  33.377  1.00  0.00     0.049 A 
ATOM     58  H   UNL A   1      40.897  30.001  32.831  1.00  0.00     0.167 HD
ATOM     59  C   UNL A   1      42.228  30.341  35.319  1.00  0.00     0.074 A 
ATOM     60  C   UNL A   1      42.575  30.837  36.635  1.00  0.00     0.031 C 
ATOM     61  C   UNL A   1      42.896  29.344  34.685  1.00  0.00     0.034 A 
BRANCH  48  62
ATOM     62  C   UNL A   1      40.587  27.888  29.124  1.00  0.00     0.023 A 
ATOM     63  C   UNL A   1      41.524  28.059  28.090  1.00  0.00     0.031 A 
ATOM     64  C   UNL A   1      39.659  26.839  29.007  1.00  0.00     0.131 A 
ATOM     65  C   UNL A   1      41.467  27.238  26.953  1.00  0.00     0.055 A 
ATOM     66  C   UNL A   1      39.659  25.976  27.909  1.00  0.00     0.041 A 
ATOM     67  F   UNL A   1      38.729  26.640  29.954  1.00  0.00    -0.206 F 
ATOM     68  C   UNL A   1      40.558  26.182  26.867  1.00  0.00     0.022 A 
BRANCH  65  69
ATOM     69  S   UNL A   1      42.521  27.650  25.536  1.00  0.00     0.124 S 
ATOM     70  O   UNL A   1      42.389  26.450  24.715  1.00  0.00    -0.237 OA
ATOM     71  O   UNL A   1      41.889  28.855  25.011  1.00  0.00    -0.237 OA
ATOM     72  O   UNL A   1      43.839  27.846  26.135  1.00  0.00    -0.744 OA
ENDBRANCH  65  69
ENDBRANCH  48  62
BRANCH  49  73
ATOM     73  C   UNL A   1      39.582  33.764  37.186  1.00  0.00     0.023 A 
ATOM     74  C   UNL A   1      38.948  33.211  38.310  1.00  0.00     0.031 A 
ATOM     75  C   UNL A   1      39.968  35.115  37.248  1.00  0.00     0.131 A 
ATOM     76  C   UNL A   1      38.663  34.017  39.424  1.00  0.00     0.055 A 
ATOM     77  C   UNL A   1      39.732  35.899  38.379  1.00  0.00     0.041 A 
ATOM     78  F   UNL A   1      40.585  35.694  36.206  1.00  0.00    -0.206 F 
ATOM     79  C   UNL A   1      39.061  35.355  39.470  1.00  0.00     0.022 A 
BRANCH  76  80
ATOM     80  S   UNL A   1      37.666  33.320  40.770  1.00  0.00     0.124 S 
ATOM     81  O   UNL A   1      36.949  34.495  41.248  1.00  0.00    -0.237 OA
ATOM     82  O   UNL A   1      36.868  32.322  40.064  1.00  0.00    -0.237 OA
ATOM     83  O   UNL A   1      38.666  32.779  41.688  1.00  0.00    -0.744 OA
ENDBRANCH  76  80
ENDBRANCH  49  73
BRANCH  61  84
ATOM     84  C   UNL A   1      44.094  28.766  35.392  1.00  0.00     0.023 A 
ATOM     85  C   UNL A   1      43.963  27.751  36.354  1.00  0.00     0.031 A 
ATOM     86  C   UNL A   1      45.383  29.242  35.097  1.00  0.00     0.131 A 
ATOM     87  C   UNL A   1      45.099  27.280  37.028  1.00  0.00     0.055 A 
ATOM     88  C   UNL A   1      46.515  28.731  35.731  1.00  0.00     0.041 A 
ATOM     89  F   UNL A   1      45.562  30.211  34.185  1.00  0.00    -0.206 F 
ATOM     90  C   UNL A   1      46.376  27.752  36.711  1.00  0.00     0.022 A 
BRANCH  87  91
ATOM     91  S   UNL A   1      44.878  26.095  38.382  1.00  0.00     0.124 S 
ATOM     92  O   UNL A   1      46.200  26.090  39.000  1.00  0.00    -0.237 OA
ATOM     93  O   UNL A   1      43.811  26.709  39.165  1.00  0.00    -0.237 OA
ATOM     94  O   UNL A   1      44.509  24.857  37.698  1.00  0.00    -0.744 OA
ENDBRANCH  87  91
ENDBRANCH  61  84
ENDBRANCH  35  36
ENDBRANCH  27  30
ENDBRANCH  25  26
ENDBRANCH   1  25
TORSDOF 18
ENDMDL
MODEL 3
REMARK VINA RESULT:     -11.2      2.252      3.146
REMARK SMILES CC(C)[C@@H](NC(=O)[C@@](C)([NH3+])C(F)(F)F)C(=O)NCCCNC(=O)c1ccc(-c2c3nc(c(-c4cc(S(=O)(=O)[O-])ccc4F)c4ccc([nH]4)c(-c4cc(S(=O)(=O)[O-])ccc4F)c4nc(c(-c5cc(S(=O)(=O)[O-])ccc5F)c5ccc2[nH]5)C=C4)C=C3)cc1
REMARK SMILES IDX 19 1 18 2 17 3 15 4 16 5 4 7 2 8 1 9 3 10 5 11 6 12 7 14
REMARK SMILES IDX 8 15 9 16 10 17 11 21 12 22 13 23 14 24 20 25 21 26 22 27
REMARK SMILES IDX 23 29 24 30 25 31 86 32 26 33 85 34 27 35 28 36 29 37 79 38
REMARK SMILES IDX 30 39 84 40 78 41 80 42 31 43 83 44 77 45 76 46 32 48 64 49
REMARK SMILES IDX 44 50 63 51 45 52 48 53 62 54 81 55 46 56 47 57 61 59 82 60
REMARK SMILES IDX 49 61 33 62 34 63 42 64 35 65 41 66 43 67 40 68 36 69 37 70
REMARK SMILES IDX 38 71 39 72 65 73 66 74 74 75 67 76 73 77 75 78 72 79 68 80
REMARK SMILES IDX 69 81 70 82 71 83 50 84 51 85 59 86 52 87 58 88 60 89 57 90
REMARK SMILES IDX 53 91 54 92 55 93 56 94
REMARK H PARENT 17 6 5 13 10 18 10 19 10 20 21 28 80 47 48 58
REMARK Flexibility Score: inf
ROOT
ATOM      1  C   UNL A   1      32.872  29.859  25.441  1.00  0.00     0.042 C 
ENDROOT
BRANCH   1   2
ATOM      2  C   UNL A   1      33.094  28.366  25.333  1.00  0.00     0.117 C 
BRANCH   2   3
ATOM      3  N   UNL A   1      31.974  27.602  25.864  1.00  0.00    -0.354 N 
ATOM      4  C   UNL A   1      31.007  26.934  25.177  1.00  0.00     0.242 C 
ATOM      5  O   UNL A   1      30.320  26.109  25.787  1.00  0.00    -0.273 OA
ATOM      6  H   UNL A   1      31.908  27.564  26.846  1.00  0.00     0.163 HD
BRANCH   4   7
ATOM      7  C   UNL A   1      30.721  27.261  23.706  1.00  0.00     0.174 C 
BRANCH   7   8
ATOM      8  C   UNL A   1      31.102  26.012  22.843  1.00  0.00     0.015 C 
ATOM      9  C   UNL A   1      32.612  25.772  22.774  1.00  0.00     0.010 C 
ATOM     10  C   UNL A   1      30.420  24.721  23.324  1.00  0.00     0.010 C 
ENDBRANCH   7   8
BRANCH   7  11
ATOM     11  N   UNL A   1      29.317  27.660  23.514  1.00  0.00    -0.338 N 
ATOM     12  C   UNL A   1      28.721  28.725  22.895  1.00  0.00     0.291 C 
ATOM     13  H   UNL A   1      28.674  27.032  23.914  1.00  0.00     0.164 HD
ATOM     14  O   UNL A   1      27.521  28.543  22.657  1.00  0.00    -0.267 OA
BRANCH  12  15
ATOM     15  C   UNL A   1      29.397  30.097  22.623  1.00  0.00     0.267 C 
ATOM     16  C   UNL A   1      29.740  30.834  23.930  1.00  0.00     0.100 C 
BRANCH  15  17
ATOM     17  N   UNL A   1      30.650  29.932  21.810  1.00  0.00    -0.337 N 
ATOM     18  H   UNL A   1      31.105  29.055  22.062  1.00  0.00     0.345 HD
ATOM     19  H   UNL A   1      31.282  30.710  21.998  1.00  0.00     0.345 HD
ATOM     20  H   UNL A   1      30.412  29.920  20.819  1.00  0.00     0.345 HD
ENDBRANCH  15  17
BRANCH  15  21
ATOM     21  C   UNL A   1      28.317  30.981  21.917  1.00  0.00     0.453 C 
ATOM     22  F   UNL A   1      27.776  30.393  20.828  1.00  0.00    -0.164 F 
ATOM     23  F   UNL A   1      27.318  31.362  22.744  1.00  0.00    -0.164 F 
ATOM     24  F   UNL A   1      28.900  32.134  21.474  1.00  0.00    -0.164 F 
ENDBRANCH  15  21
ENDBRANCH  12  15
ENDBRANCH   7  11
ENDBRANCH   4   7
ENDBRANCH   2   3
ENDBRANCH   1   2
BRANCH   1  25
ATOM     25  C   UNL A   1      32.375  30.292  26.811  1.00  0.00     0.118 C 
BRANCH  25  26
ATOM     26  N   UNL A   1      32.384  31.737  27.007  1.00  0.00    -0.352 N 
ATOM     27  C   UNL A   1      33.390  32.525  27.522  1.00  0.00     0.251 C 
ATOM     28  H   UNL A   1      31.565  32.211  26.736  1.00  0.00     0.163 HD
ATOM     29  O   UNL A   1      33.207  33.723  27.712  1.00  0.00    -0.269 OA
BRANCH  27  30
ATOM     30  C   UNL A   1      34.668  31.883  27.894  1.00  0.00     0.039 A 
ATOM     31  C   UNL A   1      35.810  32.673  28.019  1.00  0.00     0.014 A 
ATOM     32  C   UNL A   1      34.689  30.535  28.255  1.00  0.00     0.014 A 
ATOM     33  C   UNL A   1      36.950  32.132  28.616  1.00  0.00     0.010 A 
ATOM     34  C   UNL A   1      35.784  30.037  28.952  1.00  0.00     0.010 A 
ATOM     35  C   UNL A   1      36.925  30.831  29.148  1.00  0.00    -0.014 A 
BRANCH  35  36
ATOM     36  C   UNL A   1      38.072  30.279  29.919  1.00  0.00     0.031 A 
ATOM     37  C   UNL A   1      38.297  30.727  31.339  1.00  0.00     0.074 A 
ATOM     38  C   UNL A   1      38.958  29.458  29.317  1.00  0.00     0.049 A 
ATOM     39  N   UNL A   1      39.300  30.474  32.138  1.00  0.00    -0.248 NA
ATOM     40  C   UNL A   1      37.280  31.620  31.919  1.00  0.00     0.031 C 
ATOM     41  C   UNL A   1      38.889  29.007  27.922  1.00  0.00     0.029 A 
ATOM     42  N   UNL A   1      40.101  28.865  29.793  1.00  0.00    -0.354 N 
ATOM     43  C   UNL A   1      39.055  31.205  33.295  1.00  0.00     0.074 A 
ATOM     44  C   UNL A   1      37.839  31.956  33.070  1.00  0.00     0.031 C 
ATOM     45  C   UNL A   1      39.925  28.191  27.669  1.00  0.00     0.029 A 
ATOM     46  C   UNL A   1      40.759  28.093  28.861  1.00  0.00     0.049 A 
ATOM     47  H   UNL A   1      40.421  28.980  30.717  1.00  0.00     0.167 HD
ATOM     48  C   UNL A   1      39.764  31.227  34.450  1.00  0.00     0.034 A 
ATOM     49  C   UNL A   1      41.911  27.396  28.953  1.00  0.00     0.034 A 
ATOM     50  C   UNL A   1      40.939  30.426  34.680  1.00  0.00     0.049 A 
ATOM     51  C   UNL A   1      42.654  27.400  30.267  1.00  0.00     0.074 A 
ATOM     52  C   UNL A   1      41.677  30.296  35.843  1.00  0.00     0.029 A 
ATOM     53  N   UNL A   1      41.544  29.614  33.731  1.00  0.00    -0.354 N 
ATOM     54  N   UNL A   1      42.367  28.043  31.376  1.00  0.00    -0.248 NA
ATOM     55  C   UNL A   1      43.867  26.575  30.346  1.00  0.00     0.031 C 
ATOM     56  C   UNL A   1      42.759  29.449  35.582  1.00  0.00     0.029 A 
ATOM     57  C   UNL A   1      42.658  28.998  34.275  1.00  0.00     0.049 A 
ATOM     58  H   UNL A   1      41.226  29.493  32.807  1.00  0.00     0.167 HD
ATOM     59  C   UNL A   1      43.348  27.673  32.292  1.00  0.00     0.074 A 
ATOM     60  C   UNL A   1      44.222  26.741  31.612  1.00  0.00     0.031 C 
ATOM     61  C   UNL A   1      43.515  28.068  33.579  1.00  0.00     0.034 A 
BRANCH  48  62
ATOM     62  C   UNL A   1      39.290  32.152  35.543  1.00  0.00     0.023 A 
ATOM     63  C   UNL A   1      39.712  33.491  35.614  1.00  0.00     0.031 A 
ATOM     64  C   UNL A   1      38.414  31.683  36.536  1.00  0.00     0.131 A 
ATOM     65  C   UNL A   1      39.311  34.294  36.693  1.00  0.00     0.055 A 
ATOM     66  C   UNL A   1      37.956  32.510  37.564  1.00  0.00     0.041 A 
ATOM     67  F   UNL A   1      37.994  30.408  36.531  1.00  0.00    -0.206 F 
ATOM     68  C   UNL A   1      38.416  33.820  37.655  1.00  0.00     0.022 A 
BRANCH  65  69
ATOM     69  S   UNL A   1      40.074  35.927  36.885  1.00  0.00     0.124 S 
ATOM     70  O   UNL A   1      39.759  36.551  35.603  1.00  0.00    -0.237 OA
ATOM     71  O   UNL A   1      39.377  36.467  38.047  1.00  0.00    -0.237 OA
ATOM     72  O   UNL A   1      41.488  35.623  37.092  1.00  0.00    -0.744 OA
ENDBRANCH  65  69
ENDBRANCH  48  62
BRANCH  49  73
ATOM     73  C   UNL A   1      42.448  26.646  27.782  1.00  0.00     0.023 A 
ATOM     74  C   UNL A   1      42.060  25.319  27.532  1.00  0.00     0.031 A 
ATOM     75  C   UNL A   1      43.411  27.220  26.932  1.00  0.00     0.131 A 
ATOM     76  C   UNL A   1      42.673  24.591  26.499  1.00  0.00     0.055 A 
ATOM     77  C   UNL A   1      43.977  26.508  25.871  1.00  0.00     0.041 A 
ATOM     78  F   UNL A   1      43.813  28.487  27.119  1.00  0.00    -0.206 F 
ATOM     79  C   UNL A   1      43.621  25.180  25.661  1.00  0.00     0.022 A 
BRANCH  76  80
ATOM     80  S   UNL A   1      42.291  22.825  26.338  1.00  0.00     0.124 S 
ATOM     81  O   UNL A   1      43.120  22.244  27.387  1.00  0.00    -0.237 OA
ATOM     82  O   UNL A   1      40.851  22.807  26.574  1.00  0.00    -0.237 OA
ATOM     83  O   UNL A   1      42.701  22.513  24.971  1.00  0.00    -0.744 OA
ENDBRANCH  76  80
ENDBRANCH  49  73
BRANCH  61  84
ATOM     84  C   UNL A   1      44.657  27.450  34.341  1.00  0.00     0.023 A 
ATOM     85  C   UNL A   1      44.492  26.274  35.093  1.00  0.00     0.031 A 
ATOM     86  C   UNL A   1      45.928  28.050  34.315  1.00  0.00     0.131 A 
ATOM     87  C   UNL A   1      45.568  25.763  35.831  1.00  0.00     0.055 A 
ATOM     88  C   UNL A   1      47.009  27.506  35.008  1.00  0.00     0.041 A 
ATOM     89  F   UNL A   1      46.139  29.174  33.612  1.00  0.00    -0.206 F 
ATOM     90  C   UNL A   1      46.830  26.362  35.781  1.00  0.00     0.022 A 
BRANCH  87  91
ATOM     91  S   UNL A   1      45.277  24.345  36.924  1.00  0.00     0.124 S 
ATOM     92  O   UNL A   1      44.665  23.382  36.014  1.00  0.00    -0.237 OA
ATOM     93  O   UNL A   1      46.625  24.022  37.382  1.00  0.00    -0.237 OA
ATOM     94  O   UNL A   1      44.387  24.881  37.952  1.00  0.00    -0.744 OA
ENDBRANCH  87  91
ENDBRANCH  61  84
ENDBRANCH  35  36
ENDBRANCH  27  30
ENDBRANCH  25  26
ENDBRANCH   1  25
TORSDOF 18
ENDMDL
