MODEL 1
REMARK VINA RESULT:     -12.8      0.000      0.000
REMARK SMILES O=C(NCCCNC(=O)c1ccc2nc(C3CCCCC3)[nH]c2c1)c1ccc(-c2c3nc(c(-c4cc(S(=O)(=O)[O-])ccc4F)c4ccc([nH]4)c(-c4cc(S(=O)(=O)[O-])ccc4F)c4nc(c(-c5cc(S(=O)(=O)[O-])ccc5F)c5ccc2[nH]5)C=C4)C=C3)cc1
REMARK SMILES IDX 4 1 3 2 1 3 2 4 25 6 26 7 87 8 27 9 86 10 28 11 29 12 30 13
REMARK SMILES IDX 80 14 31 15 85 16 79 17 81 18 32 19 84 20 78 21 77 22 33 24
REMARK SMILES IDX 65 25 45 26 64 27 46 28 49 29 63 30 82 31 47 32 48 33 62 35
REMARK SMILES IDX 83 36 50 37 34 38 35 39 43 40 36 41 42 42 44 43 41 44 37 45
REMARK SMILES IDX 38 46 39 47 40 48 66 49 67 50 75 51 68 52 74 53 76 54 73 55
REMARK SMILES IDX 69 56 70 57 71 58 72 59 51 60 52 61 60 62 53 63 59 64 61 65
REMARK SMILES IDX 58 66 54 67 55 68 56 69 57 70 5 71 6 72 7 73 8 74 9 76 10 77
REMARK SMILES IDX 11 78 24 79 12 80 23 81 13 82 22 83 14 84 15 85 16 87 17 88
REMARK SMILES IDX 21 89 18 90 20 91 19 92
REMARK H PARENT 3 5 81 23 49 34 7 75 22 86
REMARK Flexibility Score: inf
ROOT
ATOM      1  C   UNL A   1      36.429  22.330  25.676  1.00  0.00     0.118 C 
ENDROOT
BRANCH   1   2
ATOM      2  N   UNL A   1      37.495  21.335  25.713  1.00  0.00    -0.352 N 
ATOM      3  O   UNL A   1      39.582  20.506  25.817  1.00  0.00    -0.269 OA
ATOM      4  C   UNL A   1      38.830  21.459  26.016  1.00  0.00     0.251 C 
ATOM      5  H   UNL A   1      37.211  20.422  25.483  1.00  0.00     0.163 HD
BRANCH   4   6
ATOM      6  C   UNL A   1      39.372  22.727  26.556  1.00  0.00     0.039 A 
ATOM      7  C   UNL A   1      38.890  23.959  26.115  1.00  0.00     0.014 A 
ATOM      8  C   UNL A   1      40.370  22.684  27.535  1.00  0.00     0.014 A 
ATOM      9  C   UNL A   1      39.531  25.131  26.501  1.00  0.00     0.010 A 
ATOM     10  C   UNL A   1      40.940  23.873  28.005  1.00  0.00     0.010 A 
ATOM     11  C   UNL A   1      40.562  25.106  27.453  1.00  0.00    -0.014 A 
BRANCH  11  12
ATOM     12  C   UNL A   1      41.211  26.385  27.850  1.00  0.00     0.031 A 
ATOM     13  C   UNL A   1      42.614  26.713  27.409  1.00  0.00     0.074 A 
ATOM     14  C   UNL A   1      40.503  27.282  28.566  1.00  0.00     0.049 A 
ATOM     15  N   UNL A   1      43.312  27.802  27.616  1.00  0.00    -0.248 NA
ATOM     16  C   UNL A   1      43.332  25.680  26.649  1.00  0.00     0.031 C 
ATOM     17  C   UNL A   1      39.139  27.075  29.060  1.00  0.00     0.029 A 
ATOM     18  N   UNL A   1      40.811  28.555  28.974  1.00  0.00    -0.354 N 
ATOM     19  C   UNL A   1      44.558  27.576  27.038  1.00  0.00     0.074 A 
ATOM     20  C   UNL A   1      44.528  26.231  26.501  1.00  0.00     0.031 C 
ATOM     21  C   UNL A   1      38.705  28.201  29.643  1.00  0.00     0.029 A 
ATOM     22  C   UNL A   1      39.778  29.188  29.628  1.00  0.00     0.049 A 
ATOM     23  H   UNL A   1      41.687  28.976  28.814  1.00  0.00     0.167 HD
ATOM     24  C   UNL A   1      45.621  28.415  26.953  1.00  0.00     0.034 A 
ATOM     25  C   UNL A   1      39.702  30.422  30.162  1.00  0.00     0.034 A 
ATOM     26  C   UNL A   1      45.629  29.762  27.477  1.00  0.00     0.049 A 
ATOM     27  C   UNL A   1      40.898  31.331  30.058  1.00  0.00     0.074 A 
ATOM     28  C   UNL A   1      46.640  30.706  27.416  1.00  0.00     0.029 A 
ATOM     29  N   UNL A   1      44.576  30.356  28.162  1.00  0.00    -0.354 N 
ATOM     30  N   UNL A   1      42.060  31.105  29.492  1.00  0.00    -0.248 NA
ATOM     31  C   UNL A   1      40.765  32.662  30.661  1.00  0.00     0.031 C 
ATOM     32  C   UNL A   1      46.222  31.846  28.115  1.00  0.00     0.029 A 
ATOM     33  C   UNL A   1      44.923  31.642  28.550  1.00  0.00     0.049 A 
ATOM     34  H   UNL A   1      43.709  29.926  28.347  1.00  0.00     0.167 HD
ATOM     35  C   UNL A   1      42.791  32.278  29.652  1.00  0.00     0.074 A 
ATOM     36  C   UNL A   1      41.928  33.212  30.347  1.00  0.00     0.031 C 
ATOM     37  C   UNL A   1      44.059  32.560  29.256  1.00  0.00     0.034 A 
BRANCH  24  38
ATOM     38  C   UNL A   1      46.881  27.879  26.312  1.00  0.00     0.023 A 
ATOM     39  C   UNL A   1      47.157  28.061  24.945  1.00  0.00     0.031 A 
ATOM     40  C   UNL A   1      47.808  27.147  27.076  1.00  0.00     0.131 A 
ATOM     41  C   UNL A   1      48.288  27.458  24.371  1.00  0.00     0.055 A 
ATOM     42  C   UNL A   1      48.972  26.617  26.516  1.00  0.00     0.041 A 
ATOM     43  F   UNL A   1      47.591  26.924  28.382  1.00  0.00    -0.206 F 
ATOM     44  C   UNL A   1      49.210  26.758  25.152  1.00  0.00     0.022 A 
BRANCH  41  45
ATOM     45  S   UNL A   1      48.461  27.481  22.565  1.00  0.00     0.124 S 
ATOM     46  O   UNL A   1      49.718  28.205  22.397  1.00  0.00    -0.237 OA
ATOM     47  O   UNL A   1      48.493  26.061  22.233  1.00  0.00    -0.237 OA
ATOM     48  O   UNL A   1      47.271  28.201  22.116  1.00  0.00    -0.744 OA
ENDBRANCH  41  45
ENDBRANCH  24  38
BRANCH  25  49
ATOM     49  C   UNL A   1      38.460  30.866  30.852  1.00  0.00     0.023 A 
ATOM     50  C   UNL A   1      37.418  31.484  30.143  1.00  0.00     0.031 A 
ATOM     51  C   UNL A   1      38.307  30.700  32.240  1.00  0.00     0.131 A 
ATOM     52  C   UNL A   1      36.285  31.947  30.829  1.00  0.00     0.055 A 
ATOM     53  C   UNL A   1      37.156  31.116  32.910  1.00  0.00     0.041 A 
ATOM     54  F   UNL A   1      39.271  30.109  32.963  1.00  0.00    -0.206 F 
ATOM     55  C   UNL A   1      36.141  31.755  32.205  1.00  0.00     0.022 A 
BRANCH  52  56
ATOM     56  S   UNL A   1      35.029  32.874  29.906  1.00  0.00     0.124 S 
ATOM     57  O   UNL A   1      34.030  33.129  30.936  1.00  0.00    -0.237 OA
ATOM     58  O   UNL A   1      35.786  34.033  29.445  1.00  0.00    -0.237 OA
ATOM     59  O   UNL A   1      34.621  31.942  28.857  1.00  0.00    -0.744 OA
ENDBRANCH  52  56
ENDBRANCH  25  49
BRANCH  37  60
ATOM     60  C   UNL A   1      44.560  33.955  29.531  1.00  0.00     0.023 A 
ATOM     61  C   UNL A   1      44.326  35.016  28.638  1.00  0.00     0.031 A 
ATOM     62  C   UNL A   1      45.318  34.217  30.686  1.00  0.00     0.131 A 
ATOM     63  C   UNL A   1      44.900  36.272  28.880  1.00  0.00     0.055 A 
ATOM     64  C   UNL A   1      45.836  35.485  30.953  1.00  0.00     0.041 A 
ATOM     65  F   UNL A   1      45.573  33.240  31.571  1.00  0.00    -0.206 F 
ATOM     66  C   UNL A   1      45.642  36.517  30.039  1.00  0.00     0.022 A 
BRANCH  63  67
ATOM     67  S   UNL A   1      44.757  37.556  27.607  1.00  0.00     0.124 S 
ATOM     68  O   UNL A   1      46.023  37.418  26.892  1.00  0.00    -0.237 OA
ATOM     69  O   UNL A   1      43.564  37.138  26.877  1.00  0.00    -0.237 OA
ATOM     70  O   UNL A   1      44.612  38.790  28.376  1.00  0.00    -0.744 OA
ENDBRANCH  63  67
ENDBRANCH  37  60
ENDBRANCH  11  12
ENDBRANCH   4   6
ENDBRANCH   1   2
BRANCH   1  71
ATOM     71  C   UNL A   1      35.916  22.603  24.268  1.00  0.00     0.042 C 
BRANCH  71  72
ATOM     72  C   UNL A   1      34.412  22.428  24.111  1.00  0.00     0.118 C 
BRANCH  72  73
ATOM     73  N   UNL A   1      33.733  22.276  25.392  1.00  0.00    -0.352 N 
ATOM     74  C   UNL A   1      33.143  23.229  26.181  1.00  0.00     0.251 C 
ATOM     75  H   UNL A   1      33.692  21.356  25.741  1.00  0.00     0.163 HD
ATOM     76  O   UNL A   1      32.772  22.956  27.320  1.00  0.00    -0.269 OA
BRANCH  74  77
ATOM     77  C   UNL A   1      32.959  24.598  25.661  1.00  0.00     0.042 A 
ATOM     78  C   UNL A   1      34.026  25.506  25.684  1.00  0.00     0.016 A 
ATOM     79  C   UNL A   1      31.707  24.941  25.133  1.00  0.00     0.042 A 
ATOM     80  C   UNL A   1      33.847  26.823  25.246  1.00  0.00     0.031 A 
ATOM     81  C   UNL A   1      31.565  26.261  24.701  1.00  0.00     0.066 A 
ATOM     82  C   UNL A   1      32.589  27.199  24.753  1.00  0.00     0.089 A 
ATOM     83  N   UNL A   1      30.505  26.950  24.173  1.00  0.00    -0.342 N 
ATOM     84  N   UNL A   1      32.167  28.413  24.279  1.00  0.00    -0.233 NA
ATOM     85  C   UNL A   1      30.901  28.248  23.951  1.00  0.00     0.110 A 
ATOM     86  H   UNL A   1      29.613  26.579  23.985  1.00  0.00     0.168 HD
BRANCH  85  87
ATOM     87  C   UNL A   1      30.002  29.298  23.373  1.00  0.00     0.055 C 
ATOM     88  C   UNL A   1      28.598  28.729  23.127  1.00  0.00     0.011 C 
ATOM     89  C   UNL A   1      29.950  30.564  24.243  1.00  0.00     0.011 C 
ATOM     90  C   UNL A   1      27.660  29.782  22.545  1.00  0.00     0.001 C 
ATOM     91  C   UNL A   1      29.002  31.608  23.654  1.00  0.00     0.001 C 
ATOM     92  C   UNL A   1      27.609  31.032  23.417  1.00  0.00     0.000 C 
ENDBRANCH  85  87
ENDBRANCH  74  77
ENDBRANCH  72  73
ENDBRANCH  71  72
ENDBRANCH   1  71
TORSDOF 14
ENDMDL
MODEL 2
REMARK VINA RESULT:     -12.7      5.190     10.490
REMARK SMILES O=C(NCCCNC(=O)c1ccc2nc(C3CCCCC3)[nH]c2c1)c1ccc(-c2c3nc(c(-c4cc(S(=O)(=O)[O-])ccc4F)c4ccc([nH]4)c(-c4cc(S(=O)(=O)[O-])ccc4F)c4nc(c(-c5cc(S(=O)(=O)[O-])ccc5F)c5ccc2[nH]5)C=C4)C=C3)cc1
REMARK SMILES IDX 4 1 3 2 1 3 2 4 25 6 26 7 87 8 27 9 86 10 28 11 29 12 30 13
REMARK SMILES IDX 80 14 31 15 85 16 79 17 81 18 32 19 84 20 78 21 77 22 33 24
REMARK SMILES IDX 65 25 45 26 64 27 46 28 49 29 63 30 82 31 47 32 48 33 62 35
REMARK SMILES IDX 83 36 50 37 34 38 35 39 43 40 36 41 42 42 44 43 41 44 37 45
REMARK SMILES IDX 38 46 39 47 40 48 66 49 67 50 75 51 68 52 74 53 76 54 73 55
REMARK SMILES IDX 69 56 70 57 71 58 72 59 51 60 52 61 60 62 53 63 59 64 61 65
REMARK SMILES IDX 58 66 54 67 55 68 56 69 57 70 5 71 6 72 7 73 8 74 9 76 10 77
REMARK SMILES IDX 11 78 24 79 12 80 23 81 13 82 22 83 14 84 15 85 16 87 17 88
REMARK SMILES IDX 21 89 18 90 20 91 19 92
REMARK H PARENT 3 5 81 23 49 34 7 75 22 86
REMARK Flexibility Score: inf
ROOT
ATOM      1  C   UNL A   1      33.067  29.216  25.474  1.00  0.00     0.118 C 
ENDROOT
BRANCH   1   2
ATOM      2  N   UNL A   1      32.628  30.492  26.029  1.00  0.00    -0.352 N 
ATOM      3  O   UNL A   1      32.519  32.230  27.450  1.00  0.00    -0.269 OA
ATOM      4  C   UNL A   1      33.159  31.267  27.033  1.00  0.00     0.251 C 
ATOM      5  H   UNL A   1      31.815  30.860  25.614  1.00  0.00     0.163 HD
BRANCH   4   6
ATOM      6  C   UNL A   1      34.474  30.941  27.628  1.00  0.00     0.039 A 
ATOM      7  C   UNL A   1      34.776  29.643  28.037  1.00  0.00     0.014 A 
ATOM      8  C   UNL A   1      35.434  31.949  27.763  1.00  0.00     0.014 A 
ATOM      9  C   UNL A   1      35.943  29.395  28.751  1.00  0.00     0.010 A 
ATOM     10  C   UNL A   1      36.657  31.673  28.385  1.00  0.00     0.010 A 
ATOM     11  C   UNL A   1      36.902  30.404  28.933  1.00  0.00    -0.014 A 
BRANCH  11  12
ATOM     12  C   UNL A   1      38.145  30.093  29.690  1.00  0.00     0.031 A 
ATOM     13  C   UNL A   1      38.347  30.606  31.092  1.00  0.00     0.074 A 
ATOM     14  C   UNL A   1      39.070  29.291  29.125  1.00  0.00     0.049 A 
ATOM     15  N   UNL A   1      39.342  30.386  31.916  1.00  0.00    -0.248 NA
ATOM     16  C   UNL A   1      37.306  31.490  31.636  1.00  0.00     0.031 C 
ATOM     17  C   UNL A   1      38.990  28.741  27.770  1.00  0.00     0.029 A 
ATOM     18  N   UNL A   1      40.237  28.771  29.624  1.00  0.00    -0.354 N 
ATOM     19  C   UNL A   1      39.062  31.125  33.063  1.00  0.00     0.074 A 
ATOM     20  C   UNL A   1      37.819  31.825  32.811  1.00  0.00     0.031 C 
ATOM     21  C   UNL A   1      40.024  27.911  27.570  1.00  0.00     0.029 A 
ATOM     22  C   UNL A   1      40.877  27.919  28.752  1.00  0.00     0.049 A 
ATOM     23  H   UNL A   1      40.584  28.987  30.520  1.00  0.00     0.167 HD
ATOM     24  C   UNL A   1      39.769  31.203  34.219  1.00  0.00     0.034 A 
ATOM     25  C   UNL A   1      42.024  27.226  28.884  1.00  0.00     0.034 A 
ATOM     26  C   UNL A   1      40.997  30.483  34.462  1.00  0.00     0.049 A 
ATOM     27  C   UNL A   1      42.791  27.334  30.174  1.00  0.00     0.074 A 
ATOM     28  C   UNL A   1      41.775  30.465  35.607  1.00  0.00     0.029 A 
ATOM     29  N   UNL A   1      41.631  29.656  33.542  1.00  0.00    -0.354 N 
ATOM     30  N   UNL A   1      42.500  28.024  31.253  1.00  0.00    -0.248 NA
ATOM     31  C   UNL A   1      44.036  26.564  30.265  1.00  0.00     0.031 C 
ATOM     32  C   UNL A   1      42.907  29.677  35.360  1.00  0.00     0.029 A 
ATOM     33  C   UNL A   1      42.801  29.144  34.086  1.00  0.00     0.049 A 
ATOM     34  H   UNL A   1      41.299  29.462  32.636  1.00  0.00     0.167 HD
ATOM     35  C   UNL A   1      43.519  27.751  32.160  1.00  0.00     0.074 A 
ATOM     36  C   UNL A   1      44.416  26.818  31.507  1.00  0.00     0.031 C 
ATOM     37  C   UNL A   1      43.695  28.225  33.421  1.00  0.00     0.034 A 
BRANCH  24  38
ATOM     38  C   UNL A   1      39.252  32.139  35.288  1.00  0.00     0.023 A 
ATOM     39  C   UNL A   1      39.680  33.474  35.379  1.00  0.00     0.031 A 
ATOM     40  C   UNL A   1      38.335  31.677  36.250  1.00  0.00     0.131 A 
ATOM     41  C   UNL A   1      39.251  34.277  36.449  1.00  0.00     0.055 A 
ATOM     42  C   UNL A   1      37.851  32.503  37.265  1.00  0.00     0.041 A 
ATOM     43  F   UNL A   1      37.902  30.406  36.226  1.00  0.00    -0.206 F 
ATOM     44  C   UNL A   1      38.321  33.808  37.378  1.00  0.00     0.022 A 
BRANCH  41  45
ATOM     45  S   UNL A   1      40.038  35.895  36.689  1.00  0.00     0.124 S 
ATOM     46  O   UNL A   1      41.446  35.524  36.806  1.00  0.00    -0.237 OA
ATOM     47  O   UNL A   1      39.665  36.611  35.475  1.00  0.00    -0.237 OA
ATOM     48  O   UNL A   1      39.429  36.393  37.921  1.00  0.00    -0.744 OA
ENDBRANCH  41  45
ENDBRANCH  24  38
BRANCH  25  49
ATOM     49  C   UNL A   1      42.523  26.382  27.764  1.00  0.00     0.023 A 
ATOM     50  C   UNL A   1      42.223  25.013  27.698  1.00  0.00     0.031 A 
ATOM     51  C   UNL A   1      43.332  26.931  26.753  1.00  0.00     0.131 A 
ATOM     52  C   UNL A   1      42.758  24.230  26.664  1.00  0.00     0.055 A 
ATOM     53  C   UNL A   1      43.820  26.158  25.698  1.00  0.00     0.041 A 
ATOM     54  F   UNL A   1      43.644  28.236  26.766  1.00  0.00    -0.206 F 
ATOM     55  C   UNL A   1      43.543  24.795  25.657  1.00  0.00     0.022 A 
BRANCH  52  56
ATOM     56  S   UNL A   1      42.474  22.439  26.695  1.00  0.00     0.124 S 
ATOM     57  O   UNL A   1      42.646  22.134  28.111  1.00  0.00    -0.237 OA
ATOM     58  O   UNL A   1      41.113  22.340  26.179  1.00  0.00    -0.237 OA
ATOM     59  O   UNL A   1      43.513  21.914  25.812  1.00  0.00    -0.744 OA
ENDBRANCH  52  56
ENDBRANCH  25  49
BRANCH  37  60
ATOM     60  C   UNL A   1      44.884  27.697  34.182  1.00  0.00     0.023 A 
ATOM     61  C   UNL A   1      44.812  26.517  34.944  1.00  0.00     0.031 A 
ATOM     62  C   UNL A   1      46.097  28.408  34.178  1.00  0.00     0.131 A 
ATOM     63  C   UNL A   1      45.909  26.119  35.721  1.00  0.00     0.055 A 
ATOM     64  C   UNL A   1      47.206  27.975  34.906  1.00  0.00     0.041 A 
ATOM     65  F   UNL A   1      46.221  29.543  33.471  1.00  0.00    -0.206 F 
ATOM     66  C   UNL A   1      47.110  26.833  35.697  1.00  0.00     0.022 A 
BRANCH  63  67
ATOM     67  S   UNL A   1      45.711  24.715  36.853  1.00  0.00     0.124 S 
ATOM     68  O   UNL A   1      46.955  23.979  36.646  1.00  0.00    -0.237 OA
ATOM     69  O   UNL A   1      45.568  25.377  38.146  1.00  0.00    -0.237 OA
ATOM     70  O   UNL A   1      44.507  24.046  36.364  1.00  0.00    -0.744 OA
ENDBRANCH  63  67
ENDBRANCH  37  60
ENDBRANCH  11  12
ENDBRANCH   4   6
ENDBRANCH   1   2
BRANCH   1  71
ATOM     71  C   UNL A   1      32.153  28.056  25.848  1.00  0.00     0.042 C 
BRANCH  71  72
ATOM     72  C   UNL A   1      32.596  26.712  25.287  1.00  0.00     0.118 C 
BRANCH  72  73
ATOM     73  N   UNL A   1      32.886  26.774  23.859  1.00  0.00    -0.352 N 
ATOM     74  C   UNL A   1      33.522  25.857  23.062  1.00  0.00     0.251 C 
ATOM     75  H   UNL A   1      32.582  27.591  23.403  1.00  0.00     0.163 HD
ATOM     76  O   UNL A   1      33.845  26.147  21.913  1.00  0.00    -0.269 OA
BRANCH  74  77
ATOM     77  C   UNL A   1      33.829  24.515  23.592  1.00  0.00     0.042 A 
ATOM     78  C   UNL A   1      34.957  24.321  24.401  1.00  0.00     0.016 A 
ATOM     79  C   UNL A   1      32.954  23.466  23.278  1.00  0.00     0.042 A 
ATOM     80  C   UNL A   1      35.288  23.042  24.863  1.00  0.00     0.031 A 
ATOM     81  C   UNL A   1      33.314  22.204  23.758  1.00  0.00     0.066 A 
ATOM     82  C   UNL A   1      34.450  21.971  24.524  1.00  0.00     0.089 A 
ATOM     83  N   UNL A   1      32.737  20.969  23.627  1.00  0.00    -0.342 N 
ATOM     84  N   UNL A   1      34.561  20.643  24.843  1.00  0.00    -0.233 NA
ATOM     85  C   UNL A   1      33.529  20.051  24.276  1.00  0.00     0.110 A 
ATOM     86  H   UNL A   1      31.900  20.772  23.149  1.00  0.00     0.168 HD
BRANCH  85  87
ATOM     87  C   UNL A   1      33.210  18.589  24.348  1.00  0.00     0.055 C 
ATOM     88  C   UNL A   1      34.425  17.751  23.928  1.00  0.00     0.011 C 
ATOM     89  C   UNL A   1      32.694  18.172  25.734  1.00  0.00     0.011 C 
ATOM     90  C   UNL A   1      34.129  16.257  23.999  1.00  0.00     0.001 C 
ATOM     91  C   UNL A   1      32.406  16.673  25.796  1.00  0.00     0.001 C 
ATOM     92  C   UNL A   1      33.623  15.851  25.380  1.00  0.00     0.000 C 
ENDBRANCH  85  87
ENDBRANCH  74  77
ENDBRANCH  72  73
ENDBRANCH  71  72
ENDBRANCH   1  71
TORSDOF 14
ENDMDL
MODEL 3
REMARK VINA RESULT:     -12.6      4.987     10.194
REMARK SMILES O=C(NCCCNC(=O)c1ccc2nc(C3CCCCC3)[nH]c2c1)c1ccc(-c2c3nc(c(-c4cc(S(=O)(=O)[O-])ccc4F)c4ccc([nH]4)c(-c4cc(S(=O)(=O)[O-])ccc4F)c4nc(c(-c5cc(S(=O)(=O)[O-])ccc5F)c5ccc2[nH]5)C=C4)C=C3)cc1
REMARK SMILES IDX 4 1 3 2 1 3 2 4 25 6 26 7 87 8 27 9 86 10 28 11 29 12 30 13
REMARK SMILES IDX 80 14 31 15 85 16 79 17 81 18 32 19 84 20 78 21 77 22 33 24
REMARK SMILES IDX 65 25 45 26 64 27 46 28 49 29 63 30 82 31 47 32 48 33 62 35
REMARK SMILES IDX 83 36 50 37 34 38 35 39 43 40 36 41 42 42 44 43 41 44 37 45
REMARK SMILES IDX 38 46 39 47 40 48 66 49 67 50 75 51 68 52 74 53 76 54 73 55
REMARK SMILES IDX 69 56 70 57 71 58 72 59 51 60 52 61 60 62 53 63 59 64 61 65
REMARK SMILES IDX 58 66 54 67 55 68 56 69 57 70 5 71 6 72 7 73 8 74 9 76 10 77
REMARK SMILES IDX 11 78 24 79 12 80 23 81 13 82 22 83 14 84 15 85 16 87 17 88
REMARK SMILES IDX 21 89 18 90 20 91 19 92
REMARK H PARENT 3 5 81 23 49 34 7 75 22 86
REMARK Flexibility Score: inf
ROOT
ATOM      1  C   UNL A   1      34.123  28.582  25.706  1.00  0.00     0.118 C 
ENDROOT
BRANCH   1   2
ATOM      2  N   UNL A   1      33.689  29.871  26.234  1.00  0.00    -0.352 N 
ATOM      3  O   UNL A   1      33.565  31.625  27.634  1.00  0.00    -0.269 OA
ATOM      4  C   UNL A   1      34.200  30.646  27.248  1.00  0.00     0.251 C 
ATOM      5  H   UNL A   1      32.896  30.249  25.790  1.00  0.00     0.163 HD
BRANCH   4   6
ATOM      6  C   UNL A   1      35.490  30.303  27.889  1.00  0.00     0.039 A 
ATOM      7  C   UNL A   1      36.702  30.661  27.301  1.00  0.00     0.014 A 
ATOM      8  C   UNL A   1      35.488  29.625  29.112  1.00  0.00     0.014 A 
ATOM      9  C   UNL A   1      37.896  30.178  27.825  1.00  0.00     0.010 A 
ATOM     10  C   UNL A   1      36.698  29.233  29.697  1.00  0.00     0.010 A 
ATOM     11  C   UNL A   1      37.912  29.460  29.032  1.00  0.00    -0.014 A 
BRANCH  11  12
ATOM     12  C   UNL A   1      39.213  28.975  29.567  1.00  0.00     0.031 A 
ATOM     13  C   UNL A   1      39.798  29.555  30.828  1.00  0.00     0.074 A 
ATOM     14  C   UNL A   1      39.840  27.960  28.938  1.00  0.00     0.049 A 
ATOM     15  N   UNL A   1      40.892  29.214  31.465  1.00  0.00    -0.248 NA
ATOM     16  C   UNL A   1      39.070  30.672  31.448  1.00  0.00     0.031 C 
ATOM     17  C   UNL A   1      39.377  27.323  27.703  1.00  0.00     0.029 A 
ATOM     18  N   UNL A   1      40.976  27.263  29.262  1.00  0.00    -0.354 N 
ATOM     19  C   UNL A   1      40.998  30.089  32.542  1.00  0.00     0.074 A 
ATOM     20  C   UNL A   1      39.873  30.997  32.451  1.00  0.00     0.031 C 
ATOM     21  C   UNL A   1      40.180  26.290  27.412  1.00  0.00     0.029 A 
ATOM     22  C   UNL A   1      41.254  26.230  28.396  1.00  0.00     0.049 A 
ATOM     23  H   UNL A   1      41.540  27.481  30.040  1.00  0.00     0.167 HD
ATOM     24  C   UNL A   1      41.938  30.124  33.521  1.00  0.00     0.034 A 
ATOM     25  C   UNL A   1      42.262  25.337  28.389  1.00  0.00     0.034 A 
ATOM     26  C   UNL A   1      43.044  29.199  33.609  1.00  0.00     0.049 A 
ATOM     27  C   UNL A   1      43.294  25.401  29.482  1.00  0.00     0.074 A 
ATOM     28  C   UNL A   1      44.033  29.124  34.575  1.00  0.00     0.029 A 
ATOM     29  N   UNL A   1      43.310  28.186  32.694  1.00  0.00    -0.354 N 
ATOM     30  N   UNL A   1      43.367  26.224  30.502  1.00  0.00    -0.248 NA
ATOM     31  C   UNL A   1      44.374  24.409  29.425  1.00  0.00     0.031 C 
ATOM     32  C   UNL A   1      44.928  28.110  34.214  1.00  0.00     0.029 A 
ATOM     33  C   UNL A   1      44.460  27.501  33.061  1.00  0.00     0.049 A 
ATOM     34  H   UNL A   1      42.763  27.985  31.901  1.00  0.00     0.167 HD
ATOM     35  C   UNL A   1      44.492  25.833  31.222  1.00  0.00     0.074 A 
ATOM     36  C   UNL A   1      45.049  24.689  30.529  1.00  0.00     0.031 C 
ATOM     37  C   UNL A   1      45.014  26.369  32.355  1.00  0.00     0.034 A 
BRANCH  24  38
ATOM     38  C   UNL A   1      41.835  31.232  34.545  1.00  0.00     0.023 A 
ATOM     39  C   UNL A   1      40.809  31.264  35.506  1.00  0.00     0.031 A 
ATOM     40  C   UNL A   1      42.764  32.288  34.540  1.00  0.00     0.131 A 
ATOM     41  C   UNL A   1      40.694  32.365  36.371  1.00  0.00     0.055 A 
ATOM     42  C   UNL A   1      42.690  33.340  35.455  1.00  0.00     0.041 A 
ATOM     43  F   UNL A   1      43.755  32.322  33.635  1.00  0.00    -0.206 F 
ATOM     44  C   UNL A   1      41.641  33.391  36.368  1.00  0.00     0.022 A 
BRANCH  41  45
ATOM     45  S   UNL A   1      39.206  32.506  37.400  1.00  0.00     0.124 S 
ATOM     46  O   UNL A   1      38.556  31.221  37.158  1.00  0.00    -0.237 OA
ATOM     47  O   UNL A   1      39.763  32.698  38.735  1.00  0.00    -0.237 OA
ATOM     48  O   UNL A   1      38.510  33.663  36.841  1.00  0.00    -0.744 OA
ENDBRANCH  41  45
ENDBRANCH  24  38
BRANCH  25  49
ATOM     49  C   UNL A   1      42.353  24.318  27.307  1.00  0.00     0.023 A 
ATOM     50  C   UNL A   1      41.560  23.161  27.332  1.00  0.00     0.031 A 
ATOM     51  C   UNL A   1      43.258  24.476  26.242  1.00  0.00     0.131 A 
ATOM     52  C   UNL A   1      41.711  22.188  26.332  1.00  0.00     0.055 A 
ATOM     53  C   UNL A   1      43.368  23.530  25.222  1.00  0.00     0.041 A 
ATOM     54  F   UNL A   1      44.036  25.567  26.168  1.00  0.00    -0.206 F 
ATOM     55  C   UNL A   1      42.600  22.371  25.271  1.00  0.00     0.022 A 
BRANCH  52  56
ATOM     56  S   UNL A   1      40.778  20.639  26.479  1.00  0.00     0.124 S 
ATOM     57  O   UNL A   1      40.804  20.411  27.919  1.00  0.00    -0.237 OA
ATOM     58  O   UNL A   1      39.487  21.010  25.911  1.00  0.00    -0.237 OA
ATOM     59  O   UNL A   1      41.560  19.696  25.683  1.00  0.00    -0.744 OA
ENDBRANCH  52  56
ENDBRANCH  25  49
BRANCH  37  60
ATOM     60  C   UNL A   1      46.226  25.683  32.932  1.00  0.00     0.023 A 
ATOM     61  C   UNL A   1      47.509  25.858  32.381  1.00  0.00     0.031 A 
ATOM     62  C   UNL A   1      46.089  24.809  34.024  1.00  0.00     0.131 A 
ATOM     63  C   UNL A   1      48.590  25.119  32.882  1.00  0.00     0.055 A 
ATOM     64  C   UNL A   1      47.180  24.123  34.558  1.00  0.00     0.041 A 
ATOM     65  F   UNL A   1      44.887  24.604  34.588  1.00  0.00    -0.206 F 
ATOM     66  C   UNL A   1      48.437  24.263  33.975  1.00  0.00     0.022 A 
BRANCH  63  67
ATOM     67  S   UNL A   1      50.181  25.207  32.015  1.00  0.00     0.124 S 
ATOM     68  O   UNL A   1      49.786  25.708  30.702  1.00  0.00    -0.237 OA
ATOM     69  O   UNL A   1      50.939  26.133  32.850  1.00  0.00    -0.237 OA
ATOM     70  O   UNL A   1      50.659  23.825  32.032  1.00  0.00    -0.744 OA
ENDBRANCH  63  67
ENDBRANCH  37  60
ENDBRANCH  11  12
ENDBRANCH   4   6
ENDBRANCH   1   2
BRANCH   1  71
ATOM     71  C   UNL A   1      33.442  27.400  26.382  1.00  0.00     0.042 C 
BRANCH  71  72
ATOM     72  C   UNL A   1      32.543  26.590  25.458  1.00  0.00     0.118 C 
BRANCH  72  73
ATOM     73  N   UNL A   1      32.929  26.714  24.057  1.00  0.00    -0.352 N 
ATOM     74  C   UNL A   1      33.623  25.835  23.266  1.00  0.00     0.251 C 
ATOM     75  H   UNL A   1      32.652  27.550  23.616  1.00  0.00     0.163 HD
ATOM     76  O   UNL A   1      34.020  26.175  22.155  1.00  0.00    -0.269 OA
BRANCH  74  77
ATOM     77  C   UNL A   1      33.902  24.472  23.758  1.00  0.00     0.042 A 
ATOM     78  C   UNL A   1      35.022  24.233  24.565  1.00  0.00     0.016 A 
ATOM     79  C   UNL A   1      33.008  23.450  23.409  1.00  0.00     0.042 A 
ATOM     80  C   UNL A   1      35.326  22.935  24.989  1.00  0.00     0.031 A 
ATOM     81  C   UNL A   1      33.341  22.168  23.853  1.00  0.00     0.066 A 
ATOM     82  C   UNL A   1      34.469  21.890  24.616  1.00  0.00     0.089 A 
ATOM     83  N   UNL A   1      32.741  20.949  23.683  1.00  0.00    -0.342 N 
ATOM     84  N   UNL A   1      34.553  20.552  24.896  1.00  0.00    -0.233 NA
ATOM     85  C   UNL A   1      33.512  19.997  24.308  1.00  0.00     0.110 A 
ATOM     86  H   UNL A   1      31.903  20.782  23.196  1.00  0.00     0.168 HD
BRANCH  85  87
ATOM     87  C   UNL A   1      33.164  18.540  24.336  1.00  0.00     0.055 C 
ATOM     88  C   UNL A   1      34.335  17.697  23.811  1.00  0.00     0.011 C 
ATOM     89  C   UNL A   1      32.718  18.073  25.730  1.00  0.00     0.011 C 
ATOM     90  C   UNL A   1      34.009  16.207  23.835  1.00  0.00     0.001 C 
ATOM     91  C   UNL A   1      32.401  16.578  25.744  1.00  0.00     0.001 C 
ATOM     92  C   UNL A   1      33.573  15.751  25.224  1.00  0.00     0.000 C 
ENDBRANCH  85  87
ENDBRANCH  74  77
ENDBRANCH  72  73
ENDBRANCH  71  72
ENDBRANCH   1  71
TORSDOF 14
ENDMDL
