MODEL 1
REMARK VINA RESULT:     -11.0      0.000      0.000
REMARK SMILES C[C@H]1[C@H](C(=O)NCCCNC(=O)c2ccc(-c3c4nc(c(-c5cc(S(=O)(=O)[O-])ccc5F)c5ccc([nH]5)c(-c5cc(S(=O)(=O)[O-])ccc5F)c5nc(c(-c6cc(S(=O)(=O)[O-])ccc6F)c6ccc3[nH]6)C=C5)C=C4)cc2)CCN1C(=O)CC[NH2+]C1CC1
REMARK SMILES IDX 7 1 6 2 4 3 5 4 3 6 1 7 2 8 78 9 76 10 77 11 79 12 80 13
REMARK SMILES IDX 81 14 82 15 83 16 84 19 85 20 86 21 8 22 9 23 10 24 11 25
REMARK SMILES IDX 12 27 13 28 14 29 75 30 15 31 74 32 16 33 17 34 18 35 68 36
REMARK SMILES IDX 19 37 73 38 67 39 69 40 20 41 72 42 66 43 65 44 21 46 53 47
REMARK SMILES IDX 33 48 52 49 34 50 37 51 51 52 70 53 35 54 36 55 50 57 71 58
REMARK SMILES IDX 38 59 22 60 23 61 31 62 24 63 30 64 32 65 29 66 25 67 26 68
REMARK SMILES IDX 27 69 28 70 54 71 55 72 63 73 56 74 62 75 64 76 61 77 57 78
REMARK SMILES IDX 58 79 59 80 60 81 39 82 40 83 48 84 41 85 47 86 49 87 46 88
REMARK SMILES IDX 42 89 43 90 44 91 45 92
REMARK H PARENT 6 5 83 17 83 18 10 26 69 45 37 56
REMARK Flexibility Score: inf
ROOT
ATOM      1  C   UNL A   1      31.795  30.726  26.115  1.00  0.00     0.117 C 
ENDROOT
BRANCH   1   2
ATOM      2  N   UNL A   1      31.609  29.686  27.109  1.00  0.00    -0.356 N 
ATOM      3  C   UNL A   1      31.679  28.337  27.010  1.00  0.00     0.225 C 
ATOM      4  O   UNL A   1      31.441  27.680  28.029  1.00  0.00    -0.275 OA
ATOM      5  H   UNL A   1      31.396  30.018  28.011  1.00  0.00     0.163 HD
BRANCH   3   6
ATOM      6  C   UNL A   1      31.989  27.623  25.711  1.00  0.00     0.102 C 
ATOM      7  C   UNL A   1      33.791  25.959  25.334  1.00  0.00     0.032 C 
ATOM      8  C   UNL A   1      32.402  26.164  25.939  1.00  0.00     0.094 C 
ATOM      9  N   UNL A   1      31.419  25.367  25.211  1.00  0.00    -0.339 N 
ATOM     10  C   UNL A   1      30.880  27.604  24.656  1.00  0.00     0.037 C 
ATOM     11  C   UNL A   1      30.795  26.162  24.172  1.00  0.00     0.120 C 
BRANCH   9  12
ATOM     12  C   UNL A   1      31.123  24.023  25.344  1.00  0.00     0.228 C 
ATOM     13  O   UNL A   1      30.945  23.314  24.350  1.00  0.00    -0.275 OA
BRANCH  12  14
ATOM     14  C   UNL A   1      30.964  23.426  26.736  1.00  0.00     0.161 C 
BRANCH  14  15
ATOM     15  C   UNL A   1      32.265  22.855  27.304  1.00  0.00     0.270 C 
BRANCH  15  16
ATOM     16  N   UNL A   1      32.783  21.756  26.481  1.00  0.00    -0.343 N 
ATOM     17  H   UNL A   1      32.061  21.494  25.808  1.00  0.00     0.346 HD
ATOM     18  H   UNL A   1      33.022  21.000  27.122  1.00  0.00     0.346 HD
BRANCH  16  19
ATOM     19  C   UNL A   1      34.005  22.074  25.739  1.00  0.00     0.182 C 
ATOM     20  C   UNL A   1      35.236  21.210  25.800  1.00  0.00     0.071 C 
ATOM     21  C   UNL A   1      34.383  21.198  24.569  1.00  0.00     0.071 C 
ENDBRANCH  16  19
ENDBRANCH  15  16
ENDBRANCH  14  15
ENDBRANCH  12  14
ENDBRANCH   9  12
ENDBRANCH   3   6
ENDBRANCH   1   2
BRANCH   1  22
ATOM     22  C   UNL A   1      31.585  32.116  26.692  1.00  0.00     0.042 C 
BRANCH  22  23
ATOM     23  C   UNL A   1      32.843  32.735  27.284  1.00  0.00     0.118 C 
BRANCH  23  24
ATOM     24  N   UNL A   1      32.647  34.122  27.680  1.00  0.00    -0.352 N 
ATOM     25  C   UNL A   1      33.182  34.824  28.729  1.00  0.00     0.251 C 
ATOM     26  H   UNL A   1      32.035  34.637  27.105  1.00  0.00     0.163 HD
ATOM     27  O   UNL A   1      32.691  35.911  29.034  1.00  0.00    -0.269 OA
BRANCH  25  28
ATOM     28  C   UNL A   1      34.322  34.276  29.491  1.00  0.00     0.039 A 
ATOM     29  C   UNL A   1      34.071  33.533  30.646  1.00  0.00     0.014 A 
ATOM     30  C   UNL A   1      35.637  34.511  29.082  1.00  0.00     0.014 A 
ATOM     31  C   UNL A   1      35.138  32.978  31.353  1.00  0.00     0.010 A 
ATOM     32  C   UNL A   1      36.691  33.875  29.729  1.00  0.00     0.010 A 
ATOM     33  C   UNL A   1      36.454  33.110  30.880  1.00  0.00    -0.014 A 
BRANCH  33  34
ATOM     34  C   UNL A   1      37.590  32.463  31.584  1.00  0.00     0.031 A 
ATOM     35  C   UNL A   1      38.323  31.314  30.946  1.00  0.00     0.074 A 
ATOM     36  C   UNL A   1      37.928  32.884  32.819  1.00  0.00     0.049 A 
ATOM     37  N   UNL A   1      39.309  30.596  31.419  1.00  0.00    -0.248 NA
ATOM     38  C   UNL A   1      37.865  30.898  29.612  1.00  0.00     0.031 C 
ATOM     39  C   UNL A   1      37.254  33.955  33.558  1.00  0.00     0.029 A 
ATOM     40  N   UNL A   1      38.917  32.467  33.672  1.00  0.00    -0.354 N 
ATOM     41  C   UNL A   1      39.587  29.643  30.444  1.00  0.00     0.074 A 
ATOM     42  C   UNL A   1      38.611  29.827  29.391  1.00  0.00     0.031 C 
ATOM     43  C   UNL A   1      37.871  34.131  34.737  1.00  0.00     0.029 A 
ATOM     44  C   UNL A   1      38.949  33.156  34.861  1.00  0.00     0.049 A 
ATOM     45  H   UNL A   1      39.546  31.741  33.452  1.00  0.00     0.167 HD
ATOM     46  C   UNL A   1      40.581  28.723  30.417  1.00  0.00     0.034 A 
ATOM     47  C   UNL A   1      39.750  33.013  35.936  1.00  0.00     0.034 A 
ATOM     48  C   UNL A   1      41.544  28.556  31.479  1.00  0.00     0.049 A 
ATOM     49  C   UNL A   1      40.832  31.964  35.896  1.00  0.00     0.074 A 
ATOM     50  C   UNL A   1      42.618  27.685  31.543  1.00  0.00     0.029 A 
ATOM     51  N   UNL A   1      41.545  29.270  32.672  1.00  0.00    -0.354 N 
ATOM     52  N   UNL A   1      41.116  31.106  34.942  1.00  0.00    -0.248 NA
ATOM     53  C   UNL A   1      41.708  31.876  37.068  1.00  0.00     0.031 C 
ATOM     54  C   UNL A   1      43.218  27.819  32.798  1.00  0.00     0.029 A 
ATOM     55  C   UNL A   1      42.579  28.835  33.489  1.00  0.00     0.049 A 
ATOM     56  H   UNL A   1      40.905  29.981  32.904  1.00  0.00     0.167 HD
ATOM     57  C   UNL A   1      42.224  30.393  35.392  1.00  0.00     0.074 A 
ATOM     58  C   UNL A   1      42.568  30.943  36.689  1.00  0.00     0.031 C 
ATOM     59  C   UNL A   1      42.897  29.378  34.790  1.00  0.00     0.034 A 
BRANCH  46  60
ATOM     60  C   UNL A   1      40.655  27.816  29.208  1.00  0.00     0.023 A 
ATOM     61  C   UNL A   1      41.593  28.030  28.182  1.00  0.00     0.031 A 
ATOM     62  C   UNL A   1      39.758  26.745  29.061  1.00  0.00     0.131 A 
ATOM     63  C   UNL A   1      41.558  27.243  27.022  1.00  0.00     0.055 A 
ATOM     64  C   UNL A   1      39.787  25.906  27.944  1.00  0.00     0.041 A 
ATOM     65  F   UNL A   1      38.822  26.501  29.994  1.00  0.00    -0.206 F 
ATOM     66  C   UNL A   1      40.680  26.164  26.908  1.00  0.00     0.022 A 
BRANCH  63  67
ATOM     67  S   UNL A   1      42.566  27.749  25.602  1.00  0.00     0.124 S 
ATOM     68  O   UNL A   1      43.865  27.980  26.229  1.00  0.00    -0.237 OA
ATOM     69  O   UNL A   1      42.478  26.588  24.723  1.00  0.00    -0.237 OA
ATOM     70  O   UNL A   1      41.895  28.953  25.116  1.00  0.00    -0.744 OA
ENDBRANCH  63  67
ENDBRANCH  46  60
BRANCH  47  71
ATOM     71  C   UNL A   1      39.554  33.870  37.141  1.00  0.00     0.023 A 
ATOM     72  C   UNL A   1      38.914  33.376  38.289  1.00  0.00     0.031 A 
ATOM     73  C   UNL A   1      39.973  35.212  37.148  1.00  0.00     0.131 A 
ATOM     74  C   UNL A   1      38.670  34.230  39.376  1.00  0.00     0.055 A 
ATOM     75  C   UNL A   1      39.782  36.041  38.254  1.00  0.00     0.041 A 
ATOM     76  F   UNL A   1      40.594  35.735  36.077  1.00  0.00    -0.206 F 
ATOM     77  C   UNL A   1      39.112  35.554  39.372  1.00  0.00     0.022 A 
BRANCH  74  78
ATOM     78  S   UNL A   1      37.679  33.609  40.763  1.00  0.00     0.124 S 
ATOM     79  O   UNL A   1      38.612  32.693  41.408  1.00  0.00    -0.237 OA
ATOM     80  O   UNL A   1      37.377  34.836  41.493  1.00  0.00    -0.237 OA
ATOM     81  O   UNL A   1      36.535  32.979  40.108  1.00  0.00    -0.744 OA
ENDBRANCH  74  78
ENDBRANCH  47  71
BRANCH  59  82
ATOM     82  C   UNL A   1      44.097  28.826  35.524  1.00  0.00     0.023 A 
ATOM     83  C   UNL A   1      43.990  27.730  36.399  1.00  0.00     0.031 A 
ATOM     84  C   UNL A   1      45.360  29.425  35.369  1.00  0.00     0.131 A 
ATOM     85  C   UNL A   1      45.106  27.315  37.141  1.00  0.00     0.055 A 
ATOM     86  C   UNL A   1      46.483  28.959  36.053  1.00  0.00     0.041 A 
ATOM     87  F   UNL A   1      45.524  30.477  34.551  1.00  0.00    -0.206 F 
ATOM     88  C   UNL A   1      46.357  27.909  36.958  1.00  0.00     0.022 A 
BRANCH  85  89
ATOM     89  S   UNL A   1      44.872  26.070  38.438  1.00  0.00     0.124 S 
ATOM     90  O   UNL A   1      44.321  26.869  39.528  1.00  0.00    -0.237 OA
ATOM     91  O   UNL A   1      43.950  25.131  37.807  1.00  0.00    -0.237 OA
ATOM     92  O   UNL A   1      46.221  25.555  38.667  1.00  0.00    -0.744 OA
ENDBRANCH  85  89
ENDBRANCH  59  82
ENDBRANCH  33  34
ENDBRANCH  25  28
ENDBRANCH  23  24
ENDBRANCH  22  23
ENDBRANCH   1  22
TORSDOF 18
ENDMDL
MODEL 2
REMARK VINA RESULT:     -10.9      3.899      9.289
REMARK SMILES C[C@H]1[C@H](C(=O)NCCCNC(=O)c2ccc(-c3c4nc(c(-c5cc(S(=O)(=O)[O-])ccc5F)c5ccc([nH]5)c(-c5cc(S(=O)(=O)[O-])ccc5F)c5nc(c(-c6cc(S(=O)(=O)[O-])ccc6F)c6ccc3[nH]6)C=C5)C=C4)cc2)CCN1C(=O)CC[NH2+]C1CC1
REMARK SMILES IDX 7 1 6 2 4 3 5 4 3 6 1 7 2 8 78 9 76 10 77 11 79 12 80 13
REMARK SMILES IDX 81 14 82 15 83 16 84 19 85 20 86 21 8 22 9 23 10 24 11 25
REMARK SMILES IDX 12 27 13 28 14 29 75 30 15 31 74 32 16 33 17 34 18 35 68 36
REMARK SMILES IDX 19 37 73 38 67 39 69 40 20 41 72 42 66 43 65 44 21 46 53 47
REMARK SMILES IDX 33 48 52 49 34 50 37 51 51 52 70 53 35 54 36 55 50 57 71 58
REMARK SMILES IDX 38 59 22 60 23 61 31 62 24 63 30 64 32 65 29 66 25 67 26 68
REMARK SMILES IDX 27 69 28 70 54 71 55 72 63 73 56 74 62 75 64 76 61 77 57 78
REMARK SMILES IDX 58 79 59 80 60 81 39 82 40 83 48 84 41 85 47 86 49 87 46 88
REMARK SMILES IDX 42 89 43 90 44 91 45 92
REMARK H PARENT 6 5 83 17 83 18 10 26 69 45 37 56
REMARK Flexibility Score: inf
ROOT
ATOM      1  C   UNL A   1      31.542  27.157  26.089  1.00  0.00     0.117 C 
ENDROOT
BRANCH   1   2
ATOM      2  N   UNL A   1      30.980  25.955  26.677  1.00  0.00    -0.356 N 
ATOM      3  C   UNL A   1      31.292  24.649  26.501  1.00  0.00     0.225 C 
ATOM      4  O   UNL A   1      30.618  23.817  27.116  1.00  0.00    -0.275 OA
ATOM      5  H   UNL A   1      30.245  26.117  27.312  1.00  0.00     0.163 HD
BRANCH   3   6
ATOM      6  C   UNL A   1      32.387  24.184  25.563  1.00  0.00     0.102 C 
ATOM      7  C   UNL A   1      32.108  23.497  23.195  1.00  0.00     0.032 C 
ATOM      8  C   UNL A   1      32.179  24.701  24.134  1.00  0.00     0.094 C 
ATOM      9  N   UNL A   1      33.367  25.496  23.836  1.00  0.00    -0.339 N 
ATOM     10  C   UNL A   1      33.823  24.540  25.953  1.00  0.00     0.037 C 
ATOM     11  C   UNL A   1      34.468  25.097  24.689  1.00  0.00     0.120 C 
BRANCH   9  12
ATOM     12  C   UNL A   1      33.551  26.439  22.842  1.00  0.00     0.228 C 
ATOM     13  O   UNL A   1      33.550  26.113  21.653  1.00  0.00    -0.275 OA
BRANCH  12  14
ATOM     14  C   UNL A   1      33.810  27.890  23.227  1.00  0.00     0.161 C 
BRANCH  14  15
ATOM     15  C   UNL A   1      32.798  28.868  22.628  1.00  0.00     0.270 C 
BRANCH  15  16
ATOM     16  N   UNL A   1      31.488  28.238  22.424  1.00  0.00    -0.343 N 
ATOM     17  H   UNL A   1      31.537  27.281  22.772  1.00  0.00     0.346 HD
ATOM     18  H   UNL A   1      31.294  28.288  21.423  1.00  0.00     0.346 HD
BRANCH  16  19
ATOM     19  C   UNL A   1      30.376  28.914  23.097  1.00  0.00     0.182 C 
ATOM     20  C   UNL A   1      29.625  30.057  22.468  1.00  0.00     0.071 C 
ATOM     21  C   UNL A   1      28.980  28.708  22.561  1.00  0.00     0.071 C 
ENDBRANCH  16  19
ENDBRANCH  15  16
ENDBRANCH  14  15
ENDBRANCH  12  14
ENDBRANCH   9  12
ENDBRANCH   3   6
ENDBRANCH   1   2
BRANCH   1  22
ATOM     22  C   UNL A   1      32.032  28.136  27.143  1.00  0.00     0.042 C 
BRANCH  22  23
ATOM     23  C   UNL A   1      33.434  28.668  26.885  1.00  0.00     0.118 C 
BRANCH  23  24
ATOM     24  N   UNL A   1      33.522  30.111  27.061  1.00  0.00    -0.352 N 
ATOM     25  C   UNL A   1      34.444  30.862  27.742  1.00  0.00     0.251 C 
ATOM     26  H   UNL A   1      32.808  30.629  26.621  1.00  0.00     0.163 HD
ATOM     27  O   UNL A   1      34.195  32.045  27.981  1.00  0.00    -0.269 OA
BRANCH  25  28
ATOM     28  C   UNL A   1      35.712  30.257  28.198  1.00  0.00     0.039 A 
ATOM     29  C   UNL A   1      36.817  30.275  27.345  1.00  0.00     0.014 A 
ATOM     30  C   UNL A   1      35.807  29.652  29.454  1.00  0.00     0.014 A 
ATOM     31  C   UNL A   1      38.031  29.742  27.778  1.00  0.00     0.010 A 
ATOM     32  C   UNL A   1      37.040  29.212  29.922  1.00  0.00     0.010 A 
ATOM     33  C   UNL A   1      38.164  29.241  29.084  1.00  0.00    -0.014 A 
BRANCH  33  34
ATOM     34  C   UNL A   1      39.469  28.736  29.582  1.00  0.00     0.031 A 
ATOM     35  C   UNL A   1      40.186  29.453  30.693  1.00  0.00     0.074 A 
ATOM     36  C   UNL A   1      40.027  27.657  28.996  1.00  0.00     0.049 A 
ATOM     37  N   UNL A   1      41.349  29.190  31.233  1.00  0.00    -0.248 NA
ATOM     38  C   UNL A   1      39.522  30.641  31.250  1.00  0.00     0.031 C 
ATOM     39  C   UNL A   1      39.447  26.912  27.875  1.00  0.00     0.029 A 
ATOM     40  N   UNL A   1      41.201  26.999  29.257  1.00  0.00    -0.354 N 
ATOM     41  C   UNL A   1      41.556  30.179  32.188  1.00  0.00     0.074 A 
ATOM     42  C   UNL A   1      40.435  31.091  32.096  1.00  0.00     0.031 C 
ATOM     43  C   UNL A   1      40.251  25.882  27.568  1.00  0.00     0.029 A 
ATOM     44  C   UNL A   1      41.425  25.920  28.434  1.00  0.00     0.049 A 
ATOM     45  H   UNL A   1      41.824  27.273  29.968  1.00  0.00     0.167 HD
ATOM     46  C   UNL A   1      42.570  30.299  33.080  1.00  0.00     0.034 A 
ATOM     47  C   UNL A   1      42.464  25.064  28.375  1.00  0.00     0.034 A 
ATOM     48  C   UNL A   1      43.680  29.378  33.155  1.00  0.00     0.049 A 
ATOM     49  C   UNL A   1      43.595  25.231  29.357  1.00  0.00     0.074 A 
ATOM     50  C   UNL A   1      44.742  29.377  34.042  1.00  0.00     0.029 A 
ATOM     51  N   UNL A   1      43.877  28.297  32.303  1.00  0.00    -0.354 N 
ATOM     52  N   UNL A   1      43.749  26.141  30.293  1.00  0.00    -0.248 NA
ATOM     53  C   UNL A   1      44.681  24.248  29.287  1.00  0.00     0.031 C 
ATOM     54  C   UNL A   1      45.615  28.347  33.680  1.00  0.00     0.029 A 
ATOM     55  C   UNL A   1      45.058  27.645  32.623  1.00  0.00     0.049 A 
ATOM     56  H   UNL A   1      43.266  28.033  31.577  1.00  0.00     0.167 HD
ATOM     57  C   UNL A   1      44.940  25.822  30.939  1.00  0.00     0.074 A 
ATOM     58  C   UNL A   1      45.445  24.622  30.302  1.00  0.00     0.031 C 
ATOM     59  C   UNL A   1      45.561  26.461  31.965  1.00  0.00     0.034 A 
BRANCH  46  60
ATOM     60  C   UNL A   1      42.529  31.480  34.024  1.00  0.00     0.023 A 
ATOM     61  C   UNL A   1      41.777  31.449  35.212  1.00  0.00     0.031 A 
ATOM     62  C   UNL A   1      43.223  32.664  33.720  1.00  0.00     0.131 A 
ATOM     63  C   UNL A   1      41.667  32.601  36.005  1.00  0.00     0.055 A 
ATOM     64  C   UNL A   1      43.183  33.779  34.561  1.00  0.00     0.041 A 
ATOM     65  F   UNL A   1      43.940  32.767  32.589  1.00  0.00    -0.206 F 
ATOM     66  C   UNL A   1      42.388  33.757  35.703  1.00  0.00     0.022 A 
BRANCH  63  67
ATOM     67  S   UNL A   1      40.446  32.615  37.346  1.00  0.00     0.124 S 
ATOM     68  O   UNL A   1      41.267  32.248  38.497  1.00  0.00    -0.237 OA
ATOM     69  O   UNL A   1      39.962  33.991  37.318  1.00  0.00    -0.237 OA
ATOM     70  O   UNL A   1      39.474  31.603  36.936  1.00  0.00    -0.744 OA
ENDBRANCH  63  67
ENDBRANCH  46  60
BRANCH  47  71
ATOM     71  C   UNL A   1      42.492  23.984  27.347  1.00  0.00     0.023 A 
ATOM     72  C   UNL A   1      41.872  22.745  27.575  1.00  0.00     0.031 A 
ATOM     73  C   UNL A   1      43.175  24.163  26.131  1.00  0.00     0.131 A 
ATOM     74  C   UNL A   1      41.987  21.719  26.623  1.00  0.00     0.055 A 
ATOM     75  C   UNL A   1      43.236  23.161  25.161  1.00  0.00     0.041 A 
ATOM     76  F   UNL A   1      43.783  25.330  25.859  1.00  0.00    -0.206 F 
ATOM     77  C   UNL A   1      42.651  21.924  25.412  1.00  0.00     0.022 A 
BRANCH  74  78
ATOM     78  S   UNL A   1      41.332  20.078  27.032  1.00  0.00     0.124 S 
ATOM     79  O   UNL A   1      42.504  19.233  26.841  1.00  0.00    -0.237 OA
ATOM     80  O   UNL A   1      40.891  20.263  28.411  1.00  0.00    -0.237 OA
ATOM     81  O   UNL A   1      40.258  19.888  26.058  1.00  0.00    -0.744 OA
ENDBRANCH  74  78
ENDBRANCH  47  71
BRANCH  59  82
ATOM     82  C   UNL A   1      46.840  25.842  32.479  1.00  0.00     0.023 A 
ATOM     83  C   UNL A   1      48.080  26.086  31.863  1.00  0.00     0.031 A 
ATOM     84  C   UNL A   1      46.812  24.971  33.583  1.00  0.00     0.131 A 
ATOM     85  C   UNL A   1      49.226  25.410  32.306  1.00  0.00     0.055 A 
ATOM     86  C   UNL A   1      47.970  24.360  34.066  1.00  0.00     0.041 A 
ATOM     87  F   UNL A   1      45.657  24.696  34.210  1.00  0.00    -0.206 F 
ATOM     88  C   UNL A   1      49.183  24.564  33.417  1.00  0.00     0.022 A 
BRANCH  85  89
ATOM     89  S   UNL A   1      50.750  25.555  31.333  1.00  0.00     0.124 S 
ATOM     90  O   UNL A   1      51.594  24.531  31.940  1.00  0.00    -0.237 OA
ATOM     91  O   UNL A   1      50.283  25.276  29.979  1.00  0.00    -0.237 OA
ATOM     92  O   UNL A   1      51.179  26.933  31.570  1.00  0.00    -0.744 OA
ENDBRANCH  85  89
ENDBRANCH  59  82
ENDBRANCH  33  34
ENDBRANCH  25  28
ENDBRANCH  23  24
ENDBRANCH  22  23
ENDBRANCH   1  22
TORSDOF 18
ENDMDL
MODEL 3
REMARK VINA RESULT:     -10.9      3.289      8.790
REMARK SMILES C[C@H]1[C@H](C(=O)NCCCNC(=O)c2ccc(-c3c4nc(c(-c5cc(S(=O)(=O)[O-])ccc5F)c5ccc([nH]5)c(-c5cc(S(=O)(=O)[O-])ccc5F)c5nc(c(-c6cc(S(=O)(=O)[O-])ccc6F)c6ccc3[nH]6)C=C5)C=C4)cc2)CCN1C(=O)CC[NH2+]C1CC1
REMARK SMILES IDX 7 1 6 2 4 3 5 4 3 6 1 7 2 8 78 9 76 10 77 11 79 12 80 13
REMARK SMILES IDX 81 14 82 15 83 16 84 19 85 20 86 21 8 22 9 23 10 24 11 25
REMARK SMILES IDX 12 27 13 28 14 29 75 30 15 31 74 32 16 33 17 34 18 35 68 36
REMARK SMILES IDX 19 37 73 38 67 39 69 40 20 41 72 42 66 43 65 44 21 46 53 47
REMARK SMILES IDX 33 48 52 49 34 50 37 51 51 52 70 53 35 54 36 55 50 57 71 58
REMARK SMILES IDX 38 59 22 60 23 61 31 62 24 63 30 64 32 65 29 66 25 67 26 68
REMARK SMILES IDX 27 69 28 70 54 71 55 72 63 73 56 74 62 75 64 76 61 77 57 78
REMARK SMILES IDX 58 79 59 80 60 81 39 82 40 83 48 84 41 85 47 86 49 87 46 88
REMARK SMILES IDX 42 89 43 90 44 91 45 92
REMARK H PARENT 6 5 83 17 83 18 10 26 69 45 37 56
REMARK Flexibility Score: inf
ROOT
ATOM      1  C   UNL A   1      31.877  27.558  26.354  1.00  0.00     0.117 C 
ENDROOT
BRANCH   1   2
ATOM      2  N   UNL A   1      31.944  26.840  25.094  1.00  0.00    -0.356 N 
ATOM      3  C   UNL A   1      32.530  25.663  24.771  1.00  0.00     0.225 C 
ATOM      4  O   UNL A   1      32.457  25.297  23.594  1.00  0.00    -0.275 OA
ATOM      5  H   UNL A   1      31.486  27.287  24.346  1.00  0.00     0.163 HD
BRANCH   3   6
ATOM      6  C   UNL A   1      33.291  24.821  25.774  1.00  0.00     0.102 C 
ATOM      7  C   UNL A   1      32.390  22.923  27.095  1.00  0.00     0.032 C 
ATOM      8  C   UNL A   1      32.887  23.343  25.711  1.00  0.00     0.094 C 
ATOM      9  N   UNL A   1      34.112  22.622  25.382  1.00  0.00    -0.339 N 
ATOM     10  C   UNL A   1      34.819  24.861  25.686  1.00  0.00     0.037 C 
ATOM     11  C   UNL A   1      35.274  23.407  25.748  1.00  0.00     0.120 C 
BRANCH   9  12
ATOM     12  C   UNL A   1      34.257  21.338  24.888  1.00  0.00     0.228 C 
ATOM     13  O   UNL A   1      35.282  20.689  25.107  1.00  0.00    -0.275 OA
BRANCH  12  14
ATOM     14  C   UNL A   1      33.156  20.742  24.020  1.00  0.00     0.161 C 
BRANCH  14  15
ATOM     15  C   UNL A   1      32.428  19.571  24.682  1.00  0.00     0.270 C 
BRANCH  15  16
ATOM     16  N   UNL A   1      33.359  18.671  25.374  1.00  0.00    -0.343 N 
ATOM     17  H   UNL A   1      33.146  18.698  26.372  1.00  0.00     0.346 HD
ATOM     18  H   UNL A   1      34.299  19.004  25.158  1.00  0.00     0.346 HD
BRANCH  16  19
ATOM     19  C   UNL A   1      33.300  17.276  24.932  1.00  0.00     0.182 C 
ATOM     20  C   UNL A   1      33.652  16.858  23.529  1.00  0.00     0.071 C 
ATOM     21  C   UNL A   1      34.597  16.556  24.652  1.00  0.00     0.071 C 
ENDBRANCH  16  19
ENDBRANCH  15  16
ENDBRANCH  14  15
ENDBRANCH  12  14
ENDBRANCH   9  12
ENDBRANCH   3   6
ENDBRANCH   1   2
BRANCH   1  22
ATOM     22  C   UNL A   1      33.255  27.913  26.887  1.00  0.00     0.042 C 
BRANCH  22  23
ATOM     23  C   UNL A   1      33.976  28.976  26.070  1.00  0.00     0.118 C 
BRANCH  23  24
ATOM     24  N   UNL A   1      33.701  30.324  26.545  1.00  0.00    -0.352 N 
ATOM     25  C   UNL A   1      34.292  31.043  27.551  1.00  0.00     0.251 C 
ATOM     26  H   UNL A   1      32.976  30.793  26.070  1.00  0.00     0.163 HD
ATOM     27  O   UNL A   1      33.742  32.066  27.959  1.00  0.00    -0.269 OA
BRANCH  25  28
ATOM     28  C   UNL A   1      35.564  30.588  28.147  1.00  0.00     0.039 A 
ATOM     29  C   UNL A   1      35.529  29.771  29.279  1.00  0.00     0.014 A 
ATOM     30  C   UNL A   1      36.791  30.981  27.606  1.00  0.00     0.014 A 
ATOM     31  C   UNL A   1      36.722  29.302  29.828  1.00  0.00     0.010 A 
ATOM     32  C   UNL A   1      37.973  30.434  28.092  1.00  0.00     0.010 A 
ATOM     33  C   UNL A   1      37.953  29.597  29.217  1.00  0.00    -0.014 A 
BRANCH  33  34
ATOM     34  C   UNL A   1      39.224  29.046  29.750  1.00  0.00     0.031 A 
ATOM     35  C   UNL A   1      39.880  29.673  30.950  1.00  0.00     0.074 A 
ATOM     36  C   UNL A   1      39.810  28.007  29.120  1.00  0.00     0.049 A 
ATOM     37  N   UNL A   1      41.008  29.362  31.535  1.00  0.00    -0.248 NA
ATOM     38  C   UNL A   1      39.190  30.824  31.553  1.00  0.00     0.031 C 
ATOM     39  C   UNL A   1      39.292  27.351  27.917  1.00  0.00     0.029 A 
ATOM     40  N   UNL A   1      40.964  27.321  29.400  1.00  0.00    -0.354 N 
ATOM     41  C   UNL A   1      41.165  30.278  32.570  1.00  0.00     0.074 A 
ATOM     42  C   UNL A   1      40.056  31.203  32.480  1.00  0.00     0.031 C 
ATOM     43  C   UNL A   1      40.107  26.339  27.582  1.00  0.00     0.029 A 
ATOM     44  C   UNL A   1      41.229  26.303  28.514  1.00  0.00     0.049 A 
ATOM     45  H   UNL A   1      41.547  27.537  30.163  1.00  0.00     0.167 HD
ATOM     46  C   UNL A   1      42.126  30.323  33.525  1.00  0.00     0.034 A 
ATOM     47  C   UNL A   1      42.266  25.444  28.452  1.00  0.00     0.034 A 
ATOM     48  C   UNL A   1      43.225  29.389  33.596  1.00  0.00     0.049 A 
ATOM     49  C   UNL A   1      43.339  25.529  29.508  1.00  0.00     0.074 A 
ATOM     50  C   UNL A   1      44.234  29.314  34.540  1.00  0.00     0.029 A 
ATOM     51  N   UNL A   1      43.465  28.371  32.680  1.00  0.00    -0.354 N 
ATOM     52  N   UNL A   1      43.443  26.368  30.514  1.00  0.00    -0.248 NA
ATOM     53  C   UNL A   1      44.423  24.544  29.428  1.00  0.00     0.031 C 
ATOM     54  C   UNL A   1      45.122  28.305  34.154  1.00  0.00     0.029 A 
ATOM     55  C   UNL A   1      44.624  27.687  33.019  1.00  0.00     0.049 A 
ATOM     56  H   UNL A   1      42.897  28.166  31.903  1.00  0.00     0.167 HD
ATOM     57  C   UNL A   1      44.594  25.992  31.202  1.00  0.00     0.074 A 
ATOM     58  C   UNL A   1      45.128  24.836  30.510  1.00  0.00     0.031 C 
ATOM     59  C   UNL A   1      45.157  26.549  32.306  1.00  0.00     0.034 A 
BRANCH  46  60
ATOM     60  C   UNL A   1      42.037  31.433  34.548  1.00  0.00     0.023 A 
ATOM     61  C   UNL A   1      41.045  31.438  35.546  1.00  0.00     0.031 A 
ATOM     62  C   UNL A   1      42.931  32.516  34.509  1.00  0.00     0.131 A 
ATOM     63  C   UNL A   1      40.918  32.539  36.405  1.00  0.00     0.055 A 
ATOM     64  C   UNL A   1      42.857  33.567  35.427  1.00  0.00     0.041 A 
ATOM     65  F   UNL A   1      43.886  32.584  33.568  1.00  0.00    -0.206 F 
ATOM     66  C   UNL A   1      41.834  33.592  36.371  1.00  0.00     0.022 A 
BRANCH  63  67
ATOM     67  S   UNL A   1      39.445  32.650  37.458  1.00  0.00     0.124 S 
ATOM     68  O   UNL A   1      38.910  33.957  37.080  1.00  0.00    -0.237 OA
ATOM     69  O   UNL A   1      38.665  31.494  37.032  1.00  0.00    -0.237 OA
ATOM     70  O   UNL A   1      39.985  32.575  38.813  1.00  0.00    -0.744 OA
ENDBRANCH  63  67
ENDBRANCH  46  60
BRANCH  47  71
ATOM     71  C   UNL A   1      42.348  24.441  27.352  1.00  0.00     0.023 A 
ATOM     72  C   UNL A   1      41.557  23.281  27.363  1.00  0.00     0.031 A 
ATOM     73  C   UNL A   1      43.251  24.611  26.287  1.00  0.00     0.131 A 
ATOM     74  C   UNL A   1      41.717  22.315  26.356  1.00  0.00     0.055 A 
ATOM     75  C   UNL A   1      43.364  23.677  25.256  1.00  0.00     0.041 A 
ATOM     76  F   UNL A   1      44.030  25.704  26.224  1.00  0.00    -0.206 F 
ATOM     77  C   UNL A   1      42.603  22.512  25.295  1.00  0.00     0.022 A 
BRANCH  74  78
ATOM     78  S   UNL A   1      40.812  20.750  26.503  1.00  0.00     0.124 S 
ATOM     79  O   UNL A   1      41.645  19.850  25.715  1.00  0.00    -0.237 OA
ATOM     80  O   UNL A   1      40.816  20.532  27.946  1.00  0.00    -0.237 OA
ATOM     81  O   UNL A   1      39.505  21.058  25.926  1.00  0.00    -0.744 OA
ENDBRANCH  74  78
ENDBRANCH  47  71
BRANCH  59  82
ATOM     82  C   UNL A   1      46.401  25.883  32.846  1.00  0.00     0.023 A 
ATOM     83  C   UNL A   1      46.335  24.857  33.805  1.00  0.00     0.031 A 
ATOM     84  C   UNL A   1      47.673  26.303  32.418  1.00  0.00     0.131 A 
ATOM     85  C   UNL A   1      47.515  24.338  34.358  1.00  0.00     0.055 A 
ATOM     86  C   UNL A   1      48.844  25.730  32.916  1.00  0.00     0.041 A 
ATOM     87  F   UNL A   1      47.801  27.281  31.507  1.00  0.00    -0.206 F 
ATOM     88  C   UNL A   1      48.769  24.753  33.905  1.00  0.00     0.022 A 
BRANCH  85  89
ATOM     89  S   UNL A   1      47.388  23.202  35.766  1.00  0.00     0.124 S 
ATOM     90  O   UNL A   1      48.485  22.276  35.507  1.00  0.00    -0.237 OA
ATOM     91  O   UNL A   1      47.565  24.097  36.906  1.00  0.00    -0.237 OA
ATOM     92  O   UNL A   1      46.048  22.632  35.628  1.00  0.00    -0.744 OA
ENDBRANCH  85  89
ENDBRANCH  59  82
ENDBRANCH  33  34
ENDBRANCH  25  28
ENDBRANCH  23  24
ENDBRANCH  22  23
ENDBRANCH   1  22
TORSDOF 18
ENDMDL
