MODEL 1
REMARK VINA RESULT:      -9.3      0.000      0.000
REMARK SMILES COc1cc(Cl)cc(/C=C/C(=O)NCCCNC(=O)c2ccc(-c3c4nc(c(-c5cc(S(=O)(=O)[O-])ccc5F)c5ccc([nH]5)c(-c5cc(S(=O)(=O)[O-])ccc5F)c5nc(c(-c6cc(S(=O)(=O)[O-])ccc6F)c6ccc3[nH]6)C=C5)C=C4)cc2)c1OC
REMARK SMILES IDX 15 1 14 2 13 3 11 4 12 5 10 7 9 8 8 9 3 10 4 11 83 12 5 13
REMARK SMILES IDX 6 14 7 15 2 16 1 17 84 18 85 19 16 20 17 21 18 22 19 24
REMARK SMILES IDX 20 25 21 26 82 27 22 28 81 29 23 30 24 31 25 32 75 33 26 34
REMARK SMILES IDX 80 35 74 36 76 37 27 38 79 39 73 40 72 41 28 43 60 44 40 45
REMARK SMILES IDX 59 46 41 47 44 48 58 49 77 50 42 51 43 52 57 54 78 55 45 56
REMARK SMILES IDX 29 57 30 58 38 59 31 60 37 61 39 62 36 63 32 64 33 65 34 66
REMARK SMILES IDX 35 67 61 68 62 69 70 70 63 71 69 72 71 73 68 74 64 75 65 76
REMARK SMILES IDX 66 77 67 78 46 79 47 80 55 81 48 82 54 83 56 84 53 85 49 86
REMARK SMILES IDX 50 87 51 88 52 89
REMARK H PARENT 13 6 17 23 76 42 44 53
REMARK Flexibility Score: inf
ROOT
ATOM      1  C   UNL A   1      34.430  33.043  31.297  1.00  0.00     0.042 C 
ENDROOT
BRANCH   1   2
ATOM      2  C   UNL A   1      35.774  32.817  31.989  1.00  0.00     0.118 C 
BRANCH   2   3
ATOM      3  N   UNL A   1      36.835  33.603  31.378  1.00  0.00    -0.352 N 
ATOM      4  C   UNL A   1      37.811  34.357  31.950  1.00  0.00     0.244 C 
ATOM      5  O   UNL A   1      38.704  34.837  31.256  1.00  0.00    -0.270 OA
ATOM      6  H   UNL A   1      36.847  33.587  30.394  1.00  0.00     0.163 HD
BRANCH   4   7
ATOM      7  C   UNL A   1      37.869  34.530  33.417  1.00  0.00     0.072 C 
ATOM      8  C   UNL A   1      38.803  33.971  34.200  1.00  0.00     0.018 C 
BRANCH   8   9
ATOM      9  C   UNL A   1      38.844  34.147  35.665  1.00  0.00     0.022 A 
ATOM     10  C   UNL A   1      38.216  33.456  37.912  1.00  0.00     0.162 A 
ATOM     11  C   UNL A   1      38.917  34.552  38.432  1.00  0.00     0.071 A 
ATOM     12  C   UNL A   1      38.184  33.230  36.522  1.00  0.00     0.168 A 
ATOM     13  C   UNL A   1      39.547  35.450  37.578  1.00  0.00     0.045 A 
ATOM     14  Cl  UNL A   1      40.393  36.800  38.231  1.00  0.00    -0.084 Cl
ATOM     15  C   UNL A   1      39.506  35.261  36.202  1.00  0.00     0.032 A 
BRANCH  10  16
ATOM     16  O   UNL A   1      37.651  32.561  38.786  1.00  0.00    -0.493 OA
ATOM     17  C   UNL A   1      37.675  33.019  40.139  1.00  0.00     0.278 C 
ENDBRANCH  10  16
BRANCH  12  18
ATOM     18  O   UNL A   1      37.589  32.177  35.871  1.00  0.00    -0.492 OA
ATOM     19  C   UNL A   1      38.216  30.903  35.883  1.00  0.00     0.278 C 
ENDBRANCH  12  18
ENDBRANCH   8   9
ENDBRANCH   4   7
ENDBRANCH   2   3
ENDBRANCH   1   2
BRANCH   1  20
ATOM     20  C   UNL A   1      34.551  33.608  29.882  1.00  0.00     0.118 C 
BRANCH  20  21
ATOM     21  N   UNL A   1      34.000  32.704  28.883  1.00  0.00    -0.352 N 
ATOM     22  C   UNL A   1      34.562  31.625  28.247  1.00  0.00     0.251 C 
ATOM     23  H   UNL A   1      33.071  32.899  28.620  1.00  0.00     0.163 HD
ATOM     24  O   UNL A   1      33.987  31.154  27.269  1.00  0.00    -0.269 OA
BRANCH  22  25
ATOM     25  C   UNL A   1      35.840  31.035  28.710  1.00  0.00     0.039 A 
ATOM     26  C   UNL A   1      35.791  29.925  29.559  1.00  0.00     0.014 A 
ATOM     27  C   UNL A   1      37.077  31.599  28.381  1.00  0.00     0.014 A 
ATOM     28  C   UNL A   1      36.976  29.356  30.037  1.00  0.00     0.010 A 
ATOM     29  C   UNL A   1      38.260  30.992  28.808  1.00  0.00     0.010 A 
ATOM     30  C   UNL A   1      38.223  29.867  29.645  1.00  0.00    -0.014 A 
BRANCH  30  31
ATOM     31  C   UNL A   1      39.487  29.240  30.115  1.00  0.00     0.031 A 
ATOM     32  C   UNL A   1      40.193  29.772  31.335  1.00  0.00     0.074 A 
ATOM     33  C   UNL A   1      40.014  28.209  29.426  1.00  0.00     0.049 A 
ATOM     34  N   UNL A   1      41.325  29.391  31.868  1.00  0.00    -0.248 NA
ATOM     35  C   UNL A   1      39.549  30.895  32.033  1.00  0.00     0.031 C 
ATOM     36  C   UNL A   1      39.436  27.620  28.215  1.00  0.00     0.029 A 
ATOM     37  N   UNL A   1      41.151  27.469  29.641  1.00  0.00    -0.354 N 
ATOM     38  C   UNL A   1      41.532  30.224  32.964  1.00  0.00     0.074 A 
ATOM     39  C   UNL A   1      40.436  31.171  32.978  1.00  0.00     0.031 C 
ATOM     40  C   UNL A   1      40.207  26.597  27.811  1.00  0.00     0.029 A 
ATOM     41  C   UNL A   1      41.355  26.482  28.704  1.00  0.00     0.049 A 
ATOM     42  H   UNL A   1      41.763  27.631  30.394  1.00  0.00     0.167 HD
ATOM     43  C   UNL A   1      42.527  30.188  33.885  1.00  0.00     0.034 A 
ATOM     44  C   UNL A   1      42.358  25.589  28.577  1.00  0.00     0.034 A 
ATOM     45  C   UNL A   1      43.612  29.236  33.863  1.00  0.00     0.049 A 
ATOM     46  C   UNL A   1      43.470  25.593  29.597  1.00  0.00     0.074 A 
ATOM     47  C   UNL A   1      44.662  29.102  34.756  1.00  0.00     0.029 A 
ATOM     48  N   UNL A   1      43.786  28.252  32.898  1.00  0.00    -0.354 N 
ATOM     49  N   UNL A   1      43.631  26.373  30.641  1.00  0.00    -0.248 NA
ATOM     50  C   UNL A   1      44.526  24.587  29.428  1.00  0.00     0.031 C 
ATOM     51  C   UNL A   1      45.497  28.074  34.303  1.00  0.00     0.029 A 
ATOM     52  C   UNL A   1      44.933  27.520  33.165  1.00  0.00     0.049 A 
ATOM     53  H   UNL A   1      43.181  28.096  32.136  1.00  0.00     0.167 HD
ATOM     54  C   UNL A   1      44.788  25.923  31.272  1.00  0.00     0.074 A 
ATOM     55  C   UNL A   1      45.269  24.796  30.503  1.00  0.00     0.031 C 
ATOM     56  C   UNL A   1      45.400  26.399  32.387  1.00  0.00     0.034 A 
BRANCH  43  57
ATOM     57  C   UNL A   1      42.493  31.223  34.985  1.00  0.00     0.023 A 
ATOM     58  C   UNL A   1      43.026  32.510  34.798  1.00  0.00     0.031 A 
ATOM     59  C   UNL A   1      41.928  30.919  36.236  1.00  0.00     0.131 A 
ATOM     60  C   UNL A   1      43.043  33.423  35.863  1.00  0.00     0.055 A 
ATOM     61  C   UNL A   1      41.879  31.859  37.268  1.00  0.00     0.041 A 
ATOM     62  F   UNL A   1      41.419  29.700  36.480  1.00  0.00    -0.206 F 
ATOM     63  C   UNL A   1      42.449  33.115  37.090  1.00  0.00     0.022 A 
BRANCH  60  64
ATOM     64  S   UNL A   1      43.955  34.978  35.658  1.00  0.00     0.124 S 
ATOM     65  O   UNL A   1      43.354  35.809  36.699  1.00  0.00    -0.237 OA
ATOM     66  O   UNL A   1      45.335  34.567  35.885  1.00  0.00    -0.237 OA
ATOM     67  O   UNL A   1      43.641  35.381  34.289  1.00  0.00    -0.744 OA
ENDBRANCH  60  64
ENDBRANCH  43  57
BRANCH  44  68
ATOM     68  C   UNL A   1      42.376  24.617  27.444  1.00  0.00     0.023 A 
ATOM     69  C   UNL A   1      41.671  23.406  27.525  1.00  0.00     0.031 A 
ATOM     70  C   UNL A   1      43.158  24.849  26.300  1.00  0.00     0.131 A 
ATOM     71  C   UNL A   1      41.814  22.445  26.512  1.00  0.00     0.055 A 
ATOM     72  C   UNL A   1      43.249  23.915  25.266  1.00  0.00     0.041 A 
ATOM     73  F   UNL A   1      43.849  25.992  26.169  1.00  0.00    -0.206 F 
ATOM     74  C   UNL A   1      42.588  22.696  25.378  1.00  0.00     0.022 A 
BRANCH  71  75
ATOM     75  S   UNL A   1      41.064  20.811  26.757  1.00  0.00     0.124 S 
ATOM     76  O   UNL A   1      40.812  20.811  28.194  1.00  0.00    -0.237 OA
ATOM     77  O   UNL A   1      39.886  20.889  25.899  1.00  0.00    -0.237 OA
ATOM     78  O   UNL A   1      42.103  19.889  26.303  1.00  0.00    -0.744 OA
ENDBRANCH  71  75
ENDBRANCH  44  68
BRANCH  56  79
ATOM     79  C   UNL A   1      46.625  25.655  32.860  1.00  0.00     0.023 A 
ATOM     80  C   UNL A   1      46.542  24.620  33.808  1.00  0.00     0.031 A 
ATOM     81  C   UNL A   1      47.897  26.013  32.379  1.00  0.00     0.131 A 
ATOM     82  C   UNL A   1      47.714  24.024  34.295  1.00  0.00     0.055 A 
ATOM     83  C   UNL A   1      49.056  25.374  32.822  1.00  0.00     0.041 A 
ATOM     84  F   UNL A   1      48.035  26.995  31.474  1.00  0.00    -0.206 F 
ATOM     85  C   UNL A   1      48.969  24.384  33.797  1.00  0.00     0.022 A 
BRANCH  82  86
ATOM     86  S   UNL A   1      47.584  22.841  35.664  1.00  0.00     0.124 S 
ATOM     87  O   UNL A   1      48.094  21.617  35.057  1.00  0.00    -0.237 OA
ATOM     88  O   UNL A   1      48.436  23.449  36.682  1.00  0.00    -0.237 OA
ATOM     89  O   UNL A   1      46.157  22.832  35.977  1.00  0.00    -0.744 OA
ENDBRANCH  82  86
ENDBRANCH  56  79
ENDBRANCH  30  31
ENDBRANCH  22  25
ENDBRANCH  20  21
ENDBRANCH   1  20
TORSDOF 16
ENDMDL
MODEL 2
REMARK VINA RESULT:      -9.2      3.889      7.694
REMARK SMILES COc1cc(Cl)cc(/C=C/C(=O)NCCCNC(=O)c2ccc(-c3c4nc(c(-c5cc(S(=O)(=O)[O-])ccc5F)c5ccc([nH]5)c(-c5cc(S(=O)(=O)[O-])ccc5F)c5nc(c(-c6cc(S(=O)(=O)[O-])ccc6F)c6ccc3[nH]6)C=C5)C=C4)cc2)c1OC
REMARK SMILES IDX 15 1 14 2 13 3 11 4 12 5 10 7 9 8 8 9 3 10 4 11 83 12 5 13
REMARK SMILES IDX 6 14 7 15 2 16 1 17 84 18 85 19 16 20 17 21 18 22 19 24
REMARK SMILES IDX 20 25 21 26 82 27 22 28 81 29 23 30 24 31 25 32 75 33 26 34
REMARK SMILES IDX 80 35 74 36 76 37 27 38 79 39 73 40 72 41 28 43 60 44 40 45
REMARK SMILES IDX 59 46 41 47 44 48 58 49 77 50 42 51 43 52 57 54 78 55 45 56
REMARK SMILES IDX 29 57 30 58 38 59 31 60 37 61 39 62 36 63 32 64 33 65 34 66
REMARK SMILES IDX 35 67 61 68 62 69 70 70 63 71 69 72 71 73 68 74 64 75 65 76
REMARK SMILES IDX 66 77 67 78 46 79 47 80 55 81 48 82 54 83 56 84 53 85 49 86
REMARK SMILES IDX 50 87 51 88 52 89
REMARK H PARENT 13 6 17 23 76 42 44 53
REMARK Flexibility Score: inf
ROOT
ATOM      1  C   UNL A   1      31.737  28.482  25.750  1.00  0.00     0.042 C 
ENDROOT
BRANCH   1   2
ATOM      2  C   UNL A   1      32.221  27.247  26.508  1.00  0.00     0.118 C 
BRANCH   2   3
ATOM      3  N   UNL A   1      31.246  26.168  26.463  1.00  0.00    -0.352 N 
ATOM      4  C   UNL A   1      31.411  24.844  26.205  1.00  0.00     0.244 C 
ATOM      5  O   UNL A   1      30.472  24.066  26.353  1.00  0.00    -0.270 OA
ATOM      6  H   UNL A   1      30.319  26.441  26.649  1.00  0.00     0.163 HD
BRANCH   4   7
ATOM      7  C   UNL A   1      32.739  24.307  25.838  1.00  0.00     0.072 C 
ATOM      8  C   UNL A   1      33.446  23.469  26.609  1.00  0.00     0.018 C 
BRANCH   8   9
ATOM      9  C   UNL A   1      34.774  22.946  26.233  1.00  0.00     0.022 A 
ATOM     10  C   UNL A   1      36.217  21.134  25.488  1.00  0.00     0.162 A 
ATOM     11  C   UNL A   1      37.321  21.994  25.574  1.00  0.00     0.071 A 
ATOM     12  C   UNL A   1      34.927  21.604  25.801  1.00  0.00     0.168 A 
ATOM     13  C   UNL A   1      37.156  23.303  26.013  1.00  0.00     0.045 A 
ATOM     14  Cl  UNL A   1      38.524  24.343  26.128  1.00  0.00    -0.084 Cl
ATOM     15  C   UNL A   1      35.896  23.779  26.353  1.00  0.00     0.032 A 
BRANCH  10  16
ATOM     16  O   UNL A   1      36.408  19.866  25.000  1.00  0.00    -0.493 OA
ATOM     17  C   UNL A   1      37.782  19.573  24.740  1.00  0.00     0.278 C 
ENDBRANCH  10  16
BRANCH  12  18
ATOM     18  O   UNL A   1      33.750  20.902  25.712  1.00  0.00    -0.492 OA
ATOM     19  C   UNL A   1      33.136  20.723  24.445  1.00  0.00     0.278 C 
ENDBRANCH  12  18
ENDBRANCH   8   9
ENDBRANCH   4   7
ENDBRANCH   2   3
ENDBRANCH   1   2
BRANCH   1  20
ATOM     20  C   UNL A   1      32.850  29.473  25.407  1.00  0.00     0.118 C 
BRANCH  20  21
ATOM     21  N   UNL A   1      32.553  30.816  25.883  1.00  0.00    -0.352 N 
ATOM     22  C   UNL A   1      33.084  31.531  26.927  1.00  0.00     0.251 C 
ATOM     23  H   UNL A   1      31.856  31.288  25.372  1.00  0.00     0.163 HD
ATOM     24  O   UNL A   1      32.513  32.559  27.285  1.00  0.00    -0.269 OA
BRANCH  22  25
ATOM     25  C   UNL A   1      34.312  31.084  27.625  1.00  0.00     0.039 A 
ATOM     26  C   UNL A   1      35.342  32.010  27.819  1.00  0.00     0.014 A 
ATOM     27  C   UNL A   1      34.493  29.756  28.026  1.00  0.00     0.014 A 
ATOM     28  C   UNL A   1      36.526  31.619  28.451  1.00  0.00     0.010 A 
ATOM     29  C   UNL A   1      35.649  29.383  28.713  1.00  0.00     0.010 A 
ATOM     30  C   UNL A   1      36.682  30.308  28.928  1.00  0.00    -0.014 A 
BRANCH  30  31
ATOM     31  C   UNL A   1      37.921  29.898  29.640  1.00  0.00     0.031 A 
ATOM     32  C   UNL A   1      38.242  30.465  30.999  1.00  0.00     0.074 A 
ATOM     33  C   UNL A   1      38.773  29.036  29.051  1.00  0.00     0.049 A 
ATOM     34  N   UNL A   1      39.293  30.266  31.752  1.00  0.00    -0.248 NA
ATOM     35  C   UNL A   1      37.259  31.394  31.576  1.00  0.00     0.031 C 
ATOM     36  C   UNL A   1      38.585  28.437  27.726  1.00  0.00     0.029 A 
ATOM     37  N   UNL A   1      39.965  28.510  29.483  1.00  0.00    -0.354 N 
ATOM     38  C   UNL A   1      39.101  31.043  32.890  1.00  0.00     0.074 A 
ATOM     39  C   UNL A   1      37.860  31.763  32.697  1.00  0.00     0.031 C 
ATOM     40  C   UNL A   1      39.610  27.608  27.468  1.00  0.00     0.029 A 
ATOM     41  C   UNL A   1      40.549  27.647  28.583  1.00  0.00     0.049 A 
ATOM     42  H   UNL A   1      40.365  28.730  30.355  1.00  0.00     0.167 HD
ATOM     43  C   UNL A   1      39.873  31.129  34.002  1.00  0.00     0.034 A 
ATOM     44  C   UNL A   1      41.714  26.970  28.648  1.00  0.00     0.034 A 
ATOM     45  C   UNL A   1      41.106  30.402  34.186  1.00  0.00     0.049 A 
ATOM     46  C   UNL A   1      42.569  27.111  29.883  1.00  0.00     0.074 A 
ATOM     47  C   UNL A   1      41.955  30.404  35.280  1.00  0.00     0.029 A 
ATOM     48  N   UNL A   1      41.666  29.538  33.253  1.00  0.00    -0.354 N 
ATOM     49  N   UNL A   1      42.354  27.830  30.961  1.00  0.00    -0.248 NA
ATOM     50  C   UNL A   1      43.816  26.335  29.916  1.00  0.00     0.031 C 
ATOM     51  C   UNL A   1      43.053  29.585  34.988  1.00  0.00     0.029 A 
ATOM     52  C   UNL A   1      42.856  29.018  33.739  1.00  0.00     0.049 A 
ATOM     53  H   UNL A   1      41.274  29.327  32.374  1.00  0.00     0.167 HD
ATOM     54  C   UNL A   1      43.423  27.562  31.812  1.00  0.00     0.074 A 
ATOM     55  C   UNL A   1      44.266  26.602  31.131  1.00  0.00     0.031 C 
ATOM     56  C   UNL A   1      43.686  28.063  33.046  1.00  0.00     0.034 A 
BRANCH  43  57
ATOM     57  C   UNL A   1      39.408  32.057  35.100  1.00  0.00     0.023 A 
ATOM     58  C   UNL A   1      38.769  31.567  36.253  1.00  0.00     0.031 A 
ATOM     59  C   UNL A   1      39.599  33.445  34.993  1.00  0.00     0.131 A 
ATOM     60  C   UNL A   1      38.287  32.461  37.220  1.00  0.00     0.055 A 
ATOM     61  C   UNL A   1      39.184  34.324  35.996  1.00  0.00     0.041 A 
ATOM     62  F   UNL A   1      40.186  33.974  33.907  1.00  0.00    -0.206 F 
ATOM     63  C   UNL A   1      38.512  33.835  37.113  1.00  0.00     0.022 A 
BRANCH  60  64
ATOM     64  S   UNL A   1      37.257  31.811  38.565  1.00  0.00     0.124 S 
ATOM     65  O   UNL A   1      36.099  32.700  38.503  1.00  0.00    -0.237 OA
ATOM     66  O   UNL A   1      37.028  30.432  38.150  1.00  0.00    -0.237 OA
ATOM     67  O   UNL A   1      38.098  31.975  39.750  1.00  0.00    -0.744 OA
ENDBRANCH  60  64
ENDBRANCH  43  57
BRANCH  44  68
ATOM     68  C   UNL A   1      42.157  26.102  27.518  1.00  0.00     0.023 A 
ATOM     69  C   UNL A   1      41.842  24.734  27.495  1.00  0.00     0.031 A 
ATOM     70  C   UNL A   1      42.964  26.610  26.485  1.00  0.00     0.131 A 
ATOM     71  C   UNL A   1      42.386  23.908  26.500  1.00  0.00     0.055 A 
ATOM     72  C   UNL A   1      43.452  25.795  25.461  1.00  0.00     0.041 A 
ATOM     73  F   UNL A   1      43.291  27.911  26.454  1.00  0.00    -0.206 F 
ATOM     74  C   UNL A   1      43.179  24.430  25.476  1.00  0.00     0.022 A 
BRANCH  71  75
ATOM     75  S   UNL A   1      42.136  22.115  26.631  1.00  0.00     0.124 S 
ATOM     76  O   UNL A   1      42.981  21.780  27.771  1.00  0.00    -0.237 OA
ATOM     77  O   UNL A   1      40.696  22.028  26.850  1.00  0.00    -0.237 OA
ATOM     78  O   UNL A   1      42.600  21.613  25.339  1.00  0.00    -0.744 OA
ENDBRANCH  71  75
ENDBRANCH  44  68
BRANCH  56  79
ATOM     79  C   UNL A   1      44.911  27.531  33.750  1.00  0.00     0.023 A 
ATOM     80  C   UNL A   1      44.846  26.420  34.609  1.00  0.00     0.031 A 
ATOM     81  C   UNL A   1      46.152  28.168  33.583  1.00  0.00     0.131 A 
ATOM     82  C   UNL A   1      45.986  26.020  35.320  1.00  0.00     0.055 A 
ATOM     83  C   UNL A   1      47.299  27.728  34.246  1.00  0.00     0.041 A 
ATOM     84  F   UNL A   1      46.272  29.234  32.775  1.00  0.00    -0.206 F 
ATOM     85  C   UNL A   1      47.216  26.658  35.133  1.00  0.00     0.022 A 
BRANCH  82  86
ATOM     86  S   UNL A   1      45.819  24.719  36.573  1.00  0.00     0.124 S 
ATOM     87  O   UNL A   1      45.530  25.491  37.776  1.00  0.00    -0.237 OA
ATOM     88  O   UNL A   1      44.715  23.922  36.048  1.00  0.00    -0.237 OA
ATOM     89  O   UNL A   1      47.122  24.057  36.557  1.00  0.00    -0.744 OA
ENDBRANCH  82  86
ENDBRANCH  56  79
ENDBRANCH  30  31
ENDBRANCH  22  25
ENDBRANCH  20  21
ENDBRANCH   1  20
TORSDOF 16
ENDMDL
MODEL 3
REMARK VINA RESULT:      -9.2      5.939     10.366
REMARK SMILES COc1cc(Cl)cc(/C=C/C(=O)NCCCNC(=O)c2ccc(-c3c4nc(c(-c5cc(S(=O)(=O)[O-])ccc5F)c5ccc([nH]5)c(-c5cc(S(=O)(=O)[O-])ccc5F)c5nc(c(-c6cc(S(=O)(=O)[O-])ccc6F)c6ccc3[nH]6)C=C5)C=C4)cc2)c1OC
REMARK SMILES IDX 15 1 14 2 13 3 11 4 12 5 10 7 9 8 8 9 3 10 4 11 83 12 5 13
REMARK SMILES IDX 6 14 7 15 2 16 1 17 84 18 85 19 16 20 17 21 18 22 19 24
REMARK SMILES IDX 20 25 21 26 82 27 22 28 81 29 23 30 24 31 25 32 75 33 26 34
REMARK SMILES IDX 80 35 74 36 76 37 27 38 79 39 73 40 72 41 28 43 60 44 40 45
REMARK SMILES IDX 59 46 41 47 44 48 58 49 77 50 42 51 43 52 57 54 78 55 45 56
REMARK SMILES IDX 29 57 30 58 38 59 31 60 37 61 39 62 36 63 32 64 33 65 34 66
REMARK SMILES IDX 35 67 61 68 62 69 70 70 63 71 69 72 71 73 68 74 64 75 65 76
REMARK SMILES IDX 66 77 67 78 46 79 47 80 55 81 48 82 54 83 56 84 53 85 49 86
REMARK SMILES IDX 50 87 51 88 52 89
REMARK H PARENT 13 6 17 23 76 42 44 53
REMARK Flexibility Score: inf
ROOT
ATOM      1  C   UNL A   1      34.583  21.700  26.469  1.00  0.00     0.042 C 
ENDROOT
BRANCH   1   2
ATOM      2  C   UNL A   1      33.980  22.745  27.406  1.00  0.00     0.118 C 
BRANCH   2   3
ATOM      3  N   UNL A   1      32.546  22.559  27.571  1.00  0.00    -0.352 N 
ATOM      4  C   UNL A   1      31.505  23.322  27.143  1.00  0.00     0.244 C 
ATOM      5  O   UNL A   1      30.353  22.915  27.267  1.00  0.00    -0.270 OA
ATOM      6  H   UNL A   1      32.289  21.753  28.074  1.00  0.00     0.163 HD
BRANCH   4   7
ATOM      7  C   UNL A   1      31.746  24.599  26.438  1.00  0.00     0.072 C 
ATOM      8  C   UNL A   1      30.807  25.538  26.252  1.00  0.00     0.018 C 
BRANCH   8   9
ATOM      9  C   UNL A   1      31.060  26.806  25.540  1.00  0.00     0.022 A 
ATOM     10  C   UNL A   1      30.742  28.275  23.626  1.00  0.00     0.162 A 
ATOM     11  C   UNL A   1      31.608  29.207  24.212  1.00  0.00     0.071 A 
ATOM     12  C   UNL A   1      30.444  27.069  24.290  1.00  0.00     0.168 A 
ATOM     13  C   UNL A   1      32.215  28.929  25.432  1.00  0.00     0.045 A 
ATOM     14  Cl  UNL A   1      33.289  30.078  26.133  1.00  0.00    -0.084 Cl
ATOM     15  C   UNL A   1      31.957  27.734  26.091  1.00  0.00     0.032 A 
BRANCH  10  16
ATOM     16  O   UNL A   1      30.118  28.605  22.449  1.00  0.00    -0.493 OA
ATOM     17  C   UNL A   1      29.333  29.794  22.553  1.00  0.00     0.278 C 
ENDBRANCH  10  16
BRANCH  12  18
ATOM     18  O   UNL A   1      29.577  26.089  23.871  1.00  0.00    -0.492 OA
ATOM     19  C   UNL A   1      28.180  26.340  23.879  1.00  0.00     0.278 C 
ENDBRANCH  12  18
ENDBRANCH   8   9
ENDBRANCH   4   7
ENDBRANCH   2   3
ENDBRANCH   1   2
BRANCH   1  20
ATOM     20  C   UNL A   1      35.872  22.155  25.785  1.00  0.00     0.118 C 
BRANCH  20  21
ATOM     21  N   UNL A   1      36.866  21.093  25.729  1.00  0.00    -0.352 N 
ATOM     22  C   UNL A   1      38.237  21.151  25.756  1.00  0.00     0.251 C 
ATOM     23  H   UNL A   1      36.493  20.185  25.659  1.00  0.00     0.163 HD
ATOM     24  O   UNL A   1      38.874  20.142  25.460  1.00  0.00    -0.269 OA
BRANCH  22  25
ATOM     25  C   UNL A   1      38.951  22.396  26.122  1.00  0.00     0.039 A 
ATOM     26  C   UNL A   1      40.093  22.297  26.924  1.00  0.00     0.014 A 
ATOM     27  C   UNL A   1      38.476  23.658  25.750  1.00  0.00     0.014 A 
ATOM     28  C   UNL A   1      40.780  23.452  27.312  1.00  0.00     0.010 A 
ATOM     29  C   UNL A   1      39.197  24.806  26.085  1.00  0.00     0.010 A 
ATOM     30  C   UNL A   1      40.354  24.716  26.874  1.00  0.00    -0.014 A 
BRANCH  30  31
ATOM     31  C   UNL A   1      41.105  25.945  27.246  1.00  0.00     0.031 A 
ATOM     32  C   UNL A   1      40.453  27.007  28.095  1.00  0.00     0.074 A 
ATOM     33  C   UNL A   1      42.363  26.118  26.797  1.00  0.00     0.049 A 
ATOM     34  N   UNL A   1      40.928  28.163  28.481  1.00  0.00    -0.248 NA
ATOM     35  C   UNL A   1      39.081  26.739  28.549  1.00  0.00     0.031 C 
ATOM     36  C   UNL A   1      43.093  25.172  25.948  1.00  0.00     0.029 A 
ATOM     37  N   UNL A   1      43.255  27.144  26.988  1.00  0.00    -0.354 N 
ATOM     38  C   UNL A   1      39.915  28.763  29.224  1.00  0.00     0.074 A 
ATOM     39  C   UNL A   1      38.780  27.866  29.178  1.00  0.00     0.031 C 
ATOM     40  C   UNL A   1      44.327  25.651  25.715  1.00  0.00     0.029 A 
ATOM     41  C   UNL A   1      44.464  26.954  26.358  1.00  0.00     0.049 A 
ATOM     42  H   UNL A   1      43.049  27.943  27.525  1.00  0.00     0.167 HD
ATOM     43  C   UNL A   1      39.937  29.939  29.900  1.00  0.00     0.034 A 
ATOM     44  C   UNL A   1      45.556  27.743  26.300  1.00  0.00     0.034 A 
ATOM     45  C   UNL A   1      41.077  30.823  29.941  1.00  0.00     0.049 A 
ATOM     46  C   UNL A   1      45.541  29.061  27.034  1.00  0.00     0.074 A 
ATOM     47  C   UNL A   1      41.210  32.029  30.609  1.00  0.00     0.029 A 
ATOM     48  N   UNL A   1      42.283  30.597  29.290  1.00  0.00    -0.354 N 
ATOM     49  N   UNL A   1      44.581  29.596  27.753  1.00  0.00    -0.248 NA
ATOM     50  C   UNL A   1      46.762  29.873  26.959  1.00  0.00     0.031 C 
ATOM     51  C   UNL A   1      42.475  32.556  30.319  1.00  0.00     0.029 A 
ATOM     52  C   UNL A   1      43.157  31.647  29.526  1.00  0.00     0.049 A 
ATOM     53  H   UNL A   1      42.487  29.805  28.741  1.00  0.00     0.167 HD
ATOM     54  C   UNL A   1      45.101  30.790  28.246  1.00  0.00     0.074 A 
ATOM     55  C   UNL A   1      46.461  30.884  27.758  1.00  0.00     0.031 C 
ATOM     56  C   UNL A   1      44.509  31.726  29.031  1.00  0.00     0.034 A 
BRANCH  43  57
ATOM     57  C   UNL A   1      38.681  30.340  30.637  1.00  0.00     0.023 A 
ATOM     58  C   UNL A   1      37.644  31.039  29.992  1.00  0.00     0.031 A 
ATOM     59  C   UNL A   1      38.518  30.030  31.998  1.00  0.00     0.131 A 
ATOM     60  C   UNL A   1      36.523  31.459  30.722  1.00  0.00     0.055 A 
ATOM     61  C   UNL A   1      37.364  30.385  32.700  1.00  0.00     0.041 A 
ATOM     62  F   UNL A   1      39.481  29.380  32.671  1.00  0.00    -0.206 F 
ATOM     63  C   UNL A   1      36.363  31.114  32.066  1.00  0.00     0.022 A 
BRANCH  60  64
ATOM     64  S   UNL A   1      35.329  32.563  29.919  1.00  0.00     0.124 S 
ATOM     65  O   UNL A   1      34.830  31.718  28.836  1.00  0.00    -0.237 OA
ATOM     66  O   UNL A   1      34.387  32.848  30.995  1.00  0.00    -0.237 OA
ATOM     67  O   UNL A   1      36.146  33.697  29.489  1.00  0.00    -0.744 OA
ENDBRANCH  60  64
ENDBRANCH  43  57
BRANCH  44  68
ATOM     68  C   UNL A   1      46.758  27.327  25.518  1.00  0.00     0.023 A 
ATOM     69  C   UNL A   1      46.983  27.827  24.226  1.00  0.00     0.031 A 
ATOM     70  C   UNL A   1      47.655  26.369  26.020  1.00  0.00     0.131 A 
ATOM     71  C   UNL A   1      48.040  27.319  23.454  1.00  0.00     0.055 A 
ATOM     72  C   UNL A   1      48.741  25.912  25.271  1.00  0.00     0.041 A 
ATOM     73  F   UNL A   1      47.490  25.862  27.252  1.00  0.00    -0.206 F 
ATOM     74  C   UNL A   1      48.927  26.374  23.972  1.00  0.00     0.022 A 
BRANCH  71  75
ATOM     75  S   UNL A   1      48.165  27.827  21.717  1.00  0.00     0.124 S 
ATOM     76  O   UNL A   1      49.369  28.651  21.734  1.00  0.00    -0.237 OA
ATOM     77  O   UNL A   1      48.276  26.542  21.034  1.00  0.00    -0.237 OA
ATOM     78  O   UNL A   1      46.916  28.549  21.483  1.00  0.00    -0.744 OA
ENDBRANCH  71  75
ENDBRANCH  44  68
BRANCH  56  79
ATOM     79  C   UNL A   1      45.360  32.901  29.448  1.00  0.00     0.023 A 
ATOM     80  C   UNL A   1      45.446  34.066  28.665  1.00  0.00     0.031 A 
ATOM     81  C   UNL A   1      46.122  32.838  30.627  1.00  0.00     0.131 A 
ATOM     82  C   UNL A   1      46.325  35.094  29.036  1.00  0.00     0.055 A 
ATOM     83  C   UNL A   1      46.949  33.890  31.025  1.00  0.00     0.041 A 
ATOM     84  F   UNL A   1      46.079  31.750  31.412  1.00  0.00    -0.206 F 
ATOM     85  C   UNL A   1      47.066  35.019  30.219  1.00  0.00     0.022 A 
BRANCH  82  86
ATOM     86  S   UNL A   1      46.565  36.486  27.899  1.00  0.00     0.124 S 
ATOM     87  O   UNL A   1      45.271  36.561  27.232  1.00  0.00    -0.237 OA
ATOM     88  O   UNL A   1      46.876  37.583  28.811  1.00  0.00    -0.237 OA
ATOM     89  O   UNL A   1      47.676  36.053  27.054  1.00  0.00    -0.744 OA
ENDBRANCH  82  86
ENDBRANCH  56  79
ENDBRANCH  30  31
ENDBRANCH  22  25
ENDBRANCH  20  21
ENDBRANCH   1  20
TORSDOF 16
ENDMDL
