MODEL 1
REMARK VINA RESULT:     -11.5      0.000      0.000
REMARK SMILES CC(C)C[C@@H](C(=O)NCCCNC(=O)c1ccc(-c2c3nc(c(-c4cc(S(=O)(=O)[O-])ccc4F)c4ccc([nH]4)c(-c4cc(S(=O)(=O)[O-])ccc4F)c4nc(c(-c5cc(S(=O)(=O)[O-])ccc5F)c5ccc2[nH]5)C=C4)C=C3)cc1)[C@@H]1CCC[C@@H](C)C1
REMARK SMILES IDX 10 1 9 2 8 3 6 4 7 5 5 7 4 8 2 9 1 10 3 11 78 12 79 13 84 14
REMARK SMILES IDX 80 15 82 16 81 17 83 18 11 19 12 20 13 21 14 23 15 24 16 25
REMARK SMILES IDX 77 26 17 27 76 28 18 29 19 30 20 31 70 32 21 33 75 34 69 35
REMARK SMILES IDX 71 36 22 37 74 38 68 39 67 40 23 42 55 43 35 44 54 45 36 46
REMARK SMILES IDX 39 47 53 48 72 49 37 50 38 51 52 53 73 54 40 55 24 56 25 57
REMARK SMILES IDX 33 58 26 59 32 60 34 61 31 62 27 63 28 64 29 65 30 66 56 67
REMARK SMILES IDX 57 68 65 69 58 70 64 71 66 72 63 73 59 74 60 75 61 76 62 77
REMARK SMILES IDX 41 78 42 79 50 80 43 81 49 82 51 83 48 84 44 85 45 86 46 87
REMARK SMILES IDX 47 88
REMARK H PARENT 8 6 12 22 71 41 39 52
REMARK Flexibility Score: inf
ROOT
ATOM      1  C   UNL A   1      31.248  30.763  25.527  1.00  0.00     0.042 C 
ENDROOT
BRANCH   1   2
ATOM      2  C   UNL A   1      31.910  29.610  24.782  1.00  0.00     0.117 C 
BRANCH   2   3
ATOM      3  N   UNL A   1      31.267  29.268  23.523  1.00  0.00    -0.356 N 
ATOM      4  C   UNL A   1      30.998  28.090  22.912  1.00  0.00     0.223 C 
ATOM      5  O   UNL A   1      30.366  28.166  21.850  1.00  0.00    -0.275 OA
ATOM      6  H   UNL A   1      30.965  30.053  23.011  1.00  0.00     0.163 HD
BRANCH   4   7
ATOM      7  C   UNL A   1      31.438  26.710  23.421  1.00  0.00     0.082 C 
BRANCH   7   8
ATOM      8  C   UNL A   1      32.764  26.135  22.869  1.00  0.00     0.016 C 
BRANCH   8   9
ATOM      9  C   UNL A   1      33.967  26.014  23.833  1.00  0.00    -0.017 C 
ATOM     10  C   UNL A   1      33.682  26.476  25.257  1.00  0.00     0.007 C 
ATOM     11  C   UNL A   1      34.477  24.569  23.831  1.00  0.00     0.007 C 
ENDBRANCH   8   9
ENDBRANCH   7   8
BRANCH   7  12
ATOM     12  C   UNL A   1      30.280  25.655  23.665  1.00  0.00     0.002 C 
ATOM     13  C   UNL A   1      29.320  25.912  24.846  1.00  0.00     0.004 C 
ATOM     14  C   UNL A   1      30.699  24.164  23.684  1.00  0.00     0.007 C 
ATOM     15  C   UNL A   1      29.872  25.481  26.199  1.00  0.00     0.001 C 
ATOM     16  C   UNL A   1      31.299  23.747  25.029  1.00  0.00    -0.014 C 
ATOM     17  C   UNL A   1      30.343  24.029  26.191  1.00  0.00     0.003 C 
ATOM     18  C   UNL A   1      31.797  22.307  25.036  1.00  0.00     0.007 C 
ENDBRANCH   7  12
ENDBRANCH   4   7
ENDBRANCH   2   3
ENDBRANCH   1   2
BRANCH   1  19
ATOM     19  C   UNL A   1      31.870  31.022  26.893  1.00  0.00     0.118 C 
BRANCH  19  20
ATOM     20  N   UNL A   1      32.045  32.441  27.108  1.00  0.00    -0.352 N 
ATOM     21  C   UNL A   1      33.005  33.117  27.819  1.00  0.00     0.251 C 
ATOM     22  H   UNL A   1      31.369  33.013  26.678  1.00  0.00     0.163 HD
ATOM     23  O   UNL A   1      32.717  34.236  28.239  1.00  0.00    -0.269 OA
BRANCH  21  24
ATOM     24  C   UNL A   1      34.355  32.550  28.083  1.00  0.00     0.039 A 
ATOM     25  C   UNL A   1      34.441  31.189  28.401  1.00  0.00     0.014 A 
ATOM     26  C   UNL A   1      35.505  33.337  28.186  1.00  0.00     0.014 A 
ATOM     27  C   UNL A   1      35.640  30.645  28.869  1.00  0.00     0.010 A 
ATOM     28  C   UNL A   1      36.731  32.768  28.542  1.00  0.00     0.010 A 
ATOM     29  C   UNL A   1      36.795  31.435  28.966  1.00  0.00    -0.014 A 
BRANCH  29  30
ATOM     30  C   UNL A   1      38.014  30.924  29.655  1.00  0.00     0.031 A 
ATOM     31  C   UNL A   1      38.282  31.320  31.092  1.00  0.00     0.074 A 
ATOM     32  C   UNL A   1      38.864  30.098  29.017  1.00  0.00     0.049 A 
ATOM     33  N   UNL A   1      39.285  31.001  31.871  1.00  0.00    -0.248 NA
ATOM     34  C   UNL A   1      37.307  32.223  31.723  1.00  0.00     0.031 C 
ATOM     35  C   UNL A   1      38.735  29.660  27.626  1.00  0.00     0.029 A 
ATOM     36  N   UNL A   1      40.000  29.465  29.458  1.00  0.00    -0.354 N 
ATOM     37  C   UNL A   1      39.070  31.681  33.069  1.00  0.00     0.074 A 
ATOM     38  C   UNL A   1      37.889  32.492  32.880  1.00  0.00     0.031 C 
ATOM     39  C   UNL A   1      39.725  28.798  27.343  1.00  0.00     0.029 A 
ATOM     40  C   UNL A   1      40.581  28.649  28.516  1.00  0.00     0.049 A 
ATOM     41  H   UNL A   1      40.365  29.586  30.365  1.00  0.00     0.167 HD
ATOM     42  C   UNL A   1      39.766  31.611  34.231  1.00  0.00     0.034 A 
ATOM     43  C   UNL A   1      41.676  27.865  28.593  1.00  0.00     0.034 A 
ATOM     44  C   UNL A   1      40.922  30.768  34.421  1.00  0.00     0.049 A 
ATOM     45  C   UNL A   1      42.431  27.797  29.897  1.00  0.00     0.074 A 
ATOM     46  C   UNL A   1      41.688  30.591  35.560  1.00  0.00     0.029 A 
ATOM     47  N   UNL A   1      41.475  29.952  33.442  1.00  0.00    -0.354 N 
ATOM     48  N   UNL A   1      42.196  28.426  31.026  1.00  0.00    -0.248 NA
ATOM     49  C   UNL A   1      43.589  26.895  29.940  1.00  0.00     0.031 C 
ATOM     50  C   UNL A   1      42.733  29.712  35.256  1.00  0.00     0.029 A 
ATOM     51  C   UNL A   1      42.579  29.282  33.947  1.00  0.00     0.049 A 
ATOM     52  H   UNL A   1      41.134  29.862  32.523  1.00  0.00     0.167 HD
ATOM     53  C   UNL A   1      43.158  27.967  31.923  1.00  0.00     0.074 A 
ATOM     54  C   UNL A   1      43.956  26.991  31.208  1.00  0.00     0.031 C 
ATOM     55  C   UNL A   1      43.368  28.318  33.218  1.00  0.00     0.034 A 
BRANCH  42  56
ATOM     56  C   UNL A   1      39.296  32.482  35.377  1.00  0.00     0.023 A 
ATOM     57  C   UNL A   1      39.745  33.807  35.529  1.00  0.00     0.031 A 
ATOM     58  C   UNL A   1      38.425  31.971  36.354  1.00  0.00     0.131 A 
ATOM     59  C   UNL A   1      39.397  34.540  36.675  1.00  0.00     0.055 A 
ATOM     60  C   UNL A   1      38.008  32.738  37.446  1.00  0.00     0.041 A 
ATOM     61  F   UNL A   1      37.975  30.708  36.277  1.00  0.00    -0.206 F 
ATOM     62  C   UNL A   1      38.509  34.025  37.621  1.00  0.00     0.022 A 
BRANCH  59  63
ATOM     63  S   UNL A   1      40.248  36.111  36.988  1.00  0.00     0.124 S 
ATOM     64  O   UNL A   1      41.533  35.651  37.508  1.00  0.00    -0.237 OA
ATOM     65  O   UNL A   1      40.275  36.726  35.668  1.00  0.00    -0.237 OA
ATOM     66  O   UNL A   1      39.389  36.776  37.970  1.00  0.00    -0.744 OA
ENDBRANCH  59  63
ENDBRANCH  42  56
BRANCH  43  67
ATOM     67  C   UNL A   1      42.123  27.067  27.414  1.00  0.00     0.023 A 
ATOM     68  C   UNL A   1      41.865  25.689  27.335  1.00  0.00     0.031 A 
ATOM     69  C   UNL A   1      42.867  27.659  26.378  1.00  0.00     0.131 A 
ATOM     70  C   UNL A   1      42.393  24.937  26.274  1.00  0.00     0.055 A 
ATOM     71  C   UNL A   1      43.342  26.917  25.295  1.00  0.00     0.041 A 
ATOM     72  F   UNL A   1      43.137  28.973  26.401  1.00  0.00    -0.206 F 
ATOM     73  C   UNL A   1      43.120  25.544  25.247  1.00  0.00     0.022 A 
BRANCH  70  74
ATOM     74  S   UNL A   1      42.200  23.134  26.307  1.00  0.00     0.124 S 
ATOM     75  O   UNL A   1      40.758  22.991  26.468  1.00  0.00    -0.237 OA
ATOM     76  O   UNL A   1      42.741  22.748  25.007  1.00  0.00    -0.237 OA
ATOM     77  O   UNL A   1      43.002  22.727  27.459  1.00  0.00    -0.744 OA
ENDBRANCH  70  74
ENDBRANCH  43  67
BRANCH  55  78
ATOM     78  C   UNL A   1      44.480  27.600  33.945  1.00  0.00     0.023 A 
ATOM     79  C   UNL A   1      44.279  26.342  34.541  1.00  0.00     0.031 A 
ATOM     80  C   UNL A   1      45.743  28.201  34.081  1.00  0.00     0.131 A 
ATOM     81  C   UNL A   1      45.296  25.766  35.317  1.00  0.00     0.055 A 
ATOM     82  C   UNL A   1      46.775  27.589  34.794  1.00  0.00     0.041 A 
ATOM     83  F   UNL A   1      45.993  29.400  33.531  1.00  0.00    -0.206 F 
ATOM     84  C   UNL A   1      46.549  26.374  35.434  1.00  0.00     0.022 A 
BRANCH  81  85
ATOM     85  S   UNL A   1      44.916  24.275  36.278  1.00  0.00     0.124 S 
ATOM     86  O   UNL A   1      45.743  23.270  35.619  1.00  0.00    -0.237 OA
ATOM     87  O   UNL A   1      45.330  24.660  37.624  1.00  0.00    -0.237 OA
ATOM     88  O   UNL A   1      43.475  24.109  36.096  1.00  0.00    -0.744 OA
ENDBRANCH  81  85
ENDBRANCH  55  78
ENDBRANCH  29  30
ENDBRANCH  21  24
ENDBRANCH  19  20
ENDBRANCH   1  19
TORSDOF 16
ENDMDL
MODEL 2
REMARK VINA RESULT:     -11.3      2.157      2.515
REMARK SMILES CC(C)C[C@@H](C(=O)NCCCNC(=O)c1ccc(-c2c3nc(c(-c4cc(S(=O)(=O)[O-])ccc4F)c4ccc([nH]4)c(-c4cc(S(=O)(=O)[O-])ccc4F)c4nc(c(-c5cc(S(=O)(=O)[O-])ccc5F)c5ccc2[nH]5)C=C4)C=C3)cc1)[C@@H]1CCC[C@@H](C)C1
REMARK SMILES IDX 10 1 9 2 8 3 6 4 7 5 5 7 4 8 2 9 1 10 3 11 78 12 79 13 84 14
REMARK SMILES IDX 80 15 82 16 81 17 83 18 11 19 12 20 13 21 14 23 15 24 16 25
REMARK SMILES IDX 77 26 17 27 76 28 18 29 19 30 20 31 70 32 21 33 75 34 69 35
REMARK SMILES IDX 71 36 22 37 74 38 68 39 67 40 23 42 55 43 35 44 54 45 36 46
REMARK SMILES IDX 39 47 53 48 72 49 37 50 38 51 52 53 73 54 40 55 24 56 25 57
REMARK SMILES IDX 33 58 26 59 32 60 34 61 31 62 27 63 28 64 29 65 30 66 56 67
REMARK SMILES IDX 57 68 65 69 58 70 64 71 66 72 63 73 59 74 60 75 61 76 62 77
REMARK SMILES IDX 41 78 42 79 50 80 43 81 49 82 51 83 48 84 44 85 45 86 46 87
REMARK SMILES IDX 47 88
REMARK H PARENT 8 6 12 22 71 41 39 52
REMARK Flexibility Score: inf
ROOT
ATOM      1  C   UNL A   1      32.951  29.410  25.060  1.00  0.00     0.042 C 
ENDROOT
BRANCH   1   2
ATOM      2  C   UNL A   1      33.656  28.079  24.826  1.00  0.00     0.117 C 
BRANCH   2   3
ATOM      3  N   UNL A   1      33.805  27.723  23.424  1.00  0.00    -0.356 N 
ATOM      4  C   UNL A   1      33.552  26.591  22.725  1.00  0.00     0.223 C 
ATOM      5  O   UNL A   1      33.741  26.659  21.503  1.00  0.00    -0.275 OA
ATOM      6  H   UNL A   1      34.163  28.454  22.870  1.00  0.00     0.163 HD
BRANCH   4   7
ATOM      7  C   UNL A   1      33.087  25.261  23.335  1.00  0.00     0.082 C 
BRANCH   7   8
ATOM      8  C   UNL A   1      33.975  24.018  23.098  1.00  0.00     0.016 C 
BRANCH   8   9
ATOM      9  C   UNL A   1      34.787  23.459  24.290  1.00  0.00    -0.017 C 
ATOM     10  C   UNL A   1      34.678  24.284  25.568  1.00  0.00     0.007 C 
ATOM     11  C   UNL A   1      34.372  22.008  24.553  1.00  0.00     0.007 C 
ENDBRANCH   8   9
ENDBRANCH   7   8
BRANCH   7  12
ATOM     12  C   UNL A   1      31.523  25.000  23.329  1.00  0.00     0.002 C 
ATOM     13  C   UNL A   1      30.600  26.202  23.624  1.00  0.00     0.004 C 
ATOM     14  C   UNL A   1      31.025  23.783  24.146  1.00  0.00     0.007 C 
ATOM     15  C   UNL A   1      30.448  26.520  25.106  1.00  0.00     0.001 C 
ATOM     16  C   UNL A   1      30.921  24.090  25.642  1.00  0.00    -0.014 C 
ATOM     17  C   UNL A   1      30.019  25.297  25.914  1.00  0.00     0.003 C 
ATOM     18  C   UNL A   1      30.516  22.877  26.470  1.00  0.00     0.007 C 
ENDBRANCH   7  12
ENDBRANCH   4   7
ENDBRANCH   2   3
ENDBRANCH   1   2
BRANCH   1  19
ATOM     19  C   UNL A   1      32.796  29.747  26.536  1.00  0.00     0.118 C 
BRANCH  19  20
ATOM     20  N   UNL A   1      32.853  31.179  26.737  1.00  0.00    -0.352 N 
ATOM     21  C   UNL A   1      33.685  31.929  27.529  1.00  0.00     0.251 C 
ATOM     22  H   UNL A   1      32.191  31.697  26.224  1.00  0.00     0.163 HD
ATOM     23  O   UNL A   1      33.281  33.032  27.892  1.00  0.00    -0.269 OA
BRANCH  21  24
ATOM     24  C   UNL A   1      35.033  31.459  27.949  1.00  0.00     0.039 A 
ATOM     25  C   UNL A   1      35.165  30.121  28.342  1.00  0.00     0.014 A 
ATOM     26  C   UNL A   1      36.121  32.319  28.120  1.00  0.00     0.014 A 
ATOM     27  C   UNL A   1      36.341  29.674  28.949  1.00  0.00     0.010 A 
ATOM     28  C   UNL A   1      37.337  31.843  28.619  1.00  0.00     0.010 A 
ATOM     29  C   UNL A   1      37.435  30.537  29.114  1.00  0.00    -0.014 A 
BRANCH  29  30
ATOM     30  C   UNL A   1      38.608  30.133  29.940  1.00  0.00     0.031 A 
ATOM     31  C   UNL A   1      38.734  30.645  31.360  1.00  0.00     0.074 A 
ATOM     32  C   UNL A   1      39.543  29.303  29.441  1.00  0.00     0.049 A 
ATOM     33  N   UNL A   1      39.676  30.429  32.243  1.00  0.00    -0.248 NA
ATOM     34  C   UNL A   1      37.673  31.546  31.836  1.00  0.00     0.031 C 
ATOM     35  C   UNL A   1      39.552  28.759  28.082  1.00  0.00     0.029 A 
ATOM     36  N   UNL A   1      40.660  28.757  30.023  1.00  0.00    -0.354 N 
ATOM     37  C   UNL A   1      39.331  31.184  33.363  1.00  0.00     0.074 A 
ATOM     38  C   UNL A   1      38.141  31.925  33.014  1.00  0.00     0.031 C 
ATOM     39  C   UNL A   1      40.597  27.925  27.950  1.00  0.00     0.029 A 
ATOM     40  C   UNL A   1      41.352  27.901  29.198  1.00  0.00     0.049 A 
ATOM     41  H   UNL A   1      40.939  28.959  30.946  1.00  0.00     0.167 HD
ATOM     42  C   UNL A   1      39.925  31.231  34.582  1.00  0.00     0.034 A 
ATOM     43  C   UNL A   1      42.465  27.176  29.427  1.00  0.00     0.034 A 
ATOM     44  C   UNL A   1      41.092  30.458  34.932  1.00  0.00     0.049 A 
ATOM     45  C   UNL A   1      43.106  27.237  30.792  1.00  0.00     0.074 A 
ATOM     46  C   UNL A   1      41.762  30.399  36.142  1.00  0.00     0.029 A 
ATOM     47  N   UNL A   1      41.761  29.599  34.069  1.00  0.00    -0.354 N 
ATOM     48  N   UNL A   1      42.749  27.935  31.845  1.00  0.00    -0.248 NA
ATOM     49  C   UNL A   1      44.290  26.395  31.000  1.00  0.00     0.031 C 
ATOM     50  C   UNL A   1      42.864  29.549  35.995  1.00  0.00     0.029 A 
ATOM     51  C   UNL A   1      42.841  29.018  34.715  1.00  0.00     0.049 A 
ATOM     52  H   UNL A   1      41.505  29.427  33.133  1.00  0.00     0.167 HD
ATOM     53  C   UNL A   1      43.647  27.587  32.852  1.00  0.00     0.074 A 
ATOM     54  C   UNL A   1      44.541  26.599  32.284  1.00  0.00     0.031 C 
ATOM     55  C   UNL A   1      43.729  28.041  34.129  1.00  0.00     0.034 A 
BRANCH  42  56
ATOM     56  C   UNL A   1      39.324  32.161  35.614  1.00  0.00     0.023 A 
ATOM     57  C   UNL A   1      39.729  33.504  35.724  1.00  0.00     0.031 A 
ATOM     58  C   UNL A   1      38.365  31.691  36.528  1.00  0.00     0.131 A 
ATOM     59  C   UNL A   1      39.252  34.299  36.778  1.00  0.00     0.055 A 
ATOM     60  C   UNL A   1      37.823  32.515  37.519  1.00  0.00     0.041 A 
ATOM     61  F   UNL A   1      37.949  30.415  36.489  1.00  0.00    -0.206 F 
ATOM     62  C   UNL A   1      38.280  33.822  37.660  1.00  0.00     0.022 A 
BRANCH  59  63
ATOM     63  S   UNL A   1      40.037  35.907  37.073  1.00  0.00     0.124 S 
ATOM     64  O   UNL A   1      41.431  35.521  37.273  1.00  0.00    -0.237 OA
ATOM     65  O   UNL A   1      39.743  36.633  35.844  1.00  0.00    -0.237 OA
ATOM     66  O   UNL A   1      39.358  36.405  38.271  1.00  0.00    -0.744 OA
ENDBRANCH  59  63
ENDBRANCH  42  56
BRANCH  43  67
ATOM     67  C   UNL A   1      43.045  26.315  28.354  1.00  0.00     0.023 A 
ATOM     68  C   UNL A   1      44.137  26.754  27.587  1.00  0.00     0.031 A 
ATOM     69  C   UNL A   1      42.479  25.067  28.041  1.00  0.00     0.131 A 
ATOM     70  C   UNL A   1      44.593  25.978  26.510  1.00  0.00     0.055 A 
ATOM     71  C   UNL A   1      42.972  24.273  27.004  1.00  0.00     0.041 A 
ATOM     72  F   UNL A   1      41.437  24.598  28.746  1.00  0.00    -0.206 F 
ATOM     73  C   UNL A   1      44.025  24.735  26.221  1.00  0.00     0.022 A 
BRANCH  70  74
ATOM     74  S   UNL A   1      45.877  26.664  25.428  1.00  0.00     0.124 S 
ATOM     75  O   UNL A   1      46.208  25.517  24.592  1.00  0.00    -0.237 OA
ATOM     76  O   UNL A   1      45.165  27.754  24.769  1.00  0.00    -0.237 OA
ATOM     77  O   UNL A   1      46.921  27.080  26.362  1.00  0.00    -0.744 OA
ENDBRANCH  70  74
ENDBRANCH  43  67
BRANCH  55  78
ATOM     78  C   UNL A   1      44.800  27.428  35.001  1.00  0.00     0.023 A 
ATOM     79  C   UNL A   1      46.105  27.950  35.042  1.00  0.00     0.031 A 
ATOM     80  C   UNL A   1      44.522  26.282  35.765  1.00  0.00     0.131 A 
ATOM     81  C   UNL A   1      47.103  27.278  35.763  1.00  0.00     0.055 A 
ATOM     82  C   UNL A   1      45.502  25.658  36.538  1.00  0.00     0.041 A 
ATOM     83  F   UNL A   1      43.292  25.742  35.766  1.00  0.00    -0.206 F 
ATOM     84  C   UNL A   1      46.807  26.144  36.525  1.00  0.00     0.022 A 
BRANCH  81  85
ATOM     85  S   UNL A   1      48.822  27.830  35.586  1.00  0.00     0.124 S 
ATOM     86  O   UNL A   1      48.850  29.013  36.440  1.00  0.00    -0.237 OA
ATOM     87  O   UNL A   1      49.571  26.675  36.071  1.00  0.00    -0.237 OA
ATOM     88  O   UNL A   1      48.951  28.096  34.155  1.00  0.00    -0.744 OA
ENDBRANCH  81  85
ENDBRANCH  55  78
ENDBRANCH  29  30
ENDBRANCH  21  24
ENDBRANCH  19  20
ENDBRANCH   1  19
TORSDOF 16
ENDMDL
MODEL 3
REMARK VINA RESULT:     -11.3      1.326      2.175
REMARK SMILES CC(C)C[C@@H](C(=O)NCCCNC(=O)c1ccc(-c2c3nc(c(-c4cc(S(=O)(=O)[O-])ccc4F)c4ccc([nH]4)c(-c4cc(S(=O)(=O)[O-])ccc4F)c4nc(c(-c5cc(S(=O)(=O)[O-])ccc5F)c5ccc2[nH]5)C=C4)C=C3)cc1)[C@@H]1CCC[C@@H](C)C1
REMARK SMILES IDX 10 1 9 2 8 3 6 4 7 5 5 7 4 8 2 9 1 10 3 11 78 12 79 13 84 14
REMARK SMILES IDX 80 15 82 16 81 17 83 18 11 19 12 20 13 21 14 23 15 24 16 25
REMARK SMILES IDX 77 26 17 27 76 28 18 29 19 30 20 31 70 32 21 33 75 34 69 35
REMARK SMILES IDX 71 36 22 37 74 38 68 39 67 40 23 42 55 43 35 44 54 45 36 46
REMARK SMILES IDX 39 47 53 48 72 49 37 50 38 51 52 53 73 54 40 55 24 56 25 57
REMARK SMILES IDX 33 58 26 59 32 60 34 61 31 62 27 63 28 64 29 65 30 66 56 67
REMARK SMILES IDX 57 68 65 69 58 70 64 71 66 72 63 73 59 74 60 75 61 76 62 77
REMARK SMILES IDX 41 78 42 79 50 80 43 81 49 82 51 83 48 84 44 85 45 86 46 87
REMARK SMILES IDX 47 88
REMARK H PARENT 8 6 12 22 71 41 39 52
REMARK Flexibility Score: inf
ROOT
ATOM      1  C   UNL A   1      31.667  29.121  26.928  1.00  0.00     0.042 C 
ENDROOT
BRANCH   1   2
ATOM      2  C   UNL A   1      32.058  27.648  26.971  1.00  0.00     0.117 C 
BRANCH   2   3
ATOM      3  N   UNL A   1      30.963  26.733  26.687  1.00  0.00    -0.356 N 
ATOM      4  C   UNL A   1      30.917  25.452  26.252  1.00  0.00     0.223 C 
ATOM      5  O   UNL A   1      29.789  24.948  26.179  1.00  0.00    -0.275 OA
ATOM      6  H   UNL A   1      30.074  27.125  26.845  1.00  0.00     0.163 HD
BRANCH   4   7
ATOM      7  C   UNL A   1      32.136  24.619  25.828  1.00  0.00     0.082 C 
BRANCH   7   8
ATOM      8  C   UNL A   1      32.931  23.899  26.942  1.00  0.00     0.016 C 
BRANCH   8   9
ATOM      9  C   UNL A   1      32.801  22.363  27.059  1.00  0.00    -0.017 C 
ATOM     10  C   UNL A   1      32.155  21.692  25.853  1.00  0.00     0.007 C 
ATOM     11  C   UNL A   1      34.181  21.755  27.334  1.00  0.00     0.007 C 
ENDBRANCH   8   9
ENDBRANCH   7   8
BRANCH   7  12
ATOM     12  C   UNL A   1      33.000  25.205  24.635  1.00  0.00     0.002 C 
ATOM     13  C   UNL A   1      32.507  24.934  23.198  1.00  0.00     0.004 C 
ATOM     14  C   UNL A   1      34.524  24.938  24.693  1.00  0.00     0.007 C 
ATOM     15  C   UNL A   1      32.875  23.555  22.665  1.00  0.00     0.001 C 
ATOM     16  C   UNL A   1      34.886  23.533  24.204  1.00  0.00    -0.014 C 
ATOM     17  C   UNL A   1      34.371  23.274  22.786  1.00  0.00     0.003 C 
ATOM     18  C   UNL A   1      36.372  23.223  24.336  1.00  0.00     0.007 C 
ENDBRANCH   7  12
ENDBRANCH   4   7
ENDBRANCH   2   3
ENDBRANCH   1   2
BRANCH   1  19
ATOM     19  C   UNL A   1      32.604  29.957  26.066  1.00  0.00     0.118 C 
BRANCH  19  20
ATOM     20  N   UNL A   1      32.577  31.341  26.487  1.00  0.00    -0.352 N 
ATOM     21  C   UNL A   1      33.361  32.005  27.395  1.00  0.00     0.251 C 
ATOM     22  H   UNL A   1      31.887  31.894  26.053  1.00  0.00     0.163 HD
ATOM     23  O   UNL A   1      32.893  33.014  27.919  1.00  0.00    -0.269 OA
BRANCH  21  24
ATOM     24  C   UNL A   1      34.734  31.553  27.752  1.00  0.00     0.039 A 
ATOM     25  C   UNL A   1      34.923  30.192  28.021  1.00  0.00     0.014 A 
ATOM     26  C   UNL A   1      35.791  32.437  27.984  1.00  0.00     0.014 A 
ATOM     27  C   UNL A   1      36.127  29.739  28.569  1.00  0.00     0.010 A 
ATOM     28  C   UNL A   1      37.033  31.968  28.422  1.00  0.00     0.010 A 
ATOM     29  C   UNL A   1      37.189  30.627  28.796  1.00  0.00    -0.014 A 
BRANCH  29  30
ATOM     30  C   UNL A   1      38.391  30.198  29.567  1.00  0.00     0.031 A 
ATOM     31  C   UNL A   1      38.568  30.666  30.996  1.00  0.00     0.074 A 
ATOM     32  C   UNL A   1      39.306  29.383  29.008  1.00  0.00     0.049 A 
ATOM     33  N   UNL A   1      39.542  30.423  31.837  1.00  0.00    -0.248 NA
ATOM     34  C   UNL A   1      37.527  31.553  31.538  1.00  0.00     0.031 C 
ATOM     35  C   UNL A   1      39.265  28.882  27.634  1.00  0.00     0.029 A 
ATOM     36  N   UNL A   1      40.442  28.820  29.533  1.00  0.00    -0.354 N 
ATOM     37  C   UNL A   1      39.239  31.144  32.991  1.00  0.00     0.074 A 
ATOM     38  C   UNL A   1      38.038  31.895  32.709  1.00  0.00     0.031 C 
ATOM     39  C   UNL A   1      40.303  28.052  27.439  1.00  0.00     0.029 A 
ATOM     40  C   UNL A   1      41.103  27.989  28.658  1.00  0.00     0.049 A 
ATOM     41  H   UNL A   1      40.755  28.993  30.450  1.00  0.00     0.167 HD
ATOM     42  C   UNL A   1      39.877  31.153  34.189  1.00  0.00     0.034 A 
ATOM     43  C   UNL A   1      42.223  27.258  28.823  1.00  0.00     0.034 A 
ATOM     44  C   UNL A   1      41.055  30.370  34.473  1.00  0.00     0.049 A 
ATOM     45  C   UNL A   1      42.913  27.277  30.165  1.00  0.00     0.074 A 
ATOM     46  C   UNL A   1      41.768  30.273  35.655  1.00  0.00     0.029 A 
ATOM     47  N   UNL A   1      41.690  29.537  33.560  1.00  0.00    -0.354 N 
ATOM     48  N   UNL A   1      42.595  27.942  31.252  1.00  0.00    -0.248 NA
ATOM     49  C   UNL A   1      44.103  26.428  30.305  1.00  0.00     0.031 C 
ATOM     50  C   UNL A   1      42.863  29.428  35.442  1.00  0.00     0.029 A 
ATOM     51  C   UNL A   1      42.793  28.937  34.148  1.00  0.00     0.049 A 
ATOM     52  H   UNL A   1      41.400  29.394  32.629  1.00  0.00     0.167 HD
ATOM     53  C   UNL A   1      43.529  27.564  32.215  1.00  0.00     0.074 A 
ATOM     54  C   UNL A   1      44.401  26.593  31.584  1.00  0.00     0.031 C 
ATOM     55  C   UNL A   1      43.657  27.978  33.501  1.00  0.00     0.034 A 
BRANCH  42  56
ATOM     56  C   UNL A   1      39.314  32.051  35.270  1.00  0.00     0.023 A 
ATOM     57  C   UNL A   1      39.712  33.395  35.396  1.00  0.00     0.031 A 
ATOM     58  C   UNL A   1      38.402  31.549  36.215  1.00  0.00     0.131 A 
ATOM     59  C   UNL A   1      39.276  34.159  36.490  1.00  0.00     0.055 A 
ATOM     60  C   UNL A   1      37.898  32.343  37.249  1.00  0.00     0.041 A 
ATOM     61  F   UNL A   1      37.996  30.270  36.162  1.00  0.00    -0.206 F 
ATOM     62  C   UNL A   1      38.349  33.651  37.402  1.00  0.00     0.022 A 
BRANCH  59  63
ATOM     63  S   UNL A   1      40.059  35.767  36.789  1.00  0.00     0.124 S 
ATOM     64  O   UNL A   1      39.646  36.520  35.606  1.00  0.00    -0.237 OA
ATOM     65  O   UNL A   1      39.461  36.181  38.051  1.00  0.00    -0.237 OA
ATOM     66  O   UNL A   1      41.486  35.448  36.848  1.00  0.00    -0.744 OA
ENDBRANCH  59  63
ENDBRANCH  42  56
BRANCH  43  67
ATOM     67  C   UNL A   1      42.763  26.430  27.705  1.00  0.00     0.023 A 
ATOM     68  C   UNL A   1      42.278  25.133  27.467  1.00  0.00     0.031 A 
ATOM     69  C   UNL A   1      43.811  26.901  26.895  1.00  0.00     0.131 A 
ATOM     70  C   UNL A   1      42.878  24.332  26.484  1.00  0.00     0.055 A 
ATOM     71  C   UNL A   1      44.367  26.119  25.880  1.00  0.00     0.041 A 
ATOM     72  F   UNL A   1      44.307  28.135  27.075  1.00  0.00    -0.206 F 
ATOM     73  C   UNL A   1      43.911  24.820  25.681  1.00  0.00     0.022 A 
BRANCH  70  74
ATOM     74  S   UNL A   1      42.353  22.601  26.336  1.00  0.00     0.124 S 
ATOM     75  O   UNL A   1      40.901  22.724  26.387  1.00  0.00    -0.237 OA
ATOM     76  O   UNL A   1      42.919  22.223  25.044  1.00  0.00    -0.237 OA
ATOM     77  O   UNL A   1      42.968  21.959  27.495  1.00  0.00    -0.744 OA
ENDBRANCH  70  74
ENDBRANCH  43  67
BRANCH  55  78
ATOM     78  C   UNL A   1      44.759  27.339  34.314  1.00  0.00     0.023 A 
ATOM     79  C   UNL A   1      44.546  26.155  35.043  1.00  0.00     0.031 A 
ATOM     80  C   UNL A   1      46.023  27.947  34.396  1.00  0.00     0.131 A 
ATOM     81  C   UNL A   1      45.553  25.664  35.886  1.00  0.00     0.055 A 
ATOM     82  C   UNL A   1      47.046  27.413  35.182  1.00  0.00     0.041 A 
ATOM     83  F   UNL A   1      46.284  29.078  33.721  1.00  0.00    -0.206 F 
ATOM     84  C   UNL A   1      46.808  26.276  35.948  1.00  0.00     0.022 A 
BRANCH  81  85
ATOM     85  S   UNL A   1      45.157  24.288  37.001  1.00  0.00     0.124 S 
ATOM     86  O   UNL A   1      44.275  24.929  37.971  1.00  0.00    -0.237 OA
ATOM     87  O   UNL A   1      44.525  23.330  36.100  1.00  0.00    -0.237 OA
ATOM     88  O   UNL A   1      46.460  23.883  37.522  1.00  0.00    -0.744 OA
ENDBRANCH  81  85
ENDBRANCH  55  78
ENDBRANCH  29  30
ENDBRANCH  21  24
ENDBRANCH  19  20
ENDBRANCH   1  19
TORSDOF 16
ENDMDL
