MODEL 1
REMARK VINA RESULT:     -14.0      0.000      0.000
REMARK SMILES Cc1cc(F)cc(-n2nc(C(=O)NCCCNC(=O)c3ccc(-c4c5nc(c(-c6cc(S(=O)(=O)[O-])ccc6F)c6ccc([nH]6)c(-c6cc(S(=O)(=O)[O-])ccc6F)c6nc(c(-c7cc(S(=O)(=O)[O-])ccc7F)c7ccc4[nH]7)C=C6)C=C5)cc3)c3c2CC[C@H](C)C3)c1
REMARK SMILES IDX 16 1 15 2 14 3 13 4 11 5 12 6 10 8 8 9 9 10 84 11 83 12
REMARK SMILES IDX 85 13 89 14 86 15 87 16 88 17 7 18 1 19 2 20 3 21 90 22 4 23
REMARK SMILES IDX 5 24 6 25 17 26 18 27 19 29 20 30 21 31 82 32 22 33 81 34
REMARK SMILES IDX 23 35 24 36 25 37 75 38 26 39 80 40 74 41 76 42 27 43 79 44
REMARK SMILES IDX 73 45 72 46 28 48 60 49 40 50 59 51 41 52 44 53 58 54 77 55
REMARK SMILES IDX 42 56 43 57 57 59 78 60 45 61 29 62 30 63 38 64 31 65 37 66
REMARK SMILES IDX 39 67 36 68 32 69 33 70 34 71 35 72 61 73 62 74 70 75 63 76
REMARK SMILES IDX 69 77 71 78 68 79 64 80 65 81 66 82 67 83 46 84 47 85 55 86
REMARK SMILES IDX 48 87 54 88 56 89 53 90 49 91 50 92 51 93 52 94
REMARK H PARENT 13 7 17 28 76 47 44 58
REMARK Flexibility Score: inf
ROOT
ATOM      1  C   UNL A   1      35.315  30.132  28.129  1.00  0.00     0.118 C 
ENDROOT
BRANCH   1   2
ATOM      2  C   UNL A   1      34.331  31.145  27.590  1.00  0.00     0.042 C 
BRANCH   2   3
ATOM      3  C   UNL A   1      33.153  30.566  26.796  1.00  0.00     0.118 C 
BRANCH   3   4
ATOM      4  N   UNL A   1      32.386  29.600  27.564  1.00  0.00    -0.351 N 
ATOM      5  C   UNL A   1      31.901  28.326  27.360  1.00  0.00     0.272 C 
ATOM      6  O   UNL A   1      31.402  27.828  28.378  1.00  0.00    -0.267 OA
ATOM      7  H   UNL A   1      32.152  29.943  28.457  1.00  0.00     0.163 HD
BRANCH   5   8
ATOM      8  C   UNL A   1      31.961  27.550  26.084  1.00  0.00     0.154 A 
ATOM      9  N   UNL A   1      32.578  25.856  24.870  1.00  0.00    -0.237 N 
ATOM     10  N   UNL A   1      32.569  26.340  26.125  1.00  0.00    -0.162 NA
ATOM     11  C   UNL A   1      31.908  26.684  24.005  1.00  0.00     0.048 A 
ATOM     12  C   UNL A   1      31.436  27.731  24.768  1.00  0.00     0.007 A 
ATOM     13  C   UNL A   1      31.526  26.410  22.587  1.00  0.00     0.057 C 
ATOM     14  C   UNL A   1      30.507  28.719  24.194  1.00  0.00     0.043 C 
ATOM     15  C   UNL A   1      30.979  27.690  21.927  1.00  0.00     0.010 C 
ATOM     16  C   UNL A   1      29.929  28.370  22.815  1.00  0.00    -0.009 C 
ATOM     17  C   UNL A   1      29.379  29.651  22.179  1.00  0.00     0.008 C 
BRANCH   9  18
ATOM     18  C   UNL A   1      33.156  24.594  24.595  1.00  0.00     0.068 A 
ATOM     19  C   UNL A   1      36.599  23.154  23.809  1.00  0.00     0.044 C 
ATOM     20  C   UNL A   1      35.127  23.269  24.072  1.00  0.00    -0.046 A 
ATOM     21  C   UNL A   1      34.344  22.110  24.159  1.00  0.00     0.042 A 
ATOM     22  C   UNL A   1      34.516  24.520  24.251  1.00  0.00     0.032 A 
ATOM     23  C   UNL A   1      32.987  22.206  24.447  1.00  0.00     0.125 A 
ATOM     24  F   UNL A   1      32.245  21.092  24.505  1.00  0.00    -0.207 F 
ATOM     25  C   UNL A   1      32.386  23.434  24.682  1.00  0.00     0.067 A 
ENDBRANCH   9  18
ENDBRANCH   5   8
ENDBRANCH   3   4
ENDBRANCH   2   3
ENDBRANCH   1   2
BRANCH   1  26
ATOM     26  N   UNL A   1      35.646  30.395  29.528  1.00  0.00    -0.352 N 
ATOM     27  C   UNL A   1      36.566  29.725  30.314  1.00  0.00     0.251 C 
ATOM     28  H   UNL A   1      35.158  31.133  29.960  1.00  0.00     0.163 HD
ATOM     29  O   UNL A   1      36.460  29.736  31.528  1.00  0.00    -0.269 OA
BRANCH  27  30
ATOM     30  C   UNL A   1      37.641  28.972  29.637  1.00  0.00     0.039 A 
ATOM     31  C   UNL A   1      38.144  29.405  28.412  1.00  0.00     0.014 A 
ATOM     32  C   UNL A   1      38.206  27.878  30.291  1.00  0.00     0.014 A 
ATOM     33  C   UNL A   1      39.299  28.804  27.918  1.00  0.00     0.010 A 
ATOM     34  C   UNL A   1      39.425  27.386  29.878  1.00  0.00     0.010 A 
ATOM     35  C   UNL A   1      39.976  27.832  28.683  1.00  0.00    -0.014 A 
BRANCH  35  36
ATOM     36  C   UNL A   1      41.358  27.464  28.343  1.00  0.00     0.031 A 
ATOM     37  C   UNL A   1      41.438  26.180  27.599  1.00  0.00     0.074 A 
ATOM     38  C   UNL A   1      42.451  28.249  28.493  1.00  0.00     0.049 A 
ATOM     39  N   UNL A   1      41.734  25.023  28.090  1.00  0.00    -0.248 NA
ATOM     40  C   UNL A   1      40.901  26.114  26.229  1.00  0.00     0.031 C 
ATOM     41  C   UNL A   1      42.486  29.641  28.951  1.00  0.00     0.029 A 
ATOM     42  N   UNL A   1      43.766  28.002  28.194  1.00  0.00    -0.354 N 
ATOM     43  C   UNL A   1      41.746  24.152  27.007  1.00  0.00     0.074 A 
ATOM     44  C   UNL A   1      40.971  24.802  25.988  1.00  0.00     0.031 C 
ATOM     45  C   UNL A   1      43.700  30.180  28.699  1.00  0.00     0.029 A 
ATOM     46  C   UNL A   1      44.590  29.130  28.229  1.00  0.00     0.049 A 
ATOM     47  H   UNL A   1      44.102  27.104  27.973  1.00  0.00     0.167 HD
ATOM     48  C   UNL A   1      42.683  23.163  26.948  1.00  0.00     0.034 A 
ATOM     49  C   UNL A   1      45.917  29.216  27.936  1.00  0.00     0.034 A 
ATOM     50  C   UNL A   1      43.343  23.039  28.234  1.00  0.00     0.049 A 
ATOM     51  C   UNL A   1      46.489  27.870  28.146  1.00  0.00     0.074 A 
ATOM     52  C   UNL A   1      43.000  22.626  29.502  1.00  0.00     0.029 A 
ATOM     53  N   UNL A   1      44.486  23.795  28.351  1.00  0.00    -0.354 N 
ATOM     54  N   UNL A   1      46.569  27.316  29.322  1.00  0.00    -0.248 NA
ATOM     55  C   UNL A   1      46.632  26.956  27.019  1.00  0.00     0.031 C 
ATOM     56  C   UNL A   1      43.840  23.359  30.395  1.00  0.00     0.029 A 
ATOM     57  C   UNL A   1      44.722  24.144  29.653  1.00  0.00     0.049 A 
ATOM     58  H   UNL A   1      45.061  24.052  27.594  1.00  0.00     0.167 HD
ATOM     59  C   UNL A   1      46.302  25.983  29.092  1.00  0.00     0.074 A 
ATOM     60  C   UNL A   1      46.547  25.790  27.667  1.00  0.00     0.031 C 
ATOM     61  C   UNL A   1      45.592  25.255  30.003  1.00  0.00     0.034 A 
BRANCH  48  62
ATOM     62  C   UNL A   1      43.390  22.688  25.681  1.00  0.00     0.023 A 
ATOM     63  C   UNL A   1      43.596  21.294  25.563  1.00  0.00     0.031 A 
ATOM     64  C   UNL A   1      44.122  23.481  24.772  1.00  0.00     0.131 A 
ATOM     65  C   UNL A   1      44.578  20.770  24.707  1.00  0.00     0.055 A 
ATOM     66  C   UNL A   1      45.068  22.950  23.887  1.00  0.00     0.041 A 
ATOM     67  F   UNL A   1      44.026  24.812  24.720  1.00  0.00    -0.206 F 
ATOM     68  C   UNL A   1      45.329  21.591  23.875  1.00  0.00     0.022 A 
BRANCH  65  69
ATOM     69  S   UNL A   1      44.970  19.005  24.823  1.00  0.00     0.124 S 
ATOM     70  O   UNL A   1      45.172  18.661  23.421  1.00  0.00    -0.237 OA
ATOM     71  O   UNL A   1      46.160  19.018  25.667  1.00  0.00    -0.237 OA
ATOM     72  O   UNL A   1      43.776  18.435  25.442  1.00  0.00    -0.744 OA
ENDBRANCH  65  69
ENDBRANCH  48  62
BRANCH  49  73
ATOM     73  C   UNL A   1      46.712  30.341  27.372  1.00  0.00     0.023 A 
ATOM     74  C   UNL A   1      46.122  31.460  26.737  1.00  0.00     0.031 A 
ATOM     75  C   UNL A   1      48.074  30.453  27.717  1.00  0.00     0.131 A 
ATOM     76  C   UNL A   1      46.883  32.632  26.503  1.00  0.00     0.055 A 
ATOM     77  C   UNL A   1      48.817  31.613  27.489  1.00  0.00     0.041 A 
ATOM     78  F   UNL A   1      48.701  29.467  28.378  1.00  0.00    -0.206 F 
ATOM     79  C   UNL A   1      48.221  32.714  26.895  1.00  0.00     0.022 A 
BRANCH  76  80
ATOM     80  S   UNL A   1      46.112  34.123  25.782  1.00  0.00     0.124 S 
ATOM     81  O   UNL A   1      45.699  34.866  26.967  1.00  0.00    -0.237 OA
ATOM     82  O   UNL A   1      47.201  34.697  25.001  1.00  0.00    -0.237 OA
ATOM     83  O   UNL A   1      45.009  33.584  24.984  1.00  0.00    -0.744 OA
ENDBRANCH  76  80
ENDBRANCH  49  73
BRANCH  61  84
ATOM     84  C   UNL A   1      45.641  25.715  31.442  1.00  0.00     0.023 A 
ATOM     85  C   UNL A   1      46.702  25.486  32.346  1.00  0.00     0.031 A 
ATOM     86  C   UNL A   1      44.530  26.438  31.910  1.00  0.00     0.131 A 
ATOM     87  C   UNL A   1      46.611  25.958  33.671  1.00  0.00     0.055 A 
ATOM     88  C   UNL A   1      44.454  26.927  33.212  1.00  0.00     0.041 A 
ATOM     89  F   UNL A   1      43.491  26.696  31.098  1.00  0.00    -0.206 F 
ATOM     90  C   UNL A   1      45.491  26.678  34.101  1.00  0.00     0.022 A 
BRANCH  87  91
ATOM     91  S   UNL A   1      47.925  25.599  34.880  1.00  0.00     0.124 S 
ATOM     92  O   UNL A   1      49.156  25.828  34.134  1.00  0.00    -0.237 OA
ATOM     93  O   UNL A   1      47.639  26.556  35.946  1.00  0.00    -0.237 OA
ATOM     94  O   UNL A   1      47.680  24.200  35.240  1.00  0.00    -0.744 OA
ENDBRANCH  87  91
ENDBRANCH  61  84
ENDBRANCH  35  36
ENDBRANCH  27  30
ENDBRANCH   1  26
TORSDOF 14
ENDMDL
MODEL 2
REMARK VINA RESULT:     -13.9      2.293      6.930
REMARK SMILES Cc1cc(F)cc(-n2nc(C(=O)NCCCNC(=O)c3ccc(-c4c5nc(c(-c6cc(S(=O)(=O)[O-])ccc6F)c6ccc([nH]6)c(-c6cc(S(=O)(=O)[O-])ccc6F)c6nc(c(-c7cc(S(=O)(=O)[O-])ccc7F)c7ccc4[nH]7)C=C6)C=C5)cc3)c3c2CC[C@H](C)C3)c1
REMARK SMILES IDX 16 1 15 2 14 3 13 4 11 5 12 6 10 8 8 9 9 10 84 11 83 12
REMARK SMILES IDX 85 13 89 14 86 15 87 16 88 17 7 18 1 19 2 20 3 21 90 22 4 23
REMARK SMILES IDX 5 24 6 25 17 26 18 27 19 29 20 30 21 31 82 32 22 33 81 34
REMARK SMILES IDX 23 35 24 36 25 37 75 38 26 39 80 40 74 41 76 42 27 43 79 44
REMARK SMILES IDX 73 45 72 46 28 48 60 49 40 50 59 51 41 52 44 53 58 54 77 55
REMARK SMILES IDX 42 56 43 57 57 59 78 60 45 61 29 62 30 63 38 64 31 65 37 66
REMARK SMILES IDX 39 67 36 68 32 69 33 70 34 71 35 72 61 73 62 74 70 75 63 76
REMARK SMILES IDX 69 77 71 78 68 79 64 80 65 81 66 82 67 83 46 84 47 85 55 86
REMARK SMILES IDX 48 87 54 88 56 89 53 90 49 91 50 92 51 93 52 94
REMARK H PARENT 13 7 17 28 76 47 44 58
REMARK Flexibility Score: inf
ROOT
ATOM      1  C   UNL A   1      34.982  32.238  27.791  1.00  0.00     0.118 C 
ENDROOT
BRANCH   1   2
ATOM      2  C   UNL A   1      33.660  31.627  27.389  1.00  0.00     0.042 C 
BRANCH   2   3
ATOM      3  C   UNL A   1      33.715  30.158  26.952  1.00  0.00     0.118 C 
BRANCH   3   4
ATOM      4  N   UNL A   1      32.753  29.329  27.658  1.00  0.00    -0.351 N 
ATOM      5  C   UNL A   1      32.094  28.143  27.417  1.00  0.00     0.272 C 
ATOM      6  O   UNL A   1      31.451  27.738  28.393  1.00  0.00    -0.267 OA
ATOM      7  H   UNL A   1      32.510  29.712  28.533  1.00  0.00     0.163 HD
BRANCH   5   8
ATOM      8  C   UNL A   1      32.128  27.355  26.148  1.00  0.00     0.154 A 
ATOM      9  N   UNL A   1      32.720  25.649  24.937  1.00  0.00    -0.237 N 
ATOM     10  N   UNL A   1      32.736  26.145  26.187  1.00  0.00    -0.162 NA
ATOM     11  C   UNL A   1      32.032  26.469  24.078  1.00  0.00     0.048 A 
ATOM     12  C   UNL A   1      31.576  27.524  24.841  1.00  0.00     0.007 A 
ATOM     13  C   UNL A   1      31.620  26.182  22.671  1.00  0.00     0.057 C 
ATOM     14  C   UNL A   1      30.635  28.507  24.276  1.00  0.00     0.043 C 
ATOM     15  C   UNL A   1      31.060  27.456  22.010  1.00  0.00     0.010 C 
ATOM     16  C   UNL A   1      30.029  28.145  22.913  1.00  0.00    -0.009 C 
ATOM     17  C   UNL A   1      29.466  29.420  22.277  1.00  0.00     0.008 C 
BRANCH   9  18
ATOM     18  C   UNL A   1      33.291  24.385  24.662  1.00  0.00     0.068 A 
ATOM     19  C   UNL A   1      36.583  22.978  23.346  1.00  0.00     0.044 C 
ATOM     20  C   UNL A   1      35.184  23.074  23.880  1.00  0.00    -0.046 A 
ATOM     21  C   UNL A   1      34.487  21.907  24.213  1.00  0.00     0.042 A 
ATOM     22  C   UNL A   1      34.563  24.318  24.067  1.00  0.00     0.032 A 
ATOM     23  C   UNL A   1      33.206  21.989  24.750  1.00  0.00     0.125 A 
ATOM     24  F   UNL A   1      32.540  20.864  25.045  1.00  0.00    -0.207 F 
ATOM     25  C   UNL A   1      32.606  23.216  24.993  1.00  0.00     0.067 A 
ENDBRANCH   9  18
ENDBRANCH   5   8
ENDBRANCH   3   4
ENDBRANCH   2   3
ENDBRANCH   1   2
BRANCH   1  26
ATOM     26  N   UNL A   1      34.988  32.631  29.199  1.00  0.00    -0.352 N 
ATOM     27  C   UNL A   1      35.704  32.052  30.230  1.00  0.00     0.251 C 
ATOM     28  H   UNL A   1      34.417  33.396  29.440  1.00  0.00     0.163 HD
ATOM     29  O   UNL A   1      35.325  32.170  31.382  1.00  0.00    -0.269 OA
BRANCH  27  30
ATOM     30  C   UNL A   1      36.903  31.261  29.886  1.00  0.00     0.039 A 
ATOM     31  C   UNL A   1      38.177  31.801  30.050  1.00  0.00     0.014 A 
ATOM     32  C   UNL A   1      36.738  29.935  29.486  1.00  0.00     0.014 A 
ATOM     33  C   UNL A   1      39.277  30.955  29.930  1.00  0.00     0.010 A 
ATOM     34  C   UNL A   1      37.811  29.072  29.512  1.00  0.00     0.010 A 
ATOM     35  C   UNL A   1      39.090  29.573  29.720  1.00  0.00    -0.014 A 
BRANCH  35  36
ATOM     36  C   UNL A   1      40.203  28.641  29.949  1.00  0.00     0.031 A 
ATOM     37  C   UNL A   1      40.468  28.415  31.394  1.00  0.00     0.074 A 
ATOM     38  C   UNL A   1      40.828  27.899  29.005  1.00  0.00     0.049 A 
ATOM     39  N   UNL A   1      41.390  28.975  32.105  1.00  0.00    -0.248 NA
ATOM     40  C   UNL A   1      39.469  27.689  32.198  1.00  0.00     0.031 C 
ATOM     41  C   UNL A   1      40.487  27.807  27.582  1.00  0.00     0.029 A 
ATOM     42  N   UNL A   1      41.856  27.000  29.122  1.00  0.00    -0.354 N 
ATOM     43  C   UNL A   1      41.284  28.402  33.367  1.00  0.00     0.074 A 
ATOM     44  C   UNL A   1      39.955  27.863  33.430  1.00  0.00     0.031 C 
ATOM     45  C   UNL A   1      41.135  26.763  27.018  1.00  0.00     0.029 A 
ATOM     46  C   UNL A   1      42.074  26.217  27.985  1.00  0.00     0.049 A 
ATOM     47  H   UNL A   1      42.396  26.912  29.941  1.00  0.00     0.167 HD
ATOM     48  C   UNL A   1      42.415  28.126  34.078  1.00  0.00     0.034 A 
ATOM     49  C   UNL A   1      42.980  25.214  27.811  1.00  0.00     0.034 A 
ATOM     50  C   UNL A   1      43.553  28.774  33.455  1.00  0.00     0.049 A 
ATOM     51  C   UNL A   1      44.078  25.460  28.768  1.00  0.00     0.074 A 
ATOM     52  C   UNL A   1      43.996  30.066  33.271  1.00  0.00     0.029 A 
ATOM     53  N   UNL A   1      44.215  27.987  32.542  1.00  0.00    -0.354 N 
ATOM     54  N   UNL A   1      44.877  26.483  28.672  1.00  0.00    -0.248 NA
ATOM     55  C   UNL A   1      44.077  24.792  30.063  1.00  0.00     0.031 C 
ATOM     56  C   UNL A   1      44.759  30.051  32.065  1.00  0.00     0.029 A 
ATOM     57  C   UNL A   1      44.828  28.745  31.581  1.00  0.00     0.049 A 
ATOM     58  H   UNL A   1      44.245  27.004  32.576  1.00  0.00     0.167 HD
ATOM     59  C   UNL A   1      45.106  26.863  29.978  1.00  0.00     0.074 A 
ATOM     60  C   UNL A   1      44.764  25.691  30.776  1.00  0.00     0.031 C 
ATOM     61  C   UNL A   1      45.226  28.184  30.300  1.00  0.00     0.034 A 
BRANCH  48  62
ATOM     62  C   UNL A   1      42.628  26.898  34.961  1.00  0.00     0.023 A 
ATOM     63  C   UNL A   1      43.438  25.873  34.423  1.00  0.00     0.031 A 
ATOM     64  C   UNL A   1      41.881  26.536  36.102  1.00  0.00     0.131 A 
ATOM     65  C   UNL A   1      43.369  24.556  34.907  1.00  0.00     0.055 A 
ATOM     66  C   UNL A   1      41.849  25.232  36.610  1.00  0.00     0.041 A 
ATOM     67  F   UNL A   1      41.088  27.387  36.758  1.00  0.00    -0.206 F 
ATOM     68  C   UNL A   1      42.566  24.223  35.991  1.00  0.00     0.022 A 
BRANCH  65  69
ATOM     69  S   UNL A   1      44.223  23.252  33.985  1.00  0.00     0.124 S 
ATOM     70  O   UNL A   1      45.459  23.927  33.609  1.00  0.00    -0.237 OA
ATOM     71  O   UNL A   1      44.336  22.200  34.989  1.00  0.00    -0.237 OA
ATOM     72  O   UNL A   1      43.307  22.963  32.884  1.00  0.00    -0.744 OA
ENDBRANCH  65  69
ENDBRANCH  48  62
BRANCH  49  73
ATOM     73  C   UNL A   1      42.915  23.991  26.966  1.00  0.00     0.023 A 
ATOM     74  C   UNL A   1      43.920  23.642  26.032  1.00  0.00     0.031 A 
ATOM     75  C   UNL A   1      41.976  22.989  27.289  1.00  0.00     0.131 A 
ATOM     76  C   UNL A   1      43.971  22.334  25.491  1.00  0.00     0.055 A 
ATOM     77  C   UNL A   1      42.035  21.700  26.756  1.00  0.00     0.041 A 
ATOM     78  F   UNL A   1      41.025  23.208  28.211  1.00  0.00    -0.206 F 
ATOM     79  C   UNL A   1      43.043  21.362  25.867  1.00  0.00     0.022 A 
BRANCH  76  80
ATOM     80  S   UNL A   1      45.323  21.836  24.367  1.00  0.00     0.124 S 
ATOM     81  O   UNL A   1      45.668  23.094  23.716  1.00  0.00    -0.237 OA
ATOM     82  O   UNL A   1      46.312  21.286  25.285  1.00  0.00    -0.237 OA
ATOM     83  O   UNL A   1      44.690  20.848  23.491  1.00  0.00    -0.744 OA
ENDBRANCH  76  80
ENDBRANCH  49  73
BRANCH  61  84
ATOM     84  C   UNL A   1      45.702  29.119  29.213  1.00  0.00     0.023 A 
ATOM     85  C   UNL A   1      44.887  29.997  28.465  1.00  0.00     0.031 A 
ATOM     86  C   UNL A   1      47.079  29.109  28.931  1.00  0.00     0.131 A 
ATOM     87  C   UNL A   1      45.460  30.806  27.462  1.00  0.00     0.055 A 
ATOM     88  C   UNL A   1      47.647  29.928  27.960  1.00  0.00     0.041 A 
ATOM     89  F   UNL A   1      47.909  28.301  29.613  1.00  0.00    -0.206 F 
ATOM     90  C   UNL A   1      46.836  30.773  27.213  1.00  0.00     0.022 A 
BRANCH  87  91
ATOM     91  S   UNL A   1      44.419  31.881  26.425  1.00  0.00     0.124 S 
ATOM     92  O   UNL A   1      45.323  32.333  25.374  1.00  0.00    -0.237 OA
ATOM     93  O   UNL A   1      43.355  30.975  26.003  1.00  0.00    -0.237 OA
ATOM     94  O   UNL A   1      43.989  32.932  27.352  1.00  0.00    -0.744 OA
ENDBRANCH  87  91
ENDBRANCH  61  84
ENDBRANCH  35  36
ENDBRANCH  27  30
ENDBRANCH   1  26
TORSDOF 14
ENDMDL
MODEL 3
REMARK VINA RESULT:     -13.8      1.453      1.731
REMARK SMILES Cc1cc(F)cc(-n2nc(C(=O)NCCCNC(=O)c3ccc(-c4c5nc(c(-c6cc(S(=O)(=O)[O-])ccc6F)c6ccc([nH]6)c(-c6cc(S(=O)(=O)[O-])ccc6F)c6nc(c(-c7cc(S(=O)(=O)[O-])ccc7F)c7ccc4[nH]7)C=C6)C=C5)cc3)c3c2CC[C@H](C)C3)c1
REMARK SMILES IDX 16 1 15 2 14 3 13 4 11 5 12 6 10 8 8 9 9 10 84 11 83 12
REMARK SMILES IDX 85 13 89 14 86 15 87 16 88 17 7 18 1 19 2 20 3 21 90 22 4 23
REMARK SMILES IDX 5 24 6 25 17 26 18 27 19 29 20 30 21 31 82 32 22 33 81 34
REMARK SMILES IDX 23 35 24 36 25 37 75 38 26 39 80 40 74 41 76 42 27 43 79 44
REMARK SMILES IDX 73 45 72 46 28 48 60 49 40 50 59 51 41 52 44 53 58 54 77 55
REMARK SMILES IDX 42 56 43 57 57 59 78 60 45 61 29 62 30 63 38 64 31 65 37 66
REMARK SMILES IDX 39 67 36 68 32 69 33 70 34 71 35 72 61 73 62 74 70 75 63 76
REMARK SMILES IDX 69 77 71 78 68 79 64 80 65 81 66 82 67 83 46 84 47 85 55 86
REMARK SMILES IDX 48 87 54 88 56 89 53 90 49 91 50 92 51 93 52 94
REMARK H PARENT 13 7 17 28 76 47 44 58
REMARK Flexibility Score: inf
ROOT
ATOM      1  C   UNL A   1      35.210  29.104  27.598  1.00  0.00     0.118 C 
ENDROOT
BRANCH   1   2
ATOM      2  C   UNL A   1      34.470  29.812  26.486  1.00  0.00     0.042 C 
BRANCH   2   3
ATOM      3  C   UNL A   1      33.135  30.453  26.884  1.00  0.00     0.118 C 
BRANCH   3   4
ATOM      4  N   UNL A   1      32.265  29.533  27.596  1.00  0.00    -0.351 N 
ATOM      5  C   UNL A   1      31.730  28.284  27.360  1.00  0.00     0.272 C 
ATOM      6  O   UNL A   1      31.135  27.818  28.340  1.00  0.00    -0.267 OA
ATOM      7  H   UNL A   1      31.987  29.891  28.470  1.00  0.00     0.163 HD
BRANCH   5   8
ATOM      8  C   UNL A   1      31.839  27.500  26.093  1.00  0.00     0.154 A 
ATOM      9  N   UNL A   1      32.479  25.784  24.921  1.00  0.00    -0.237 N 
ATOM     10  N   UNL A   1      32.413  26.275  26.171  1.00  0.00    -0.162 NA
ATOM     11  C   UNL A   1      31.878  26.624  24.017  1.00  0.00     0.048 A 
ATOM     12  C   UNL A   1      31.392  27.688  24.749  1.00  0.00     0.007 A 
ATOM     13  C   UNL A   1      31.567  26.353  22.581  1.00  0.00     0.057 C 
ATOM     14  C   UNL A   1      30.521  28.696  24.120  1.00  0.00     0.043 C 
ATOM     15  C   UNL A   1      31.089  27.643  21.887  1.00  0.00     0.010 C 
ATOM     16  C   UNL A   1      30.011  28.355  22.713  1.00  0.00    -0.009 C 
ATOM     17  C   UNL A   1      29.529  29.645  22.044  1.00  0.00     0.008 C 
BRANCH   9  18
ATOM     18  C   UNL A   1      33.037  24.507  24.682  1.00  0.00     0.068 A 
ATOM     19  C   UNL A   1      36.322  23.030  23.425  1.00  0.00     0.044 C 
ATOM     20  C   UNL A   1      34.921  23.156  23.947  1.00  0.00    -0.046 A 
ATOM     21  C   UNL A   1      34.208  22.005  24.307  1.00  0.00     0.042 A 
ATOM     22  C   UNL A   1      34.312  24.411  24.098  1.00  0.00     0.032 A 
ATOM     23  C   UNL A   1      32.925  22.116  24.833  1.00  0.00     0.125 A 
ATOM     24  F   UNL A   1      32.245  21.006  25.153  1.00  0.00    -0.207 F 
ATOM     25  C   UNL A   1      32.337  23.355  25.040  1.00  0.00     0.067 A 
ENDBRANCH   9  18
ENDBRANCH   5   8
ENDBRANCH   3   4
ENDBRANCH   2   3
ENDBRANCH   1   2
BRANCH   1  26
ATOM     26  N   UNL A   1      35.594  30.027  28.663  1.00  0.00    -0.352 N 
ATOM     27  C   UNL A   1      36.726  29.972  29.454  1.00  0.00     0.251 C 
ATOM     28  H   UNL A   1      34.977  30.774  28.836  1.00  0.00     0.163 HD
ATOM     29  O   UNL A   1      36.738  30.510  30.548  1.00  0.00    -0.269 OA
BRANCH  27  30
ATOM     30  C   UNL A   1      37.890  29.212  28.953  1.00  0.00     0.039 A 
ATOM     31  C   UNL A   1      38.520  29.585  27.768  1.00  0.00     0.014 A 
ATOM     32  C   UNL A   1      38.400  28.177  29.735  1.00  0.00     0.014 A 
ATOM     33  C   UNL A   1      39.738  28.990  27.447  1.00  0.00     0.010 A 
ATOM     34  C   UNL A   1      39.669  27.697  29.495  1.00  0.00     0.010 A 
ATOM     35  C   UNL A   1      40.344  28.087  28.345  1.00  0.00    -0.014 A 
BRANCH  35  36
ATOM     36  C   UNL A   1      41.764  27.741  28.187  1.00  0.00     0.031 A 
ATOM     37  C   UNL A   1      41.960  26.460  27.458  1.00  0.00     0.074 A 
ATOM     38  C   UNL A   1      42.816  28.540  28.480  1.00  0.00     0.049 A 
ATOM     39  N   UNL A   1      42.206  25.305  27.981  1.00  0.00    -0.248 NA
ATOM     40  C   UNL A   1      41.607  26.391  26.029  1.00  0.00     0.031 C 
ATOM     41  C   UNL A   1      42.770  29.932  28.940  1.00  0.00     0.029 A 
ATOM     42  N   UNL A   1      44.162  28.314  28.355  1.00  0.00    -0.354 N 
ATOM     43  C   UNL A   1      42.373  24.439  26.908  1.00  0.00     0.074 A 
ATOM     44  C   UNL A   1      41.728  25.081  25.798  1.00  0.00     0.031 C 
ATOM     45  C   UNL A   1      43.998  30.489  28.850  1.00  0.00     0.029 A 
ATOM     46  C   UNL A   1      44.958  29.454  28.499  1.00  0.00     0.049 A 
ATOM     47  H   UNL A   1      44.538  27.421  28.178  1.00  0.00     0.167 HD
ATOM     48  C   UNL A   1      43.324  23.464  26.970  1.00  0.00     0.034 A 
ATOM     49  C   UNL A   1      46.311  29.560  28.382  1.00  0.00     0.034 A 
ATOM     50  C   UNL A   1      43.813  23.346  28.331  1.00  0.00     0.049 A 
ATOM     51  C   UNL A   1      46.870  28.222  28.663  1.00  0.00     0.074 A 
ATOM     52  C   UNL A   1      43.313  22.923  29.544  1.00  0.00     0.029 A 
ATOM     53  N   UNL A   1      44.919  24.118  28.598  1.00  0.00    -0.354 N 
ATOM     54  N   UNL A   1      46.804  27.666  29.838  1.00  0.00    -0.248 NA
ATOM     55  C   UNL A   1      47.173  27.315  27.563  1.00  0.00     0.031 C 
ATOM     56  C   UNL A   1      44.018  23.665  30.539  1.00  0.00     0.029 A 
ATOM     57  C   UNL A   1      44.978  24.465  29.920  1.00  0.00     0.049 A 
ATOM     58  H   UNL A   1      45.584  24.385  27.923  1.00  0.00     0.167 HD
ATOM     59  C   UNL A   1      46.590  26.329  29.573  1.00  0.00     0.074 A 
ATOM     60  C   UNL A   1      47.021  26.145  28.193  1.00  0.00     0.031 C 
ATOM     61  C   UNL A   1      45.778  25.588  30.383  1.00  0.00     0.034 A 
BRANCH  48  62
ATOM     62  C   UNL A   1      44.198  23.004  25.806  1.00  0.00     0.023 A 
ATOM     63  C   UNL A   1      44.239  21.612  25.564  1.00  0.00     0.031 A 
ATOM     64  C   UNL A   1      45.192  23.756  25.144  1.00  0.00     0.131 A 
ATOM     65  C   UNL A   1      45.292  21.024  24.845  1.00  0.00     0.055 A 
ATOM     66  C   UNL A   1      46.216  23.170  24.389  1.00  0.00     0.041 A 
ATOM     67  F   UNL A   1      45.284  25.086  25.232  1.00  0.00    -0.206 F 
ATOM     68  C   UNL A   1      46.292  21.794  24.266  1.00  0.00     0.022 A 
BRANCH  65  69
ATOM     69  S   UNL A   1      45.419  19.217  24.823  1.00  0.00     0.124 S 
ATOM     70  O   UNL A   1      44.301  18.839  25.679  1.00  0.00    -0.237 OA
ATOM     71  O   UNL A   1      45.275  18.925  23.401  1.00  0.00    -0.237 OA
ATOM     72  O   UNL A   1      46.746  18.966  25.378  1.00  0.00    -0.744 OA
ENDBRANCH  65  69
ENDBRANCH  48  62
BRANCH  49  73
ATOM     73  C   UNL A   1      47.155  30.699  27.928  1.00  0.00     0.023 A 
ATOM     74  C   UNL A   1      46.672  31.732  27.090  1.00  0.00     0.031 A 
ATOM     75  C   UNL A   1      48.392  30.927  28.567  1.00  0.00     0.131 A 
ATOM     76  C   UNL A   1      47.404  32.936  26.945  1.00  0.00     0.055 A 
ATOM     77  C   UNL A   1      49.106  32.118  28.424  1.00  0.00     0.041 A 
ATOM     78  F   UNL A   1      48.898  30.030  29.428  1.00  0.00    -0.206 F 
ATOM     79  C   UNL A   1      48.607  33.135  27.625  1.00  0.00     0.022 A 
BRANCH  76  80
ATOM     80  S   UNL A   1      46.746  34.321  25.952  1.00  0.00     0.124 S 
ATOM     81  O   UNL A   1      45.602  33.711  25.284  1.00  0.00    -0.237 OA
ATOM     82  O   UNL A   1      46.448  35.325  26.967  1.00  0.00    -0.237 OA
ATOM     83  O   UNL A   1      47.859  34.664  25.065  1.00  0.00    -0.744 OA
ENDBRANCH  76  80
ENDBRANCH  49  73
BRANCH  61  84
ATOM     84  C   UNL A   1      45.631  26.044  31.816  1.00  0.00     0.023 A 
ATOM     85  C   UNL A   1      44.512  26.711  32.360  1.00  0.00     0.031 A 
ATOM     86  C   UNL A   1      46.709  25.770  32.677  1.00  0.00     0.131 A 
ATOM     87  C   UNL A   1      44.513  27.097  33.716  1.00  0.00     0.055 A 
ATOM     88  C   UNL A   1      46.697  26.128  34.022  1.00  0.00     0.041 A 
ATOM     89  F   UNL A   1      47.800  25.132  32.223  1.00  0.00    -0.206 F 
ATOM     90  C   UNL A   1      45.601  26.804  34.545  1.00  0.00     0.022 A 
BRANCH  87  91
ATOM     91  S   UNL A   1      43.119  28.036  34.419  1.00  0.00     0.124 S 
ATOM     92  O   UNL A   1      42.977  27.494  35.764  1.00  0.00    -0.237 OA
ATOM     93  O   UNL A   1      43.596  29.414  34.335  1.00  0.00    -0.237 OA
ATOM     94  O   UNL A   1      42.010  27.723  33.514  1.00  0.00    -0.744 OA
ENDBRANCH  87  91
ENDBRANCH  61  84
ENDBRANCH  35  36
ENDBRANCH  27  30
ENDBRANCH   1  26
TORSDOF 14
ENDMDL
