MODEL 1
REMARK VINA RESULT:     -11.5      0.000      0.000
REMARK SMILES O=C(NCCCNC(=O)[C@H](CO)NC(=O)[C@H](CS)NC(=O)[C@H](Cc1ccccc1)NC(=O)c1ccc(F)cc1)c1ccc(-c2c3nc(c(-c4cc(S(=O)(=O)[O-])ccc4F)c4ccc([nH]4)c(-c4cc(S(=O)(=O)[O-])ccc4F)c4nc(c(-c5cc(S(=O)(=O)[O-])ccc5F)c5ccc2[nH]5)C=C4)C=C3)cc1
REMARK SMILES IDX 7 1 8 2 9 3 6 5 5 6 4 7 3 8 1 9 2 10 40 12 41 13 102 14
REMARK SMILES IDX 42 15 101 16 43 17 44 18 45 19 95 20 46 21 100 22 94 23
REMARK SMILES IDX 96 24 47 25 99 26 93 27 92 28 48 30 80 31 60 32 79 33 61 34
REMARK SMILES IDX 64 35 78 36 97 37 62 38 63 39 77 41 98 42 65 43 49 44 50 45
REMARK SMILES IDX 58 46 51 47 57 48 59 49 56 50 52 51 53 52 54 53 55 54 81 55
REMARK SMILES IDX 82 56 90 57 83 58 89 59 91 60 88 61 84 62 85 63 86 64 87 65
REMARK SMILES IDX 66 66 67 67 75 68 68 69 74 70 76 71 73 72 69 73 70 74 71 75
REMARK SMILES IDX 72 76 10 77 13 78 14 79 15 81 16 82 19 83 20 84 21 86 22 87
REMARK SMILES IDX 30 88 31 89 32 91 33 92 34 93 39 94 35 95 38 96 36 97 37 98
REMARK SMILES IDX 23 99 24 100 25 101 29 102 26 103 28 104 27 105 17 106
REMARK SMILES IDX 18 107 11 109 12 110
REMARK H PARENT 7 4 3 11 96 29 64 40 13 80 19 85 30 90 18 108 12 111
REMARK Flexibility Score: inf
ROOT
ATOM      1  N   UNL A   1      36.558  19.952  25.088  1.00  0.00    -0.354 N 
ATOM      2  C   UNL A   1      35.404  20.552  24.701  1.00  0.00     0.244 C 
ATOM      3  O   UNL A   1      34.364  19.889  24.716  1.00  0.00    -0.273 OA
ATOM      4  H   UNL A   1      36.496  18.978  25.218  1.00  0.00     0.163 HD
ENDROOT
BRANCH   1   5
ATOM      5  C   UNL A   1      37.871  20.522  25.343  1.00  0.00     0.117 C 
BRANCH   5   6
ATOM      6  C   UNL A   1      38.949  19.459  25.325  1.00  0.00     0.042 C 
BRANCH   6   7
ATOM      7  C   UNL A   1      40.096  19.779  26.265  1.00  0.00     0.118 C 
BRANCH   7   8
ATOM      8  N   UNL A   1      41.256  18.932  26.018  1.00  0.00    -0.352 N 
ATOM      9  O   UNL A   1      43.354  18.483  25.322  1.00  0.00    -0.269 OA
ATOM     10  C   UNL A   1      42.552  19.304  25.756  1.00  0.00     0.251 C 
ATOM     11  H   UNL A   1      41.089  17.962  26.044  1.00  0.00     0.163 HD
BRANCH  10  12
ATOM     12  C   UNL A   1      42.952  20.701  26.005  1.00  0.00     0.039 A 
ATOM     13  C   UNL A   1      43.109  21.142  27.320  1.00  0.00     0.014 A 
ATOM     14  C   UNL A   1      43.157  21.572  24.933  1.00  0.00     0.014 A 
ATOM     15  C   UNL A   1      43.306  22.487  27.573  1.00  0.00     0.010 A 
ATOM     16  C   UNL A   1      43.487  22.905  25.190  1.00  0.00     0.010 A 
ATOM     17  C   UNL A   1      43.549  23.372  26.512  1.00  0.00    -0.014 A 
BRANCH  17  18
ATOM     18  C   UNL A   1      43.999  24.745  26.840  1.00  0.00     0.031 A 
ATOM     19  C   UNL A   1      45.419  25.176  26.630  1.00  0.00     0.074 A 
ATOM     20  C   UNL A   1      43.070  25.607  27.304  1.00  0.00     0.049 A 
ATOM     21  N   UNL A   1      45.963  26.340  26.869  1.00  0.00    -0.248 NA
ATOM     22  C   UNL A   1      46.352  24.176  26.089  1.00  0.00     0.031 C 
ATOM     23  C   UNL A   1      41.659  25.272  27.544  1.00  0.00     0.029 A 
ATOM     24  N   UNL A   1      43.150  26.932  27.632  1.00  0.00    -0.354 N 
ATOM     25  C   UNL A   1      47.307  26.211  26.538  1.00  0.00     0.074 A 
ATOM     26  C   UNL A   1      47.498  24.846  26.089  1.00  0.00     0.031 C 
ATOM     27  C   UNL A   1      41.001  26.374  27.922  1.00  0.00     0.029 A 
ATOM     28  C   UNL A   1      41.952  27.467  28.049  1.00  0.00     0.049 A 
ATOM     29  H   UNL A   1      43.983  27.454  27.574  1.00  0.00     0.167 HD
ATOM     30  C   UNL A   1      48.281  27.150  26.608  1.00  0.00     0.034 A 
ATOM     31  C   UNL A   1      41.658  28.693  28.520  1.00  0.00     0.034 A 
ATOM     32  C   UNL A   1      48.053  28.507  27.046  1.00  0.00     0.049 A 
ATOM     33  C   UNL A   1      42.769  29.698  28.612  1.00  0.00     0.074 A 
ATOM     34  C   UNL A   1      48.956  29.554  27.107  1.00  0.00     0.029 A 
ATOM     35  N   UNL A   1      46.839  29.004  27.506  1.00  0.00    -0.354 N 
ATOM     36  N   UNL A   1      44.031  29.564  28.271  1.00  0.00    -0.248 NA
ATOM     37  C   UNL A   1      42.424  31.015  29.154  1.00  0.00     0.031 C 
ATOM     38  C   UNL A   1      48.307  30.660  27.669  1.00  0.00     0.029 A 
ATOM     39  C   UNL A   1      46.981  30.329  27.891  1.00  0.00     0.049 A 
ATOM     40  H   UNL A   1      46.000  28.490  27.552  1.00  0.00     0.167 HD
ATOM     41  C   UNL A   1      44.628  30.787  28.550  1.00  0.00     0.074 A 
ATOM     42  C   UNL A   1      43.579  31.654  29.053  1.00  0.00     0.031 C 
ATOM     43  C   UNL A   1      45.924  31.163  28.411  1.00  0.00     0.034 A 
BRANCH  30  44
ATOM     44  C   UNL A   1      49.689  26.737  26.257  1.00  0.00     0.023 A 
ATOM     45  C   UNL A   1      50.289  27.086  25.036  1.00  0.00     0.031 A 
ATOM     46  C   UNL A   1      50.453  26.002  27.182  1.00  0.00     0.131 A 
ATOM     47  C   UNL A   1      51.600  26.665  24.757  1.00  0.00     0.055 A 
ATOM     48  C   UNL A   1      51.776  25.640  26.924  1.00  0.00     0.041 A 
ATOM     49  F   UNL A   1      49.923  25.623  28.357  1.00  0.00    -0.206 F 
ATOM     50  C   UNL A   1      52.356  25.967  25.702  1.00  0.00     0.022 A 
BRANCH  47  51
ATOM     51  S   UNL A   1      52.279  26.969  23.102  1.00  0.00     0.124 S 
ATOM     52  O   UNL A   1      51.072  26.945  22.280  1.00  0.00    -0.237 OA
ATOM     53  O   UNL A   1      52.920  28.269  23.258  1.00  0.00    -0.237 OA
ATOM     54  O   UNL A   1      53.189  25.845  22.893  1.00  0.00    -0.744 OA
ENDBRANCH  47  51
ENDBRANCH  30  44
BRANCH  31  55
ATOM     55  C   UNL A   1      40.282  29.008  28.995  1.00  0.00     0.023 A 
ATOM     56  C   UNL A   1      39.946  28.923  30.353  1.00  0.00     0.031 A 
ATOM     57  C   UNL A   1      39.266  29.363  28.086  1.00  0.00     0.131 A 
ATOM     58  C   UNL A   1      38.620  29.138  30.759  1.00  0.00     0.055 A 
ATOM     59  C   UNL A   1      37.964  29.640  28.503  1.00  0.00     0.041 A 
ATOM     60  F   UNL A   1      39.532  29.462  26.773  1.00  0.00    -0.206 F 
ATOM     61  C   UNL A   1      37.631  29.510  29.846  1.00  0.00     0.022 A 
BRANCH  58  62
ATOM     62  S   UNL A   1      38.181  28.813  32.488  1.00  0.00     0.124 S 
ATOM     63  O   UNL A   1      39.120  29.671  33.201  1.00  0.00    -0.237 OA
ATOM     64  O   UNL A   1      36.781  29.225  32.526  1.00  0.00    -0.237 OA
ATOM     65  O   UNL A   1      38.412  27.378  32.634  1.00  0.00    -0.744 OA
ENDBRANCH  58  62
ENDBRANCH  31  55
BRANCH  43  66
ATOM     66  C   UNL A   1      46.252  32.582  28.794  1.00  0.00     0.023 A 
ATOM     67  C   UNL A   1      46.062  33.644  27.893  1.00  0.00     0.031 A 
ATOM     68  C   UNL A   1      46.798  32.869  30.057  1.00  0.00     0.131 A 
ATOM     69  C   UNL A   1      46.476  34.936  28.243  1.00  0.00     0.055 A 
ATOM     70  C   UNL A   1      47.148  34.169  30.423  1.00  0.00     0.041 A 
ATOM     71  F   UNL A   1      47.003  31.891  30.951  1.00  0.00    -0.206 F 
ATOM     72  C   UNL A   1      47.003  35.209  29.509  1.00  0.00     0.022 A 
BRANCH  69  73
ATOM     73  S   UNL A   1      46.410  36.241  26.984  1.00  0.00     0.124 S 
ATOM     74  O   UNL A   1      47.306  35.716  25.958  1.00  0.00    -0.237 OA
ATOM     75  O   UNL A   1      44.992  36.269  26.638  1.00  0.00    -0.237 OA
ATOM     76  O   UNL A   1      46.900  37.423  27.689  1.00  0.00    -0.744 OA
ENDBRANCH  69  73
ENDBRANCH  43  66
ENDBRANCH  17  18
ENDBRANCH  10  12
ENDBRANCH   7   8
ENDBRANCH   6   7
ENDBRANCH   5   6
ENDBRANCH   1   5
BRANCH   2  77
ATOM     77  C   UNL A   1      35.387  22.027  24.309  1.00  0.00     0.197 C 
BRANCH  77  78
ATOM     78  N   UNL A   1      34.961  22.825  25.448  1.00  0.00    -0.340 N 
ATOM     79  C   UNL A   1      33.801  22.818  26.158  1.00  0.00     0.244 C 
ATOM     80  H   UNL A   1      35.625  23.483  25.757  1.00  0.00     0.164 HD
ATOM     81  O   UNL A   1      33.867  23.374  27.260  1.00  0.00    -0.273 OA
BRANCH  79  82
ATOM     82  C   UNL A   1      32.426  22.392  25.569  1.00  0.00     0.181 C 
BRANCH  82  83
ATOM     83  N   UNL A   1      31.222  22.599  26.401  1.00  0.00    -0.342 N 
ATOM     84  C   UNL A   1      30.362  23.648  26.591  1.00  0.00     0.243 C 
ATOM     85  H   UNL A   1      30.987  21.808  26.939  1.00  0.00     0.164 HD
ATOM     86  O   UNL A   1      29.450  23.443  27.403  1.00  0.00    -0.273 OA
BRANCH  84  87
ATOM     87  C   UNL A   1      30.554  25.069  25.988  1.00  0.00     0.176 C 
BRANCH  87  88
ATOM     88  N   UNL A   1      29.452  25.502  25.134  1.00  0.00    -0.340 N 
ATOM     89  C   UNL A   1      29.451  26.405  24.098  1.00  0.00     0.251 C 
ATOM     90  H   UNL A   1      28.581  25.086  25.328  1.00  0.00     0.164 HD
ATOM     91  O   UNL A   1      28.379  26.794  23.640  1.00  0.00    -0.269 OA
BRANCH  89  92
ATOM     92  C   UNL A   1      30.719  26.931  23.523  1.00  0.00     0.040 A 
ATOM     93  C   UNL A   1      30.961  28.307  23.626  1.00  0.00     0.017 A 
ATOM     94  C   UNL A   1      31.639  26.125  22.837  1.00  0.00     0.017 A 
ATOM     95  C   UNL A   1      32.128  28.856  23.090  1.00  0.00     0.040 A 
ATOM     96  C   UNL A   1      32.807  26.673  22.305  1.00  0.00     0.040 A 
ATOM     97  C   UNL A   1      33.043  28.033  22.441  1.00  0.00     0.123 A 
ATOM     98  F   UNL A   1      34.164  28.560  21.932  1.00  0.00    -0.207 F 
ENDBRANCH  89  92
ENDBRANCH  87  88
BRANCH  87  99
ATOM     99  C   UNL A   1      30.877  26.109  27.114  1.00  0.00     0.070 C 
BRANCH  99 100
ATOM    100  C   UNL A   1      31.947  27.127  26.762  1.00  0.00    -0.045 A 
ATOM    101  C   UNL A   1      33.135  26.720  26.136  1.00  0.00     0.004 A 
ATOM    102  C   UNL A   1      31.825  28.465  27.156  1.00  0.00     0.004 A 
ATOM    103  C   UNL A   1      34.220  27.590  26.021  1.00  0.00     0.000 A 
ATOM    104  C   UNL A   1      32.910  29.336  27.040  1.00  0.00     0.000 A 
ATOM    105  C   UNL A   1      34.114  28.893  26.495  1.00  0.00     0.000 A 
ENDBRANCH  99 100
ENDBRANCH  87  99
ENDBRANCH  84  87
ENDBRANCH  82  83
BRANCH  82 106
ATOM    106  C   UNL A   1      32.224  23.083  24.199  1.00  0.00     0.101 C 
BRANCH 106 107
ATOM    107  S   UNL A   1      32.099  21.914  22.798  1.00  0.00    -0.177 SA
ATOM    108  H   UNL A   1      31.589  20.733  23.239  1.00  0.00     0.102 HD
ENDBRANCH 106 107
ENDBRANCH  82 106
ENDBRANCH  79  82
ENDBRANCH  77  78
BRANCH  77 109
ATOM    109  C   UNL A   1      36.701  22.485  23.671  1.00  0.00     0.191 C 
BRANCH 109 110
ATOM    110  O   UNL A   1      36.455  22.910  22.337  1.00  0.00    -0.394 OA
ATOM    111  H   UNL A   1      35.553  23.261  22.270  1.00  0.00     0.210 HD
ENDBRANCH 109 110
ENDBRANCH  77 109
ENDBRANCH   2  77
TORSDOF 25
ENDMDL
MODEL 2
REMARK VINA RESULT:     -11.1      1.233      7.177
REMARK SMILES O=C(NCCCNC(=O)[C@H](CO)NC(=O)[C@H](CS)NC(=O)[C@H](Cc1ccccc1)NC(=O)c1ccc(F)cc1)c1ccc(-c2c3nc(c(-c4cc(S(=O)(=O)[O-])ccc4F)c4ccc([nH]4)c(-c4cc(S(=O)(=O)[O-])ccc4F)c4nc(c(-c5cc(S(=O)(=O)[O-])ccc5F)c5ccc2[nH]5)C=C4)C=C3)cc1
REMARK SMILES IDX 7 1 8 2 9 3 6 5 5 6 4 7 3 8 1 9 2 10 40 12 41 13 102 14
REMARK SMILES IDX 42 15 101 16 43 17 44 18 45 19 95 20 46 21 100 22 94 23
REMARK SMILES IDX 96 24 47 25 99 26 93 27 92 28 48 30 80 31 60 32 79 33 61 34
REMARK SMILES IDX 64 35 78 36 97 37 62 38 63 39 77 41 98 42 65 43 49 44 50 45
REMARK SMILES IDX 58 46 51 47 57 48 59 49 56 50 52 51 53 52 54 53 55 54 81 55
REMARK SMILES IDX 82 56 90 57 83 58 89 59 91 60 88 61 84 62 85 63 86 64 87 65
REMARK SMILES IDX 66 66 67 67 75 68 68 69 74 70 76 71 73 72 69 73 70 74 71 75
REMARK SMILES IDX 72 76 10 77 13 78 14 79 15 81 16 82 19 83 20 84 21 86 22 87
REMARK SMILES IDX 30 88 31 89 32 91 33 92 34 93 39 94 35 95 38 96 36 97 37 98
REMARK SMILES IDX 23 99 24 100 25 101 29 102 26 103 28 104 27 105 17 106
REMARK SMILES IDX 18 107 11 109 12 110
REMARK H PARENT 7 4 3 11 96 29 64 40 13 80 19 85 30 90 18 108 12 111
REMARK Flexibility Score: inf
ROOT
ATOM      1  N   UNL A   1      36.477  19.986  25.129  1.00  0.00    -0.354 N 
ATOM      2  C   UNL A   1      35.299  20.500  24.693  1.00  0.00     0.244 C 
ATOM      3  O   UNL A   1      34.304  19.772  24.696  1.00  0.00    -0.273 OA
ATOM      4  H   UNL A   1      36.474  19.013  25.284  1.00  0.00     0.163 HD
ENDROOT
BRANCH   1   5
ATOM      5  C   UNL A   1      37.743  20.645  25.405  1.00  0.00     0.117 C 
BRANCH   5   6
ATOM      6  C   UNL A   1      38.900  19.673  25.339  1.00  0.00     0.042 C 
BRANCH   6   7
ATOM      7  C   UNL A   1      40.036  20.056  26.269  1.00  0.00     0.118 C 
BRANCH   7   8
ATOM      8  N   UNL A   1      41.224  19.241  26.045  1.00  0.00    -0.352 N 
ATOM      9  O   UNL A   1      43.369  18.863  25.458  1.00  0.00    -0.269 OA
ATOM     10  C   UNL A   1      42.527  19.646  25.890  1.00  0.00     0.251 C 
ATOM     11  H   UNL A   1      41.072  18.269  25.999  1.00  0.00     0.163 HD
BRANCH  10  12
ATOM     12  C   UNL A   1      42.887  21.029  26.250  1.00  0.00     0.039 A 
ATOM     13  C   UNL A   1      43.010  21.986  25.242  1.00  0.00     0.014 A 
ATOM     14  C   UNL A   1      43.115  21.368  27.585  1.00  0.00     0.014 A 
ATOM     15  C   UNL A   1      43.522  23.236  25.542  1.00  0.00     0.010 A 
ATOM     16  C   UNL A   1      43.505  22.672  27.901  1.00  0.00     0.010 A 
ATOM     17  C   UNL A   1      43.724  23.608  26.879  1.00  0.00    -0.014 A 
BRANCH  17  18
ATOM     18  C   UNL A   1      44.031  25.029  27.167  1.00  0.00     0.031 A 
ATOM     19  C   UNL A   1      42.991  25.961  27.711  1.00  0.00     0.074 A 
ATOM     20  C   UNL A   1      45.297  25.444  26.953  1.00  0.00     0.049 A 
ATOM     21  N   UNL A   1      43.108  27.228  28.012  1.00  0.00    -0.248 NA
ATOM     22  C   UNL A   1      41.648  25.410  27.943  1.00  0.00     0.031 C 
ATOM     23  C   UNL A   1      46.378  24.603  26.420  1.00  0.00     0.029 A 
ATOM     24  N   UNL A   1      45.903  26.650  27.175  1.00  0.00    -0.354 N 
ATOM     25  C   UNL A   1      41.851  27.637  28.442  1.00  0.00     0.074 A 
ATOM     26  C   UNL A   1      40.981  26.483  28.351  1.00  0.00     0.031 C 
ATOM     27  C   UNL A   1      47.520  25.301  26.412  1.00  0.00     0.029 A 
ATOM     28  C   UNL A   1      47.239  26.661  26.842  1.00  0.00     0.049 A 
ATOM     29  H   UNL A   1      45.430  27.434  27.538  1.00  0.00     0.167 HD
ATOM     30  C   UNL A   1      41.471  28.867  28.868  1.00  0.00     0.034 A 
ATOM     31  C   UNL A   1      48.132  27.667  26.846  1.00  0.00     0.034 A 
ATOM     32  C   UNL A   1      42.369  29.994  28.960  1.00  0.00     0.049 A 
ATOM     33  C   UNL A   1      47.667  29.023  27.294  1.00  0.00     0.074 A 
ATOM     34  C   UNL A   1      42.102  31.270  29.425  1.00  0.00     0.029 A 
ATOM     35  N   UNL A   1      43.703  29.986  28.572  1.00  0.00    -0.354 N 
ATOM     36  N   UNL A   1      46.478  29.385  27.720  1.00  0.00    -0.248 NA
ATOM     37  C   UNL A   1      48.655  30.104  27.261  1.00  0.00     0.031 C 
ATOM     38  C   UNL A   1      43.252  32.049  29.253  1.00  0.00     0.029 A 
ATOM     39  C   UNL A   1      44.259  31.244  28.749  1.00  0.00     0.049 A 
ATOM     40  H   UNL A   1      44.184  29.200  28.221  1.00  0.00     0.167 HD
ATOM     41  C   UNL A   1      46.581  30.739  28.015  1.00  0.00     0.074 A 
ATOM     42  C   UNL A   1      47.956  31.116  27.751  1.00  0.00     0.031 C 
ATOM     43  C   UNL A   1      45.628  31.598  28.456  1.00  0.00     0.034 A 
BRANCH  30  44
ATOM     44  C   UNL A   1      40.018  29.077  29.213  1.00  0.00     0.023 A 
ATOM     45  C   UNL A   1      39.568  29.154  30.542  1.00  0.00     0.031 A 
ATOM     46  C   UNL A   1      39.069  29.232  28.185  1.00  0.00     0.131 A 
ATOM     47  C   UNL A   1      38.201  29.341  30.807  1.00  0.00     0.055 A 
ATOM     48  C   UNL A   1      37.722  29.479  28.455  1.00  0.00     0.041 A 
ATOM     49  F   UNL A   1      39.439  29.147  26.897  1.00  0.00    -0.206 F 
ATOM     50  C   UNL A   1      37.280  29.528  29.774  1.00  0.00     0.022 A 
BRANCH  47  51
ATOM     51  S   UNL A   1      37.626  29.248  32.525  1.00  0.00     0.124 S 
ATOM     52  O   UNL A   1      36.249  29.719  32.400  1.00  0.00    -0.237 OA
ATOM     53  O   UNL A   1      37.791  27.834  32.837  1.00  0.00    -0.237 OA
ATOM     54  O   UNL A   1      38.524  30.154  33.238  1.00  0.00    -0.744 OA
ENDBRANCH  47  51
ENDBRANCH  30  44
BRANCH  31  55
ATOM     55  C   UNL A   1      49.520  27.446  26.353  1.00  0.00     0.023 A 
ATOM     56  C   UNL A   1      50.594  27.311  27.245  1.00  0.00     0.031 A 
ATOM     57  C   UNL A   1      49.801  27.406  24.973  1.00  0.00     0.131 A 
ATOM     58  C   UNL A   1      51.902  27.194  26.750  1.00  0.00     0.055 A 
ATOM     59  C   UNL A   1      51.096  27.224  24.487  1.00  0.00     0.041 A 
ATOM     60  F   UNL A   1      48.811  27.528  24.074  1.00  0.00    -0.206 F 
ATOM     61  C   UNL A   1      52.158  27.134  25.378  1.00  0.00     0.022 A 
BRANCH  58  62
ATOM     62  S   UNL A   1      53.279  27.234  27.928  1.00  0.00     0.124 S 
ATOM     63  O   UNL A   1      54.253  28.056  27.221  1.00  0.00    -0.237 OA
ATOM     64  O   UNL A   1      52.656  27.842  29.099  1.00  0.00    -0.237 OA
ATOM     65  O   UNL A   1      53.641  25.826  28.077  1.00  0.00    -0.744 OA
ENDBRANCH  58  62
ENDBRANCH  31  55
BRANCH  43  66
ATOM     66  C   UNL A   1      46.069  33.018  28.696  1.00  0.00     0.023 A 
ATOM     67  C   UNL A   1      46.052  33.973  27.664  1.00  0.00     0.031 A 
ATOM     68  C   UNL A   1      46.548  33.409  29.958  1.00  0.00     0.131 A 
ATOM     69  C   UNL A   1      46.568  35.255  27.895  1.00  0.00     0.055 A 
ATOM     70  C   UNL A   1      47.000  34.707  30.198  1.00  0.00     0.041 A 
ATOM     71  F   UNL A   1      46.588  32.535  30.975  1.00  0.00    -0.206 F 
ATOM     72  C   UNL A   1      47.027  35.634  29.159  1.00  0.00     0.022 A 
BRANCH  69  73
ATOM     73  S   UNL A   1      46.725  36.393  26.490  1.00  0.00     0.124 S 
ATOM     74  O   UNL A   1      48.138  36.753  26.550  1.00  0.00    -0.237 OA
ATOM     75  O   UNL A   1      46.329  35.555  25.363  1.00  0.00    -0.237 OA
ATOM     76  O   UNL A   1      45.795  37.471  26.819  1.00  0.00    -0.744 OA
ENDBRANCH  69  73
ENDBRANCH  43  66
ENDBRANCH  17  18
ENDBRANCH  10  12
ENDBRANCH   7   8
ENDBRANCH   6   7
ENDBRANCH   5   6
ENDBRANCH   1   5
BRANCH   2  77
ATOM     77  C   UNL A   1      35.201  21.960  24.261  1.00  0.00     0.197 C 
BRANCH  77  78
ATOM     78  N   UNL A   1      34.806  22.776  25.400  1.00  0.00    -0.340 N 
ATOM     79  C   UNL A   1      33.660  22.793  26.130  1.00  0.00     0.244 C 
ATOM     80  H   UNL A   1      35.485  23.427  25.691  1.00  0.00     0.164 HD
ATOM     81  O   UNL A   1      33.754  23.359  27.225  1.00  0.00    -0.273 OA
BRANCH  79  82
ATOM     82  C   UNL A   1      32.268  22.382  25.570  1.00  0.00     0.181 C 
BRANCH  82  83
ATOM     83  N   UNL A   1      31.081  22.631  26.414  1.00  0.00    -0.342 N 
ATOM     84  C   UNL A   1      30.252  23.706  26.603  1.00  0.00     0.243 C 
ATOM     85  H   UNL A   1      30.831  21.853  26.963  1.00  0.00     0.164 HD
ATOM     86  O   UNL A   1      29.344  23.534  27.428  1.00  0.00    -0.273 OA
BRANCH  84  87
ATOM     87  C   UNL A   1      30.475  25.114  25.981  1.00  0.00     0.176 C 
BRANCH  87  88
ATOM     88  N   UNL A   1      29.388  25.554  25.112  1.00  0.00    -0.340 N 
ATOM     89  C   UNL A   1      29.410  26.450  24.069  1.00  0.00     0.251 C 
ATOM     90  H   UNL A   1      28.510  25.151  25.299  1.00  0.00     0.164 HD
ATOM     91  O   UNL A   1      28.349  26.850  23.596  1.00  0.00    -0.269 OA
BRANCH  89  92
ATOM     92  C   UNL A   1      30.692  26.956  23.504  1.00  0.00     0.040 A 
ATOM     93  C   UNL A   1      30.988  28.314  23.674  1.00  0.00     0.017 A 
ATOM     94  C   UNL A   1      31.571  26.151  22.767  1.00  0.00     0.017 A 
ATOM     95  C   UNL A   1      32.170  28.845  23.151  1.00  0.00     0.040 A 
ATOM     96  C   UNL A   1      32.754  26.680  22.248  1.00  0.00     0.040 A 
ATOM     97  C   UNL A   1      33.044  28.022  22.449  1.00  0.00     0.123 A 
ATOM     98  F   UNL A   1      34.179  28.530  21.953  1.00  0.00    -0.207 F 
ENDBRANCH  89  92
ENDBRANCH  87  88
BRANCH  87  99
ATOM     99  C   UNL A   1      30.807  26.164  27.095  1.00  0.00     0.070 C 
BRANCH  99 100
ATOM    100  C   UNL A   1      31.934  27.125  26.757  1.00  0.00    -0.045 A 
ATOM    101  C   UNL A   1      33.096  26.660  26.123  1.00  0.00     0.004 A 
ATOM    102  C   UNL A   1      31.890  28.460  27.174  1.00  0.00     0.004 A 
ATOM    103  C   UNL A   1      34.229  27.468  26.020  1.00  0.00     0.000 A 
ATOM    104  C   UNL A   1      33.022  29.270  27.070  1.00  0.00     0.000 A 
ATOM    105  C   UNL A   1      34.199  28.767  26.516  1.00  0.00     0.000 A 
ENDBRANCH  99 100
ENDBRANCH  87  99
ENDBRANCH  84  87
ENDBRANCH  82  83
BRANCH  82 106
ATOM    106  C   UNL A   1      32.060  23.047  24.188  1.00  0.00     0.101 C 
BRANCH 106 107
ATOM    107  S   UNL A   1      31.921  21.852  22.811  1.00  0.00    -0.177 SA
ATOM    108  H   UNL A   1      31.333  22.457  21.744  1.00  0.00     0.102 HD
ENDBRANCH 106 107
ENDBRANCH  82 106
ENDBRANCH  79  82
ENDBRANCH  77  78
BRANCH  77 109
ATOM    109  C   UNL A   1      36.456  22.450  23.536  1.00  0.00     0.191 C 
BRANCH 109 110
ATOM    110  O   UNL A   1      36.231  23.760  23.033  1.00  0.00    -0.394 OA
ATOM    111  H   UNL A   1      35.500  24.173  23.520  1.00  0.00     0.210 HD
ENDBRANCH 109 110
ENDBRANCH  77 109
ENDBRANCH   2  77
TORSDOF 25
ENDMDL
MODEL 3
REMARK VINA RESULT:     -10.9      1.747      2.183
REMARK SMILES O=C(NCCCNC(=O)[C@H](CO)NC(=O)[C@H](CS)NC(=O)[C@H](Cc1ccccc1)NC(=O)c1ccc(F)cc1)c1ccc(-c2c3nc(c(-c4cc(S(=O)(=O)[O-])ccc4F)c4ccc([nH]4)c(-c4cc(S(=O)(=O)[O-])ccc4F)c4nc(c(-c5cc(S(=O)(=O)[O-])ccc5F)c5ccc2[nH]5)C=C4)C=C3)cc1
REMARK SMILES IDX 7 1 8 2 9 3 6 5 5 6 4 7 3 8 1 9 2 10 40 12 41 13 102 14
REMARK SMILES IDX 42 15 101 16 43 17 44 18 45 19 95 20 46 21 100 22 94 23
REMARK SMILES IDX 96 24 47 25 99 26 93 27 92 28 48 30 80 31 60 32 79 33 61 34
REMARK SMILES IDX 64 35 78 36 97 37 62 38 63 39 77 41 98 42 65 43 49 44 50 45
REMARK SMILES IDX 58 46 51 47 57 48 59 49 56 50 52 51 53 52 54 53 55 54 81 55
REMARK SMILES IDX 82 56 90 57 83 58 89 59 91 60 88 61 84 62 85 63 86 64 87 65
REMARK SMILES IDX 66 66 67 67 75 68 68 69 74 70 76 71 73 72 69 73 70 74 71 75
REMARK SMILES IDX 72 76 10 77 13 78 14 79 15 81 16 82 19 83 20 84 21 86 22 87
REMARK SMILES IDX 30 88 31 89 32 91 33 92 34 93 39 94 35 95 38 96 36 97 37 98
REMARK SMILES IDX 23 99 24 100 25 101 29 102 26 103 28 104 27 105 17 106
REMARK SMILES IDX 18 107 11 109 12 110
REMARK H PARENT 7 4 3 11 96 29 64 40 13 80 19 85 30 90 18 108 12 111
REMARK Flexibility Score: inf
ROOT
ATOM      1  N   UNL A   1      36.625  19.890  25.092  1.00  0.00    -0.354 N 
ATOM      2  C   UNL A   1      35.459  20.477  24.722  1.00  0.00     0.244 C 
ATOM      3  O   UNL A   1      34.432  19.793  24.718  1.00  0.00    -0.273 OA
ATOM      4  H   UNL A   1      36.583  18.912  25.195  1.00  0.00     0.163 HD
ENDROOT
BRANCH   1   5
ATOM      5  C   UNL A   1      37.926  20.479  25.362  1.00  0.00     0.117 C 
BRANCH   5   6
ATOM      6  C   UNL A   1      38.992  19.417  25.526  1.00  0.00     0.042 C 
BRANCH   6   7
ATOM      7  C   UNL A   1      40.216  19.931  26.262  1.00  0.00     0.118 C 
BRANCH   7   8
ATOM      8  N   UNL A   1      41.399  19.128  25.979  1.00  0.00    -0.352 N 
ATOM      9  O   UNL A   1      43.522  18.776  25.302  1.00  0.00    -0.269 OA
ATOM     10  C   UNL A   1      42.692  19.545  25.779  1.00  0.00     0.251 C 
ATOM     11  H   UNL A   1      41.252  18.156  25.925  1.00  0.00     0.163 HD
BRANCH  10  12
ATOM     12  C   UNL A   1      43.057  20.925  26.146  1.00  0.00     0.039 A 
ATOM     13  C   UNL A   1      43.333  21.849  25.137  1.00  0.00     0.014 A 
ATOM     14  C   UNL A   1      43.136  21.295  27.490  1.00  0.00     0.014 A 
ATOM     15  C   UNL A   1      43.850  23.089  25.465  1.00  0.00     0.010 A 
ATOM     16  C   UNL A   1      43.532  22.593  27.819  1.00  0.00     0.010 A 
ATOM     17  C   UNL A   1      43.904  23.492  26.807  1.00  0.00    -0.014 A 
BRANCH  17  18
ATOM     18  C   UNL A   1      44.226  24.910  27.095  1.00  0.00     0.031 A 
ATOM     19  C   UNL A   1      45.599  25.465  26.862  1.00  0.00     0.074 A 
ATOM     20  C   UNL A   1      43.224  25.693  27.544  1.00  0.00     0.049 A 
ATOM     21  N   UNL A   1      46.034  26.681  27.066  1.00  0.00    -0.248 NA
ATOM     22  C   UNL A   1      46.618  24.542  26.339  1.00  0.00     0.031 C 
ATOM     23  C   UNL A   1      41.853  25.235  27.805  1.00  0.00     0.029 A 
ATOM     24  N   UNL A   1      43.182  27.029  27.837  1.00  0.00    -0.354 N 
ATOM     25  C   UNL A   1      47.381  26.669  26.726  1.00  0.00     0.074 A 
ATOM     26  C   UNL A   1      47.697  25.316  26.312  1.00  0.00     0.031 C 
ATOM     27  C   UNL A   1      41.096  26.281  28.160  1.00  0.00     0.029 A 
ATOM     28  C   UNL A   1      41.942  27.461  28.250  1.00  0.00     0.049 A 
ATOM     29  H   UNL A   1      43.962  27.625  27.759  1.00  0.00     0.167 HD
ATOM     30  C   UNL A   1      48.264  27.697  26.763  1.00  0.00     0.034 A 
ATOM     31  C   UNL A   1      41.538  28.666  28.691  1.00  0.00     0.034 A 
ATOM     32  C   UNL A   1      47.913  29.038  27.168  1.00  0.00     0.049 A 
ATOM     33  C   UNL A   1      42.551  29.773  28.748  1.00  0.00     0.074 A 
ATOM     34  C   UNL A   1      48.715  30.165  27.194  1.00  0.00     0.029 A 
ATOM     35  N   UNL A   1      46.661  29.431  27.625  1.00  0.00    -0.354 N 
ATOM     36  N   UNL A   1      43.817  29.747  28.399  1.00  0.00    -0.248 NA
ATOM     37  C   UNL A   1      42.087  31.066  29.258  1.00  0.00     0.031 C 
ATOM     38  C   UNL A   1      47.969  31.220  27.732  1.00  0.00     0.029 A 
ATOM     39  C   UNL A   1      46.681  30.773  27.974  1.00  0.00     0.049 A 
ATOM     40  H   UNL A   1      45.874  28.842  27.692  1.00  0.00     0.167 HD
ATOM     41  C   UNL A   1      44.299  31.028  28.641  1.00  0.00     0.074 A 
ATOM     42  C   UNL A   1      43.178  31.806  29.130  1.00  0.00     0.031 C 
ATOM     43  C   UNL A   1      45.554  31.519  28.481  1.00  0.00     0.034 A 
BRANCH  30  44
ATOM     44  C   UNL A   1      49.702  27.407  26.412  1.00  0.00     0.023 A 
ATOM     45  C   UNL A   1      50.670  27.129  27.391  1.00  0.00     0.031 A 
ATOM     46  C   UNL A   1      50.101  27.380  25.063  1.00  0.00     0.131 A 
ATOM     47  C   UNL A   1      51.998  26.877  27.009  1.00  0.00     0.055 A 
ATOM     48  C   UNL A   1      51.408  27.067  24.686  1.00  0.00     0.041 A 
ATOM     49  F   UNL A   1      49.223  27.657  24.086  1.00  0.00    -0.206 F 
ATOM     50  C   UNL A   1      52.368  26.820  25.663  1.00  0.00     0.022 A 
BRANCH  47  51
ATOM     51  S   UNL A   1      53.261  26.709  28.301  1.00  0.00     0.124 S 
ATOM     52  O   UNL A   1      53.781  28.072  28.382  1.00  0.00    -0.237 OA
ATOM     53  O   UNL A   1      52.483  26.254  29.446  1.00  0.00    -0.237 OA
ATOM     54  O   UNL A   1      54.190  25.727  27.747  1.00  0.00    -0.744 OA
ENDBRANCH  47  51
ENDBRANCH  30  44
BRANCH  31  55
ATOM     55  C   UNL A   1      40.141  28.865  29.169  1.00  0.00     0.023 A 
ATOM     56  C   UNL A   1      39.826  28.803  30.534  1.00  0.00     0.031 A 
ATOM     57  C   UNL A   1      39.088  29.081  28.259  1.00  0.00     0.131 A 
ATOM     58  C   UNL A   1      38.489  28.904  30.947  1.00  0.00     0.055 A 
ATOM     59  C   UNL A   1      37.768  29.245  28.680  1.00  0.00     0.041 A 
ATOM     60  F   UNL A   1      39.333  29.151  26.941  1.00  0.00    -0.206 F 
ATOM     61  C   UNL A   1      37.461  29.140  30.031  1.00  0.00     0.022 A 
BRANCH  58  62
ATOM     62  S   UNL A   1      38.098  28.609  32.693  1.00  0.00     0.124 S 
ATOM     63  O   UNL A   1      38.179  27.156  32.776  1.00  0.00    -0.237 OA
ATOM     64  O   UNL A   1      39.158  29.350  33.368  1.00  0.00    -0.237 OA
ATOM     65  O   UNL A   1      36.756  29.169  32.840  1.00  0.00    -0.744 OA
ENDBRANCH  58  62
ENDBRANCH  31  55
BRANCH  43  66
ATOM     66  C   UNL A   1      45.750  32.973  28.824  1.00  0.00     0.023 A 
ATOM     67  C   UNL A   1      46.140  33.373  30.114  1.00  0.00     0.031 A 
ATOM     68  C   UNL A   1      45.506  33.968  27.862  1.00  0.00     0.131 A 
ATOM     69  C   UNL A   1      46.210  34.737  30.427  1.00  0.00     0.055 A 
ATOM     70  C   UNL A   1      45.641  35.323  28.164  1.00  0.00     0.041 A 
ATOM     71  F   UNL A   1      45.127  33.639  26.618  1.00  0.00    -0.206 F 
ATOM     72  C   UNL A   1      45.980  35.715  29.456  1.00  0.00     0.022 A 
BRANCH  69  73
ATOM     73  S   UNL A   1      46.511  35.218  32.150  1.00  0.00     0.124 S 
ATOM     74  O   UNL A   1      47.061  36.561  31.998  1.00  0.00    -0.237 OA
ATOM     75  O   UNL A   1      45.176  35.138  32.735  1.00  0.00    -0.237 OA
ATOM     76  O   UNL A   1      47.457  34.211  32.626  1.00  0.00    -0.744 OA
ENDBRANCH  69  73
ENDBRANCH  43  66
ENDBRANCH  17  18
ENDBRANCH  10  12
ENDBRANCH   7   8
ENDBRANCH   6   7
ENDBRANCH   5   6
ENDBRANCH   1   5
BRANCH   2  77
ATOM     77  C   UNL A   1      35.412  21.962  24.371  1.00  0.00     0.197 C 
BRANCH  77  78
ATOM     78  N   UNL A   1      35.029  22.725  25.549  1.00  0.00    -0.340 N 
ATOM     79  C   UNL A   1      33.856  22.778  26.234  1.00  0.00     0.244 C 
ATOM     80  H   UNL A   1      35.740  23.302  25.910  1.00  0.00     0.164 HD
ATOM     81  O   UNL A   1      33.944  23.259  27.370  1.00  0.00    -0.273 OA
BRANCH  79  82
ATOM     82  C   UNL A   1      32.464  22.511  25.594  1.00  0.00     0.181 C 
BRANCH  82  83
ATOM     83  N   UNL A   1      31.266  22.689  26.443  1.00  0.00    -0.342 N 
ATOM     84  C   UNL A   1      30.359  23.701  26.614  1.00  0.00     0.243 C 
ATOM     85  H   UNL A   1      31.080  21.907  27.010  1.00  0.00     0.164 HD
ATOM     86  O   UNL A   1      29.473  23.481  27.449  1.00  0.00    -0.273 OA
BRANCH  84  87
ATOM     87  C   UNL A   1      30.472  25.108  25.960  1.00  0.00     0.176 C 
BRANCH  87  88
ATOM     88  N   UNL A   1      29.373  25.426  25.052  1.00  0.00    -0.340 N 
ATOM     89  C   UNL A   1      29.296  26.393  24.077  1.00  0.00     0.251 C 
ATOM     90  H   UNL A   1      28.570  24.867  25.151  1.00  0.00     0.164 HD
ATOM     91  O   UNL A   1      28.209  26.643  23.563  1.00  0.00    -0.269 OA
BRANCH  89  92
ATOM     92  C   UNL A   1      30.499  27.151  23.636  1.00  0.00     0.040 A 
ATOM     93  C   UNL A   1      31.459  26.467  22.878  1.00  0.00     0.017 A 
ATOM     94  C   UNL A   1      30.736  28.485  23.996  1.00  0.00     0.017 A 
ATOM     95  C   UNL A   1      32.615  27.125  22.450  1.00  0.00     0.040 A 
ATOM     96  C   UNL A   1      31.888  29.144  23.564  1.00  0.00     0.040 A 
ATOM     97  C   UNL A   1      32.815  28.458  22.792  1.00  0.00     0.123 A 
ATOM     98  F   UNL A   1      33.920  29.090  22.377  1.00  0.00    -0.207 F 
ENDBRANCH  89  92
ENDBRANCH  87  88
BRANCH  87  99
ATOM     99  C   UNL A   1      30.678  26.211  27.052  1.00  0.00     0.070 C 
BRANCH  99 100
ATOM    100  C   UNL A   1      31.967  27.004  26.930  1.00  0.00    -0.045 A 
ATOM    101  C   UNL A   1      32.047  28.312  27.434  1.00  0.00     0.004 A 
ATOM    102  C   UNL A   1      33.058  26.498  26.213  1.00  0.00     0.004 A 
ATOM    103  C   UNL A   1      33.130  29.135  27.124  1.00  0.00     0.000 A 
ATOM    104  C   UNL A   1      34.143  27.321  25.905  1.00  0.00     0.000 A 
ATOM    105  C   UNL A   1      34.168  28.645  26.339  1.00  0.00     0.000 A 
ENDBRANCH  99 100
ENDBRANCH  87  99
ENDBRANCH  84  87
ENDBRANCH  82  83
BRANCH  82 106
ATOM    106  C   UNL A   1      32.317  23.374  24.318  1.00  0.00     0.101 C 
BRANCH 106 107
ATOM    107  S   UNL A   1      32.393  22.409  22.767  1.00  0.00    -0.177 SA
ATOM    108  H   UNL A   1      32.996  21.213  23.007  1.00  0.00     0.102 HD
ENDBRANCH 106 107
ENDBRANCH  82 106
ENDBRANCH  79  82
ENDBRANCH  77  78
BRANCH  77 109
ATOM    109  C   UNL A   1      36.692  22.450  23.688  1.00  0.00     0.191 C 
BRANCH 109 110
ATOM    110  O   UNL A   1      37.139  23.642  24.320  1.00  0.00    -0.394 OA
ATOM    111  H   UNL A   1      36.512  24.360  24.138  1.00  0.00     0.210 HD
ENDBRANCH 109 110
ENDBRANCH  77 109
ENDBRANCH   2  77
TORSDOF 25
ENDMDL
