MODEL 1
REMARK VINA RESULT:     -11.5      0.000      0.000
REMARK SMILES NS(=O)(=O)c1ccc(-c2coc(=O)n2-c2ccc(C(=O)NCCCNC(=O)c3ccc(-c4c5nc(c(-c6cc(S(=O)(=O)[O-])ccc6F)c6ccc([nH]6)c(-c6cc(S(=O)(=O)[O-])ccc6F)c6nc(c(-c7cc(S(=O)(=O)[O-])ccc7F)c7ccc4[nH]7)C=C6)C=C5)cc3)cc2)cc1
REMARK SMILES IDX 22 1 21 2 19 3 20 4 18 6 15 7 16 8 92 9 17 10 91 11 14 12
REMARK SMILES IDX 9 13 10 14 11 15 12 16 13 17 8 18 5 19 6 20 94 21 7 22 93 23
REMARK SMILES IDX 2 24 3 25 4 26 1 27 23 30 24 31 25 32 26 33 27 35 28 36
REMARK SMILES IDX 29 37 90 38 30 39 89 40 31 41 32 42 33 43 83 44 34 45 88 46
REMARK SMILES IDX 82 47 84 48 35 49 87 50 81 51 80 52 36 54 68 55 48 56 67 57
REMARK SMILES IDX 49 58 52 59 66 60 85 61 50 62 51 63 65 65 86 66 53 67 37 68
REMARK SMILES IDX 38 69 46 70 39 71 45 72 47 73 44 74 40 75 41 76 42 77 43 78
REMARK SMILES IDX 69 79 70 80 78 81 71 82 77 83 79 84 76 85 72 86 73 87 74 88
REMARK SMILES IDX 75 89 54 90 55 91 63 92 56 93 62 94 64 95 61 96 57 97 58 98
REMARK SMILES IDX 59 99 60 100
REMARK H PARENT 21 5 1 28 1 29 25 34 84 53 52 64
REMARK Flexibility Score: inf
ROOT
ATOM      1  C   UNL A   1      40.420  21.687  26.218  1.00  0.00     0.118 C 
ENDROOT
BRANCH   1   2
ATOM      2  N   UNL A   1      40.002  23.050  26.511  1.00  0.00    -0.352 N 
ATOM      3  C   UNL A   1      38.782  23.680  26.467  1.00  0.00     0.251 C 
ATOM      4  O   UNL A   1      38.717  24.835  26.889  1.00  0.00    -0.269 OA
ATOM      5  H   UNL A   1      40.739  23.637  26.797  1.00  0.00     0.163 HD
BRANCH   3   6
ATOM      6  C   UNL A   1      37.532  23.026  25.982  1.00  0.00     0.039 A 
ATOM      7  C   UNL A   1      35.185  21.911  24.892  1.00  0.00     0.053 A 
ATOM      8  C   UNL A   1      36.353  21.941  24.133  1.00  0.00     0.028 A 
ATOM      9  C   UNL A   1      35.219  22.347  26.216  1.00  0.00     0.028 A 
ATOM     10  C   UNL A   1      37.512  22.524  24.668  1.00  0.00     0.016 A 
ATOM     11  C   UNL A   1      36.391  22.859  26.763  1.00  0.00     0.016 A 
BRANCH   7  12
ATOM     12  N   UNL A   1      33.955  21.493  24.353  1.00  0.00    -0.242 N 
ATOM     13  C   UNL A   1      32.947  22.285  23.873  1.00  0.00     0.095 A 
ATOM     14  C   UNL A   1      31.931  21.471  23.620  1.00  0.00     0.228 A 
ATOM     15  O   UNL A   1      32.191  20.127  23.893  1.00  0.00    -0.415 OA
ATOM     16  C   UNL A   1      33.514  20.174  24.343  1.00  0.00     0.424 A 
ATOM     17  O   UNL A   1      34.119  19.174  24.701  1.00  0.00    -0.223 OA
BRANCH  13  18
ATOM     18  C   UNL A   1      33.069  23.708  23.556  1.00  0.00     0.002 A 
ATOM     19  C   UNL A   1      33.223  26.450  22.992  1.00  0.00     0.082 A 
ATOM     20  C   UNL A   1      33.036  26.025  24.308  1.00  0.00     0.022 A 
ATOM     21  C   UNL A   1      33.333  25.519  21.955  1.00  0.00     0.022 A 
ATOM     22  C   UNL A   1      32.964  24.659  24.585  1.00  0.00     0.012 A 
ATOM     23  C   UNL A   1      33.260  24.149  22.240  1.00  0.00     0.012 A 
BRANCH  19  24
ATOM     24  S   UNL A   1      33.309  28.192  22.693  1.00  0.00     0.238 S 
ATOM     25  O   UNL A   1      31.969  28.708  22.642  1.00  0.00    -0.207 OA
ATOM     26  O   UNL A   1      34.286  28.424  21.648  1.00  0.00    -0.207 OA
BRANCH  24  27
ATOM     27  N   UNL A   1      33.996  28.838  24.086  1.00  0.00    -0.225 NA
ATOM     28  H   UNL A   1      34.091  28.106  24.788  1.00  0.00     0.137 HD
ATOM     29  H   UNL A   1      33.395  29.581  24.446  1.00  0.00     0.137 HD
ENDBRANCH  24  27
ENDBRANCH  19  24
ENDBRANCH  13  18
ENDBRANCH   7  12
ENDBRANCH   3   6
ENDBRANCH   1   2
BRANCH   1  30
ATOM     30  C   UNL A   1      41.148  21.037  27.404  1.00  0.00     0.042 C 
BRANCH  30  31
ATOM     31  C   UNL A   1      41.938  22.039  28.228  1.00  0.00     0.118 C 
BRANCH  31  32
ATOM     32  N   UNL A   1      43.235  22.339  27.629  1.00  0.00    -0.352 N 
ATOM     33  C   UNL A   1      43.740  23.571  27.270  1.00  0.00     0.251 C 
ATOM     34  H   UNL A   1      43.821  21.567  27.461  1.00  0.00     0.163 HD
ATOM     35  O   UNL A   1      44.655  23.639  26.456  1.00  0.00    -0.269 OA
BRANCH  33  36
ATOM     36  C   UNL A   1      43.139  24.789  27.845  1.00  0.00     0.039 A 
ATOM     37  C   UNL A   1      43.534  25.242  29.104  1.00  0.00     0.014 A 
ATOM     38  C   UNL A   1      42.208  25.509  27.096  1.00  0.00     0.014 A 
ATOM     39  C   UNL A   1      43.065  26.476  29.552  1.00  0.00     0.010 A 
ATOM     40  C   UNL A   1      41.852  26.785  27.482  1.00  0.00     0.010 A 
ATOM     41  C   UNL A   1      42.256  27.273  28.720  1.00  0.00    -0.014 A 
BRANCH  41  42
ATOM     42  C   UNL A   1      41.964  28.659  29.102  1.00  0.00     0.031 A 
ATOM     43  C   UNL A   1      42.928  29.667  28.575  1.00  0.00     0.074 A 
ATOM     44  C   UNL A   1      40.848  29.088  29.733  1.00  0.00     0.049 A 
ATOM     45  N   UNL A   1      43.798  30.343  29.249  1.00  0.00    -0.248 NA
ATOM     46  C   UNL A   1      43.043  29.842  27.119  1.00  0.00     0.031 C 
ATOM     47  C   UNL A   1      39.654  28.325  30.106  1.00  0.00     0.029 A 
ATOM     48  N   UNL A   1      40.517  30.359  30.106  1.00  0.00    -0.354 N 
ATOM     49  C   UNL A   1      44.416  31.199  28.344  1.00  0.00     0.074 A 
ATOM     50  C   UNL A   1      44.044  30.722  27.039  1.00  0.00     0.031 C 
ATOM     51  C   UNL A   1      38.655  29.173  30.440  1.00  0.00     0.029 A 
ATOM     52  C   UNL A   1      39.187  30.522  30.484  1.00  0.00     0.049 A 
ATOM     53  H   UNL A   1      41.165  31.100  30.107  1.00  0.00     0.167 HD
ATOM     54  C   UNL A   1      45.009  32.354  28.761  1.00  0.00     0.034 A 
ATOM     55  C   UNL A   1      38.556  31.677  30.826  1.00  0.00     0.034 A 
ATOM     56  C   UNL A   1      45.247  32.330  30.189  1.00  0.00     0.049 A 
ATOM     57  C   UNL A   1      39.603  32.616  31.289  1.00  0.00     0.074 A 
ATOM     58  C   UNL A   1      45.938  31.485  31.040  1.00  0.00     0.029 A 
ATOM     59  N   UNL A   1      44.402  33.050  31.005  1.00  0.00    -0.354 N 
ATOM     60  N   UNL A   1      40.306  32.423  32.369  1.00  0.00    -0.248 NA
ATOM     61  C   UNL A   1      40.193  33.527  30.321  1.00  0.00     0.031 C 
ATOM     62  C   UNL A   1      45.103  31.366  32.191  1.00  0.00     0.029 A 
ATOM     63  C   UNL A   1      44.004  32.208  32.016  1.00  0.00     0.049 A 
ATOM     64  H   UNL A   1      44.136  33.990  30.887  1.00  0.00     0.167 HD
ATOM     65  C   UNL A   1      41.593  32.805  32.028  1.00  0.00     0.074 A 
ATOM     66  C   UNL A   1      41.440  33.581  30.799  1.00  0.00     0.031 C 
ATOM     67  C   UNL A   1      42.683  32.227  32.619  1.00  0.00     0.034 A 
BRANCH  54  68
ATOM     68  C   UNL A   1      45.068  33.636  27.959  1.00  0.00     0.023 A 
ATOM     69  C   UNL A   1      46.341  34.145  27.635  1.00  0.00     0.031 A 
ATOM     70  C   UNL A   1      43.985  34.520  27.746  1.00  0.00     0.131 A 
ATOM     71  C   UNL A   1      46.507  35.482  27.230  1.00  0.00     0.055 A 
ATOM     72  C   UNL A   1      44.148  35.827  27.277  1.00  0.00     0.041 A 
ATOM     73  F   UNL A   1      42.724  34.210  28.067  1.00  0.00    -0.206 F 
ATOM     74  C   UNL A   1      45.417  36.327  27.047  1.00  0.00     0.022 A 
BRANCH  71  75
ATOM     75  S   UNL A   1      48.188  36.150  27.128  1.00  0.00     0.124 S 
ATOM     76  O   UNL A   1      48.980  35.027  27.618  1.00  0.00    -0.237 OA
ATOM     77  O   UNL A   1      48.306  36.449  25.704  1.00  0.00    -0.237 OA
ATOM     78  O   UNL A   1      48.145  37.315  28.008  1.00  0.00    -0.744 OA
ENDBRANCH  71  75
ENDBRANCH  54  68
BRANCH  55  79
ATOM     79  C   UNL A   1      37.159  32.084  30.528  1.00  0.00     0.023 A 
ATOM     80  C   UNL A   1      36.344  32.756  31.464  1.00  0.00     0.031 A 
ATOM     81  C   UNL A   1      36.696  32.045  29.194  1.00  0.00     0.131 A 
ATOM     82  C   UNL A   1      35.134  33.360  31.050  1.00  0.00     0.055 A 
ATOM     83  C   UNL A   1      35.500  32.644  28.791  1.00  0.00     0.041 A 
ATOM     84  F   UNL A   1      37.440  31.502  28.218  1.00  0.00    -0.206 F 
ATOM     85  C   UNL A   1      34.719  33.315  29.717  1.00  0.00     0.022 A 
BRANCH  82  86
ATOM     86  S   UNL A   1      34.129  34.320  32.231  1.00  0.00     0.124 S 
ATOM     87  O   UNL A   1      33.631  33.284  33.127  1.00  0.00    -0.237 OA
ATOM     88  O   UNL A   1      35.103  35.250  32.791  1.00  0.00    -0.237 OA
ATOM     89  O   UNL A   1      33.109  34.941  31.384  1.00  0.00    -0.744 OA
ENDBRANCH  82  86
ENDBRANCH  55  79
BRANCH  67  90
ATOM     90  C   UNL A   1      42.467  31.377  33.860  1.00  0.00     0.023 A 
ATOM     91  C   UNL A   1      42.217  29.984  33.861  1.00  0.00     0.031 A 
ATOM     92  C   UNL A   1      42.617  32.006  35.110  1.00  0.00     0.131 A 
ATOM     93  C   UNL A   1      42.104  29.283  35.079  1.00  0.00     0.055 A 
ATOM     94  C   UNL A   1      42.529  31.304  36.313  1.00  0.00     0.041 A 
ATOM     95  F   UNL A   1      42.880  33.321  35.185  1.00  0.00    -0.206 F 
ATOM     96  C   UNL A   1      42.263  29.940  36.302  1.00  0.00     0.022 A 
BRANCH  93  97
ATOM     97  S   UNL A   1      41.716  27.501  35.100  1.00  0.00     0.124 S 
ATOM     98  O   UNL A   1      41.311  27.253  36.479  1.00  0.00    -0.237 OA
ATOM     99  O   UNL A   1      40.661  27.395  34.096  1.00  0.00    -0.237 OA
ATOM    100  O   UNL A   1      42.982  26.873  34.715  1.00  0.00    -0.744 OA
ENDBRANCH  93  97
ENDBRANCH  67  90
ENDBRANCH  41  42
ENDBRANCH  33  36
ENDBRANCH  31  32
ENDBRANCH  30  31
ENDBRANCH   1  30
TORSDOF 17
ENDMDL
MODEL 2
REMARK VINA RESULT:     -11.5      4.371      9.730
REMARK SMILES NS(=O)(=O)c1ccc(-c2coc(=O)n2-c2ccc(C(=O)NCCCNC(=O)c3ccc(-c4c5nc(c(-c6cc(S(=O)(=O)[O-])ccc6F)c6ccc([nH]6)c(-c6cc(S(=O)(=O)[O-])ccc6F)c6nc(c(-c7cc(S(=O)(=O)[O-])ccc7F)c7ccc4[nH]7)C=C6)C=C5)cc3)cc2)cc1
REMARK SMILES IDX 22 1 21 2 19 3 20 4 18 6 15 7 16 8 92 9 17 10 91 11 14 12
REMARK SMILES IDX 9 13 10 14 11 15 12 16 13 17 8 18 5 19 6 20 94 21 7 22 93 23
REMARK SMILES IDX 2 24 3 25 4 26 1 27 23 30 24 31 25 32 26 33 27 35 28 36
REMARK SMILES IDX 29 37 90 38 30 39 89 40 31 41 32 42 33 43 83 44 34 45 88 46
REMARK SMILES IDX 82 47 84 48 35 49 87 50 81 51 80 52 36 54 68 55 48 56 67 57
REMARK SMILES IDX 49 58 52 59 66 60 85 61 50 62 51 63 65 65 86 66 53 67 37 68
REMARK SMILES IDX 38 69 46 70 39 71 45 72 47 73 44 74 40 75 41 76 42 77 43 78
REMARK SMILES IDX 69 79 70 80 78 81 71 82 77 83 79 84 76 85 72 86 73 87 74 88
REMARK SMILES IDX 75 89 54 90 55 91 63 92 56 93 62 94 64 95 61 96 57 97 58 98
REMARK SMILES IDX 59 99 60 100
REMARK H PARENT 21 5 1 28 1 29 25 34 84 53 52 64
REMARK Flexibility Score: inf
ROOT
ATOM      1  C   UNL A   1      43.752  28.192  25.461  1.00  0.00     0.118 C 
ENDROOT
BRANCH   1   2
ATOM      2  N   UNL A   1      45.120  28.682  25.560  1.00  0.00    -0.352 N 
ATOM      3  C   UNL A   1      46.114  28.489  26.488  1.00  0.00     0.251 C 
ATOM      4  O   UNL A   1      47.228  28.951  26.240  1.00  0.00    -0.269 OA
ATOM      5  H   UNL A   1      45.385  29.268  24.814  1.00  0.00     0.163 HD
BRANCH   3   6
ATOM      6  C   UNL A   1      45.928  27.713  27.748  1.00  0.00     0.039 A 
ATOM      7  C   UNL A   1      45.616  26.072  30.018  1.00  0.00     0.053 A 
ATOM      8  C   UNL A   1      46.764  25.958  29.235  1.00  0.00     0.028 A 
ATOM      9  C   UNL A   1      44.682  27.064  29.720  1.00  0.00     0.028 A 
ATOM     10  C   UNL A   1      46.902  26.757  28.089  1.00  0.00     0.016 A 
ATOM     11  C   UNL A   1      44.861  27.899  28.622  1.00  0.00     0.016 A 
BRANCH   7  12
ATOM     12  N   UNL A   1      45.345  25.188  31.077  1.00  0.00    -0.242 N 
ATOM     13  C   UNL A   1      44.509  24.105  31.062  1.00  0.00     0.095 A 
ATOM     14  C   UNL A   1      44.446  23.673  32.315  1.00  0.00     0.228 A 
ATOM     15  O   UNL A   1      45.221  24.407  33.213  1.00  0.00    -0.415 OA
ATOM     16  C   UNL A   1      45.806  25.363  32.378  1.00  0.00     0.424 A 
ATOM     17  O   UNL A   1      46.566  26.224  32.800  1.00  0.00    -0.223 OA
BRANCH  13  18
ATOM     18  C   UNL A   1      43.958  23.481  29.860  1.00  0.00     0.002 A 
ATOM     19  C   UNL A   1      42.931  22.354  27.506  1.00  0.00     0.082 A 
ATOM     20  C   UNL A   1      44.267  22.756  27.554  1.00  0.00     0.022 A 
ATOM     21  C   UNL A   1      42.103  22.511  28.621  1.00  0.00     0.022 A 
ATOM     22  C   UNL A   1      44.776  23.312  28.729  1.00  0.00     0.012 A 
ATOM     23  C   UNL A   1      42.620  23.069  29.798  1.00  0.00     0.012 A 
BRANCH  19  24
ATOM     24  S   UNL A   1      42.335  21.654  25.994  1.00  0.00     0.238 S 
ATOM     25  O   UNL A   1      42.841  22.439  24.903  1.00  0.00    -0.207 OA
ATOM     26  O   UNL A   1      40.929  21.345  26.162  1.00  0.00    -0.207 OA
BRANCH  24  27
ATOM     27  N   UNL A   1      43.100  20.161  25.876  1.00  0.00    -0.225 NA
ATOM     28  H   UNL A   1      43.104  19.857  24.903  1.00  0.00     0.137 HD
ATOM     29  H   UNL A   1      42.597  19.477  26.444  1.00  0.00     0.137 HD
ENDBRANCH  24  27
ENDBRANCH  19  24
ENDBRANCH  13  18
ENDBRANCH   7  12
ENDBRANCH   3   6
ENDBRANCH   1   2
BRANCH   1  30
ATOM     30  C   UNL A   1      43.697  26.687  25.160  1.00  0.00     0.042 C 
BRANCH  30  31
ATOM     31  C   UNL A   1      42.971  25.900  26.237  1.00  0.00     0.118 C 
BRANCH  31  32
ATOM     32  N   UNL A   1      41.730  25.311  25.743  1.00  0.00    -0.352 N 
ATOM     33  C   UNL A   1      40.475  25.373  26.313  1.00  0.00     0.251 C 
ATOM     34  H   UNL A   1      41.797  24.808  24.901  1.00  0.00     0.163 HD
ATOM     35  O   UNL A   1      39.626  24.543  26.004  1.00  0.00    -0.269 OA
BRANCH  33  36
ATOM     36  C   UNL A   1      40.192  26.417  27.315  1.00  0.00     0.039 A 
ATOM     37  C   UNL A   1      39.838  26.064  28.618  1.00  0.00     0.014 A 
ATOM     38  C   UNL A   1      40.330  27.759  26.961  1.00  0.00     0.014 A 
ATOM     39  C   UNL A   1      39.730  27.066  29.580  1.00  0.00     0.010 A 
ATOM     40  C   UNL A   1      40.352  28.731  27.939  1.00  0.00     0.010 A 
ATOM     41  C   UNL A   1      40.032  28.401  29.252  1.00  0.00    -0.014 A 
BRANCH  41  42
ATOM     42  C   UNL A   1      40.143  29.405  30.317  1.00  0.00     0.031 A 
ATOM     43  C   UNL A   1      38.908  30.207  30.548  1.00  0.00     0.074 A 
ATOM     44  C   UNL A   1      41.182  29.542  31.170  1.00  0.00     0.049 A 
ATOM     45  N   UNL A   1      38.724  31.456  30.273  1.00  0.00    -0.248 NA
ATOM     46  C   UNL A   1      37.691  29.517  31.001  1.00  0.00     0.031 C 
ATOM     47  C   UNL A   1      42.376  28.704  31.304  1.00  0.00     0.029 A 
ATOM     48  N   UNL A   1      41.339  30.447  32.181  1.00  0.00    -0.354 N 
ATOM     49  C   UNL A   1      37.449  31.774  30.727  1.00  0.00     0.074 A 
ATOM     50  C   UNL A   1      36.804  30.515  30.994  1.00  0.00     0.031 C 
ATOM     51  C   UNL A   1      43.013  28.996  32.460  1.00  0.00     0.029 A 
ATOM     52  C   UNL A   1      42.383  30.159  33.056  1.00  0.00     0.049 A 
ATOM     53  H   UNL A   1      40.762  31.237  32.282  1.00  0.00     0.167 HD
ATOM     54  C   UNL A   1      37.114  33.057  31.042  1.00  0.00     0.034 A 
ATOM     55  C   UNL A   1      42.726  30.830  34.188  1.00  0.00     0.034 A 
ATOM     56  C   UNL A   1      38.059  33.995  30.474  1.00  0.00     0.049 A 
ATOM     57  C   UNL A   1      42.210  32.209  34.043  1.00  0.00     0.074 A 
ATOM     58  C   UNL A   1      38.505  34.261  29.191  1.00  0.00     0.029 A 
ATOM     59  N   UNL A   1      39.001  34.560  31.306  1.00  0.00    -0.354 N 
ATOM     60  N   UNL A   1      42.655  33.047  33.149  1.00  0.00    -0.248 NA
ATOM     61  C   UNL A   1      40.889  32.513  34.572  1.00  0.00     0.031 C 
ATOM     62  C   UNL A   1      39.909  34.475  29.330  1.00  0.00     0.029 A 
ATOM     63  C   UNL A   1      40.222  34.416  30.689  1.00  0.00     0.049 A 
ATOM     64  H   UNL A   1      38.832  34.986  32.176  1.00  0.00     0.167 HD
ATOM     65  C   UNL A   1      41.527  33.695  32.676  1.00  0.00     0.074 A 
ATOM     66  C   UNL A   1      40.489  33.411  33.665  1.00  0.00     0.031 C 
ATOM     67  C   UNL A   1      41.467  34.170  31.395  1.00  0.00     0.034 A 
BRANCH  54  68
ATOM     68  C   UNL A   1      36.144  33.456  32.133  1.00  0.00     0.023 A 
ATOM     69  C   UNL A   1      35.034  34.243  31.763  1.00  0.00     0.031 A 
ATOM     70  C   UNL A   1      36.388  33.360  33.522  1.00  0.00     0.131 A 
ATOM     71  C   UNL A   1      34.299  34.959  32.725  1.00  0.00     0.055 A 
ATOM     72  C   UNL A   1      35.611  34.019  34.481  1.00  0.00     0.041 A 
ATOM     73  F   UNL A   1      37.440  32.708  34.029  1.00  0.00    -0.206 F 
ATOM     74  C   UNL A   1      34.580  34.851  34.084  1.00  0.00     0.022 A 
BRANCH  71  75
ATOM     75  S   UNL A   1      33.089  36.179  32.153  1.00  0.00     0.124 S 
ATOM     76  O   UNL A   1      33.373  37.309  33.031  1.00  0.00    -0.237 OA
ATOM     77  O   UNL A   1      33.466  36.341  30.752  1.00  0.00    -0.237 OA
ATOM     78  O   UNL A   1      31.806  35.518  32.381  1.00  0.00    -0.744 OA
ENDBRANCH  71  75
ENDBRANCH  54  68
BRANCH  55  79
ATOM     79  C   UNL A   1      43.236  30.273  35.468  1.00  0.00     0.023 A 
ATOM     80  C   UNL A   1      43.073  28.919  35.829  1.00  0.00     0.031 A 
ATOM     81  C   UNL A   1      44.139  31.034  36.243  1.00  0.00     0.131 A 
ATOM     82  C   UNL A   1      43.804  28.378  36.913  1.00  0.00     0.055 A 
ATOM     83  C   UNL A   1      44.858  30.495  37.312  1.00  0.00     0.041 A 
ATOM     84  F   UNL A   1      44.422  32.307  35.926  1.00  0.00    -0.206 F 
ATOM     85  C   UNL A   1      44.701  29.159  37.644  1.00  0.00     0.022 A 
BRANCH  82  86
ATOM     86  S   UNL A   1      43.679  26.605  37.318  1.00  0.00     0.124 S 
ATOM     87  O   UNL A   1      43.901  26.600  38.759  1.00  0.00    -0.237 OA
ATOM     88  O   UNL A   1      42.333  26.271  36.867  1.00  0.00    -0.237 OA
ATOM     89  O   UNL A   1      44.753  25.998  36.530  1.00  0.00    -0.744 OA
ENDBRANCH  82  86
ENDBRANCH  55  79
BRANCH  67  90
ATOM     90  C   UNL A   1      42.754  34.242  30.590  1.00  0.00     0.023 A 
ATOM     91  C   UNL A   1      43.229  33.231  29.720  1.00  0.00     0.031 A 
ATOM     92  C   UNL A   1      43.485  35.443  30.642  1.00  0.00     0.131 A 
ATOM     93  C   UNL A   1      44.402  33.436  28.966  1.00  0.00     0.055 A 
ATOM     94  C   UNL A   1      44.632  35.652  29.876  1.00  0.00     0.041 A 
ATOM     95  F   UNL A   1      43.079  36.455  31.427  1.00  0.00    -0.206 F 
ATOM     96  C   UNL A   1      45.101  34.645  29.041  1.00  0.00     0.022 A 
BRANCH  93  97
ATOM     97  S   UNL A   1      45.066  32.121  27.891  1.00  0.00     0.124 S 
ATOM     98  O   UNL A   1      46.051  31.452  28.733  1.00  0.00    -0.237 OA
ATOM     99  O   UNL A   1      43.872  31.345  27.567  1.00  0.00    -0.237 OA
ATOM    100  O   UNL A   1      45.633  32.860  26.761  1.00  0.00    -0.744 OA
ENDBRANCH  93  97
ENDBRANCH  67  90
ENDBRANCH  41  42
ENDBRANCH  33  36
ENDBRANCH  31  32
ENDBRANCH  30  31
ENDBRANCH   1  30
TORSDOF 17
ENDMDL
MODEL 3
REMARK VINA RESULT:     -11.3      4.497      7.984
REMARK SMILES NS(=O)(=O)c1ccc(-c2coc(=O)n2-c2ccc(C(=O)NCCCNC(=O)c3ccc(-c4c5nc(c(-c6cc(S(=O)(=O)[O-])ccc6F)c6ccc([nH]6)c(-c6cc(S(=O)(=O)[O-])ccc6F)c6nc(c(-c7cc(S(=O)(=O)[O-])ccc7F)c7ccc4[nH]7)C=C6)C=C5)cc3)cc2)cc1
REMARK SMILES IDX 22 1 21 2 19 3 20 4 18 6 15 7 16 8 92 9 17 10 91 11 14 12
REMARK SMILES IDX 9 13 10 14 11 15 12 16 13 17 8 18 5 19 6 20 94 21 7 22 93 23
REMARK SMILES IDX 2 24 3 25 4 26 1 27 23 30 24 31 25 32 26 33 27 35 28 36
REMARK SMILES IDX 29 37 90 38 30 39 89 40 31 41 32 42 33 43 83 44 34 45 88 46
REMARK SMILES IDX 82 47 84 48 35 49 87 50 81 51 80 52 36 54 68 55 48 56 67 57
REMARK SMILES IDX 49 58 52 59 66 60 85 61 50 62 51 63 65 65 86 66 53 67 37 68
REMARK SMILES IDX 38 69 46 70 39 71 45 72 47 73 44 74 40 75 41 76 42 77 43 78
REMARK SMILES IDX 69 79 70 80 78 81 71 82 77 83 79 84 76 85 72 86 73 87 74 88
REMARK SMILES IDX 75 89 54 90 55 91 63 92 56 93 62 94 64 95 61 96 57 97 58 98
REMARK SMILES IDX 59 99 60 100
REMARK H PARENT 21 5 1 28 1 29 25 34 84 53 52 64
REMARK Flexibility Score: inf
ROOT
ATOM      1  C   UNL A   1      44.414  22.976  24.290  1.00  0.00     0.118 C 
ENDROOT
BRANCH   1   2
ATOM      2  N   UNL A   1      43.514  24.055  24.673  1.00  0.00    -0.352 N 
ATOM      3  C   UNL A   1      43.729  25.354  25.065  1.00  0.00     0.251 C 
ATOM      4  O   UNL A   1      42.745  26.078  25.218  1.00  0.00    -0.269 OA
ATOM      5  H   UNL A   1      42.562  23.804  24.645  1.00  0.00     0.163 HD
BRANCH   3   6
ATOM      6  C   UNL A   1      45.085  25.942  25.265  1.00  0.00     0.039 A 
ATOM      7  C   UNL A   1      47.651  26.958  25.835  1.00  0.00     0.053 A 
ATOM      8  C   UNL A   1      47.402  25.593  25.969  1.00  0.00     0.028 A 
ATOM      9  C   UNL A   1      46.651  27.788  25.329  1.00  0.00     0.028 A 
ATOM     10  C   UNL A   1      46.116  25.095  25.713  1.00  0.00     0.016 A 
ATOM     11  C   UNL A   1      45.398  27.274  25.010  1.00  0.00     0.016 A 
BRANCH   7  12
ATOM     12  N   UNL A   1      48.868  27.539  26.236  1.00  0.00    -0.242 N 
ATOM     13  C   UNL A   1      49.245  27.883  27.505  1.00  0.00     0.095 A 
ATOM     14  C   UNL A   1      50.394  28.535  27.381  1.00  0.00     0.228 A 
ATOM     15  O   UNL A   1      50.848  28.652  26.066  1.00  0.00    -0.415 OA
ATOM     16  C   UNL A   1      49.850  27.978  25.355  1.00  0.00     0.424 A 
ATOM     17  O   UNL A   1      49.877  27.867  24.137  1.00  0.00    -0.223 OA
BRANCH  13  18
ATOM     18  C   UNL A   1      48.579  27.448  28.732  1.00  0.00     0.002 A 
ATOM     19  C   UNL A   1      47.326  26.529  31.066  1.00  0.00     0.082 A 
ATOM     20  C   UNL A   1      48.659  26.198  30.822  1.00  0.00     0.022 A 
ATOM     21  C   UNL A   1      46.611  27.313  30.155  1.00  0.00     0.022 A 
ATOM     22  C   UNL A   1      49.281  26.662  29.661  1.00  0.00     0.012 A 
ATOM     23  C   UNL A   1      47.241  27.775  28.992  1.00  0.00     0.012 A 
BRANCH  19  24
ATOM     24  S   UNL A   1      46.584  25.919  32.552  1.00  0.00     0.238 S 
ATOM     25  O   UNL A   1      46.028  27.032  33.269  1.00  0.00    -0.207 OA
ATOM     26  O   UNL A   1      47.494  24.965  33.153  1.00  0.00    -0.207 OA
BRANCH  24  27
ATOM     27  N   UNL A   1      45.270  25.003  32.037  1.00  0.00    -0.225 NA
ATOM     28  H   UNL A   1      44.973  25.324  31.115  1.00  0.00     0.137 HD
ATOM     29  H   UNL A   1      44.501  25.111  32.700  1.00  0.00     0.137 HD
ENDBRANCH  24  27
ENDBRANCH  19  24
ENDBRANCH  13  18
ENDBRANCH   7  12
ENDBRANCH   3   6
ENDBRANCH   1   2
BRANCH   1  30
ATOM     30  C   UNL A   1      44.390  21.817  25.297  1.00  0.00     0.042 C 
BRANCH  30  31
ATOM     31  C   UNL A   1      44.045  22.270  26.705  1.00  0.00     0.118 C 
BRANCH  31  32
ATOM     32  N   UNL A   1      42.776  21.714  27.164  1.00  0.00    -0.352 N 
ATOM     33  C   UNL A   1      41.814  22.322  27.944  1.00  0.00     0.251 C 
ATOM     34  H   UNL A   1      42.583  20.791  26.883  1.00  0.00     0.163 HD
ATOM     35  O   UNL A   1      41.000  21.635  28.552  1.00  0.00    -0.269 OA
BRANCH  33  36
ATOM     36  C   UNL A   1      41.810  23.793  28.063  1.00  0.00     0.039 A 
ATOM     37  C   UNL A   1      40.758  24.539  27.532  1.00  0.00     0.014 A 
ATOM     38  C   UNL A   1      42.844  24.424  28.753  1.00  0.00     0.014 A 
ATOM     39  C   UNL A   1      40.704  25.906  27.795  1.00  0.00     0.010 A 
ATOM     40  C   UNL A   1      42.720  25.747  29.123  1.00  0.00     0.010 A 
ATOM     41  C   UNL A   1      41.663  26.507  28.632  1.00  0.00    -0.014 A 
BRANCH  41  42
ATOM     42  C   UNL A   1      41.467  27.887  29.090  1.00  0.00     0.031 A 
ATOM     43  C   UNL A   1      42.400  28.882  28.488  1.00  0.00     0.074 A 
ATOM     44  C   UNL A   1      40.448  28.327  29.862  1.00  0.00     0.049 A 
ATOM     45  N   UNL A   1      43.366  29.504  29.078  1.00  0.00    -0.248 NA
ATOM     46  C   UNL A   1      42.351  29.107  27.035  1.00  0.00     0.031 C 
ATOM     47  C   UNL A   1      39.279  27.590  30.347  1.00  0.00     0.029 A 
ATOM     48  N   UNL A   1      40.209  29.594  30.313  1.00  0.00    -0.354 N 
ATOM     49  C   UNL A   1      43.905  30.373  28.136  1.00  0.00     0.074 A 
ATOM     50  C   UNL A   1      43.367  29.957  26.867  1.00  0.00     0.031 C 
ATOM     51  C   UNL A   1      38.357  28.456  30.824  1.00  0.00     0.029 A 
ATOM     52  C   UNL A   1      38.939  29.785  30.849  1.00  0.00     0.049 A 
ATOM     53  H   UNL A   1      40.879  30.313  30.263  1.00  0.00     0.167 HD
ATOM     54  C   UNL A   1      44.584  31.492  28.518  1.00  0.00     0.034 A 
ATOM     55  C   UNL A   1      38.394  30.946  31.301  1.00  0.00     0.034 A 
ATOM     56  C   UNL A   1      44.984  31.407  29.906  1.00  0.00     0.049 A 
ATOM     57  C   UNL A   1      39.520  31.834  31.669  1.00  0.00     0.074 A 
ATOM     58  C   UNL A   1      45.738  30.510  30.642  1.00  0.00     0.029 A 
ATOM     59  N   UNL A   1      44.267  32.124  30.840  1.00  0.00    -0.354 N 
ATOM     60  N   UNL A   1      40.337  31.578  32.652  1.00  0.00    -0.248 NA
ATOM     61  C   UNL A   1      40.027  32.761  30.670  1.00  0.00     0.031 C 
ATOM     62  C   UNL A   1      45.039  30.375  31.879  1.00  0.00     0.029 A 
ATOM     63  C   UNL A   1      43.958  31.258  31.862  1.00  0.00     0.049 A 
ATOM     64  H   UNL A   1      44.023  33.076  30.785  1.00  0.00     0.167 HD
ATOM     65  C   UNL A   1      41.588  31.930  32.176  1.00  0.00     0.074 A 
ATOM     66  C   UNL A   1      41.322  32.756  31.000  1.00  0.00     0.031 C 
ATOM     67  C   UNL A   1      42.718  31.297  32.616  1.00  0.00     0.034 A 
BRANCH  54  68
ATOM     68  C   UNL A   1      44.595  32.801  27.757  1.00  0.00     0.023 A 
ATOM     69  C   UNL A   1      43.850  33.871  28.289  1.00  0.00     0.031 A 
ATOM     70  C   UNL A   1      45.044  32.971  26.427  1.00  0.00     0.131 A 
ATOM     71  C   UNL A   1      43.500  34.978  27.495  1.00  0.00     0.055 A 
ATOM     72  C   UNL A   1      44.752  34.105  25.663  1.00  0.00     0.041 A 
ATOM     73  F   UNL A   1      45.705  32.020  25.758  1.00  0.00    -0.206 F 
ATOM     74  C   UNL A   1      43.948  35.103  26.184  1.00  0.00     0.022 A 
BRANCH  71  75
ATOM     75  S   UNL A   1      42.293  36.161  28.147  1.00  0.00     0.124 S 
ATOM     76  O   UNL A   1      41.191  35.281  28.521  1.00  0.00    -0.237 OA
ATOM     77  O   UNL A   1      43.034  36.769  29.248  1.00  0.00    -0.237 OA
ATOM     78  O   UNL A   1      42.031  37.041  27.011  1.00  0.00    -0.744 OA
ENDBRANCH  71  75
ENDBRANCH  54  68
BRANCH  55  79
ATOM     79  C   UNL A   1      36.987  31.409  31.183  1.00  0.00     0.023 A 
ATOM     80  C   UNL A   1      36.303  32.048  32.238  1.00  0.00     0.031 A 
ATOM     81  C   UNL A   1      36.380  31.458  29.908  1.00  0.00     0.131 A 
ATOM     82  C   UNL A   1      35.076  32.709  31.995  1.00  0.00     0.055 A 
ATOM     83  C   UNL A   1      35.168  32.113  29.674  1.00  0.00     0.041 A 
ATOM     84  F   UNL A   1      36.993  30.951  28.828  1.00  0.00    -0.206 F 
ATOM     85  C   UNL A   1      34.517  32.752  30.716  1.00  0.00     0.022 A 
BRANCH  82  86
ATOM     86  S   UNL A   1      34.240  33.627  33.329  1.00  0.00     0.124 S 
ATOM     87  O   UNL A   1      35.095  33.352  34.478  1.00  0.00    -0.237 OA
ATOM     88  O   UNL A   1      34.249  34.996  32.825  1.00  0.00    -0.237 OA
ATOM     89  O   UNL A   1      32.914  33.009  33.390  1.00  0.00    -0.744 OA
ENDBRANCH  82  86
ENDBRANCH  55  79
BRANCH  67  90
ATOM     90  C   UNL A   1      42.617  30.409  33.845  1.00  0.00     0.023 A 
ATOM     91  C   UNL A   1      42.504  28.998  33.824  1.00  0.00     0.031 A 
ATOM     92  C   UNL A   1      42.736  31.027  35.103  1.00  0.00     0.131 A 
ATOM     93  C   UNL A   1      42.490  28.268  35.030  1.00  0.00     0.055 A 
ATOM     94  C   UNL A   1      42.747  30.300  36.294  1.00  0.00     0.041 A 
ATOM     95  F   UNL A   1      42.872  32.360  35.197  1.00  0.00    -0.206 F 
ATOM     96  C   UNL A   1      42.615  28.917  36.262  1.00  0.00     0.022 A 
BRANCH  93  97
ATOM     97  S   UNL A   1      42.279  26.457  35.026  1.00  0.00     0.124 S 
ATOM     98  O   UNL A   1      42.809  26.045  36.321  1.00  0.00    -0.237 OA
ATOM     99  O   UNL A   1      40.836  26.308  34.850  1.00  0.00    -0.237 OA
ATOM    100  O   UNL A   1      43.076  26.025  33.876  1.00  0.00    -0.744 OA
ENDBRANCH  93  97
ENDBRANCH  67  90
ENDBRANCH  41  42
ENDBRANCH  33  36
ENDBRANCH  31  32
ENDBRANCH  30  31
ENDBRANCH   1  30
TORSDOF 17
ENDMDL
