MODEL 1
REMARK VINA RESULT:     -13.5      0.000      0.000
REMARK SMILES O=C(NCCCNC(=O)c1ccc(-c2c3nc(c(-c4cc(S(=O)(=O)[O-])ccc4F)c4ccc([nH]4)c(-c4cc(S(=O)(=O)[O-])ccc4F)c4nc(c(-c5cc(S(=O)(=O)[O-])ccc5F)c5ccc2[nH]5)C=C4)C=C3)cc1)C1=Cc2cc(S(F)(F)(F)(F)F)cc(Br)c2O[C@@H]1C(F)(F)F
REMARK SMILES IDX 6 1 5 2 4 3 3 4 1 5 2 6 73 8 74 9 89 10 75 11 88 12 76 13
REMARK SMILES IDX 87 14 77 15 85 16 84 17 86 18 90 19 91 20 92 21 93 22 78 23
REMARK SMILES IDX 79 24 80 25 81 26 82 27 83 28 7 29 8 30 9 32 10 33 11 34
REMARK SMILES IDX 72 35 12 36 71 37 13 38 14 39 15 40 65 41 16 42 70 43 64 44
REMARK SMILES IDX 66 45 17 46 69 47 63 48 62 49 18 51 50 52 30 53 49 54 31 55
REMARK SMILES IDX 34 56 48 57 67 58 32 59 33 60 47 62 68 63 35 64 19 65 20 66
REMARK SMILES IDX 28 67 21 68 27 69 29 70 26 71 22 72 23 73 24 74 25 75 51 76
REMARK SMILES IDX 52 77 60 78 53 79 59 80 61 81 58 82 54 83 55 84 56 85 57 86
REMARK SMILES IDX 36 87 37 88 45 89 38 90 44 91 46 92 43 93 39 94 40 95 41 96
REMARK SMILES IDX 42 97
REMARK H PARENT 3 7 7 31 66 50 34 61
REMARK Flexibility Score: inf
ROOT
ATOM      1  C   UNL A   1      33.944  28.911  25.723  1.00  0.00     0.118 C 
ENDROOT
BRANCH   1   2
ATOM      2  C   UNL A   1      33.832  28.924  24.207  1.00  0.00     0.042 C 
BRANCH   2   3
ATOM      3  C   UNL A   1      32.849  27.854  23.762  1.00  0.00     0.118 C 
BRANCH   3   4
ATOM      4  N   UNL A   1      33.541  26.875  22.912  1.00  0.00    -0.352 N 
ATOM      5  O   UNL A   1      33.461  24.783  21.787  1.00  0.00    -0.270 OA
ATOM      6  C   UNL A   1      32.863  25.630  22.522  1.00  0.00     0.251 C 
ATOM      7  H   UNL A   1      34.458  27.053  22.603  1.00  0.00     0.163 HD
BRANCH   6   8
ATOM      8  C   UNL A   1      31.446  25.355  23.000  1.00  0.00     0.067 C 
ATOM      9  C   UNL A   1      31.175  24.227  23.710  1.00  0.00     0.025 C 
ATOM     10  C   UNL A   1      30.333  26.340  22.684  1.00  0.00     0.314 C 
ATOM     11  C   UNL A   1      32.288  23.241  24.026  1.00  0.00     0.020 A 
ATOM     12  O   UNL A   1      33.762  25.008  24.618  1.00  0.00    -0.474 OA
ATOM     13  C   UNL A   1      32.029  21.916  23.718  1.00  0.00     0.036 A 
ATOM     14  C   UNL A   1      33.480  23.625  24.465  1.00  0.00     0.142 A 
ATOM     15  C   UNL A   1      33.014  21.015  24.185  1.00  0.00     0.109 A 
ATOM     16  C   UNL A   1      34.445  22.696  24.774  1.00  0.00     0.062 A 
ATOM     17  C   UNL A   1      34.235  21.363  24.551  1.00  0.00     0.044 A 
ATOM     18  Br  UNL A   1      36.147  23.289  25.545  1.00  0.00    -0.047 Br
BRANCH  10  19
ATOM     19  C   UNL A   1      29.731  26.858  23.979  1.00  0.00     0.429 C 
ATOM     20  F   UNL A   1      28.538  26.302  24.167  1.00  0.00    -0.167 F 
ATOM     21  F   UNL A   1      30.530  26.545  24.996  1.00  0.00    -0.167 F 
ATOM     22  F   UNL A   1      29.598  28.179  23.910  1.00  0.00    -0.167 F 
ENDBRANCH  10  19
BRANCH  15  23
ATOM     23  S   UNL A   1      32.573  19.262  24.288  1.00  0.00     0.310 S 
ATOM     24  F   UNL A   1      34.097  18.823  24.226  1.00  0.00    -0.094 F 
ATOM     25  F   UNL A   1      32.558  19.187  22.715  1.00  0.00    -0.094 F 
ATOM     26  F   UNL A   1      32.206  17.755  24.393  1.00  0.00    -0.094 F 
ATOM     27  F   UNL A   1      32.732  19.324  25.859  1.00  0.00    -0.094 F 
ATOM     28  F   UNL A   1      33.057  20.765  24.196  1.00  0.00    -0.094 F 
ENDBRANCH  15  23
ENDBRANCH   6   8
ENDBRANCH   3   4
ENDBRANCH   2   3
ENDBRANCH   1   2
BRANCH   1  29
ATOM     29  N   UNL A   1      33.544  30.221  26.254  1.00  0.00    -0.352 N 
ATOM     30  C   UNL A   1      34.355  30.872  27.293  1.00  0.00     0.251 C 
ATOM     31  H   UNL A   1      32.732  30.663  25.914  1.00  0.00     0.163 HD
ATOM     32  O   UNL A   1      34.009  32.005  27.754  1.00  0.00    -0.269 OA
BRANCH  30  33
ATOM     33  C   UNL A   1      35.608  30.189  27.818  1.00  0.00     0.039 A 
ATOM     34  C   UNL A   1      35.532  29.515  29.025  1.00  0.00     0.014 A 
ATOM     35  C   UNL A   1      36.758  30.305  27.165  1.00  0.00     0.014 A 
ATOM     36  C   UNL A   1      36.791  29.242  29.611  1.00  0.00     0.010 A 
ATOM     37  C   UNL A   1      37.935  29.893  27.743  1.00  0.00     0.010 A 
ATOM     38  C   UNL A   1      37.941  29.273  28.961  1.00  0.00    -0.014 A 
BRANCH  38  39
ATOM     39  C   UNL A   1      39.203  28.652  29.537  1.00  0.00     0.031 A 
ATOM     40  C   UNL A   1      39.826  27.586  28.888  1.00  0.00     0.074 A 
ATOM     41  C   UNL A   1      39.690  29.248  30.688  1.00  0.00     0.049 A 
ATOM     42  N   UNL A   1      40.974  26.991  29.218  1.00  0.00    -0.248 NA
ATOM     43  C   UNL A   1      39.293  26.929  27.686  1.00  0.00     0.031 C 
ATOM     44  C   UNL A   1      39.071  30.331  31.345  1.00  0.00     0.029 A 
ATOM     45  N   UNL A   1      40.825  28.921  31.394  1.00  0.00    -0.354 N 
ATOM     46  C   UNL A   1      41.257  26.020  28.346  1.00  0.00     0.074 A 
ATOM     47  C   UNL A   1      40.177  25.962  27.352  1.00  0.00     0.031 C 
ATOM     48  C   UNL A   1      39.817  30.643  32.438  1.00  0.00     0.029 A 
ATOM     49  C   UNL A   1      40.914  29.763  32.481  1.00  0.00     0.049 A 
ATOM     50  H   UNL A   1      41.464  28.208  31.163  1.00  0.00     0.167 HD
ATOM     51  C   UNL A   1      42.374  25.184  28.340  1.00  0.00     0.034 A 
ATOM     52  C   UNL A   1      41.888  29.776  33.467  1.00  0.00     0.034 A 
ATOM     53  C   UNL A   1      43.370  25.226  29.303  1.00  0.00     0.049 A 
ATOM     54  C   UNL A   1      42.976  28.900  33.495  1.00  0.00     0.074 A 
ATOM     55  C   UNL A   1      44.507  24.395  29.307  1.00  0.00     0.029 A 
ATOM     56  N   UNL A   1      43.446  26.051  30.403  1.00  0.00    -0.354 N 
ATOM     57  N   UNL A   1      43.280  27.956  32.601  1.00  0.00    -0.248 NA
ATOM     58  C   UNL A   1      43.996  28.884  34.551  1.00  0.00     0.031 C 
ATOM     59  C   UNL A   1      45.253  24.708  30.400  1.00  0.00     0.029 A 
ATOM     60  C   UNL A   1      44.595  25.738  31.096  1.00  0.00     0.049 A 
ATOM     61  H   UNL A   1      42.793  26.745  30.651  1.00  0.00     0.167 HD
ATOM     62  C   UNL A   1      44.405  27.334  32.955  1.00  0.00     0.074 A 
ATOM     63  C   UNL A   1      44.879  27.916  34.218  1.00  0.00     0.031 C 
ATOM     64  C   UNL A   1      45.060  26.306  32.273  1.00  0.00     0.034 A 
BRANCH  51  65
ATOM     65  C   UNL A   1      42.505  24.170  27.216  1.00  0.00     0.023 A 
ATOM     66  C   UNL A   1      41.754  23.006  27.221  1.00  0.00     0.031 A 
ATOM     67  C   UNL A   1      43.322  24.458  26.210  1.00  0.00     0.131 A 
ATOM     68  C   UNL A   1      42.154  22.062  26.245  1.00  0.00     0.055 A 
ATOM     69  C   UNL A   1      43.562  23.538  25.217  1.00  0.00     0.041 A 
ATOM     70  F   UNL A   1      43.914  25.648  26.160  1.00  0.00    -0.206 F 
ATOM     71  C   UNL A   1      42.898  22.343  25.192  1.00  0.00     0.022 A 
BRANCH  68  72
ATOM     72  S   UNL A   1      41.605  20.350  26.457  1.00  0.00     0.124 S 
ATOM     73  O   UNL A   1      42.009  19.853  27.847  1.00  0.00    -0.237 OA
ATOM     74  O   UNL A   1      40.083  20.282  26.313  1.00  0.00    -0.237 OA
ATOM     75  O   UNL A   1      42.335  19.366  25.264  1.00  0.00    -0.744 OA
ENDBRANCH  68  72
ENDBRANCH  51  65
BRANCH  52  76
ATOM     76  C   UNL A   1      41.766  30.801  34.582  1.00  0.00     0.023 A 
ATOM     77  C   UNL A   1      40.773  30.685  35.541  1.00  0.00     0.031 A 
ATOM     78  C   UNL A   1      42.604  31.832  34.581  1.00  0.00     0.131 A 
ATOM     79  C   UNL A   1      40.557  31.865  36.291  1.00  0.00     0.055 A 
ATOM     80  C   UNL A   1      42.411  32.891  35.435  1.00  0.00     0.041 A 
ATOM     81  F   UNL A   1      43.637  31.839  33.744  1.00  0.00    -0.206 F 
ATOM     82  C   UNL A   1      41.411  32.869  36.368  1.00  0.00     0.022 A 
BRANCH  79  83
ATOM     83  S   UNL A   1      39.003  32.009  37.206  1.00  0.00     0.124 S 
ATOM     84  O   UNL A   1      39.299  32.379  38.661  1.00  0.00    -0.237 OA
ATOM     85  O   UNL A   1      38.135  33.096  36.569  1.00  0.00    -0.237 OA
ATOM     86  O   UNL A   1      38.172  30.514  37.156  1.00  0.00    -0.744 OA
ENDBRANCH  79  83
ENDBRANCH  52  76
BRANCH  64  87
ATOM     87  C   UNL A   1      46.361  25.778  32.855  1.00  0.00     0.023 A 
ATOM     88  C   UNL A   1      47.552  26.193  32.283  1.00  0.00     0.031 A 
ATOM     89  C   UNL A   1      46.344  24.915  33.864  1.00  0.00     0.131 A 
ATOM     90  C   UNL A   1      48.670  25.412  32.660  1.00  0.00     0.055 A 
ATOM     91  C   UNL A   1      47.498  24.291  34.269  1.00  0.00     0.041 A 
ATOM     92  F   UNL A   1      45.198  24.653  34.488  1.00  0.00    -0.206 F 
ATOM     93  C   UNL A   1      48.704  24.608  33.708  1.00  0.00     0.022 A 
BRANCH  90  94
ATOM     94  S   UNL A   1      50.158  25.525  31.636  1.00  0.00     0.124 S 
ATOM     95  O   UNL A   1      49.769  25.934  30.213  1.00  0.00    -0.237 OA
ATOM     96  O   UNL A   1      51.107  26.570  32.227  1.00  0.00    -0.237 OA
ATOM     97  O   UNL A   1      50.940  24.004  31.598  1.00  0.00    -0.744 OA
ENDBRANCH  90  94
ENDBRANCH  64  87
ENDBRANCH  38  39
ENDBRANCH  30  33
ENDBRANCH   1  29
TORSDOF 15
ENDMDL
MODEL 2
REMARK VINA RESULT:     -13.5      2.617      7.968
REMARK SMILES O=C(NCCCNC(=O)c1ccc(-c2c3nc(c(-c4cc(S(=O)(=O)[O-])ccc4F)c4ccc([nH]4)c(-c4cc(S(=O)(=O)[O-])ccc4F)c4nc(c(-c5cc(S(=O)(=O)[O-])ccc5F)c5ccc2[nH]5)C=C4)C=C3)cc1)C1=Cc2cc(S(F)(F)(F)(F)F)cc(Br)c2O[C@@H]1C(F)(F)F
REMARK SMILES IDX 6 1 5 2 4 3 3 4 1 5 2 6 73 8 74 9 89 10 75 11 88 12 76 13
REMARK SMILES IDX 87 14 77 15 85 16 84 17 86 18 90 19 91 20 92 21 93 22 78 23
REMARK SMILES IDX 79 24 80 25 81 26 82 27 83 28 7 29 8 30 9 32 10 33 11 34
REMARK SMILES IDX 72 35 12 36 71 37 13 38 14 39 15 40 65 41 16 42 70 43 64 44
REMARK SMILES IDX 66 45 17 46 69 47 63 48 62 49 18 51 50 52 30 53 49 54 31 55
REMARK SMILES IDX 34 56 48 57 67 58 32 59 33 60 47 62 68 63 35 64 19 65 20 66
REMARK SMILES IDX 28 67 21 68 27 69 29 70 26 71 22 72 23 73 24 74 25 75 51 76
REMARK SMILES IDX 52 77 60 78 53 79 59 80 61 81 58 82 54 83 55 84 56 85 57 86
REMARK SMILES IDX 36 87 37 88 45 89 38 90 44 91 46 92 43 93 39 94 40 95 41 96
REMARK SMILES IDX 42 97
REMARK H PARENT 3 7 7 31 66 50 34 61
REMARK Flexibility Score: inf
ROOT
ATOM      1  C   UNL A   1      33.717  28.941  25.128  1.00  0.00     0.118 C 
ENDROOT
BRANCH   1   2
ATOM      2  C   UNL A   1      33.048  27.803  24.374  1.00  0.00     0.042 C 
BRANCH   2   3
ATOM      3  C   UNL A   1      33.490  26.475  24.965  1.00  0.00     0.118 C 
BRANCH   3   4
ATOM      4  N   UNL A   1      33.918  25.575  23.885  1.00  0.00    -0.352 N 
ATOM      5  O   UNL A   1      33.527  23.571  22.669  1.00  0.00    -0.270 OA
ATOM      6  C   UNL A   1      33.157  24.349  23.603  1.00  0.00     0.251 C 
ATOM      7  H   UNL A   1      34.715  25.793  23.349  1.00  0.00     0.163 HD
BRANCH   6   8
ATOM      8  C   UNL A   1      31.927  24.012  24.431  1.00  0.00     0.067 C 
ATOM      9  C   UNL A   1      31.857  22.826  25.093  1.00  0.00     0.025 C 
ATOM     10  C   UNL A   1      30.775  25.000  24.517  1.00  0.00     0.314 C 
ATOM     11  C   UNL A   1      33.009  21.839  25.006  1.00  0.00     0.020 A 
ATOM     12  O   UNL A   1      34.599  23.578  25.310  1.00  0.00    -0.474 OA
ATOM     13  C   UNL A   1      32.667  20.538  24.675  1.00  0.00     0.036 A 
ATOM     14  C   UNL A   1      34.279  22.207  25.128  1.00  0.00     0.142 A 
ATOM     15  C   UNL A   1      33.739  19.619  24.775  1.00  0.00     0.109 A 
ATOM     16  C   UNL A   1      35.286  21.272  25.080  1.00  0.00     0.062 A 
ATOM     17  C   UNL A   1      35.015  19.959  24.816  1.00  0.00     0.044 A 
ATOM     18  Br  UNL A   1      37.138  21.832  25.396  1.00  0.00    -0.047 Br
BRANCH  10  19
ATOM     19  C   UNL A   1      30.560  25.402  25.967  1.00  0.00     0.429 C 
ATOM     20  F   UNL A   1      31.642  25.094  26.677  1.00  0.00    -0.167 F 
ATOM     21  F   UNL A   1      30.342  26.712  26.037  1.00  0.00    -0.167 F 
ATOM     22  F   UNL A   1      29.509  24.750  26.456  1.00  0.00    -0.167 F 
ENDBRANCH  10  19
BRANCH  15  23
ATOM     23  S   UNL A   1      33.334  17.857  24.853  1.00  0.00     0.310 S 
ATOM     24  F   UNL A   1      31.925  18.098  24.163  1.00  0.00    -0.094 F 
ATOM     25  F   UNL A   1      32.620  18.095  26.237  1.00  0.00    -0.094 F 
ATOM     26  F   UNL A   1      32.983  16.343  24.900  1.00  0.00    -0.094 F 
ATOM     27  F   UNL A   1      33.929  17.665  23.402  1.00  0.00    -0.094 F 
ATOM     28  F   UNL A   1      33.597  19.411  24.739  1.00  0.00    -0.094 F 
ENDBRANCH  15  23
ENDBRANCH   6   8
ENDBRANCH   3   4
ENDBRANCH   2   3
ENDBRANCH   1   2
BRANCH   1  29
ATOM     29  N   UNL A   1      32.714  29.959  25.468  1.00  0.00    -0.352 N 
ATOM     30  C   UNL A   1      32.927  30.846  26.621  1.00  0.00     0.251 C 
ATOM     31  H   UNL A   1      31.899  30.049  24.923  1.00  0.00     0.163 HD
ATOM     32  O   UNL A   1      32.060  31.727  26.916  1.00  0.00    -0.269 OA
BRANCH  30  33
ATOM     33  C   UNL A   1      34.186  30.708  27.462  1.00  0.00     0.039 A 
ATOM     34  C   UNL A   1      34.981  31.828  27.643  1.00  0.00     0.014 A 
ATOM     35  C   UNL A   1      34.545  29.524  27.944  1.00  0.00     0.014 A 
ATOM     36  C   UNL A   1      36.288  31.536  28.101  1.00  0.00     0.010 A 
ATOM     37  C   UNL A   1      35.788  29.343  28.502  1.00  0.00     0.010 A 
ATOM     38  C   UNL A   1      36.648  30.394  28.657  1.00  0.00    -0.014 A 
BRANCH  38  39
ATOM     39  C   UNL A   1      37.950  30.255  29.430  1.00  0.00     0.031 A 
ATOM     40  C   UNL A   1      38.085  30.824  30.696  1.00  0.00     0.074 A 
ATOM     41  C   UNL A   1      38.933  29.499  28.812  1.00  0.00     0.049 A 
ATOM     42  N   UNL A   1      39.123  30.721  31.529  1.00  0.00    -0.248 NA
ATOM     43  C   UNL A   1      37.057  31.655  31.340  1.00  0.00     0.031 C 
ATOM     44  C   UNL A   1      38.801  28.914  27.537  1.00  0.00     0.029 A 
ATOM     45  N   UNL A   1      40.181  29.179  29.295  1.00  0.00    -0.354 N 
ATOM     46  C   UNL A   1      38.876  31.388  32.659  1.00  0.00     0.074 A 
ATOM     47  C   UNL A   1      37.546  32.003  32.551  1.00  0.00     0.031 C 
ATOM     48  C   UNL A   1      39.959  28.261  27.251  1.00  0.00     0.029 A 
ATOM     49  C   UNL A   1      40.832  28.425  28.343  1.00  0.00     0.049 A 
ATOM     50  H   UNL A   1      40.547  29.442  30.171  1.00  0.00     0.167 HD
ATOM     51  C   UNL A   1      39.705  31.505  33.774  1.00  0.00     0.034 A 
ATOM     52  C   UNL A   1      42.115  27.905  28.403  1.00  0.00     0.034 A 
ATOM     53  C   UNL A   1      40.972  30.947  33.852  1.00  0.00     0.049 A 
ATOM     54  C   UNL A   1      42.969  28.070  29.496  1.00  0.00     0.074 A 
ATOM     55  C   UNL A   1      41.818  31.049  34.972  1.00  0.00     0.029 A 
ATOM     56  N   UNL A   1      41.631  30.215  32.889  1.00  0.00    -0.354 N 
ATOM     57  N   UNL A   1      42.706  28.703  30.641  1.00  0.00    -0.248 NA
ATOM     58  C   UNL A   1      44.341  27.551  29.558  1.00  0.00     0.031 C 
ATOM     59  C   UNL A   1      42.976  30.395  34.686  1.00  0.00     0.029 A 
ATOM     60  C   UNL A   1      42.872  29.876  33.383  1.00  0.00     0.049 A 
ATOM     61  H   UNL A   1      41.277  29.975  32.002  1.00  0.00     0.167 HD
ATOM     62  C   UNL A   1      43.760  28.636  31.456  1.00  0.00     0.074 A 
ATOM     63  C   UNL A   1      44.830  27.900  30.768  1.00  0.00     0.031 C 
ATOM     64  C   UNL A   1      43.873  29.155  32.747  1.00  0.00     0.034 A 
BRANCH  51  65
ATOM     65  C   UNL A   1      39.192  32.286  34.972  1.00  0.00     0.023 A 
ATOM     66  C   UNL A   1      39.515  33.623  35.136  1.00  0.00     0.031 A 
ATOM     67  C   UNL A   1      38.388  31.663  35.825  1.00  0.00     0.131 A 
ATOM     68  C   UNL A   1      39.166  34.146  36.404  1.00  0.00     0.055 A 
ATOM     69  C   UNL A   1      37.975  32.283  36.980  1.00  0.00     0.041 A 
ATOM     70  F   UNL A   1      37.976  30.426  35.559  1.00  0.00    -0.206 F 
ATOM     71  C   UNL A   1      38.306  33.586  37.234  1.00  0.00     0.022 A 
BRANCH  68  72
ATOM     72  S   UNL A   1      39.952  35.692  36.922  1.00  0.00     0.124 S 
ATOM     73  O   UNL A   1      41.460  35.472  37.070  1.00  0.00    -0.237 OA
ATOM     74  O   UNL A   1      39.694  36.773  35.870  1.00  0.00    -0.237 OA
ATOM     75  O   UNL A   1      39.298  36.188  38.422  1.00  0.00    -0.744 OA
ENDBRANCH  68  72
ENDBRANCH  51  65
BRANCH  52  76
ATOM     76  C   UNL A   1      42.622  27.109  27.213  1.00  0.00     0.023 A 
ATOM     77  C   UNL A   1      42.397  25.744  27.130  1.00  0.00     0.031 A 
ATOM     78  C   UNL A   1      43.326  27.747  26.285  1.00  0.00     0.131 A 
ATOM     79  C   UNL A   1      43.206  25.085  26.175  1.00  0.00     0.055 A 
ATOM     80  C   UNL A   1      43.982  27.048  25.301  1.00  0.00     0.041 A 
ATOM     81  F   UNL A   1      43.398  29.075  26.311  1.00  0.00    -0.206 F 
ATOM     82  C   UNL A   1      43.852  25.691  25.195  1.00  0.00     0.022 A 
BRANCH  79  83
ATOM     83  S   UNL A   1      43.369  23.287  26.307  1.00  0.00     0.124 S 
ATOM     84  O   UNL A   1      44.834  22.926  26.563  1.00  0.00    -0.237 OA
ATOM     85  O   UNL A   1      42.508  22.781  27.465  1.00  0.00    -0.237 OA
ATOM     86  O   UNL A   1      42.849  22.561  24.848  1.00  0.00    -0.744 OA
ENDBRANCH  79  83
ENDBRANCH  52  76
BRANCH  64  87
ATOM     87  C   UNL A   1      45.170  28.917  33.502  1.00  0.00     0.023 A 
ATOM     88  C   UNL A   1      45.273  27.781  34.288  1.00  0.00     0.031 A 
ATOM     89  C   UNL A   1      46.161  29.799  33.431  1.00  0.00     0.131 A 
ATOM     90  C   UNL A   1      46.358  27.810  35.195  1.00  0.00     0.055 A 
ATOM     91  C   UNL A   1      47.255  29.688  34.254  1.00  0.00     0.041 A 
ATOM     92  F   UNL A   1      46.092  30.798  32.555  1.00  0.00    -0.206 F 
ATOM     93  C   UNL A   1      47.395  28.622  35.098  1.00  0.00     0.022 A 
BRANCH  90  94
ATOM     94  S   UNL A   1      46.324  26.650  36.584  1.00  0.00     0.124 S 
ATOM     95  O   UNL A   1      46.257  27.431  37.900  1.00  0.00    -0.237 OA
ATOM     96  O   UNL A   1      45.096  25.746  36.465  1.00  0.00    -0.237 OA
ATOM     97  O   UNL A   1      47.741  25.692  36.562  1.00  0.00    -0.744 OA
ENDBRANCH  90  94
ENDBRANCH  64  87
ENDBRANCH  38  39
ENDBRANCH  30  33
ENDBRANCH   1  29
TORSDOF 15
ENDMDL
MODEL 3
REMARK VINA RESULT:     -13.4      4.818      9.796
REMARK SMILES O=C(NCCCNC(=O)c1ccc(-c2c3nc(c(-c4cc(S(=O)(=O)[O-])ccc4F)c4ccc([nH]4)c(-c4cc(S(=O)(=O)[O-])ccc4F)c4nc(c(-c5cc(S(=O)(=O)[O-])ccc5F)c5ccc2[nH]5)C=C4)C=C3)cc1)C1=Cc2cc(S(F)(F)(F)(F)F)cc(Br)c2O[C@@H]1C(F)(F)F
REMARK SMILES IDX 6 1 5 2 4 3 3 4 1 5 2 6 73 8 74 9 89 10 75 11 88 12 76 13
REMARK SMILES IDX 87 14 77 15 85 16 84 17 86 18 90 19 91 20 92 21 93 22 78 23
REMARK SMILES IDX 79 24 80 25 81 26 82 27 83 28 7 29 8 30 9 32 10 33 11 34
REMARK SMILES IDX 72 35 12 36 71 37 13 38 14 39 15 40 65 41 16 42 70 43 64 44
REMARK SMILES IDX 66 45 17 46 69 47 63 48 62 49 18 51 50 52 30 53 49 54 31 55
REMARK SMILES IDX 34 56 48 57 67 58 32 59 33 60 47 62 68 63 35 64 19 65 20 66
REMARK SMILES IDX 28 67 21 68 27 69 29 70 26 71 22 72 23 73 24 74 25 75 51 76
REMARK SMILES IDX 52 77 60 78 53 79 59 80 61 81 58 82 54 83 55 84 56 85 57 86
REMARK SMILES IDX 36 87 37 88 45 89 38 90 44 91 46 92 43 93 39 94 40 95 41 96
REMARK SMILES IDX 42 97
REMARK H PARENT 3 7 7 31 66 50 34 61
REMARK Flexibility Score: inf
ROOT
ATOM      1  C   UNL A   1      36.675  23.511  25.806  1.00  0.00     0.118 C 
ENDROOT
BRANCH   1   2
ATOM      2  C   UNL A   1      35.348  23.256  26.501  1.00  0.00     0.042 C 
BRANCH   2   3
ATOM      3  C   UNL A   1      34.208  23.660  25.580  1.00  0.00     0.118 C 
BRANCH   3   4
ATOM      4  N   UNL A   1      33.156  24.324  26.364  1.00  0.00    -0.352 N 
ATOM      5  O   UNL A   1      30.899  25.058  26.476  1.00  0.00    -0.270 OA
ATOM      6  C   UNL A   1      31.809  24.485  25.798  1.00  0.00     0.251 C 
ATOM      7  H   UNL A   1      33.353  24.660  27.267  1.00  0.00     0.163 HD
BRANCH   6   8
ATOM      8  C   UNL A   1      31.504  23.965  24.402  1.00  0.00     0.067 C 
ATOM      9  C   UNL A   1      31.153  24.833  23.416  1.00  0.00     0.025 C 
ATOM     10  C   UNL A   1      31.591  22.477  24.110  1.00  0.00     0.314 C 
ATOM     11  C   UNL A   1      31.066  26.322  23.708  1.00  0.00     0.020 A 
ATOM     12  O   UNL A   1      33.104  26.260  24.928  1.00  0.00    -0.474 OA
ATOM     13  C   UNL A   1      29.896  26.950  23.312  1.00  0.00     0.036 A 
ATOM     14  C   UNL A   1      31.995  26.971  24.400  1.00  0.00     0.142 A 
ATOM     15  C   UNL A   1      29.927  28.358  23.443  1.00  0.00     0.109 A 
ATOM     16  C   UNL A   1      31.893  28.326  24.608  1.00  0.00     0.062 A 
ATOM     17  C   UNL A   1      30.792  29.021  24.190  1.00  0.00     0.044 A 
ATOM     18  Br  UNL A   1      33.347  29.276  25.517  1.00  0.00    -0.047 Br
BRANCH  10  19
ATOM     19  C   UNL A   1      32.624  22.233  23.023  1.00  0.00     0.429 C 
ATOM     20  F   UNL A   1      33.128  23.398  22.623  1.00  0.00    -0.167 F 
ATOM     21  F   UNL A   1      33.601  21.469  23.501  1.00  0.00    -0.167 F 
ATOM     22  F   UNL A   1      32.047  21.623  21.991  1.00  0.00    -0.167 F 
ENDBRANCH  10  19
BRANCH  15  23
ATOM     23  S   UNL A   1      28.697  29.318  22.527  1.00  0.00     0.310 S 
ATOM     24  F   UNL A   1      28.865  30.559  23.502  1.00  0.00    -0.094 F 
ATOM     25  F   UNL A   1      27.578  28.791  23.502  1.00  0.00    -0.094 F 
ATOM     26  F   UNL A   1      27.653  30.158  21.737  1.00  0.00    -0.094 F 
ATOM     27  F   UNL A   1      29.853  29.945  21.650  1.00  0.00    -0.094 F 
ATOM     28  F   UNL A   1      29.784  28.560  23.389  1.00  0.00    -0.094 F 
ENDBRANCH  15  23
ENDBRANCH   6   8
ENDBRANCH   3   4
ENDBRANCH   2   3
ENDBRANCH   1   2
BRANCH   1  29
ATOM     29  N   UNL A   1      37.546  22.339  25.968  1.00  0.00    -0.352 N 
ATOM     30  C   UNL A   1      38.895  22.496  26.530  1.00  0.00     0.251 C 
ATOM     31  H   UNL A   1      37.225  21.447  25.700  1.00  0.00     0.163 HD
ATOM     32  O   UNL A   1      39.648  21.483  26.670  1.00  0.00    -0.269 OA
BRANCH  30  33
ATOM     33  C   UNL A   1      39.389  23.873  26.944  1.00  0.00     0.039 A 
ATOM     34  C   UNL A   1      39.233  24.257  28.266  1.00  0.00     0.014 A 
ATOM     35  C   UNL A   1      39.888  24.707  26.040  1.00  0.00     0.014 A 
ATOM     36  C   UNL A   1      39.365  25.650  28.478  1.00  0.00     0.010 A 
ATOM     37  C   UNL A   1      40.120  26.024  26.354  1.00  0.00     0.010 A 
ATOM     38  C   UNL A   1      39.930  26.487  27.626  1.00  0.00    -0.014 A 
BRANCH  38  39
ATOM     39  C   UNL A   1      40.347  27.889  28.039  1.00  0.00     0.031 A 
ATOM     40  C   UNL A   1      39.405  28.790  28.535  1.00  0.00     0.074 A 
ATOM     41  C   UNL A   1      41.701  28.164  27.934  1.00  0.00     0.049 A 
ATOM     42  N   UNL A   1      39.624  30.016  29.014  1.00  0.00    -0.248 NA
ATOM     43  C   UNL A   1      37.963  28.513  28.616  1.00  0.00     0.031 C 
ATOM     44  C   UNL A   1      42.660  27.257  27.442  1.00  0.00     0.029 A 
ATOM     45  N   UNL A   1      42.356  29.326  28.273  1.00  0.00    -0.354 N 
ATOM     46  C   UNL A   1      38.476  30.567  29.414  1.00  0.00     0.074 A 
ATOM     47  C   UNL A   1      37.391  29.610  29.159  1.00  0.00     0.031 C 
ATOM     48  C   UNL A   1      43.873  27.868  27.473  1.00  0.00     0.029 A 
ATOM     49  C   UNL A   1      43.694  29.166  27.986  1.00  0.00     0.049 A 
ATOM     50  H   UNL A   1      41.940  30.134  28.655  1.00  0.00     0.167 HD
ATOM     51  C   UNL A   1      38.292  31.827  29.984  1.00  0.00     0.034 A 
ATOM     52  C   UNL A   1      44.714  30.090  28.151  1.00  0.00     0.034 A 
ATOM     53  C   UNL A   1      39.320  32.735  30.190  1.00  0.00     0.049 A 
ATOM     54  C   UNL A   1      44.521  31.374  28.668  1.00  0.00     0.074 A 
ATOM     55  C   UNL A   1      39.152  34.006  30.770  1.00  0.00     0.029 A 
ATOM     56  N   UNL A   1      40.653  32.583  29.880  1.00  0.00    -0.354 N 
ATOM     57  N   UNL A   1      43.380  31.909  29.105  1.00  0.00    -0.248 NA
ATOM     58  C   UNL A   1      45.589  32.371  28.818  1.00  0.00     0.031 C 
ATOM     59  C   UNL A   1      40.367  34.618  30.802  1.00  0.00     0.029 A 
ATOM     60  C   UNL A   1      41.311  33.739  30.240  1.00  0.00     0.049 A 
ATOM     61  H   UNL A   1      41.065  31.788  29.471  1.00  0.00     0.167 HD
ATOM     62  C   UNL A   1      43.593  33.151  29.543  1.00  0.00     0.074 A 
ATOM     63  C   UNL A   1      45.016  33.469  29.359  1.00  0.00     0.031 C 
ATOM     64  C   UNL A   1      42.659  34.031  30.095  1.00  0.00     0.034 A 
BRANCH  51  65
ATOM     65  C   UNL A   1      36.887  32.228  30.402  1.00  0.00     0.023 A 
ATOM     66  C   UNL A   1      35.983  32.713  29.472  1.00  0.00     0.031 A 
ATOM     67  C   UNL A   1      36.541  32.052  31.672  1.00  0.00     0.131 A 
ATOM     68  C   UNL A   1      34.810  33.260  30.044  1.00  0.00     0.055 A 
ATOM     69  C   UNL A   1      35.323  32.490  32.133  1.00  0.00     0.041 A 
ATOM     70  F   UNL A   1      37.381  31.445  32.507  1.00  0.00    -0.206 F 
ATOM     71  C   UNL A   1      34.403  33.034  31.279  1.00  0.00     0.022 A 
BRANCH  68  72
ATOM     72  S   UNL A   1      33.796  34.347  29.010  1.00  0.00     0.124 S 
ATOM     73  O   UNL A   1      33.190  33.537  27.861  1.00  0.00    -0.237 OA
ATOM     74  O   UNL A   1      32.674  34.953  29.855  1.00  0.00    -0.237 OA
ATOM     75  O   UNL A   1      34.772  35.599  28.373  1.00  0.00    -0.744 OA
ENDBRANCH  68  72
ENDBRANCH  51  65
BRANCH  52  76
ATOM     76  C   UNL A   1      46.121  29.683  27.749  1.00  0.00     0.023 A 
ATOM     77  C   UNL A   1      46.435  29.452  26.420  1.00  0.00     0.031 A 
ATOM     78  C   UNL A   1      47.022  29.509  28.709  1.00  0.00     0.131 A 
ATOM     79  C   UNL A   1      47.651  28.755  26.230  1.00  0.00     0.055 A 
ATOM     80  C   UNL A   1      48.243  28.945  28.429  1.00  0.00     0.041 A 
ATOM     81  F   UNL A   1      46.738  29.882  29.954  1.00  0.00    -0.206 F 
ATOM     82  C   UNL A   1      48.597  28.636  27.144  1.00  0.00     0.022 A 
BRANCH  79  83
ATOM     83  S   UNL A   1      47.930  27.971  24.623  1.00  0.00     0.124 S 
ATOM     84  O   UNL A   1      46.981  28.578  23.587  1.00  0.00    -0.237 OA
ATOM     85  O   UNL A   1      49.378  28.203  24.186  1.00  0.00    -0.237 OA
ATOM     86  O   UNL A   1      47.636  26.291  24.751  1.00  0.00    -0.744 OA
ENDBRANCH  79  83
ENDBRANCH  52  76
BRANCH  64  87
ATOM     87  C   UNL A   1      43.150  35.391  30.563  1.00  0.00     0.023 A 
ATOM     88  C   UNL A   1      43.171  36.432  29.650  1.00  0.00     0.031 A 
ATOM     89  C   UNL A   1      43.578  35.558  31.809  1.00  0.00     0.131 A 
ATOM     90  C   UNL A   1      43.937  37.545  30.068  1.00  0.00     0.055 A 
ATOM     91  C   UNL A   1      44.197  36.725  32.185  1.00  0.00     0.041 A 
ATOM     92  F   UNL A   1      43.405  34.586  32.702  1.00  0.00    -0.206 F 
ATOM     93  C   UNL A   1      44.305  37.775  31.316  1.00  0.00     0.022 A 
BRANCH  90  94
ATOM     94  S   UNL A   1      44.447  38.737  28.806  1.00  0.00     0.124 S 
ATOM     95  O   UNL A   1      44.411  38.070  27.429  1.00  0.00    -0.237 OA
ATOM     96  O   UNL A   1      43.493  39.933  28.818  1.00  0.00    -0.237 OA
ATOM     97  O   UNL A   1      46.037  39.274  29.137  1.00  0.00    -0.744 OA
ENDBRANCH  90  94
ENDBRANCH  64  87
ENDBRANCH  38  39
ENDBRANCH  30  33
ENDBRANCH   1  29
TORSDOF 15
ENDMDL
