MODEL 1
REMARK VINA RESULT:     -11.5      0.000      0.000
REMARK SMILES CC1(C)C[C@@]([NH2+]CCN=[N+]=[N-])(C(=O)NCCCNC(=O)c2ccc(-c3c4nc(c(-c5cc(S(=O)(=O)[O-])ccc5F)c5ccc([nH]5)c(-c5cc(S(=O)(=O)[O-])ccc5F)c5nc(c(-c6cc(S(=O)(=O)[O-])ccc6F)c6ccc3[nH]6)C=C5)C=C4)cc2)C(C)(C)O1
REMARK SMILES IDX 15 1 14 2 12 3 13 4 5 6 1 7 2 8 3 9 4 10 87 11 84 12 85 13
REMARK SMILES IDX 86 14 6 15 7 18 8 19 9 20 10 21 11 22 16 23 17 24 18 25
REMARK SMILES IDX 19 26 20 28 21 29 22 30 83 31 23 32 82 33 24 34 25 35 26 36
REMARK SMILES IDX 76 37 27 38 81 39 75 40 77 41 28 42 80 43 74 44 73 45 29 47
REMARK SMILES IDX 61 48 41 49 60 50 42 51 45 52 59 53 78 54 43 55 44 56 58 58
REMARK SMILES IDX 79 59 46 60 30 61 31 62 39 63 32 64 38 65 40 66 37 67 33 68
REMARK SMILES IDX 34 69 35 70 36 71 62 72 63 73 71 74 64 75 70 76 72 77 69 78
REMARK SMILES IDX 65 79 66 80 67 81 68 82 47 83 48 84 56 85 49 86 55 87 57 88
REMARK SMILES IDX 54 89 50 90 51 91 52 92 53 93
REMARK H PARENT 14 5 6 16 6 17 18 27 77 46 45 57
REMARK Flexibility Score: inf
ROOT
ATOM      1  C   UNL A   1      32.214  27.250  26.535  1.00  0.00     0.118 C 
ENDROOT
BRANCH   1   2
ATOM      2  N   UNL A   1      31.193  26.263  26.827  1.00  0.00    -0.351 N 
ATOM      3  C   UNL A   1      30.972  25.086  26.145  1.00  0.00     0.284 C 
ATOM      4  O   UNL A   1      30.062  24.352  26.536  1.00  0.00    -0.268 OA
ATOM      5  H   UNL A   1      30.598  26.453  27.589  1.00  0.00     0.163 HD
BRANCH   3   6
ATOM      6  C   UNL A   1      31.841  24.765  24.881  1.00  0.00     0.206 C 
ATOM      7  C   UNL A   1      32.342  21.407  23.195  1.00  0.00     0.042 C 
ATOM      8  C   UNL A   1      32.539  22.896  23.470  1.00  0.00     0.070 C 
ATOM      9  C   UNL A   1      33.091  23.554  22.200  1.00  0.00     0.042 C 
ATOM     10  C   UNL A   1      31.300  23.560  24.080  1.00  0.00     0.117 C 
ATOM     11  O   UNL A   1      33.542  23.010  24.475  1.00  0.00    -0.362 OA
ATOM     12  C   UNL A   1      33.263  24.159  25.323  1.00  0.00     0.127 C 
ATOM     13  C   UNL A   1      33.268  23.545  26.741  1.00  0.00     0.049 C 
ATOM     14  C   UNL A   1      34.506  25.045  25.161  1.00  0.00     0.049 C 
BRANCH   6  15
ATOM     15  N   UNL A   1      31.855  25.965  23.963  1.00  0.00    -0.331 N 
ATOM     16  H   UNL A   1      32.558  25.797  23.243  1.00  0.00     0.347 HD
ATOM     17  H   UNL A   1      32.050  26.764  24.565  1.00  0.00     0.347 HD
BRANCH  15  18
ATOM     18  C   UNL A   1      30.580  26.288  23.281  1.00  0.00     0.267 C 
BRANCH  18  19
ATOM     19  C   UNL A   1      30.189  27.763  23.508  1.00  0.00     0.152 C 
BRANCH  19  20
ATOM     20  N   UNL A   1      30.887  28.651  22.572  1.00  0.00    -0.088 NA
ATOM     21  N   UNL A   1      30.177  29.464  21.954  1.00  0.00     0.001 N 
ATOM     22  N   UNL A   1      29.526  30.229  21.423  1.00  0.00    -0.003 NA
ENDBRANCH  19  20
ENDBRANCH  18  19
ENDBRANCH  15  18
ENDBRANCH   6  15
ENDBRANCH   3   6
ENDBRANCH   1   2
BRANCH   1  23
ATOM     23  C   UNL A   1      31.790  28.686  26.719  1.00  0.00     0.042 C 
BRANCH  23  24
ATOM     24  C   UNL A   1      32.700  29.648  25.990  1.00  0.00     0.118 C 
BRANCH  24  25
ATOM     25  N   UNL A   1      32.446  31.040  26.358  1.00  0.00    -0.352 N 
ATOM     26  C   UNL A   1      33.124  31.877  27.212  1.00  0.00     0.251 C 
ATOM     27  H   UNL A   1      31.660  31.444  25.923  1.00  0.00     0.163 HD
ATOM     28  O   UNL A   1      32.598  32.923  27.583  1.00  0.00    -0.269 OA
BRANCH  26  29
ATOM     29  C   UNL A   1      34.464  31.494  27.697  1.00  0.00     0.039 A 
ATOM     30  C   UNL A   1      35.431  32.478  27.910  1.00  0.00     0.014 A 
ATOM     31  C   UNL A   1      34.749  30.158  27.978  1.00  0.00     0.014 A 
ATOM     32  C   UNL A   1      36.641  32.126  28.509  1.00  0.00     0.010 A 
ATOM     33  C   UNL A   1      35.884  29.837  28.703  1.00  0.00     0.010 A 
ATOM     34  C   UNL A   1      36.848  30.816  28.971  1.00  0.00    -0.014 A 
BRANCH  34  35
ATOM     35  C   UNL A   1      38.060  30.442  29.741  1.00  0.00     0.031 A 
ATOM     36  C   UNL A   1      39.056  29.483  29.149  1.00  0.00     0.074 A 
ATOM     37  C   UNL A   1      38.214  30.903  30.998  1.00  0.00     0.049 A 
ATOM     38  N   UNL A   1      40.126  28.962  29.692  1.00  0.00    -0.248 NA
ATOM     39  C   UNL A   1      38.796  29.017  27.777  1.00  0.00     0.031 C 
ATOM     40  C   UNL A   1      37.282  31.797  31.692  1.00  0.00     0.029 A 
ATOM     41  N   UNL A   1      39.207  30.684  31.920  1.00  0.00    -0.354 N 
ATOM     42  C   UNL A   1      40.656  28.104  28.736  1.00  0.00     0.074 A 
ATOM     43  C   UNL A   1      39.748  28.113  27.611  1.00  0.00     0.031 C 
ATOM     44  C   UNL A   1      37.769  32.083  32.910  1.00  0.00     0.029 A 
ATOM     45  C   UNL A   1      39.011  31.344  33.111  1.00  0.00     0.049 A 
ATOM     46  H   UNL A   1      39.986  30.108  31.745  1.00  0.00     0.167 HD
ATOM     47  C   UNL A   1      41.811  27.397  28.781  1.00  0.00     0.034 A 
ATOM     48  C   UNL A   1      39.741  31.342  34.244  1.00  0.00     0.034 A 
ATOM     49  C   UNL A   1      42.706  27.411  29.912  1.00  0.00     0.049 A 
ATOM     50  C   UNL A   1      40.999  30.513  34.286  1.00  0.00     0.074 A 
ATOM     51  C   UNL A   1      43.931  26.781  30.048  1.00  0.00     0.029 A 
ATOM     52  N   UNL A   1      42.468  28.080  31.107  1.00  0.00    -0.354 N 
ATOM     53  N   UNL A   1      41.520  29.754  33.348  1.00  0.00    -0.248 NA
ATOM     54  C   UNL A   1      41.770  30.543  35.534  1.00  0.00     0.031 C 
ATOM     55  C   UNL A   1      44.390  26.996  31.351  1.00  0.00     0.029 A 
ATOM     56  C   UNL A   1      43.501  27.838  32.000  1.00  0.00     0.049 A 
ATOM     57  H   UNL A   1      41.682  28.642  31.292  1.00  0.00     0.167 HD
ATOM     58  C   UNL A   1      42.695  29.239  33.887  1.00  0.00     0.074 A 
ATOM     59  C   UNL A   1      42.815  29.793  35.221  1.00  0.00     0.031 C 
ATOM     60  C   UNL A   1      43.594  28.385  33.333  1.00  0.00     0.034 A 
BRANCH  47  61
ATOM     61  C   UNL A   1      42.152  26.537  27.588  1.00  0.00     0.023 A 
ATOM     62  C   UNL A   1      41.742  25.194  27.501  1.00  0.00     0.031 A 
ATOM     63  C   UNL A   1      42.918  27.058  26.530  1.00  0.00     0.131 A 
ATOM     64  C   UNL A   1      42.162  24.401  26.423  1.00  0.00     0.055 A 
ATOM     65  C   UNL A   1      43.256  26.288  25.416  1.00  0.00     0.041 A 
ATOM     66  F   UNL A   1      43.363  28.323  26.567  1.00  0.00    -0.206 F 
ATOM     67  C   UNL A   1      42.891  24.945  25.365  1.00  0.00     0.022 A 
BRANCH  64  68
ATOM     68  S   UNL A   1      41.873  22.611  26.502  1.00  0.00     0.124 S 
ATOM     69  O   UNL A   1      40.417  22.552  26.600  1.00  0.00    -0.237 OA
ATOM     70  O   UNL A   1      42.449  22.143  25.248  1.00  0.00    -0.237 OA
ATOM     71  O   UNL A   1      42.587  22.202  27.710  1.00  0.00    -0.744 OA
ENDBRANCH  64  68
ENDBRANCH  47  61
BRANCH  48  72
ATOM     72  C   UNL A   1      39.300  32.128  35.433  1.00  0.00     0.023 A 
ATOM     73  C   UNL A   1      38.621  31.511  36.497  1.00  0.00     0.031 A 
ATOM     74  C   UNL A   1      39.510  33.517  35.505  1.00  0.00     0.131 A 
ATOM     75  C   UNL A   1      38.132  32.288  37.559  1.00  0.00     0.055 A 
ATOM     76  C   UNL A   1      39.079  34.275  36.596  1.00  0.00     0.041 A 
ATOM     77  F   UNL A   1      40.154  34.160  34.518  1.00  0.00    -0.206 F 
ATOM     78  C   UNL A   1      38.372  33.662  37.625  1.00  0.00     0.022 A 
BRANCH  75  79
ATOM     79  S   UNL A   1      37.084  31.489  38.805  1.00  0.00     0.124 S 
ATOM     80  O   UNL A   1      36.953  30.142  38.262  1.00  0.00    -0.237 OA
ATOM     81  O   UNL A   1      37.895  31.618  40.012  1.00  0.00    -0.237 OA
ATOM     82  O   UNL A   1      35.863  32.292  38.788  1.00  0.00    -0.744 OA
ENDBRANCH  75  79
ENDBRANCH  48  72
BRANCH  60  83
ATOM     83  C   UNL A   1      44.803  28.030  34.166  1.00  0.00     0.023 A 
ATOM     84  C   UNL A   1      44.811  26.909  35.014  1.00  0.00     0.031 A 
ATOM     85  C   UNL A   1      45.959  28.829  34.116  1.00  0.00     0.131 A 
ATOM     86  C   UNL A   1      45.926  26.656  35.826  1.00  0.00     0.055 A 
ATOM     87  C   UNL A   1      47.094  28.529  34.869  1.00  0.00     0.041 A 
ATOM     88  F   UNL A   1      46.007  29.915  33.327  1.00  0.00    -0.206 F 
ATOM     89  C   UNL A   1      47.075  27.446  35.743  1.00  0.00     0.022 A 
BRANCH  86  90
ATOM     90  S   UNL A   1      45.810  25.346  37.074  1.00  0.00     0.124 S 
ATOM     91  O   UNL A   1      44.420  25.461  37.505  1.00  0.00    -0.237 OA
ATOM     92  O   UNL A   1      46.142  24.151  36.305  1.00  0.00    -0.237 OA
ATOM     93  O   UNL A   1      46.804  25.735  38.072  1.00  0.00    -0.744 OA
ENDBRANCH  86  90
ENDBRANCH  60  83
ENDBRANCH  34  35
ENDBRANCH  26  29
ENDBRANCH  24  25
ENDBRANCH  23  24
ENDBRANCH   1  23
TORSDOF 17
ENDMDL
MODEL 2
REMARK VINA RESULT:     -11.4      1.015      7.625
REMARK SMILES CC1(C)C[C@@]([NH2+]CCN=[N+]=[N-])(C(=O)NCCCNC(=O)c2ccc(-c3c4nc(c(-c5cc(S(=O)(=O)[O-])ccc5F)c5ccc([nH]5)c(-c5cc(S(=O)(=O)[O-])ccc5F)c5nc(c(-c6cc(S(=O)(=O)[O-])ccc6F)c6ccc3[nH]6)C=C5)C=C4)cc2)C(C)(C)O1
REMARK SMILES IDX 15 1 14 2 12 3 13 4 5 6 1 7 2 8 3 9 4 10 87 11 84 12 85 13
REMARK SMILES IDX 86 14 6 15 7 18 8 19 9 20 10 21 11 22 16 23 17 24 18 25
REMARK SMILES IDX 19 26 20 28 21 29 22 30 83 31 23 32 82 33 24 34 25 35 26 36
REMARK SMILES IDX 76 37 27 38 81 39 75 40 77 41 28 42 80 43 74 44 73 45 29 47
REMARK SMILES IDX 61 48 41 49 60 50 42 51 45 52 59 53 78 54 43 55 44 56 58 58
REMARK SMILES IDX 79 59 46 60 30 61 31 62 39 63 32 64 38 65 40 66 37 67 33 68
REMARK SMILES IDX 34 69 35 70 36 71 62 72 63 73 71 74 64 75 70 76 72 77 69 78
REMARK SMILES IDX 65 79 66 80 67 81 68 82 47 83 48 84 56 85 49 86 55 87 57 88
REMARK SMILES IDX 54 89 50 90 51 91 52 92 53 93
REMARK H PARENT 14 5 6 16 6 17 18 27 77 46 45 57
REMARK Flexibility Score: inf
ROOT
ATOM      1  C   UNL A   1      32.328  27.454  26.747  1.00  0.00     0.118 C 
ENDROOT
BRANCH   1   2
ATOM      2  N   UNL A   1      31.233  26.527  26.951  1.00  0.00    -0.351 N 
ATOM      3  C   UNL A   1      30.938  25.424  26.180  1.00  0.00     0.284 C 
ATOM      4  O   UNL A   1      29.972  24.731  26.503  1.00  0.00    -0.268 OA
ATOM      5  H   UNL A   1      30.642  26.701  27.719  1.00  0.00     0.163 HD
BRANCH   3   6
ATOM      6  C   UNL A   1      31.803  25.136  24.904  1.00  0.00     0.206 C 
ATOM      7  C   UNL A   1      32.105  21.880  22.985  1.00  0.00     0.042 C 
ATOM      8  C   UNL A   1      32.396  23.330  23.368  1.00  0.00     0.070 C 
ATOM      9  C   UNL A   1      33.008  24.038  22.155  1.00  0.00     0.042 C 
ATOM     10  C   UNL A   1      31.195  24.030  24.013  1.00  0.00     0.117 C 
ATOM     11  O   UNL A   1      33.390  23.304  24.388  1.00  0.00    -0.362 OA
ATOM     12  C   UNL A   1      33.175  24.406  25.315  1.00  0.00     0.127 C 
ATOM     13  C   UNL A   1      33.119  23.694  26.685  1.00  0.00     0.049 C 
ATOM     14  C   UNL A   1      34.476  25.216  25.229  1.00  0.00     0.049 C 
BRANCH   6  15
ATOM     15  N   UNL A   1      31.909  26.394  24.074  1.00  0.00    -0.331 N 
ATOM     16  H   UNL A   1      32.689  26.275  23.428  1.00  0.00     0.347 HD
ATOM     17  H   UNL A   1      32.030  27.152  24.746  1.00  0.00     0.347 HD
BRANCH  15  18
ATOM     18  C   UNL A   1      30.716  26.762  23.278  1.00  0.00     0.267 C 
BRANCH  18  19
ATOM     19  C   UNL A   1      30.567  28.294  23.178  1.00  0.00     0.152 C 
BRANCH  19  20
ATOM     20  N   UNL A   1      29.204  28.675  22.789  1.00  0.00    -0.088 NA
ATOM     21  N   UNL A   1      29.106  29.612  21.979  1.00  0.00     0.001 N 
ATOM     22  N   UNL A   1      29.028  30.444  21.208  1.00  0.00    -0.003 NA
ENDBRANCH  19  20
ENDBRANCH  18  19
ENDBRANCH  15  18
ENDBRANCH   6  15
ENDBRANCH   3   6
ENDBRANCH   1   2
BRANCH   1  23
ATOM     23  C   UNL A   1      31.940  28.912  26.739  1.00  0.00     0.042 C 
BRANCH  23  24
ATOM     24  C   UNL A   1      33.044  29.795  26.201  1.00  0.00     0.118 C 
BRANCH  24  25
ATOM     25  N   UNL A   1      32.963  31.161  26.715  1.00  0.00    -0.352 N 
ATOM     26  C   UNL A   1      33.760  31.824  27.618  1.00  0.00     0.251 C 
ATOM     27  H   UNL A   1      32.216  31.693  26.356  1.00  0.00     0.163 HD
ATOM     28  O   UNL A   1      33.370  32.878  28.112  1.00  0.00    -0.269 OA
BRANCH  26  29
ATOM     29  C   UNL A   1      35.062  31.246  28.004  1.00  0.00     0.039 A 
ATOM     30  C   UNL A   1      36.199  32.054  28.026  1.00  0.00     0.014 A 
ATOM     31  C   UNL A   1      35.145  29.907  28.385  1.00  0.00     0.014 A 
ATOM     32  C   UNL A   1      37.392  31.539  28.536  1.00  0.00     0.010 A 
ATOM     33  C   UNL A   1      36.284  29.445  29.023  1.00  0.00     0.010 A 
ATOM     34  C   UNL A   1      37.424  30.253  29.101  1.00  0.00    -0.014 A 
BRANCH  34  35
ATOM     35  C   UNL A   1      38.634  29.729  29.782  1.00  0.00     0.031 A 
ATOM     36  C   UNL A   1      39.026  30.267  31.131  1.00  0.00     0.074 A 
ATOM     37  C   UNL A   1      39.413  28.832  29.147  1.00  0.00     0.049 A 
ATOM     38  N   UNL A   1      40.089  30.007  31.847  1.00  0.00    -0.248 NA
ATOM     39  C   UNL A   1      38.123  31.257  31.739  1.00  0.00     0.031 C 
ATOM     40  C   UNL A   1      39.157  28.281  27.813  1.00  0.00     0.029 A 
ATOM     41  N   UNL A   1      40.583  28.226  29.532  1.00  0.00    -0.354 N 
ATOM     42  C   UNL A   1      39.987  30.807  32.979  1.00  0.00     0.074 A 
ATOM     43  C   UNL A   1      38.801  31.617  32.817  1.00  0.00     0.031 C 
ATOM     44  C   UNL A   1      40.114  27.389  27.512  1.00  0.00     0.029 A 
ATOM     45  C   UNL A   1      41.087  27.351  28.598  1.00  0.00     0.049 A 
ATOM     46  H   UNL A   1      41.020  28.401  30.397  1.00  0.00     0.167 HD
ATOM     47  C   UNL A   1      40.792  30.839  34.068  1.00  0.00     0.034 A 
ATOM     48  C   UNL A   1      42.214  26.613  28.608  1.00  0.00     0.034 A 
ATOM     49  C   UNL A   1      41.966  30.013  34.211  1.00  0.00     0.049 A 
ATOM     50  C   UNL A   1      43.119  26.698  29.811  1.00  0.00     0.074 A 
ATOM     51  C   UNL A   1      42.825  29.918  35.292  1.00  0.00     0.029 A 
ATOM     52  N   UNL A   1      42.454  29.148  33.238  1.00  0.00    -0.354 N 
ATOM     53  N   UNL A   1      42.973  27.414  30.904  1.00  0.00    -0.248 NA
ATOM     54  C   UNL A   1      44.332  25.874  29.787  1.00  0.00     0.031 C 
ATOM     55  C   UNL A   1      43.876  29.066  34.940  1.00  0.00     0.029 A 
ATOM     56  C   UNL A   1      43.627  28.553  33.677  1.00  0.00     0.049 A 
ATOM     57  H   UNL A   1      42.029  28.983  32.365  1.00  0.00     0.167 HD
ATOM     58  C   UNL A   1      44.067  27.103  31.707  1.00  0.00     0.074 A 
ATOM     59  C   UNL A   1      44.845  26.119  30.983  1.00  0.00     0.031 C 
ATOM     60  C   UNL A   1      44.399  27.587  32.932  1.00  0.00     0.034 A 
BRANCH  47  61
ATOM     61  C   UNL A   1      40.442  31.811  35.169  1.00  0.00     0.023 A 
ATOM     62  C   UNL A   1      39.457  31.520  36.129  1.00  0.00     0.031 A 
ATOM     63  C   UNL A   1      41.085  33.060  35.247  1.00  0.00     0.131 A 
ATOM     64  C   UNL A   1      39.091  32.489  37.075  1.00  0.00     0.055 A 
ATOM     65  C   UNL A   1      40.780  33.984  36.247  1.00  0.00     0.041 A 
ATOM     66  F   UNL A   1      42.015  33.408  34.344  1.00  0.00    -0.206 F 
ATOM     67  C   UNL A   1      39.766  33.708  37.160  1.00  0.00     0.022 A 
BRANCH  64  68
ATOM     68  S   UNL A   1      37.616  32.193  38.090  1.00  0.00     0.124 S 
ATOM     69  O   UNL A   1      38.078  32.617  39.410  1.00  0.00    -0.237 OA
ATOM     70  O   UNL A   1      36.621  33.049  37.456  1.00  0.00    -0.237 OA
ATOM     71  O   UNL A   1      37.387  30.757  37.950  1.00  0.00    -0.744 OA
ENDBRANCH  64  68
ENDBRANCH  47  61
BRANCH  48  72
ATOM     72  C   UNL A   1      42.566  25.748  27.444  1.00  0.00     0.023 A 
ATOM     73  C   UNL A   1      42.100  24.426  27.358  1.00  0.00     0.031 A 
ATOM     74  C   UNL A   1      43.411  26.215  26.421  1.00  0.00     0.131 A 
ATOM     75  C   UNL A   1      42.524  23.602  26.303  1.00  0.00     0.055 A 
ATOM     76  C   UNL A   1      43.777  25.411  25.339  1.00  0.00     0.041 A 
ATOM     77  F   UNL A   1      43.886  27.470  26.450  1.00  0.00    -0.206 F 
ATOM     78  C   UNL A   1      43.344  24.090  25.285  1.00  0.00     0.022 A 
BRANCH  75  79
ATOM     79  S   UNL A   1      42.069  21.846  26.340  1.00  0.00     0.124 S 
ATOM     80  O   UNL A   1      42.918  21.298  25.290  1.00  0.00    -0.237 OA
ATOM     81  O   UNL A   1      42.416  21.472  27.708  1.00  0.00    -0.237 OA
ATOM     82  O   UNL A   1      40.638  21.861  26.044  1.00  0.00    -0.744 OA
ENDBRANCH  75  79
ENDBRANCH  48  72
BRANCH  60  83
ATOM     83  C   UNL A   1      45.646  27.025  33.573  1.00  0.00     0.023 A 
ATOM     84  C   UNL A   1      45.616  25.847  34.339  1.00  0.00     0.031 A 
ATOM     85  C   UNL A   1      46.880  27.683  33.422  1.00  0.00     0.131 A 
ATOM     86  C   UNL A   1      46.781  25.400  34.979  1.00  0.00     0.055 A 
ATOM     87  C   UNL A   1      48.051  27.192  33.997  1.00  0.00     0.041 A 
ATOM     88  F   UNL A   1      46.967  28.816  32.704  1.00  0.00    -0.206 F 
ATOM     89  C   UNL A   1      48.003  26.052  34.794  1.00  0.00     0.022 A 
BRANCH  86  90
ATOM     90  S   UNL A   1      46.655  24.018  36.144  1.00  0.00     0.124 S 
ATOM     91  O   UNL A   1      45.210  23.831  36.236  1.00  0.00    -0.237 OA
ATOM     92  O   UNL A   1      47.391  22.961  35.458  1.00  0.00    -0.237 OA
ATOM     93  O   UNL A   1      47.293  24.531  37.355  1.00  0.00    -0.744 OA
ENDBRANCH  86  90
ENDBRANCH  60  83
ENDBRANCH  34  35
ENDBRANCH  26  29
ENDBRANCH  24  25
ENDBRANCH  23  24
ENDBRANCH   1  23
TORSDOF 17
ENDMDL
MODEL 3
REMARK VINA RESULT:     -11.3      1.926      2.209
REMARK SMILES CC1(C)C[C@@]([NH2+]CCN=[N+]=[N-])(C(=O)NCCCNC(=O)c2ccc(-c3c4nc(c(-c5cc(S(=O)(=O)[O-])ccc5F)c5ccc([nH]5)c(-c5cc(S(=O)(=O)[O-])ccc5F)c5nc(c(-c6cc(S(=O)(=O)[O-])ccc6F)c6ccc3[nH]6)C=C5)C=C4)cc2)C(C)(C)O1
REMARK SMILES IDX 15 1 14 2 12 3 13 4 5 6 1 7 2 8 3 9 4 10 87 11 84 12 85 13
REMARK SMILES IDX 86 14 6 15 7 18 8 19 9 20 10 21 11 22 16 23 17 24 18 25
REMARK SMILES IDX 19 26 20 28 21 29 22 30 83 31 23 32 82 33 24 34 25 35 26 36
REMARK SMILES IDX 76 37 27 38 81 39 75 40 77 41 28 42 80 43 74 44 73 45 29 47
REMARK SMILES IDX 61 48 41 49 60 50 42 51 45 52 59 53 78 54 43 55 44 56 58 58
REMARK SMILES IDX 79 59 46 60 30 61 31 62 39 63 32 64 38 65 40 66 37 67 33 68
REMARK SMILES IDX 34 69 35 70 36 71 62 72 63 73 71 74 64 75 70 76 72 77 69 78
REMARK SMILES IDX 65 79 66 80 67 81 68 82 47 83 48 84 56 85 49 86 55 87 57 88
REMARK SMILES IDX 54 89 50 90 51 91 52 92 53 93
REMARK H PARENT 14 5 6 16 6 17 18 27 77 46 45 57
REMARK Flexibility Score: inf
ROOT
ATOM      1  C   UNL A   1      32.367  27.057  26.418  1.00  0.00     0.118 C 
ENDROOT
BRANCH   1   2
ATOM      2  N   UNL A   1      31.350  26.095  26.797  1.00  0.00    -0.351 N 
ATOM      3  C   UNL A   1      31.122  24.869  26.211  1.00  0.00     0.284 C 
ATOM      4  O   UNL A   1      30.218  24.167  26.668  1.00  0.00    -0.268 OA
ATOM      5  H   UNL A   1      30.764  26.343  27.549  1.00  0.00     0.163 HD
BRANCH   3   6
ATOM      6  C   UNL A   1      31.977  24.453  24.965  1.00  0.00     0.206 C 
ATOM      7  C   UNL A   1      32.325  21.003  23.432  1.00  0.00     0.042 C 
ATOM      8  C   UNL A   1      32.590  22.492  23.640  1.00  0.00     0.070 C 
ATOM      9  C   UNL A   1      33.172  23.067  22.344  1.00  0.00     0.042 C 
ATOM     10  C   UNL A   1      31.382  23.239  24.217  1.00  0.00     0.117 C 
ATOM     11  O   UNL A   1      33.597  22.605  24.642  1.00  0.00    -0.362 OA
ATOM     12  C   UNL A   1      33.369  23.802  25.437  1.00  0.00     0.127 C 
ATOM     13  C   UNL A   1      33.345  23.253  26.881  1.00  0.00     0.049 C 
ATOM     14  C   UNL A   1      34.651  24.623  25.239  1.00  0.00     0.049 C 
BRANCH   6  15
ATOM     15  N   UNL A   1      32.046  25.608  23.994  1.00  0.00    -0.331 N 
ATOM     16  H   UNL A   1      32.847  25.451  23.381  1.00  0.00     0.347 HD
ATOM     17  H   UNL A   1      32.115  26.444  24.572  1.00  0.00     0.347 HD
BRANCH  15  18
ATOM     18  C   UNL A   1      30.858  25.820  23.136  1.00  0.00     0.267 C 
BRANCH  18  19
ATOM     19  C   UNL A   1      30.962  27.154  22.366  1.00  0.00     0.152 C 
BRANCH  19  20
ATOM     20  N   UNL A   1      30.019  28.148  22.891  1.00  0.00    -0.088 NA
ATOM     21  N   UNL A   1      29.770  29.113  22.148  1.00  0.00     0.001 N 
ATOM     22  N   UNL A   1      29.518  29.972  21.447  1.00  0.00    -0.003 NA
ENDBRANCH  19  20
ENDBRANCH  18  19
ENDBRANCH  15  18
ENDBRANCH   6  15
ENDBRANCH   3   6
ENDBRANCH   1   2
BRANCH   1  23
ATOM     23  C   UNL A   1      32.063  28.489  26.783  1.00  0.00     0.042 C 
BRANCH  23  24
ATOM     24  C   UNL A   1      32.838  29.472  25.934  1.00  0.00     0.118 C 
BRANCH  24  25
ATOM     25  N   UNL A   1      32.568  30.860  26.305  1.00  0.00    -0.352 N 
ATOM     26  C   UNL A   1      33.217  31.691  27.187  1.00  0.00     0.251 C 
ATOM     27  H   UNL A   1      31.795  31.265  25.850  1.00  0.00     0.163 HD
ATOM     28  O   UNL A   1      32.676  32.732  27.550  1.00  0.00    -0.269 OA
BRANCH  26  29
ATOM     29  C   UNL A   1      34.543  31.308  27.710  1.00  0.00     0.039 A 
ATOM     30  C   UNL A   1      35.545  32.271  27.830  1.00  0.00     0.014 A 
ATOM     31  C   UNL A   1      34.778  29.996  28.121  1.00  0.00     0.014 A 
ATOM     32  C   UNL A   1      36.743  31.935  28.463  1.00  0.00     0.010 A 
ATOM     33  C   UNL A   1      35.902  29.705  28.876  1.00  0.00     0.010 A 
ATOM     34  C   UNL A   1      36.901  30.669  29.051  1.00  0.00    -0.014 A 
BRANCH  34  35
ATOM     35  C   UNL A   1      38.099  30.327  29.856  1.00  0.00     0.031 A 
ATOM     36  C   UNL A   1      39.098  29.333  29.327  1.00  0.00     0.074 A 
ATOM     37  C   UNL A   1      38.238  30.849  31.090  1.00  0.00     0.049 A 
ATOM     38  N   UNL A   1      40.156  28.835  29.912  1.00  0.00    -0.248 NA
ATOM     39  C   UNL A   1      38.854  28.801  27.977  1.00  0.00     0.031 C 
ATOM     40  C   UNL A   1      37.302  31.782  31.726  1.00  0.00     0.029 A 
ATOM     41  N   UNL A   1      39.215  30.671  32.037  1.00  0.00    -0.354 N 
ATOM     42  C   UNL A   1      40.694  27.926  29.008  1.00  0.00     0.074 A 
ATOM     43  C   UNL A   1      39.803  27.885  27.871  1.00  0.00     0.031 C 
ATOM     44  C   UNL A   1      37.773  32.126  32.934  1.00  0.00     0.029 A 
ATOM     45  C   UNL A   1      39.007  31.391  33.191  1.00  0.00     0.049 A 
ATOM     46  H   UNL A   1      39.993  30.083  31.903  1.00  0.00     0.167 HD
ATOM     47  C   UNL A   1      41.844  27.216  29.105  1.00  0.00     0.034 A 
ATOM     48  C   UNL A   1      39.720  31.441  34.333  1.00  0.00     0.034 A 
ATOM     49  C   UNL A   1      42.722  27.282  30.247  1.00  0.00     0.049 A 
ATOM     50  C   UNL A   1      40.972  30.608  34.435  1.00  0.00     0.074 A 
ATOM     51  C   UNL A   1      43.941  26.652  30.432  1.00  0.00     0.029 A 
ATOM     52  N   UNL A   1      42.471  28.010  31.404  1.00  0.00    -0.354 N 
ATOM     53  N   UNL A   1      41.502  29.800  33.543  1.00  0.00    -0.248 NA
ATOM     54  C   UNL A   1      41.725  30.695  35.692  1.00  0.00     0.031 C 
ATOM     55  C   UNL A   1      44.382  26.929  31.730  1.00  0.00     0.029 A 
ATOM     56  C   UNL A   1      43.489  27.807  32.323  1.00  0.00     0.049 A 
ATOM     57  H   UNL A   1      41.686  28.586  31.548  1.00  0.00     0.167 HD
ATOM     58  C   UNL A   1      42.665  29.306  34.126  1.00  0.00     0.074 A 
ATOM     59  C   UNL A   1      42.769  29.925  35.431  1.00  0.00     0.031 C 
ATOM     60  C   UNL A   1      43.567  28.420  33.628  1.00  0.00     0.034 A 
BRANCH  47  61
ATOM     61  C   UNL A   1      42.196  26.295  27.961  1.00  0.00     0.023 A 
ATOM     62  C   UNL A   1      41.701  24.981  27.888  1.00  0.00     0.031 A 
ATOM     63  C   UNL A   1      43.060  26.728  26.939  1.00  0.00     0.131 A 
ATOM     64  C   UNL A   1      42.130  24.125  26.863  1.00  0.00     0.055 A 
ATOM     65  C   UNL A   1      43.411  25.900  25.872  1.00  0.00     0.041 A 
ATOM     66  F   UNL A   1      43.588  27.961  26.966  1.00  0.00    -0.206 F 
ATOM     67  C   UNL A   1      42.958  24.584  25.837  1.00  0.00     0.022 A 
BRANCH  64  68
ATOM     68  S   UNL A   1      41.715  22.363  26.977  1.00  0.00     0.124 S 
ATOM     69  O   UNL A   1      41.815  21.946  25.580  1.00  0.00    -0.237 OA
ATOM     70  O   UNL A   1      42.746  21.853  27.871  1.00  0.00    -0.237 OA
ATOM     71  O   UNL A   1      40.359  22.365  27.522  1.00  0.00    -0.744 OA
ENDBRANCH  64  68
ENDBRANCH  47  61
BRANCH  48  72
ATOM     72  C   UNL A   1      39.267  32.288  35.474  1.00  0.00     0.023 A 
ATOM     73  C   UNL A   1      39.691  33.621  35.600  1.00  0.00     0.031 A 
ATOM     74  C   UNL A   1      38.438  31.764  36.484  1.00  0.00     0.131 A 
ATOM     75  C   UNL A   1      39.329  34.367  36.733  1.00  0.00     0.055 A 
ATOM     76  C   UNL A   1      38.028  32.532  37.576  1.00  0.00     0.041 A 
ATOM     77  F   UNL A   1      38.001  30.497  36.416  1.00  0.00    -0.206 F 
ATOM     78  C   UNL A   1      38.487  33.838  37.712  1.00  0.00     0.022 A 
BRANCH  75  79
ATOM     79  S   UNL A   1      40.066  36.009  36.959  1.00  0.00     0.124 S 
ATOM     80  O   UNL A   1      41.464  35.676  37.201  1.00  0.00    -0.237 OA
ATOM     81  O   UNL A   1      39.770  36.652  35.683  1.00  0.00    -0.237 OA
ATOM     82  O   UNL A   1      39.343  36.549  38.109  1.00  0.00    -0.744 OA
ENDBRANCH  75  79
ENDBRANCH  48  72
BRANCH  60  83
ATOM     83  C   UNL A   1      44.761  28.100  34.495  1.00  0.00     0.023 A 
ATOM     84  C   UNL A   1      45.937  28.867  34.445  1.00  0.00     0.031 A 
ATOM     85  C   UNL A   1      44.723  27.007  35.380  1.00  0.00     0.131 A 
ATOM     86  C   UNL A   1      47.050  28.492  35.212  1.00  0.00     0.055 A 
ATOM     87  C   UNL A   1      45.805  26.684  36.197  1.00  0.00     0.041 A 
ATOM     88  F   UNL A   1      43.626  26.236  35.467  1.00  0.00    -0.206 F 
ATOM     89  C   UNL A   1      46.983  27.418  36.105  1.00  0.00     0.022 A 
BRANCH  86  90
ATOM     90  S   UNL A   1      48.619  29.358  34.946  1.00  0.00     0.124 S 
ATOM     91  O   UNL A   1      49.571  28.467  35.601  1.00  0.00    -0.237 OA
ATOM     92  O   UNL A   1      48.701  29.417  33.490  1.00  0.00    -0.237 OA
ATOM     93  O   UNL A   1      48.417  30.645  35.607  1.00  0.00    -0.744 OA
ENDBRANCH  86  90
ENDBRANCH  60  83
ENDBRANCH  34  35
ENDBRANCH  26  29
ENDBRANCH  24  25
ENDBRANCH  23  24
ENDBRANCH   1  23
TORSDOF 17
ENDMDL
