MODEL 1
REMARK VINA RESULT:     -11.4      0.000      0.000
REMARK SMILES C[C@H](Nc1cccc(F)c1C(=O)NCCCNC(=O)c1ccc(-c2c3nc(c(-c4cc(S(=O)(=O)[O-])ccc4F)c4ccc([nH]4)c(-c4cc(S(=O)(=O)[O-])ccc4F)c4nc(c(-c5cc(S(=O)(=O)[O-])ccc5F)c5ccc2[nH]5)C=C4)C=C3)cc1)c1nccs1
REMARK SMILES IDX 15 1 14 2 13 3 11 4 12 5 10 7 4 8 5 9 6 10 8 11 7 12 9 13
REMARK SMILES IDX 3 14 2 16 1 17 83 18 84 19 87 20 85 21 86 22 16 23 17 24
REMARK SMILES IDX 18 25 19 27 20 28 21 29 82 30 22 31 81 32 23 33 24 34 25 35
REMARK SMILES IDX 75 36 26 37 80 38 74 39 76 40 27 41 79 42 73 43 72 44 28 46
REMARK SMILES IDX 60 47 40 48 59 49 41 50 44 51 58 52 77 53 42 54 43 55 57 57
REMARK SMILES IDX 78 58 45 59 29 60 30 61 38 62 31 63 37 64 39 65 36 66 32 67
REMARK SMILES IDX 33 68 34 69 35 70 61 71 62 72 70 73 63 74 69 75 71 76 68 77
REMARK SMILES IDX 64 78 65 79 66 80 67 81 46 82 47 83 55 84 48 85 54 86 56 87
REMARK SMILES IDX 53 88 49 89 50 90 51 91 52 92
REMARK H PARENT 13 6 3 15 17 26 76 45 44 56
REMARK Flexibility Score: inf
ROOT
ATOM      1  C   UNL A   1      31.401  31.952  26.498  1.00  0.00     0.042 C 
ENDROOT
BRANCH   1   2
ATOM      2  C   UNL A   1      31.404  30.433  26.306  1.00  0.00     0.118 C 
BRANCH   2   3
ATOM      3  N   UNL A   1      31.925  30.084  24.998  1.00  0.00    -0.352 N 
ATOM      4  C   UNL A   1      31.382  29.595  23.840  1.00  0.00     0.256 C 
ATOM      5  O   UNL A   1      32.211  29.327  22.963  1.00  0.00    -0.269 OA
ATOM      6  H   UNL A   1      32.896  30.233  24.926  1.00  0.00     0.163 HD
BRANCH   4   7
ATOM      7  C   UNL A   1      29.923  29.424  23.538  1.00  0.00     0.098 A 
ATOM      8  C   UNL A   1      29.441  28.104  23.271  1.00  0.00     0.050 A 
ATOM      9  C   UNL A   1      28.071  27.915  23.007  1.00  0.00     0.027 A 
ATOM     10  C   UNL A   1      27.183  28.985  22.965  1.00  0.00     0.005 A 
ATOM     11  C   UNL A   1      28.997  30.470  23.539  1.00  0.00     0.138 A 
ATOM     12  C   UNL A   1      27.651  30.264  23.224  1.00  0.00     0.040 A 
ATOM     13  F   UNL A   1      29.325  31.717  23.889  1.00  0.00    -0.206 F 
BRANCH   8  14
ATOM     14  N   UNL A   1      30.304  27.021  23.197  1.00  0.00    -0.375 N 
ATOM     15  H   UNL A   1      30.861  26.969  22.387  1.00  0.00     0.161 HD
BRANCH  14  16
ATOM     16  C   UNL A   1      30.491  25.944  24.178  1.00  0.00     0.135 C 
ATOM     17  C   UNL A   1      30.277  24.582  23.496  1.00  0.00     0.039 C 
BRANCH  16  18
ATOM     18  C   UNL A   1      31.878  26.032  24.836  1.00  0.00     0.115 A 
ATOM     19  N   UNL A   1      32.187  26.921  25.764  1.00  0.00    -0.247 NA
ATOM     20  S   UNL A   1      33.164  24.953  24.433  1.00  0.00    -0.125 S 
ATOM     21  C   UNL A   1      33.511  26.802  26.126  1.00  0.00     0.123 A 
ATOM     22  C   UNL A   1      34.211  25.806  25.484  1.00  0.00     0.087 A 
ENDBRANCH  16  18
ENDBRANCH  14  16
ENDBRANCH   8  14
ENDBRANCH   4   7
ENDBRANCH   2   3
ENDBRANCH   1   2
BRANCH   1  23
ATOM     23  C   UNL A   1      32.731  32.512  27.008  1.00  0.00     0.118 C 
BRANCH  23  24
ATOM     24  N   UNL A   1      32.585  33.856  27.548  1.00  0.00    -0.352 N 
ATOM     25  C   UNL A   1      33.169  34.439  28.647  1.00  0.00     0.251 C 
ATOM     26  H   UNL A   1      31.971  34.439  27.046  1.00  0.00     0.163 HD
ATOM     27  O   UNL A   1      32.707  35.494  29.074  1.00  0.00    -0.269 OA
BRANCH  25  28
ATOM     28  C   UNL A   1      34.334  33.816  29.313  1.00  0.00     0.039 A 
ATOM     29  C   UNL A   1      35.619  34.241  28.962  1.00  0.00     0.014 A 
ATOM     30  C   UNL A   1      34.175  32.773  30.232  1.00  0.00     0.014 A 
ATOM     31  C   UNL A   1      36.737  33.661  29.568  1.00  0.00     0.010 A 
ATOM     32  C   UNL A   1      35.287  32.242  30.884  1.00  0.00     0.010 A 
ATOM     33  C   UNL A   1      36.580  32.678  30.557  1.00  0.00    -0.014 A 
BRANCH  33  34
ATOM     34  C   UNL A   1      37.755  32.097  31.260  1.00  0.00     0.031 A 
ATOM     35  C   UNL A   1      38.551  30.990  30.621  1.00  0.00     0.074 A 
ATOM     36  C   UNL A   1      38.070  32.532  32.496  1.00  0.00     0.049 A 
ATOM     37  N   UNL A   1      39.546  30.299  31.115  1.00  0.00    -0.248 NA
ATOM     38  C   UNL A   1      38.162  30.593  29.260  1.00  0.00     0.031 C 
ATOM     39  C   UNL A   1      37.357  33.580  33.229  1.00  0.00     0.029 A 
ATOM     40  N   UNL A   1      39.068  32.146  33.358  1.00  0.00    -0.354 N 
ATOM     41  C   UNL A   1      39.891  29.376  30.135  1.00  0.00     0.074 A 
ATOM     42  C   UNL A   1      38.968  29.566  29.036  1.00  0.00     0.031 C 
ATOM     43  C   UNL A   1      37.957  33.775  34.413  1.00  0.00     0.029 A 
ATOM     44  C   UNL A   1      39.065  32.836  34.548  1.00  0.00     0.049 A 
ATOM     45  H   UNL A   1      39.723  31.443  33.143  1.00  0.00     0.167 HD
ATOM     46  C   UNL A   1      40.895  28.465  30.145  1.00  0.00     0.034 A 
ATOM     47  C   UNL A   1      39.857  32.718  35.633  1.00  0.00     0.034 A 
ATOM     48  C   UNL A   1      41.824  28.305  31.235  1.00  0.00     0.049 A 
ATOM     49  C   UNL A   1      40.955  31.688  35.629  1.00  0.00     0.074 A 
ATOM     50  C   UNL A   1      42.911  27.452  31.320  1.00  0.00     0.029 A 
ATOM     51  N   UNL A   1      41.777  29.011  32.431  1.00  0.00    -0.354 N 
ATOM     52  N   UNL A   1      41.270  30.828  34.689  1.00  0.00    -0.248 NA
ATOM     53  C   UNL A   1      41.799  31.610  36.828  1.00  0.00     0.031 C 
ATOM     54  C   UNL A   1      43.484  27.599  32.587  1.00  0.00     0.029 A 
ATOM     55  C   UNL A   1      42.798  28.592  33.268  1.00  0.00     0.049 A 
ATOM     56  H   UNL A   1      41.115  29.705  32.650  1.00  0.00     0.167 HD
ATOM     57  C   UNL A   1      42.363  30.119  35.176  1.00  0.00     0.074 A 
ATOM     58  C   UNL A   1      42.654  30.654  36.492  1.00  0.00     0.031 C 
ATOM     59  C   UNL A   1      43.065  29.122  34.584  1.00  0.00     0.034 A 
BRANCH  46  60
ATOM     60  C   UNL A   1      41.033  27.559  28.948  1.00  0.00     0.023 A 
ATOM     61  C   UNL A   1      42.010  27.782  27.963  1.00  0.00     0.031 A 
ATOM     62  C   UNL A   1      40.189  26.444  28.801  1.00  0.00     0.131 A 
ATOM     63  C   UNL A   1      42.087  26.931  26.850  1.00  0.00     0.055 A 
ATOM     64  C   UNL A   1      40.314  25.563  27.725  1.00  0.00     0.041 A 
ATOM     65  F   UNL A   1      39.227  26.193  29.704  1.00  0.00    -0.206 F 
ATOM     66  C   UNL A   1      41.262  25.809  26.738  1.00  0.00     0.022 A 
BRANCH  63  67
ATOM     67  S   UNL A   1      43.229  27.356  25.507  1.00  0.00     0.124 S 
ATOM     68  O   UNL A   1      43.606  26.035  25.013  1.00  0.00    -0.237 OA
ATOM     69  O   UNL A   1      42.392  28.156  24.619  1.00  0.00    -0.237 OA
ATOM     70  O   UNL A   1      44.297  28.090  26.185  1.00  0.00    -0.744 OA
ENDBRANCH  63  67
ENDBRANCH  46  60
BRANCH  47  71
ATOM     71  C   UNL A   1      39.628  33.595  36.813  1.00  0.00     0.023 A 
ATOM     72  C   UNL A   1      38.931  33.126  37.937  1.00  0.00     0.031 A 
ATOM     73  C   UNL A   1      40.128  34.909  36.842  1.00  0.00     0.131 A 
ATOM     74  C   UNL A   1      38.741  33.971  39.042  1.00  0.00     0.055 A 
ATOM     75  C   UNL A   1      39.967  35.733  37.957  1.00  0.00     0.041 A 
ATOM     76  F   UNL A   1      40.811  35.398  35.795  1.00  0.00    -0.206 F 
ATOM     77  C   UNL A   1      39.267  35.265  39.065  1.00  0.00     0.022 A 
BRANCH  74  78
ATOM     78  S   UNL A   1      37.785  33.357  40.456  1.00  0.00     0.124 S 
ATOM     79  O   UNL A   1      37.673  34.554  41.281  1.00  0.00    -0.237 OA
ATOM     80  O   UNL A   1      36.555  32.898  39.818  1.00  0.00    -0.237 OA
ATOM     81  O   UNL A   1      38.630  32.297  41.003  1.00  0.00    -0.744 OA
ENDBRANCH  74  78
ENDBRANCH  47  71
BRANCH  59  82
ATOM     82  C   UNL A   1      44.238  28.555  35.338  1.00  0.00     0.023 A 
ATOM     83  C   UNL A   1      44.093  27.463  36.209  1.00  0.00     0.031 A 
ATOM     84  C   UNL A   1      45.526  29.083  35.138  1.00  0.00     0.131 A 
ATOM     85  C   UNL A   1      45.218  26.946  36.868  1.00  0.00     0.055 A 
ATOM     86  C   UNL A   1      46.647  28.536  35.760  1.00  0.00     0.041 A 
ATOM     87  F   UNL A   1      45.715  30.125  34.312  1.00  0.00    -0.206 F 
ATOM     88  C   UNL A   1      46.496  27.463  36.636  1.00  0.00     0.022 A 
BRANCH  85  89
ATOM     89  S   UNL A   1      44.990  25.599  38.061  1.00  0.00     0.124 S 
ATOM     90  O   UNL A   1      44.313  24.590  37.251  1.00  0.00    -0.237 OA
ATOM     91  O   UNL A   1      46.361  25.287  38.453  1.00  0.00    -0.237 OA
ATOM     92  O   UNL A   1      44.170  26.204  39.109  1.00  0.00    -0.744 OA
ENDBRANCH  85  89
ENDBRANCH  59  82
ENDBRANCH  33  34
ENDBRANCH  25  28
ENDBRANCH  23  24
ENDBRANCH   1  23
TORSDOF 16
ENDMDL
MODEL 2
REMARK VINA RESULT:     -11.2      6.211     12.046
REMARK SMILES C[C@H](Nc1cccc(F)c1C(=O)NCCCNC(=O)c1ccc(-c2c3nc(c(-c4cc(S(=O)(=O)[O-])ccc4F)c4ccc([nH]4)c(-c4cc(S(=O)(=O)[O-])ccc4F)c4nc(c(-c5cc(S(=O)(=O)[O-])ccc5F)c5ccc2[nH]5)C=C4)C=C3)cc1)c1nccs1
REMARK SMILES IDX 15 1 14 2 13 3 11 4 12 5 10 7 4 8 5 9 6 10 8 11 7 12 9 13
REMARK SMILES IDX 3 14 2 16 1 17 83 18 84 19 87 20 85 21 86 22 16 23 17 24
REMARK SMILES IDX 18 25 19 27 20 28 21 29 82 30 22 31 81 32 23 33 24 34 25 35
REMARK SMILES IDX 75 36 26 37 80 38 74 39 76 40 27 41 79 42 73 43 72 44 28 46
REMARK SMILES IDX 60 47 40 48 59 49 41 50 44 51 58 52 77 53 42 54 43 55 57 57
REMARK SMILES IDX 78 58 45 59 29 60 30 61 38 62 31 63 37 64 39 65 36 66 32 67
REMARK SMILES IDX 33 68 34 69 35 70 61 71 62 72 70 73 63 74 69 75 71 76 68 77
REMARK SMILES IDX 64 78 65 79 66 80 67 81 46 82 47 83 55 84 48 85 54 86 56 87
REMARK SMILES IDX 53 88 49 89 50 90 51 91 52 92
REMARK H PARENT 13 6 3 15 17 26 76 45 44 56
REMARK Flexibility Score: inf
ROOT
ATOM      1  C   UNL A   1      38.006  19.620  25.027  1.00  0.00     0.042 C 
ENDROOT
BRANCH   1   2
ATOM      2  C   UNL A   1      36.975  20.664  24.587  1.00  0.00     0.118 C 
BRANCH   2   3
ATOM      3  N   UNL A   1      35.905  20.768  25.560  1.00  0.00    -0.352 N 
ATOM      4  C   UNL A   1      34.596  20.365  25.604  1.00  0.00     0.256 C 
ATOM      5  O   UNL A   1      33.978  20.755  26.601  1.00  0.00    -0.269 OA
ATOM      6  H   UNL A   1      36.183  21.238  26.379  1.00  0.00     0.163 HD
BRANCH   4   7
ATOM      7  C   UNL A   1      33.899  19.476  24.618  1.00  0.00     0.098 A 
ATOM      8  C   UNL A   1      32.741  19.987  23.953  1.00  0.00     0.050 A 
ATOM      9  C   UNL A   1      32.083  19.180  23.006  1.00  0.00     0.027 A 
ATOM     10  C   UNL A   1      32.512  17.886  22.727  1.00  0.00     0.005 A 
ATOM     11  C   UNL A   1      34.335  18.193  24.278  1.00  0.00     0.138 A 
ATOM     12  C   UNL A   1      33.635  17.392  23.372  1.00  0.00     0.040 A 
ATOM     13  F   UNL A   1      35.469  17.672  24.756  1.00  0.00    -0.206 F 
BRANCH   8  14
ATOM     14  N   UNL A   1      32.213  21.228  24.273  1.00  0.00    -0.375 N 
ATOM     15  H   UNL A   1      31.648  21.262  25.078  1.00  0.00     0.161 HD
BRANCH  14  16
ATOM     16  C   UNL A   1      32.395  22.501  23.561  1.00  0.00     0.135 C 
ATOM     17  C   UNL A   1      31.021  23.090  23.199  1.00  0.00     0.039 C 
BRANCH  16  18
ATOM     18  C   UNL A   1      33.228  23.486  24.397  1.00  0.00     0.115 A 
ATOM     19  N   UNL A   1      32.794  24.036  25.518  1.00  0.00    -0.247 NA
ATOM     20  S   UNL A   1      34.831  23.950  23.955  1.00  0.00    -0.125 S 
ATOM     21  C   UNL A   1      33.727  24.917  26.018  1.00  0.00     0.123 A 
ATOM     22  C   UNL A   1      34.886  25.028  25.284  1.00  0.00     0.087 A 
ENDBRANCH  16  18
ENDBRANCH  14  16
ENDBRANCH   8  14
ENDBRANCH   4   7
ENDBRANCH   2   3
ENDBRANCH   1   2
BRANCH   1  23
ATOM     23  C   UNL A   1      39.172  20.204  25.828  1.00  0.00     0.118 C 
BRANCH  23  24
ATOM     24  N   UNL A   1      40.267  19.255  25.968  1.00  0.00    -0.352 N 
ATOM     25  C   UNL A   1      41.619  19.470  26.086  1.00  0.00     0.251 C 
ATOM     26  H   UNL A   1      39.995  18.309  25.979  1.00  0.00     0.163 HD
ATOM     27  O   UNL A   1      42.386  18.525  25.927  1.00  0.00    -0.269 OA
BRANCH  25  28
ATOM     28  C   UNL A   1      42.153  20.815  26.398  1.00  0.00     0.039 A 
ATOM     29  C   UNL A   1      42.411  21.698  25.346  1.00  0.00     0.014 A 
ATOM     30  C   UNL A   1      42.462  21.189  27.710  1.00  0.00     0.014 A 
ATOM     31  C   UNL A   1      42.926  22.970  25.611  1.00  0.00     0.010 A 
ATOM     32  C   UNL A   1      42.913  22.480  27.979  1.00  0.00     0.010 A 
ATOM     33  C   UNL A   1      43.153  23.384  26.933  1.00  0.00    -0.014 A 
BRANCH  33  34
ATOM     34  C   UNL A   1      43.638  24.756  27.239  1.00  0.00     0.031 A 
ATOM     35  C   UNL A   1      42.690  25.796  27.773  1.00  0.00     0.074 A 
ATOM     36  C   UNL A   1      44.922  25.077  26.985  1.00  0.00     0.049 A 
ATOM     37  N   UNL A   1      42.905  27.064  28.012  1.00  0.00    -0.248 NA
ATOM     38  C   UNL A   1      41.313  25.359  28.051  1.00  0.00     0.031 C 
ATOM     39  C   UNL A   1      45.929  24.163  26.442  1.00  0.00     0.029 A 
ATOM     40  N   UNL A   1      45.602  26.260  27.144  1.00  0.00    -0.354 N 
ATOM     41  C   UNL A   1      41.691  27.580  28.451  1.00  0.00     0.074 A 
ATOM     42  C   UNL A   1      40.733  26.497  28.403  1.00  0.00     0.031 C 
ATOM     43  C   UNL A   1      47.102  24.807  26.344  1.00  0.00     0.029 A 
ATOM     44  C   UNL A   1      46.923  26.192  26.766  1.00  0.00     0.049 A 
ATOM     45  H   UNL A   1      45.183  27.079  27.495  1.00  0.00     0.167 HD
ATOM     46  C   UNL A   1      41.408  28.837  28.872  1.00  0.00     0.034 A 
ATOM     47  C   UNL A   1      47.881  27.140  26.750  1.00  0.00     0.034 A 
ATOM     48  C   UNL A   1      42.380  29.899  28.941  1.00  0.00     0.049 A 
ATOM     49  C   UNL A   1      47.540  28.533  27.205  1.00  0.00     0.074 A 
ATOM     50  C   UNL A   1      42.209  31.191  29.407  1.00  0.00     0.029 A 
ATOM     51  N   UNL A   1      43.703  29.795  28.533  1.00  0.00    -0.354 N 
ATOM     52  N   UNL A   1      46.388  29.001  27.625  1.00  0.00    -0.248 NA
ATOM     53  C   UNL A   1      48.623  29.525  27.183  1.00  0.00     0.031 C 
ATOM     54  C   UNL A   1      43.410  31.884  29.226  1.00  0.00     0.029 A 
ATOM     55  C   UNL A   1      44.351  31.007  28.711  1.00  0.00     0.049 A 
ATOM     56  H   UNL A   1      44.119  28.980  28.171  1.00  0.00     0.167 HD
ATOM     57  C   UNL A   1      46.612  30.338  27.934  1.00  0.00     0.074 A 
ATOM     58  C   UNL A   1      48.010  30.602  27.657  1.00  0.00     0.031 C 
ATOM     59  C   UNL A   1      45.740  31.260  28.413  1.00  0.00     0.034 A 
BRANCH  46  60
ATOM     60  C   UNL A   1      39.987  29.139  29.276  1.00  0.00     0.023 A 
ATOM     61  C   UNL A   1      39.601  29.196  30.625  1.00  0.00     0.031 A 
ATOM     62  C   UNL A   1      39.011  29.394  28.296  1.00  0.00     0.131 A 
ATOM     63  C   UNL A   1      38.262  29.453  30.958  1.00  0.00     0.055 A 
ATOM     64  C   UNL A   1      37.695  29.713  28.636  1.00  0.00     0.041 A 
ATOM     65  F   UNL A   1      39.322  29.335  26.991  1.00  0.00    -0.206 F 
ATOM     66  C   UNL A   1      37.313  29.737  29.973  1.00  0.00     0.022 A 
BRANCH  63  67
ATOM     67  S   UNL A   1      37.759  29.332  32.696  1.00  0.00     0.124 S 
ATOM     68  O   UNL A   1      37.684  27.886  32.880  1.00  0.00    -0.237 OA
ATOM     69  O   UNL A   1      38.848  30.010  33.390  1.00  0.00    -0.237 OA
ATOM     70  O   UNL A   1      36.473  30.027  32.729  1.00  0.00    -0.744 OA
ENDBRANCH  63  67
ENDBRANCH  46  60
BRANCH  47  71
ATOM     71  C   UNL A   1      49.250  26.798  26.275  1.00  0.00     0.023 A 
ATOM     72  C   UNL A   1      49.737  27.296  25.057  1.00  0.00     0.031 A 
ATOM     73  C   UNL A   1      50.100  25.988  27.050  1.00  0.00     0.131 A 
ATOM     74  C   UNL A   1      51.037  26.969  24.640  1.00  0.00     0.055 A 
ATOM     75  C   UNL A   1      51.404  25.694  26.647  1.00  0.00     0.041 A 
ATOM     76  F   UNL A   1      49.682  25.498  28.228  1.00  0.00    -0.206 F 
ATOM     77  C   UNL A   1      51.877  26.184  25.433  1.00  0.00     0.022 A 
BRANCH  74  78
ATOM     78  S   UNL A   1      51.617  27.578  23.033  1.00  0.00     0.124 S 
ATOM     79  O   UNL A   1      50.820  26.781  22.108  1.00  0.00    -0.237 OA
ATOM     80  O   UNL A   1      51.290  28.998  23.107  1.00  0.00    -0.237 OA
ATOM     81  O   UNL A   1      53.047  27.271  23.050  1.00  0.00    -0.744 OA
ENDBRANCH  74  78
ENDBRANCH  47  71
BRANCH  59  82
ATOM     82  C   UNL A   1      46.274  32.639  28.695  1.00  0.00     0.023 A 
ATOM     83  C   UNL A   1      46.218  33.659  27.732  1.00  0.00     0.031 A 
ATOM     84  C   UNL A   1      46.793  32.947  29.965  1.00  0.00     0.131 A 
ATOM     85  C   UNL A   1      46.698  34.939  28.048  1.00  0.00     0.055 A 
ATOM     86  C   UNL A   1      47.226  34.232  30.288  1.00  0.00     0.041 A 
ATOM     87  F   UNL A   1      46.864  32.005  30.920  1.00  0.00    -0.206 F 
ATOM     88  C   UNL A   1      47.184  35.237  29.324  1.00  0.00     0.022 A 
BRANCH  85  89
ATOM     89  S   UNL A   1      46.704  36.213  26.756  1.00  0.00     0.124 S 
ATOM     90  O   UNL A   1      48.059  36.746  26.865  1.00  0.00    -0.237 OA
ATOM     91  O   UNL A   1      46.418  35.443  25.550  1.00  0.00    -0.237 OA
ATOM     92  O   UNL A   1      45.643  37.128  27.172  1.00  0.00    -0.744 OA
ENDBRANCH  85  89
ENDBRANCH  59  82
ENDBRANCH  33  34
ENDBRANCH  25  28
ENDBRANCH  23  24
ENDBRANCH   1  23
TORSDOF 16
ENDMDL
MODEL 3
REMARK VINA RESULT:     -11.2      2.489      3.773
REMARK SMILES C[C@H](Nc1cccc(F)c1C(=O)NCCCNC(=O)c1ccc(-c2c3nc(c(-c4cc(S(=O)(=O)[O-])ccc4F)c4ccc([nH]4)c(-c4cc(S(=O)(=O)[O-])ccc4F)c4nc(c(-c5cc(S(=O)(=O)[O-])ccc5F)c5ccc2[nH]5)C=C4)C=C3)cc1)c1nccs1
REMARK SMILES IDX 15 1 14 2 13 3 11 4 12 5 10 7 4 8 5 9 6 10 8 11 7 12 9 13
REMARK SMILES IDX 3 14 2 16 1 17 83 18 84 19 87 20 85 21 86 22 16 23 17 24
REMARK SMILES IDX 18 25 19 27 20 28 21 29 82 30 22 31 81 32 23 33 24 34 25 35
REMARK SMILES IDX 75 36 26 37 80 38 74 39 76 40 27 41 79 42 73 43 72 44 28 46
REMARK SMILES IDX 60 47 40 48 59 49 41 50 44 51 58 52 77 53 42 54 43 55 57 57
REMARK SMILES IDX 78 58 45 59 29 60 30 61 38 62 31 63 37 64 39 65 36 66 32 67
REMARK SMILES IDX 33 68 34 69 35 70 61 71 62 72 70 73 63 74 69 75 71 76 68 77
REMARK SMILES IDX 64 78 65 79 66 80 67 81 46 82 47 83 55 84 48 85 54 86 56 87
REMARK SMILES IDX 53 88 49 89 50 90 51 91 52 92
REMARK H PARENT 13 6 3 15 17 26 76 45 44 56
REMARK Flexibility Score: inf
ROOT
ATOM      1  C   UNL A   1      33.665  28.638  24.803  1.00  0.00     0.042 C 
ENDROOT
BRANCH   1   2
ATOM      2  C   UNL A   1      33.888  27.142  24.561  1.00  0.00     0.118 C 
BRANCH   2   3
ATOM      3  N   UNL A   1      33.735  26.822  23.155  1.00  0.00    -0.352 N 
ATOM      4  C   UNL A   1      33.588  25.665  22.436  1.00  0.00     0.256 C 
ATOM      5  O   UNL A   1      33.597  25.824  21.211  1.00  0.00    -0.269 OA
ATOM      6  H   UNL A   1      33.737  27.624  22.583  1.00  0.00     0.163 HD
BRANCH   4   7
ATOM      7  C   UNL A   1      33.363  24.290  22.990  1.00  0.00     0.098 A 
ATOM      8  C   UNL A   1      32.016  23.834  23.134  1.00  0.00     0.050 A 
ATOM      9  C   UNL A   1      31.780  22.538  23.630  1.00  0.00     0.027 A 
ATOM     10  C   UNL A   1      32.825  21.704  24.016  1.00  0.00     0.005 A 
ATOM     11  C   UNL A   1      34.391  23.411  23.338  1.00  0.00     0.138 A 
ATOM     12  C   UNL A   1      34.132  22.148  23.876  1.00  0.00     0.040 A 
ATOM     13  F   UNL A   1      35.680  23.698  23.132  1.00  0.00    -0.206 F 
BRANCH   8  14
ATOM     14  N   UNL A   1      30.939  24.665  22.862  1.00  0.00    -0.375 N 
ATOM     15  H   UNL A   1      30.689  24.749  21.914  1.00  0.00     0.161 HD
BRANCH  14  16
ATOM     16  C   UNL A   1      30.125  25.433  23.813  1.00  0.00     0.135 C 
ATOM     17  C   UNL A   1      30.807  25.436  25.192  1.00  0.00     0.039 C 
BRANCH  16  18
ATOM     18  C   UNL A   1      29.883  26.863  23.302  1.00  0.00     0.115 A 
ATOM     19  N   UNL A   1      30.798  27.570  22.662  1.00  0.00    -0.247 NA
ATOM     20  S   UNL A   1      28.372  27.674  23.501  1.00  0.00    -0.125 S 
ATOM     21  C   UNL A   1      30.322  28.831  22.376  1.00  0.00     0.123 A 
ATOM     22  C   UNL A   1      29.032  29.082  22.786  1.00  0.00     0.087 A 
ENDBRANCH  16  18
ENDBRANCH  14  16
ENDBRANCH   8  14
ENDBRANCH   4   7
ENDBRANCH   2   3
ENDBRANCH   1   2
BRANCH   1  23
ATOM     23  C   UNL A   1      32.603  28.939  25.863  1.00  0.00     0.118 C 
BRANCH  23  24
ATOM     24  N   UNL A   1      32.378  30.369  26.017  1.00  0.00    -0.352 N 
ATOM     25  C   UNL A   1      32.955  31.271  26.878  1.00  0.00     0.251 C 
ATOM     26  H   UNL A   1      31.706  30.751  25.407  1.00  0.00     0.163 HD
ATOM     27  O   UNL A   1      32.432  32.372  27.022  1.00  0.00    -0.269 OA
BRANCH  25  28
ATOM     28  C   UNL A   1      34.185  30.930  27.628  1.00  0.00     0.039 A 
ATOM     29  C   UNL A   1      35.134  31.932  27.855  1.00  0.00     0.014 A 
ATOM     30  C   UNL A   1      34.441  29.622  28.051  1.00  0.00     0.014 A 
ATOM     31  C   UNL A   1      36.310  31.635  28.551  1.00  0.00     0.010 A 
ATOM     32  C   UNL A   1      35.583  29.342  28.801  1.00  0.00     0.010 A 
ATOM     33  C   UNL A   1      36.530  30.344  29.057  1.00  0.00    -0.014 A 
BRANCH  33  34
ATOM     34  C   UNL A   1      37.744  30.026  29.856  1.00  0.00     0.031 A 
ATOM     35  C   UNL A   1      38.792  29.096  29.306  1.00  0.00     0.074 A 
ATOM     36  C   UNL A   1      37.873  30.535  31.097  1.00  0.00     0.049 A 
ATOM     37  N   UNL A   1      39.869  28.630  29.887  1.00  0.00    -0.248 NA
ATOM     38  C   UNL A   1      38.593  28.607  27.934  1.00  0.00     0.031 C 
ATOM     39  C   UNL A   1      36.911  31.426  31.748  1.00  0.00     0.029 A 
ATOM     40  N   UNL A   1      38.862  30.375  32.036  1.00  0.00    -0.354 N 
ATOM     41  C   UNL A   1      40.464  27.783  28.961  1.00  0.00     0.074 A 
ATOM     42  C   UNL A   1      39.605  27.763  27.796  1.00  0.00     0.031 C 
ATOM     43  C   UNL A   1      37.370  31.758  32.964  1.00  0.00     0.029 A 
ATOM     44  C   UNL A   1      38.633  31.067  33.203  1.00  0.00     0.049 A 
ATOM     45  H   UNL A   1      39.660  29.817  31.888  1.00  0.00     0.167 HD
ATOM     46  C   UNL A   1      41.629  27.097  29.067  1.00  0.00     0.034 A 
ATOM     47  C   UNL A   1      39.350  31.130  34.342  1.00  0.00     0.034 A 
ATOM     48  C   UNL A   1      42.488  27.147  30.223  1.00  0.00     0.049 A 
ATOM     49  C   UNL A   1      40.631  30.347  34.444  1.00  0.00     0.074 A 
ATOM     50  C   UNL A   1      43.716  26.536  30.407  1.00  0.00     0.029 A 
ATOM     51  N   UNL A   1      42.211  27.845  31.391  1.00  0.00    -0.354 N 
ATOM     52  N   UNL A   1      41.183  29.555  33.554  1.00  0.00    -0.248 NA
ATOM     53  C   UNL A   1      41.383  30.461  35.700  1.00  0.00     0.031 C 
ATOM     54  C   UNL A   1      44.154  26.816  31.706  1.00  0.00     0.029 A 
ATOM     55  C   UNL A   1      43.232  27.657  32.309  1.00  0.00     0.049 A 
ATOM     56  H   UNL A   1      41.408  28.393  31.543  1.00  0.00     0.167 HD
ATOM     57  C   UNL A   1      42.358  29.091  34.136  1.00  0.00     0.074 A 
ATOM     58  C   UNL A   1      42.437  29.694  35.452  1.00  0.00     0.031 C 
ATOM     59  C   UNL A   1      43.289  28.250  33.623  1.00  0.00     0.034 A 
BRANCH  46  60
ATOM     60  C   UNL A   1      42.035  26.220  27.910  1.00  0.00     0.023 A 
ATOM     61  C   UNL A   1      41.637  24.876  27.829  1.00  0.00     0.031 A 
ATOM     62  C   UNL A   1      42.816  26.744  26.863  1.00  0.00     0.131 A 
ATOM     63  C   UNL A   1      42.060  24.086  26.748  1.00  0.00     0.055 A 
ATOM     64  C   UNL A   1      43.178  25.971  25.759  1.00  0.00     0.041 A 
ATOM     65  F   UNL A   1      43.238  28.018  26.899  1.00  0.00    -0.206 F 
ATOM     66  C   UNL A   1      42.806  24.632  25.701  1.00  0.00     0.022 A 
BRANCH  63  67
ATOM     67  S   UNL A   1      41.688  22.311  26.769  1.00  0.00     0.124 S 
ATOM     68  O   UNL A   1      41.929  21.944  25.377  1.00  0.00    -0.237 OA
ATOM     69  O   UNL A   1      42.646  21.797  27.742  1.00  0.00    -0.237 OA
ATOM     70  O   UNL A   1      40.288  22.260  27.188  1.00  0.00    -0.744 OA
ENDBRANCH  63  67
ENDBRANCH  46  60
BRANCH  47  71
ATOM     71  C   UNL A   1      38.862  31.960  35.478  1.00  0.00     0.023 A 
ATOM     72  C   UNL A   1      38.200  31.374  36.567  1.00  0.00     0.031 A 
ATOM     73  C   UNL A   1      39.077  33.349  35.499  1.00  0.00     0.131 A 
ATOM     74  C   UNL A   1      37.762  32.179  37.631  1.00  0.00     0.055 A 
ATOM     75  C   UNL A   1      38.670  34.140  36.575  1.00  0.00     0.041 A 
ATOM     76  F   UNL A   1      39.716  33.953  34.484  1.00  0.00    -0.206 F 
ATOM     77  C   UNL A   1      38.005  33.554  37.648  1.00  0.00     0.022 A 
BRANCH  74  78
ATOM     78  S   UNL A   1      36.855  31.402  38.997  1.00  0.00     0.124 S 
ATOM     79  O   UNL A   1      35.665  32.240  39.077  1.00  0.00    -0.237 OA
ATOM     80  O   UNL A   1      36.655  30.046  38.500  1.00  0.00    -0.237 OA
ATOM     81  O   UNL A   1      37.778  31.517  40.125  1.00  0.00    -0.744 OA
ENDBRANCH  74  78
ENDBRANCH  47  71
BRANCH  59  82
ATOM     82  C   UNL A   1      44.494  27.947  34.473  1.00  0.00     0.023 A 
ATOM     83  C   UNL A   1      44.517  26.850  35.350  1.00  0.00     0.031 A 
ATOM     84  C   UNL A   1      45.653  28.735  34.359  1.00  0.00     0.131 A 
ATOM     85  C   UNL A   1      45.673  26.586  36.101  1.00  0.00     0.055 A 
ATOM     86  C   UNL A   1      46.813  28.440  35.073  1.00  0.00     0.041 A 
ATOM     87  F   UNL A   1      45.680  29.792  33.531  1.00  0.00    -0.206 F 
ATOM     88  C   UNL A   1      46.826  27.362  35.954  1.00  0.00     0.022 A 
BRANCH  85  89
ATOM     89  S   UNL A   1      45.644  25.223  37.298  1.00  0.00     0.124 S 
ATOM     90  O   UNL A   1      46.154  24.111  36.501  1.00  0.00    -0.237 OA
ATOM     91  O   UNL A   1      46.527  25.709  38.353  1.00  0.00    -0.237 OA
ATOM     92  O   UNL A   1      44.233  25.123  37.669  1.00  0.00    -0.744 OA
ENDBRANCH  85  89
ENDBRANCH  59  82
ENDBRANCH  33  34
ENDBRANCH  25  28
ENDBRANCH  23  24
ENDBRANCH   1  23
TORSDOF 16
ENDMDL
