MODEL 1
REMARK VINA RESULT:     -12.2      0.000      0.000
REMARK SMILES CC(C)=CC(=O)Nc1ccc(C(=O)NCCCNC(=O)c2ccc(-c3c4nc(c(-c5cc(S(=O)(=O)[O-])ccc5F)c5ccc([nH]5)c(-c5cc(S(=O)(=O)[O-])ccc5F)c5nc(c(-c6cc(S(=O)(=O)[O-])ccc6F)c6ccc3[nH]6)C=C5)C=C4)cc2)cc1
REMARK SMILES IDX 16 1 15 2 14 3 12 4 13 5 11 7 8 8 9 9 85 10 10 11 84 12 7 13
REMARK SMILES IDX 5 14 6 15 4 17 1 18 2 19 3 20 17 21 18 22 19 23 20 25 21 26
REMARK SMILES IDX 22 27 83 28 23 29 82 30 24 31 25 32 26 33 76 34 27 35 81 36
REMARK SMILES IDX 75 37 77 38 28 39 80 40 74 41 73 42 29 44 61 45 41 46 60 47
REMARK SMILES IDX 42 48 45 49 59 50 78 51 43 52 44 53 58 55 79 56 46 57 30 58
REMARK SMILES IDX 31 59 39 60 32 61 38 62 40 63 37 64 33 65 34 66 35 67 36 68
REMARK SMILES IDX 62 69 63 70 71 71 64 72 70 73 72 74 69 75 65 76 66 77 67 78
REMARK SMILES IDX 68 79 47 80 48 81 56 82 49 83 55 84 57 85 54 86 50 87 51 88
REMARK SMILES IDX 52 89 53 90
REMARK H PARENT 14 6 7 16 18 24 77 43 45 54
REMARK Flexibility Score: inf
ROOT
ATOM      1  C   UNL A   1      31.448  32.062  26.515  1.00  0.00     0.042 C 
ENDROOT
BRANCH   1   2
ATOM      2  C   UNL A   1      31.495  30.583  26.135  1.00  0.00     0.118 C 
BRANCH   2   3
ATOM      3  N   UNL A   1      31.184  30.401  24.725  1.00  0.00    -0.352 N 
ATOM      4  C   UNL A   1      30.956  29.281  23.966  1.00  0.00     0.251 C 
ATOM      5  O   UNL A   1      30.683  29.432  22.775  1.00  0.00    -0.269 OA
ATOM      6  H   UNL A   1      31.125  31.243  24.219  1.00  0.00     0.163 HD
BRANCH   4   7
ATOM      7  C   UNL A   1      30.900  27.919  24.555  1.00  0.00     0.039 A 
ATOM      8  C   UNL A   1      30.289  25.599  25.966  1.00  0.00     0.041 A 
ATOM      9  C   UNL A   1      29.568  25.908  24.813  1.00  0.00     0.027 A 
ATOM     10  C   UNL A   1      31.438  26.320  26.287  1.00  0.00     0.027 A 
ATOM     11  C   UNL A   1      29.848  27.093  24.134  1.00  0.00     0.016 A 
ATOM     12  C   UNL A   1      31.767  27.457  25.548  1.00  0.00     0.016 A 
BRANCH   8  13
ATOM     13  N   UNL A   1      29.760  24.618  26.804  1.00  0.00    -0.323 N 
ATOM     14  C   UNL A   1      29.945  23.269  26.792  1.00  0.00     0.248 C 
ATOM     15  O   UNL A   1      29.256  22.563  27.535  1.00  0.00    -0.270 OA
ATOM     16  H   UNL A   1      29.161  24.951  27.512  1.00  0.00     0.170 HD
BRANCH  14  17
ATOM     17  C   UNL A   1      30.985  22.590  25.962  1.00  0.00     0.070 C 
ATOM     18  C   UNL A   1      33.052  22.571  27.468  1.00  0.00     0.039 C 
ATOM     19  C   UNL A   1      32.267  22.256  26.225  1.00  0.00    -0.071 C 
ATOM     20  C   UNL A   1      33.045  21.422  25.236  1.00  0.00     0.039 C 
ENDBRANCH  14  17
ENDBRANCH   8  13
ENDBRANCH   4   7
ENDBRANCH   2   3
ENDBRANCH   1   2
BRANCH   1  21
ATOM     21  C   UNL A   1      32.774  32.583  27.062  1.00  0.00     0.118 C 
BRANCH  21  22
ATOM     22  N   UNL A   1      32.644  33.913  27.640  1.00  0.00    -0.352 N 
ATOM     23  C   UNL A   1      33.288  34.468  28.717  1.00  0.00     0.251 C 
ATOM     24  H   UNL A   1      31.996  34.501  27.191  1.00  0.00     0.163 HD
ATOM     25  O   UNL A   1      32.872  35.534  29.173  1.00  0.00    -0.269 OA
BRANCH  23  26
ATOM     26  C   UNL A   1      34.447  33.793  29.341  1.00  0.00     0.039 A 
ATOM     27  C   UNL A   1      35.736  34.237  29.030  1.00  0.00     0.014 A 
ATOM     28  C   UNL A   1      34.279  32.710  30.210  1.00  0.00     0.014 A 
ATOM     29  C   UNL A   1      36.844  33.641  29.636  1.00  0.00     0.010 A 
ATOM     30  C   UNL A   1      35.381  32.169  30.872  1.00  0.00     0.010 A 
ATOM     31  C   UNL A   1      36.677  32.627  30.594  1.00  0.00    -0.014 A 
BRANCH  31  32
ATOM     32  C   UNL A   1      37.842  32.034  31.305  1.00  0.00     0.031 A 
ATOM     33  C   UNL A   1      38.632  30.921  30.667  1.00  0.00     0.074 A 
ATOM     34  C   UNL A   1      38.163  32.466  32.542  1.00  0.00     0.049 A 
ATOM     35  N   UNL A   1      39.619  30.218  31.160  1.00  0.00    -0.248 NA
ATOM     36  C   UNL A   1      38.244  30.534  29.301  1.00  0.00     0.031 C 
ATOM     37  C   UNL A   1      37.466  33.526  33.275  1.00  0.00     0.029 A 
ATOM     38  N   UNL A   1      39.154  32.068  33.406  1.00  0.00    -0.354 N 
ATOM     39  C   UNL A   1      39.975  29.312  30.167  1.00  0.00     0.074 A 
ATOM     40  C   UNL A   1      39.049  29.506  29.072  1.00  0.00     0.031 C 
ATOM     41  C   UNL A   1      38.067  33.711  34.461  1.00  0.00     0.029 A 
ATOM     42  C   UNL A   1      39.154  32.748  34.604  1.00  0.00     0.049 A 
ATOM     43  H   UNL A   1      39.805  31.361  33.189  1.00  0.00     0.167 HD
ATOM     44  C   UNL A   1      40.997  28.419  30.157  1.00  0.00     0.034 A 
ATOM     45  C   UNL A   1      39.929  32.600  35.697  1.00  0.00     0.034 A 
ATOM     46  C   UNL A   1      41.916  28.234  31.253  1.00  0.00     0.049 A 
ATOM     47  C   UNL A   1      41.012  31.546  35.685  1.00  0.00     0.074 A 
ATOM     48  C   UNL A   1      42.989  27.365  31.339  1.00  0.00     0.029 A 
ATOM     49  N   UNL A   1      41.871  28.928  32.455  1.00  0.00    -0.354 N 
ATOM     50  N   UNL A   1      41.348  30.715  34.725  1.00  0.00    -0.248 NA
ATOM     51  C   UNL A   1      41.827  31.418  36.900  1.00  0.00     0.031 C 
ATOM     52  C   UNL A   1      43.554  27.487  32.612  1.00  0.00     0.029 A 
ATOM     53  C   UNL A   1      42.885  28.490  33.294  1.00  0.00     0.049 A 
ATOM     54  H   UNL A   1      41.216  29.628  32.679  1.00  0.00     0.167 HD
ATOM     55  C   UNL A   1      42.443  30.002  35.208  1.00  0.00     0.074 A 
ATOM     56  C   UNL A   1      42.720  30.513  36.532  1.00  0.00     0.031 C 
ATOM     57  C   UNL A   1      43.157  29.015  34.610  1.00  0.00     0.034 A 
BRANCH  44  58
ATOM     58  C   UNL A   1      41.169  27.571  28.920  1.00  0.00     0.023 A 
ATOM     59  C   UNL A   1      42.185  27.836  27.986  1.00  0.00     0.031 A 
ATOM     60  C   UNL A   1      40.317  26.479  28.673  1.00  0.00     0.131 A 
ATOM     61  C   UNL A   1      42.289  27.061  26.822  1.00  0.00     0.055 A 
ATOM     62  C   UNL A   1      40.475  25.663  27.552  1.00  0.00     0.041 A 
ATOM     63  F   UNL A   1      39.315  26.189  29.518  1.00  0.00    -0.206 F 
ATOM     64  C   UNL A   1      41.458  25.958  26.612  1.00  0.00     0.022 A 
BRANCH  61  65
ATOM     65  S   UNL A   1      43.446  27.589  25.530  1.00  0.00     0.124 S 
ATOM     66  O   UNL A   1      42.534  27.948  24.448  1.00  0.00    -0.237 OA
ATOM     67  O   UNL A   1      44.147  28.698  26.168  1.00  0.00    -0.237 OA
ATOM     68  O   UNL A   1      44.254  26.397  25.286  1.00  0.00    -0.744 OA
ENDBRANCH  61  65
ENDBRANCH  44  58
BRANCH  45  69
ATOM     69  C   UNL A   1      39.716  33.442  36.913  1.00  0.00     0.023 A 
ATOM     70  C   UNL A   1      39.068  32.921  38.044  1.00  0.00     0.031 A 
ATOM     71  C   UNL A   1      40.063  34.805  36.928  1.00  0.00     0.131 A 
ATOM     72  C   UNL A   1      38.710  33.770  39.103  1.00  0.00     0.055 A 
ATOM     73  C   UNL A   1      39.773  35.630  38.016  1.00  0.00     0.041 A 
ATOM     74  F   UNL A   1      40.684  35.361  35.875  1.00  0.00    -0.206 F 
ATOM     75  C   UNL A   1      39.073  35.117  39.104  1.00  0.00     0.022 A 
BRANCH  72  76
ATOM     76  S   UNL A   1      37.630  33.117  40.406  1.00  0.00     0.124 S 
ATOM     77  O   UNL A   1      37.539  34.259  41.311  1.00  0.00    -0.237 OA
ATOM     78  O   UNL A   1      36.421  32.790  39.660  1.00  0.00    -0.237 OA
ATOM     79  O   UNL A   1      38.375  31.970  40.920  1.00  0.00    -0.744 OA
ENDBRANCH  72  76
ENDBRANCH  45  69
BRANCH  57  80
ATOM     80  C   UNL A   1      44.351  28.475  35.362  1.00  0.00     0.023 A 
ATOM     81  C   UNL A   1      44.224  27.465  36.331  1.00  0.00     0.031 A 
ATOM     82  C   UNL A   1      45.634  28.992  35.111  1.00  0.00     0.131 A 
ATOM     83  C   UNL A   1      45.349  27.048  37.058  1.00  0.00     0.055 A 
ATOM     84  C   UNL A   1      46.761  28.525  35.788  1.00  0.00     0.041 A 
ATOM     85  F   UNL A   1      45.815  29.959  34.197  1.00  0.00    -0.206 F 
ATOM     86  C   UNL A   1      46.620  27.557  36.779  1.00  0.00     0.022 A 
BRANCH  83  87
ATOM     87  S   UNL A   1      45.115  25.900  38.443  1.00  0.00     0.124 S 
ATOM     88  O   UNL A   1      46.413  25.958  39.107  1.00  0.00    -0.237 OA
ATOM     89  O   UNL A   1      44.003  26.506  39.166  1.00  0.00    -0.237 OA
ATOM     90  O   UNL A   1      44.808  24.630  37.788  1.00  0.00    -0.744 OA
ENDBRANCH  83  87
ENDBRANCH  57  80
ENDBRANCH  31  32
ENDBRANCH  23  26
ENDBRANCH  21  22
ENDBRANCH   1  21
TORSDOF 15
ENDMDL
MODEL 2
REMARK VINA RESULT:     -12.1      2.252      2.973
REMARK SMILES CC(C)=CC(=O)Nc1ccc(C(=O)NCCCNC(=O)c2ccc(-c3c4nc(c(-c5cc(S(=O)(=O)[O-])ccc5F)c5ccc([nH]5)c(-c5cc(S(=O)(=O)[O-])ccc5F)c5nc(c(-c6cc(S(=O)(=O)[O-])ccc6F)c6ccc3[nH]6)C=C5)C=C4)cc2)cc1
REMARK SMILES IDX 16 1 15 2 14 3 12 4 13 5 11 7 8 8 9 9 85 10 10 11 84 12 7 13
REMARK SMILES IDX 5 14 6 15 4 17 1 18 2 19 3 20 17 21 18 22 19 23 20 25 21 26
REMARK SMILES IDX 22 27 83 28 23 29 82 30 24 31 25 32 26 33 76 34 27 35 81 36
REMARK SMILES IDX 75 37 77 38 28 39 80 40 74 41 73 42 29 44 61 45 41 46 60 47
REMARK SMILES IDX 42 48 45 49 59 50 78 51 43 52 44 53 58 55 79 56 46 57 30 58
REMARK SMILES IDX 31 59 39 60 32 61 38 62 40 63 37 64 33 65 34 66 35 67 36 68
REMARK SMILES IDX 62 69 63 70 71 71 64 72 70 73 72 74 69 75 65 76 66 77 67 78
REMARK SMILES IDX 68 79 47 80 48 81 56 82 49 83 55 84 57 85 54 86 50 87 51 88
REMARK SMILES IDX 52 89 53 90
REMARK H PARENT 14 6 7 16 18 24 77 43 45 54
REMARK Flexibility Score: inf
ROOT
ATOM      1  C   UNL A   1      34.014  28.948  23.569  1.00  0.00     0.042 C 
ENDROOT
BRANCH   1   2
ATOM      2  C   UNL A   1      33.438  27.825  22.710  1.00  0.00     0.118 C 
BRANCH   2   3
ATOM      3  N   UNL A   1      32.106  28.168  22.233  1.00  0.00    -0.352 N 
ATOM      4  C   UNL A   1      30.858  27.703  22.560  1.00  0.00     0.251 C 
ATOM      5  O   UNL A   1      29.884  28.208  22.001  1.00  0.00    -0.269 OA
ATOM      6  H   UNL A   1      32.101  28.870  21.543  1.00  0.00     0.163 HD
BRANCH   4   7
ATOM      7  C   UNL A   1      30.637  26.716  23.648  1.00  0.00     0.039 A 
ATOM      8  C   UNL A   1      30.838  24.971  25.807  1.00  0.00     0.041 A 
ATOM      9  C   UNL A   1      30.690  26.338  26.042  1.00  0.00     0.027 A 
ATOM     10  C   UNL A   1      30.668  24.461  24.521  1.00  0.00     0.027 A 
ATOM     11  C   UNL A   1      30.634  27.212  24.959  1.00  0.00     0.016 A 
ATOM     12  C   UNL A   1      30.521  25.339  23.446  1.00  0.00     0.016 A 
BRANCH   8  13
ATOM     13  N   UNL A   1      31.243  24.179  26.881  1.00  0.00    -0.323 N 
ATOM     14  C   UNL A   1      32.253  23.269  26.962  1.00  0.00     0.248 C 
ATOM     15  O   UNL A   1      32.343  22.563  27.970  1.00  0.00    -0.270 OA
ATOM     16  H   UNL A   1      30.719  24.297  27.707  1.00  0.00     0.170 HD
BRANCH  14  17
ATOM     17  C   UNL A   1      33.302  23.112  25.911  1.00  0.00     0.070 C 
ATOM     18  C   UNL A   1      34.350  25.440  25.743  1.00  0.00     0.039 C 
ATOM     19  C   UNL A   1      34.208  23.980  25.410  1.00  0.00    -0.071 C 
ATOM     20  C   UNL A   1      35.266  23.493  24.450  1.00  0.00     0.039 C 
ENDBRANCH  14  17
ENDBRANCH   8  13
ENDBRANCH   4   7
ENDBRANCH   2   3
ENDBRANCH   1   2
BRANCH   1  21
ATOM     21  C   UNL A   1      33.572  28.874  25.028  1.00  0.00     0.118 C 
BRANCH  21  22
ATOM     22  N   UNL A   1      32.889  30.087  25.456  1.00  0.00    -0.352 N 
ATOM     23  C   UNL A   1      33.092  30.861  26.571  1.00  0.00     0.251 C 
ATOM     24  H   UNL A   1      32.175  30.397  24.855  1.00  0.00     0.163 HD
ATOM     25  O   UNL A   1      32.258  31.723  26.856  1.00  0.00    -0.269 OA
BRANCH  23  26
ATOM     26  C   UNL A   1      34.274  30.654  27.437  1.00  0.00     0.039 A 
ATOM     27  C   UNL A   1      34.423  29.431  28.096  1.00  0.00     0.014 A 
ATOM     28  C   UNL A   1      35.224  31.664  27.626  1.00  0.00     0.014 A 
ATOM     29  C   UNL A   1      35.550  29.198  28.887  1.00  0.00     0.010 A 
ATOM     30  C   UNL A   1      36.385  31.401  28.352  1.00  0.00     0.010 A 
ATOM     31  C   UNL A   1      36.563  30.166  28.993  1.00  0.00    -0.014 A 
BRANCH  31  32
ATOM     32  C   UNL A   1      37.805  29.906  29.770  1.00  0.00     0.031 A 
ATOM     33  C   UNL A   1      38.855  28.971  29.228  1.00  0.00     0.074 A 
ATOM     34  C   UNL A   1      37.971  30.477  30.980  1.00  0.00     0.049 A 
ATOM     35  N   UNL A   1      39.959  28.550  29.791  1.00  0.00    -0.248 NA
ATOM     36  C   UNL A   1      38.620  28.421  27.884  1.00  0.00     0.031 C 
ATOM     37  C   UNL A   1      37.020  31.388  31.623  1.00  0.00     0.029 A 
ATOM     38  N   UNL A   1      38.993  30.375  31.893  1.00  0.00    -0.354 N 
ATOM     39  C   UNL A   1      40.553  27.692  28.872  1.00  0.00     0.074 A 
ATOM     40  C   UNL A   1      39.650  27.597  27.745  1.00  0.00     0.031 C 
ATOM     41  C   UNL A   1      37.515  31.781  32.807  1.00  0.00     0.029 A 
ATOM     42  C   UNL A   1      38.790  31.109  33.040  1.00  0.00     0.049 A 
ATOM     43  H   UNL A   1      39.797  29.828  31.740  1.00  0.00     0.167 HD
ATOM     44  C   UNL A   1      41.753  27.064  28.947  1.00  0.00     0.034 A 
ATOM     45  C   UNL A   1      39.535  31.214  34.158  1.00  0.00     0.034 A 
ATOM     46  C   UNL A   1      42.647  27.166  30.073  1.00  0.00     0.049 A 
ATOM     47  C   UNL A   1      40.832  30.444  34.244  1.00  0.00     0.074 A 
ATOM     48  C   UNL A   1      43.888  26.579  30.244  1.00  0.00     0.029 A 
ATOM     49  N   UNL A   1      42.397  27.903  31.223  1.00  0.00    -0.354 N 
ATOM     50  N   UNL A   1      41.387  29.656  33.351  1.00  0.00    -0.248 NA
ATOM     51  C   UNL A   1      41.608  30.585  35.483  1.00  0.00     0.031 C 
ATOM     52  C   UNL A   1      44.360  26.907  31.519  1.00  0.00     0.029 A 
ATOM     53  C   UNL A   1      43.452  27.767  32.113  1.00  0.00     0.049 A 
ATOM     54  H   UNL A   1      41.590  28.444  31.383  1.00  0.00     0.167 HD
ATOM     55  C   UNL A   1      42.599  29.250  33.908  1.00  0.00     0.074 A 
ATOM     56  C   UNL A   1      42.699  29.892  35.199  1.00  0.00     0.031 C 
ATOM     57  C   UNL A   1      43.544  28.422  33.396  1.00  0.00     0.034 A 
BRANCH  44  58
ATOM     58  C   UNL A   1      42.164  26.204  27.775  1.00  0.00     0.023 A 
ATOM     59  C   UNL A   1      41.769  24.859  27.680  1.00  0.00     0.031 A 
ATOM     60  C   UNL A   1      42.949  26.734  26.736  1.00  0.00     0.131 A 
ATOM     61  C   UNL A   1      42.207  24.072  26.606  1.00  0.00     0.055 A 
ATOM     62  C   UNL A   1      43.316  25.968  25.628  1.00  0.00     0.041 A 
ATOM     63  F   UNL A   1      43.375  28.006  26.781  1.00  0.00    -0.206 F 
ATOM     64  C   UNL A   1      42.955  24.626  25.564  1.00  0.00     0.022 A 
BRANCH  61  65
ATOM     65  S   UNL A   1      41.887  22.289  26.650  1.00  0.00     0.124 S 
ATOM     66  O   UNL A   1      42.649  21.882  27.828  1.00  0.00    -0.237 OA
ATOM     67  O   UNL A   1      40.435  22.231  26.777  1.00  0.00    -0.237 OA
ATOM     68  O   UNL A   1      42.420  21.813  25.376  1.00  0.00    -0.744 OA
ENDBRANCH  61  65
ENDBRANCH  44  58
BRANCH  45  69
ATOM     69  C   UNL A   1      39.087  32.058  35.308  1.00  0.00     0.023 A 
ATOM     70  C   UNL A   1      38.547  31.469  36.463  1.00  0.00     0.031 A 
ATOM     71  C   UNL A   1      39.095  33.461  35.231  1.00  0.00     0.131 A 
ATOM     72  C   UNL A   1      37.962  32.274  37.453  1.00  0.00     0.055 A 
ATOM     73  C   UNL A   1      38.581  34.261  36.254  1.00  0.00     0.041 A 
ATOM     74  F   UNL A   1      39.597  34.082  34.152  1.00  0.00    -0.206 F 
ATOM     75  C   UNL A   1      37.989  33.666  37.364  1.00  0.00     0.022 A 
BRANCH  72  76
ATOM     76  S   UNL A   1      37.029  31.465  38.783  1.00  0.00     0.124 S 
ATOM     77  O   UNL A   1      37.934  31.625  39.916  1.00  0.00    -0.237 OA
ATOM     78  O   UNL A   1      35.806  32.259  38.819  1.00  0.00    -0.237 OA
ATOM     79  O   UNL A   1      36.868  30.096  38.299  1.00  0.00    -0.744 OA
ENDBRANCH  72  76
ENDBRANCH  45  69
BRANCH  57  80
ATOM     80  C   UNL A   1      44.801  28.223  34.210  1.00  0.00     0.023 A 
ATOM     81  C   UNL A   1      44.922  27.182  35.148  1.00  0.00     0.031 A 
ATOM     82  C   UNL A   1      45.889  29.100  34.053  1.00  0.00     0.131 A 
ATOM     83  C   UNL A   1      46.078  27.082  35.935  1.00  0.00     0.055 A 
ATOM     84  C   UNL A   1      47.064  28.954  34.791  1.00  0.00     0.041 A 
ATOM     85  F   UNL A   1      45.828  30.114  33.175  1.00  0.00    -0.206 F 
ATOM     86  C   UNL A   1      47.158  27.949  35.750  1.00  0.00     0.022 A 
BRANCH  83  87
ATOM     87  S   UNL A   1      46.116  25.861  37.277  1.00  0.00     0.124 S 
ATOM     88  O   UNL A   1      46.250  24.608  36.542  1.00  0.00    -0.237 OA
ATOM     89  O   UNL A   1      47.285  26.277  38.044  1.00  0.00    -0.237 OA
ATOM     90  O   UNL A   1      44.833  26.053  37.951  1.00  0.00    -0.744 OA
ENDBRANCH  83  87
ENDBRANCH  57  80
ENDBRANCH  31  32
ENDBRANCH  23  26
ENDBRANCH  21  22
ENDBRANCH   1  21
TORSDOF 15
ENDMDL
MODEL 3
REMARK VINA RESULT:     -12.0      1.596      2.057
REMARK SMILES CC(C)=CC(=O)Nc1ccc(C(=O)NCCCNC(=O)c2ccc(-c3c4nc(c(-c5cc(S(=O)(=O)[O-])ccc5F)c5ccc([nH]5)c(-c5cc(S(=O)(=O)[O-])ccc5F)c5nc(c(-c6cc(S(=O)(=O)[O-])ccc6F)c6ccc3[nH]6)C=C5)C=C4)cc2)cc1
REMARK SMILES IDX 16 1 15 2 14 3 12 4 13 5 11 7 8 8 9 9 85 10 10 11 84 12 7 13
REMARK SMILES IDX 5 14 6 15 4 17 1 18 2 19 3 20 17 21 18 22 19 23 20 25 21 26
REMARK SMILES IDX 22 27 83 28 23 29 82 30 24 31 25 32 26 33 76 34 27 35 81 36
REMARK SMILES IDX 75 37 77 38 28 39 80 40 74 41 73 42 29 44 61 45 41 46 60 47
REMARK SMILES IDX 42 48 45 49 59 50 78 51 43 52 44 53 58 55 79 56 46 57 30 58
REMARK SMILES IDX 31 59 39 60 32 61 38 62 40 63 37 64 33 65 34 66 35 67 36 68
REMARK SMILES IDX 62 69 63 70 71 71 64 72 70 73 72 74 69 75 65 76 66 77 67 78
REMARK SMILES IDX 68 79 47 80 48 81 56 82 49 83 55 84 57 85 54 86 50 87 51 88
REMARK SMILES IDX 52 89 53 90
REMARK H PARENT 14 6 7 16 18 24 77 43 45 54
REMARK Flexibility Score: inf
ROOT
ATOM      1  C   UNL A   1      31.586  32.137  26.735  1.00  0.00     0.042 C 
ENDROOT
BRANCH   1   2
ATOM      2  C   UNL A   1      31.771  30.630  26.573  1.00  0.00     0.118 C 
BRANCH   2   3
ATOM      3  N   UNL A   1      33.109  30.226  26.979  1.00  0.00    -0.352 N 
ATOM      4  C   UNL A   1      33.819  29.066  26.798  1.00  0.00     0.251 C 
ATOM      5  O   UNL A   1      34.968  29.013  27.238  1.00  0.00    -0.269 OA
ATOM      6  H   UNL A   1      33.598  30.918  27.479  1.00  0.00     0.163 HD
BRANCH   4   7
ATOM      7  C   UNL A   1      33.302  27.936  25.985  1.00  0.00     0.039 A 
ATOM      8  C   UNL A   1      32.730  25.474  24.819  1.00  0.00     0.041 A 
ATOM      9  C   UNL A   1      32.137  25.810  26.036  1.00  0.00     0.027 A 
ATOM     10  C   UNL A   1      33.424  26.438  24.091  1.00  0.00     0.027 A 
ATOM     11  C   UNL A   1      32.459  27.024  26.638  1.00  0.00     0.016 A 
ATOM     12  C   UNL A   1      33.669  27.689  24.661  1.00  0.00     0.016 A 
BRANCH   8  13
ATOM     13  N   UNL A   1      32.670  24.137  24.428  1.00  0.00    -0.323 N 
ATOM     14  C   UNL A   1      33.635  23.176  24.455  1.00  0.00     0.248 C 
ATOM     15  O   UNL A   1      33.412  22.088  23.917  1.00  0.00    -0.270 OA
ATOM     16  H   UNL A   1      31.797  23.842  24.080  1.00  0.00     0.170 HD
BRANCH  14  17
ATOM     17  C   UNL A   1      34.944  23.347  25.155  1.00  0.00     0.070 C 
ATOM     18  C   UNL A   1      36.675  23.003  23.303  1.00  0.00     0.039 C 
ATOM     19  C   UNL A   1      36.215  23.317  24.700  1.00  0.00    -0.071 C 
ATOM     20  C   UNL A   1      37.353  23.685  25.622  1.00  0.00     0.039 C 
ENDBRANCH  14  17
ENDBRANCH   8  13
ENDBRANCH   4   7
ENDBRANCH   2   3
ENDBRANCH   1   2
BRANCH   1  21
ATOM     21  C   UNL A   1      32.852  32.851  27.200  1.00  0.00     0.118 C 
BRANCH  21  22
ATOM     22  N   UNL A   1      32.580  34.205  27.660  1.00  0.00    -0.352 N 
ATOM     23  C   UNL A   1      33.108  34.893  28.724  1.00  0.00     0.251 C 
ATOM     24  H   UNL A   1      31.919  34.702  27.128  1.00  0.00     0.163 HD
ATOM     25  O   UNL A   1      32.581  35.952  29.068  1.00  0.00    -0.269 OA
BRANCH  23  26
ATOM     26  C   UNL A   1      34.275  34.366  29.467  1.00  0.00     0.039 A 
ATOM     27  C   UNL A   1      34.055  33.636  30.639  1.00  0.00     0.014 A 
ATOM     28  C   UNL A   1      35.583  34.608  29.037  1.00  0.00     0.014 A 
ATOM     29  C   UNL A   1      35.138  33.096  31.337  1.00  0.00     0.010 A 
ATOM     30  C   UNL A   1      36.656  34.003  29.691  1.00  0.00     0.010 A 
ATOM     31  C   UNL A   1      36.447  33.240  30.849  1.00  0.00    -0.014 A 
BRANCH  31  32
ATOM     32  C   UNL A   1      37.605  32.607  31.538  1.00  0.00     0.031 A 
ATOM     33  C   UNL A   1      38.314  31.437  30.908  1.00  0.00     0.074 A 
ATOM     34  C   UNL A   1      37.991  33.057  32.750  1.00  0.00     0.049 A 
ATOM     35  N   UNL A   1      39.282  30.699  31.389  1.00  0.00    -0.248 NA
ATOM     36  C   UNL A   1      37.860  31.033  29.568  1.00  0.00     0.031 C 
ATOM     37  C   UNL A   1      37.375  34.172  33.474  1.00  0.00     0.029 A 
ATOM     38  N   UNL A   1      38.990  32.633  33.592  1.00  0.00    -0.354 N 
ATOM     39  C   UNL A   1      39.556  29.747  30.412  1.00  0.00     0.074 A 
ATOM     40  C   UNL A   1      38.603  29.958  29.343  1.00  0.00     0.031 C 
ATOM     41  C   UNL A   1      38.025  34.359  34.633  1.00  0.00     0.029 A 
ATOM     42  C   UNL A   1      39.067  33.346  34.768  1.00  0.00     0.049 A 
ATOM     43  H   UNL A   1      39.596  31.888  33.375  1.00  0.00     0.167 HD
ATOM     44  C   UNL A   1      40.530  28.803  30.394  1.00  0.00     0.034 A 
ATOM     45  C   UNL A   1      39.871  33.189  35.838  1.00  0.00     0.034 A 
ATOM     46  C   UNL A   1      41.476  28.602  31.464  1.00  0.00     0.049 A 
ATOM     47  C   UNL A   1      40.898  32.081  35.822  1.00  0.00     0.074 A 
ATOM     48  C   UNL A   1      42.507  27.681  31.540  1.00  0.00     0.029 A 
ATOM     49  N   UNL A   1      41.509  29.331  32.645  1.00  0.00    -0.354 N 
ATOM     50  N   UNL A   1      41.157  31.207  34.876  1.00  0.00    -0.248 NA
ATOM     51  C   UNL A   1      41.748  31.945  37.012  1.00  0.00     0.031 C 
ATOM     52  C   UNL A   1      43.121  27.810  32.789  1.00  0.00     0.029 A 
ATOM     53  C   UNL A   1      42.528  28.865  33.462  1.00  0.00     0.049 A 
ATOM     54  H   UNL A   1      40.899  30.070  32.870  1.00  0.00     0.167 HD
ATOM     55  C   UNL A   1      42.231  30.452  35.343  1.00  0.00     0.074 A 
ATOM     56  C   UNL A   1      42.580  30.985  36.642  1.00  0.00     0.031 C 
ATOM     57  C   UNL A   1      42.873  29.413  34.752  1.00  0.00     0.034 A 
BRANCH  44  58
ATOM     58  C   UNL A   1      40.615  27.912  29.178  1.00  0.00     0.023 A 
ATOM     59  C   UNL A   1      41.553  28.153  28.159  1.00  0.00     0.031 A 
ATOM     60  C   UNL A   1      39.760  26.805  29.037  1.00  0.00     0.131 A 
ATOM     61  C   UNL A   1      41.575  27.337  27.019  1.00  0.00     0.055 A 
ATOM     62  C   UNL A   1      39.840  25.950  27.937  1.00  0.00     0.041 A 
ATOM     63  F   UNL A   1      38.830  26.537  29.967  1.00  0.00    -0.206 F 
ATOM     64  C   UNL A   1      40.743  26.220  26.914  1.00  0.00     0.022 A 
BRANCH  61  65
ATOM     65  S   UNL A   1      42.622  27.829  25.623  1.00  0.00     0.124 S 
ATOM     66  O   UNL A   1      42.606  26.620  24.804  1.00  0.00    -0.237 OA
ATOM     67  O   UNL A   1      41.905  28.977  25.080  1.00  0.00    -0.237 OA
ATOM     68  O   UNL A   1      43.906  28.134  26.248  1.00  0.00    -0.744 OA
ENDBRANCH  61  65
ENDBRANCH  44  58
BRANCH  45  69
ATOM     69  C   UNL A   1      39.744  34.076  37.035  1.00  0.00     0.023 A 
ATOM     70  C   UNL A   1      39.194  33.591  38.233  1.00  0.00     0.031 A 
ATOM     71  C   UNL A   1      40.072  35.441  36.970  1.00  0.00     0.131 A 
ATOM     72  C   UNL A   1      38.911  34.477  39.284  1.00  0.00     0.055 A 
ATOM     73  C   UNL A   1      39.859  36.304  38.047  1.00  0.00     0.041 A 
ATOM     74  F   UNL A   1      40.600  35.963  35.852  1.00  0.00    -0.206 F 
ATOM     75  C   UNL A   1      39.254  35.827  39.206  1.00  0.00     0.022 A 
BRANCH  72  76
ATOM     76  S   UNL A   1      37.946  33.864  40.693  1.00  0.00     0.124 S 
ATOM     77  O   UNL A   1      36.855  33.166  40.021  1.00  0.00    -0.237 OA
ATOM     78  O   UNL A   1      38.919  33.024  41.382  1.00  0.00    -0.237 OA
ATOM     79  O   UNL A   1      37.566  35.085  41.400  1.00  0.00    -0.744 OA
ENDBRANCH  72  76
ENDBRANCH  45  69
BRANCH  57  80
ATOM     80  C   UNL A   1      44.063  28.833  35.479  1.00  0.00     0.023 A 
ATOM     81  C   UNL A   1      43.936  27.754  36.371  1.00  0.00     0.031 A 
ATOM     82  C   UNL A   1      45.343  29.381  35.285  1.00  0.00     0.131 A 
ATOM     83  C   UNL A   1      45.056  27.298  37.081  1.00  0.00     0.055 A 
ATOM     84  C   UNL A   1      46.466  28.880  35.942  1.00  0.00     0.041 A 
ATOM     85  F   UNL A   1      45.524  30.415  34.447  1.00  0.00    -0.206 F 
ATOM     86  C   UNL A   1      46.325  27.841  36.858  1.00  0.00     0.022 A 
BRANCH  83  87
ATOM     87  S   UNL A   1      44.819  26.049  38.376  1.00  0.00     0.124 S 
ATOM     88  O   UNL A   1      44.534  26.875  39.544  1.00  0.00    -0.237 OA
ATOM     89  O   UNL A   1      43.699  25.272  37.857  1.00  0.00    -0.237 OA
ATOM     90  O   UNL A   1      46.099  25.343  38.410  1.00  0.00    -0.744 OA
ENDBRANCH  83  87
ENDBRANCH  57  80
ENDBRANCH  31  32
ENDBRANCH  23  26
ENDBRANCH  21  22
ENDBRANCH   1  21
TORSDOF 15
ENDMDL
