MODEL 1
REMARK VINA RESULT:     -10.7      0.000      0.000
REMARK SMILES CCCC[C@@H](C(=O)NCCCNC(=O)c1ccc(-c2c3nc(c(-c4cc(S(=O)(=O)[O-])ccc4F)c4ccc([nH]4)c(-c4cc(S(=O)(=O)[O-])ccc4F)c4nc(c(-c5cc(S(=O)(=O)[O-])ccc5F)c5ccc2[nH]5)C=C4)C=C3)cc1)[C@H](O)c1ccc(Br)cc1F
REMARK SMILES IDX 10 1 9 2 8 3 6 4 7 5 5 7 4 8 3 9 2 10 1 11 78 12 80 13 81 14
REMARK SMILES IDX 86 15 82 16 85 17 87 18 83 19 84 20 79 21 11 23 12 24 13 25
REMARK SMILES IDX 14 27 15 28 16 29 77 30 17 31 76 32 18 33 19 34 20 35 70 36
REMARK SMILES IDX 21 37 75 38 69 39 71 40 22 41 74 42 68 43 67 44 23 46 55 47
REMARK SMILES IDX 35 48 54 49 36 50 39 51 53 52 72 53 37 54 38 55 52 57 73 58
REMARK SMILES IDX 40 59 24 60 25 61 33 62 26 63 32 64 34 65 31 66 27 67 28 68
REMARK SMILES IDX 29 69 30 70 56 71 57 72 65 73 58 74 64 75 66 76 63 77 59 78
REMARK SMILES IDX 60 79 61 80 62 81 41 82 42 83 50 84 43 85 49 86 51 87 48 88
REMARK SMILES IDX 44 89 45 90 46 91 47 92
REMARK H PARENT 8 6 79 22 12 26 71 45 39 56
REMARK Flexibility Score: inf
ROOT
ATOM      1  C   UNL A   1      33.279  27.991  26.780  1.00  0.00     0.042 C 
ENDROOT
BRANCH   1   2
ATOM      2  C   UNL A   1      31.806  28.221  27.106  1.00  0.00     0.117 C 
BRANCH   2   3
ATOM      3  N   UNL A   1      31.080  26.968  27.024  1.00  0.00    -0.356 N 
ATOM      4  C   UNL A   1      30.472  26.365  25.963  1.00  0.00     0.226 C 
ATOM      5  O   UNL A   1      29.658  25.476  26.230  1.00  0.00    -0.275 OA
ATOM      6  H   UNL A   1      31.016  26.472  27.872  1.00  0.00     0.163 HD
BRANCH   4   7
ATOM      7  C   UNL A   1      30.817  26.736  24.512  1.00  0.00     0.112 C 
BRANCH   7   8
ATOM      8  C   UNL A   1      29.669  27.451  23.762  1.00  0.00     0.016 C 
BRANCH   8   9
ATOM      9  C   UNL A   1      29.721  28.956  23.486  1.00  0.00     0.001 C 
BRANCH   9  10
ATOM     10  C   UNL A   1      29.214  29.441  22.131  1.00  0.00    -0.003 C 
ATOM     11  C   UNL A   1      27.930  30.241  22.243  1.00  0.00     0.004 C 
ENDBRANCH   9  10
ENDBRANCH   8   9
ENDBRANCH   7   8
BRANCH   7  12
ATOM     12  C   UNL A   1      31.315  25.388  23.830  1.00  0.00     0.160 C 
BRANCH  12  13
ATOM     13  C   UNL A   1      32.451  24.548  24.425  1.00  0.00     0.017 A 
ATOM     14  C   UNL A   1      32.233  23.315  25.062  1.00  0.00     0.010 A 
ATOM     15  C   UNL A   1      33.776  25.017  24.428  1.00  0.00     0.130 A 
ATOM     16  C   UNL A   1      33.298  22.504  25.478  1.00  0.00     0.016 A 
ATOM     17  C   UNL A   1      34.845  24.243  24.881  1.00  0.00     0.055 A 
ATOM     18  F   UNL A   1      34.049  26.263  24.010  1.00  0.00    -0.207 F 
ATOM     19  C   UNL A   1      34.604  22.967  25.366  1.00  0.00     0.020 A 
ATOM     20  Br  UNL A   1      36.046  21.870  25.899  1.00  0.00    -0.051 Br
ENDBRANCH  12  13
BRANCH  12  21
ATOM     21  O   UNL A   1      30.116  24.590  23.712  1.00  0.00    -0.387 OA
ATOM     22  H   UNL A   1      29.562  24.720  24.496  1.00  0.00     0.211 HD
ENDBRANCH  12  21
ENDBRANCH   7  12
ENDBRANCH   4   7
ENDBRANCH   2   3
ENDBRANCH   1   2
BRANCH   1  23
ATOM     23  C   UNL A   1      33.910  29.090  25.942  1.00  0.00     0.118 C 
BRANCH  23  24
ATOM     24  N   UNL A   1      33.698  30.403  26.522  1.00  0.00    -0.352 N 
ATOM     25  C   UNL A   1      34.350  31.036  27.555  1.00  0.00     0.251 C 
ATOM     26  H   UNL A   1      32.973  30.926  26.110  1.00  0.00     0.163 HD
ATOM     27  O   UNL A   1      33.846  32.049  28.032  1.00  0.00    -0.269 OA
BRANCH  25  28
ATOM     28  C   UNL A   1      35.623  30.507  28.109  1.00  0.00     0.039 A 
ATOM     29  C   UNL A   1      35.569  29.659  29.219  1.00  0.00     0.014 A 
ATOM     30  C   UNL A   1      36.866  30.870  27.586  1.00  0.00     0.014 A 
ATOM     31  C   UNL A   1      36.749  29.143  29.767  1.00  0.00     0.010 A 
ATOM     32  C   UNL A   1      38.032  30.273  28.063  1.00  0.00     0.010 A 
ATOM     33  C   UNL A   1      37.991  29.419  29.174  1.00  0.00    -0.014 A 
BRANCH  33  34
ATOM     34  C   UNL A   1      39.255  28.857  29.725  1.00  0.00     0.031 A 
ATOM     35  C   UNL A   1      39.918  29.505  30.913  1.00  0.00     0.074 A 
ATOM     36  C   UNL A   1      39.840  27.805  29.116  1.00  0.00     0.049 A 
ATOM     37  N   UNL A   1      41.052  29.208  31.496  1.00  0.00    -0.248 NA
ATOM     38  C   UNL A   1      39.231  30.666  31.498  1.00  0.00     0.031 C 
ATOM     39  C   UNL A   1      39.330  27.131  27.920  1.00  0.00     0.029 A 
ATOM     40  N   UNL A   1      40.996  27.127  29.410  1.00  0.00    -0.354 N 
ATOM     41  C   UNL A   1      41.228  30.163  32.494  1.00  0.00     0.074 A 
ATOM     42  C   UNL A   1      40.116  31.084  32.389  1.00  0.00     0.031 C 
ATOM     43  C   UNL A   1      40.156  26.125  27.596  1.00  0.00     0.029 A 
ATOM     44  C   UNL A   1      41.277  26.107  28.530  1.00  0.00     0.049 A 
ATOM     45  H   UNL A   1      41.570  27.348  30.178  1.00  0.00     0.167 HD
ATOM     46  C   UNL A   1      42.210  30.248  33.426  1.00  0.00     0.034 A 
ATOM     47  C   UNL A   1      42.325  25.262  28.472  1.00  0.00     0.034 A 
ATOM     48  C   UNL A   1      43.295  29.302  33.529  1.00  0.00     0.049 A 
ATOM     49  C   UNL A   1      43.398  25.360  29.524  1.00  0.00     0.074 A 
ATOM     50  C   UNL A   1      44.294  29.235  34.484  1.00  0.00     0.029 A 
ATOM     51  N   UNL A   1      43.534  28.265  32.634  1.00  0.00    -0.354 N 
ATOM     52  N   UNL A   1      43.509  26.218  30.513  1.00  0.00    -0.248 NA
ATOM     53  C   UNL A   1      44.477  24.367  29.464  1.00  0.00     0.031 C 
ATOM     54  C   UNL A   1      45.176  28.209  34.127  1.00  0.00     0.029 A 
ATOM     55  C   UNL A   1      44.685  27.580  32.993  1.00  0.00     0.049 A 
ATOM     56  H   UNL A   1      42.969  28.049  31.858  1.00  0.00     0.167 HD
ATOM     57  C   UNL A   1      44.661  25.855  31.203  1.00  0.00     0.074 A 
ATOM     58  C   UNL A   1      45.196  24.689  30.530  1.00  0.00     0.031 C 
ATOM     59  C   UNL A   1      45.223  26.432  32.298  1.00  0.00     0.034 A 
BRANCH  46  60
ATOM     60  C   UNL A   1      42.164  31.422  34.381  1.00  0.00     0.023 A 
ATOM     61  C   UNL A   1      41.289  31.452  35.483  1.00  0.00     0.031 A 
ATOM     62  C   UNL A   1      42.974  32.551  34.160  1.00  0.00     0.131 A 
ATOM     63  C   UNL A   1      41.172  32.618  36.255  1.00  0.00     0.055 A 
ATOM     64  C   UNL A   1      42.920  33.672  34.991  1.00  0.00     0.041 A 
ATOM     65  F   UNL A   1      43.817  32.594  33.116  1.00  0.00    -0.206 F 
ATOM     66  C   UNL A   1      41.999  33.720  36.034  1.00  0.00     0.022 A 
BRANCH  63  67
ATOM     67  S   UNL A   1      39.798  32.738  37.434  1.00  0.00     0.124 S 
ATOM     68  O   UNL A   1      40.501  32.689  38.713  1.00  0.00    -0.237 OA
ATOM     69  O   UNL A   1      39.194  34.019  37.086  1.00  0.00    -0.237 OA
ATOM     70  O   UNL A   1      38.984  31.561  37.136  1.00  0.00    -0.744 OA
ENDBRANCH  63  67
ENDBRANCH  46  60
BRANCH  47  71
ATOM     71  C   UNL A   1      42.416  24.263  27.367  1.00  0.00     0.023 A 
ATOM     72  C   UNL A   1      41.649  23.087  27.380  1.00  0.00     0.031 A 
ATOM     73  C   UNL A   1      43.279  24.476  26.277  1.00  0.00     0.131 A 
ATOM     74  C   UNL A   1      41.782  22.155  26.339  1.00  0.00     0.055 A 
ATOM     75  C   UNL A   1      43.373  23.568  25.222  1.00  0.00     0.041 A 
ATOM     76  F   UNL A   1      44.027  25.588  26.212  1.00  0.00    -0.206 F 
ATOM     77  C   UNL A   1      42.628  22.394  25.254  1.00  0.00     0.022 A 
BRANCH  74  78
ATOM     78  S   UNL A   1      40.871  20.590  26.449  1.00  0.00     0.124 S 
ATOM     79  O   UNL A   1      40.946  20.300  27.877  1.00  0.00    -0.237 OA
ATOM     80  O   UNL A   1      39.556  20.968  25.939  1.00  0.00    -0.237 OA
ATOM     81  O   UNL A   1      41.635  19.690  25.588  1.00  0.00    -0.744 OA
ENDBRANCH  74  78
ENDBRANCH  47  71
BRANCH  59  82
ATOM     82  C   UNL A   1      46.472  25.784  32.846  1.00  0.00     0.023 A 
ATOM     83  C   UNL A   1      46.412  24.723  33.766  1.00  0.00     0.031 A 
ATOM     84  C   UNL A   1      47.740  26.245  32.450  1.00  0.00     0.131 A 
ATOM     85  C   UNL A   1      47.596  24.195  34.303  1.00  0.00     0.055 A 
ATOM     86  C   UNL A   1      48.916  25.673  32.939  1.00  0.00     0.041 A 
ATOM     87  F   UNL A   1      47.858  27.259  31.579  1.00  0.00    -0.206 F 
ATOM     88  C   UNL A   1      48.848  24.652  33.881  1.00  0.00     0.022 A 
BRANCH  85  89
ATOM     89  S   UNL A   1      47.479  22.972  35.637  1.00  0.00     0.124 S 
ATOM     90  O   UNL A   1      46.410  22.103  35.158  1.00  0.00    -0.237 OA
ATOM     91  O   UNL A   1      48.818  22.391  35.647  1.00  0.00    -0.237 OA
ATOM     92  O   UNL A   1      47.144  23.776  36.811  1.00  0.00    -0.744 OA
ENDBRANCH  85  89
ENDBRANCH  59  82
ENDBRANCH  33  34
ENDBRANCH  25  28
ENDBRANCH  23  24
ENDBRANCH   1  23
TORSDOF 19
ENDMDL
MODEL 2
REMARK VINA RESULT:     -10.6      2.276      3.399
REMARK SMILES CCCC[C@@H](C(=O)NCCCNC(=O)c1ccc(-c2c3nc(c(-c4cc(S(=O)(=O)[O-])ccc4F)c4ccc([nH]4)c(-c4cc(S(=O)(=O)[O-])ccc4F)c4nc(c(-c5cc(S(=O)(=O)[O-])ccc5F)c5ccc2[nH]5)C=C4)C=C3)cc1)[C@H](O)c1ccc(Br)cc1F
REMARK SMILES IDX 10 1 9 2 8 3 6 4 7 5 5 7 4 8 3 9 2 10 1 11 78 12 80 13 81 14
REMARK SMILES IDX 86 15 82 16 85 17 87 18 83 19 84 20 79 21 11 23 12 24 13 25
REMARK SMILES IDX 14 27 15 28 16 29 77 30 17 31 76 32 18 33 19 34 20 35 70 36
REMARK SMILES IDX 21 37 75 38 69 39 71 40 22 41 74 42 68 43 67 44 23 46 55 47
REMARK SMILES IDX 35 48 54 49 36 50 39 51 53 52 72 53 37 54 38 55 52 57 73 58
REMARK SMILES IDX 40 59 24 60 25 61 33 62 26 63 32 64 34 65 31 66 27 67 28 68
REMARK SMILES IDX 29 69 30 70 56 71 57 72 65 73 58 74 64 75 66 76 63 77 59 78
REMARK SMILES IDX 60 79 61 80 62 81 41 82 42 83 50 84 43 85 49 86 51 87 48 88
REMARK SMILES IDX 44 89 45 90 46 91 47 92
REMARK H PARENT 8 6 79 22 12 26 71 45 39 56
REMARK Flexibility Score: inf
ROOT
ATOM      1  C   UNL A   1      33.664  27.999  25.605  1.00  0.00     0.042 C 
ENDROOT
BRANCH   1   2
ATOM      2  C   UNL A   1      33.165  26.574  25.384  1.00  0.00     0.117 C 
BRANCH   2   3
ATOM      3  N   UNL A   1      33.076  26.297  23.963  1.00  0.00    -0.356 N 
ATOM      4  C   UNL A   1      33.550  25.247  23.234  1.00  0.00     0.226 C 
ATOM      5  O   UNL A   1      33.620  25.413  22.013  1.00  0.00    -0.275 OA
ATOM      6  H   UNL A   1      32.596  26.979  23.439  1.00  0.00     0.163 HD
BRANCH   4   7
ATOM      7  C   UNL A   1      33.927  23.910  23.891  1.00  0.00     0.112 C 
BRANCH   7   8
ATOM      8  C   UNL A   1      35.407  23.509  23.682  1.00  0.00     0.016 C 
BRANCH   8   9
ATOM      9  C   UNL A   1      36.358  23.346  24.871  1.00  0.00     0.001 C 
BRANCH   9  10
ATOM     10  C   UNL A   1      37.451  22.287  24.758  1.00  0.00    -0.003 C 
ATOM     11  C   UNL A   1      36.897  20.875  24.771  1.00  0.00     0.004 C 
ENDBRANCH   9  10
ENDBRANCH   8   9
ENDBRANCH   7   8
BRANCH   7  12
ATOM     12  C   UNL A   1      32.873  22.849  23.348  1.00  0.00     0.160 C 
BRANCH  12  13
ATOM     13  C   UNL A   1      32.862  21.395  23.833  1.00  0.00     0.017 A 
ATOM     14  C   UNL A   1      33.376  21.004  25.081  1.00  0.00     0.010 A 
ATOM     15  C   UNL A   1      32.398  20.358  23.007  1.00  0.00     0.130 A 
ATOM     16  C   UNL A   1      33.233  19.694  25.557  1.00  0.00     0.016 A 
ATOM     17  C   UNL A   1      32.292  19.037  23.446  1.00  0.00     0.055 A 
ATOM     18  F   UNL A   1      32.063  20.612  21.732  1.00  0.00    -0.207 F 
ATOM     19  C   UNL A   1      32.672  18.719  24.741  1.00  0.00     0.020 A 
ATOM     20  Br  UNL A   1      32.452  16.958  25.386  1.00  0.00    -0.051 Br
ENDBRANCH  12  13
BRANCH  12  21
ATOM     21  O   UNL A   1      31.591  23.467  23.599  1.00  0.00    -0.387 OA
ATOM     22  H   UNL A   1      31.676  24.430  23.528  1.00  0.00     0.211 HD
ENDBRANCH  12  21
ENDBRANCH   7  12
ENDBRANCH   4   7
ENDBRANCH   2   3
ENDBRANCH   1   2
BRANCH   1  23
ATOM     23  C   UNL A   1      33.377  28.550  26.991  1.00  0.00     0.118 C 
BRANCH  23  24
ATOM     24  N   UNL A   1      33.491  29.997  27.035  1.00  0.00    -0.352 N 
ATOM     25  C   UNL A   1      34.438  30.797  27.628  1.00  0.00     0.251 C 
ATOM     26  H   UNL A   1      32.776  30.482  26.564  1.00  0.00     0.163 HD
ATOM     27  O   UNL A   1      34.203  31.998  27.740  1.00  0.00    -0.269 OA
BRANCH  25  28
ATOM     28  C   UNL A   1      35.711  30.237  28.149  1.00  0.00     0.039 A 
ATOM     29  C   UNL A   1      36.827  30.212  27.307  1.00  0.00     0.014 A 
ATOM     30  C   UNL A   1      35.811  29.692  29.432  1.00  0.00     0.014 A 
ATOM     31  C   UNL A   1      38.042  29.691  27.765  1.00  0.00     0.010 A 
ATOM     32  C   UNL A   1      37.046  29.273  29.924  1.00  0.00     0.010 A 
ATOM     33  C   UNL A   1      38.172  29.245  29.090  1.00  0.00    -0.014 A 
BRANCH  33  34
ATOM     34  C   UNL A   1      39.464  28.714  29.606  1.00  0.00     0.031 A 
ATOM     35  C   UNL A   1      40.147  29.382  30.771  1.00  0.00     0.074 A 
ATOM     36  C   UNL A   1      40.055  27.673  28.984  1.00  0.00     0.049 A 
ATOM     37  N   UNL A   1      41.304  29.114  31.321  1.00  0.00    -0.248 NA
ATOM     38  C   UNL A   1      39.452  30.530  31.372  1.00  0.00     0.031 C 
ATOM     39  C   UNL A   1      39.525  26.982  27.806  1.00  0.00     0.029 A 
ATOM     40  N   UNL A   1      41.234  27.022  29.247  1.00  0.00    -0.354 N 
ATOM     41  C   UNL A   1      41.488  30.076  32.311  1.00  0.00     0.074 A 
ATOM     42  C   UNL A   1      40.354  30.972  32.235  1.00  0.00     0.031 C 
ATOM     43  C   UNL A   1      40.363  25.993  27.462  1.00  0.00     0.029 A 
ATOM     44  C   UNL A   1      41.512  26.004  28.363  1.00  0.00     0.049 A 
ATOM     45  H   UNL A   1      41.825  27.260  29.997  1.00  0.00     0.167 HD
ATOM     46  C   UNL A   1      42.495  30.188  33.213  1.00  0.00     0.034 A 
ATOM     47  C   UNL A   1      42.577  25.183  28.277  1.00  0.00     0.034 A 
ATOM     48  C   UNL A   1      43.604  29.267  33.287  1.00  0.00     0.049 A 
ATOM     49  C   UNL A   1      43.678  25.310  29.296  1.00  0.00     0.074 A 
ATOM     50  C   UNL A   1      44.631  29.227  34.213  1.00  0.00     0.029 A 
ATOM     51  N   UNL A   1      43.839  28.232  32.390  1.00  0.00    -0.354 N 
ATOM     52  N   UNL A   1      43.798  26.175  30.278  1.00  0.00    -0.248 NA
ATOM     53  C   UNL A   1      44.776  24.341  29.208  1.00  0.00     0.031 C 
ATOM     54  C   UNL A   1      45.525  28.219  33.833  1.00  0.00     0.029 A 
ATOM     55  C   UNL A   1      45.016  27.574  32.717  1.00  0.00     0.049 A 
ATOM     56  H   UNL A   1      43.257  28.000  31.632  1.00  0.00     0.167 HD
ATOM     57  C   UNL A   1      44.978  25.841  30.936  1.00  0.00     0.074 A 
ATOM     58  C   UNL A   1      45.519  24.684  30.251  1.00  0.00     0.031 C 
ATOM     59  C   UNL A   1      45.559  26.435  32.011  1.00  0.00     0.034 A 
BRANCH  46  60
ATOM     60  C   UNL A   1      42.451  31.365  34.164  1.00  0.00     0.023 A 
ATOM     61  C   UNL A   1      41.634  31.366  35.310  1.00  0.00     0.031 A 
ATOM     62  C   UNL A   1      43.201  32.524  33.896  1.00  0.00     0.131 A 
ATOM     63  C   UNL A   1      41.510  32.531  36.082  1.00  0.00     0.055 A 
ATOM     64  C   UNL A   1      43.145  33.648  34.724  1.00  0.00     0.041 A 
ATOM     65  F   UNL A   1      43.987  32.596  32.809  1.00  0.00    -0.206 F 
ATOM     66  C   UNL A   1      42.279  33.664  35.813  1.00  0.00     0.022 A 
BRANCH  63  67
ATOM     67  S   UNL A   1      40.195  32.603  37.332  1.00  0.00     0.124 S 
ATOM     68  O   UNL A   1      39.285  31.561  36.863  1.00  0.00    -0.237 OA
ATOM     69  O   UNL A   1      40.917  32.313  38.565  1.00  0.00    -0.237 OA
ATOM     70  O   UNL A   1      39.681  33.966  37.213  1.00  0.00    -0.744 OA
ENDBRANCH  63  67
ENDBRANCH  46  60
BRANCH  47  71
ATOM     71  C   UNL A   1      42.657  24.181  27.174  1.00  0.00     0.023 A 
ATOM     72  C   UNL A   1      42.075  22.909  27.298  1.00  0.00     0.031 A 
ATOM     73  C   UNL A   1      43.322  24.489  25.974  1.00  0.00     0.131 A 
ATOM     74  C   UNL A   1      42.196  21.981  26.252  1.00  0.00     0.055 A 
ATOM     75  C   UNL A   1      43.400  23.578  24.919  1.00  0.00     0.041 A 
ATOM     76  F   UNL A   1      43.888  25.694  25.801  1.00  0.00    -0.206 F 
ATOM     77  C   UNL A   1      42.843  22.312  25.058  1.00  0.00     0.022 A 
BRANCH  74  78
ATOM     78  S   UNL A   1      41.543  20.306  26.493  1.00  0.00     0.124 S 
ATOM     79  O   UNL A   1      40.111  20.515  26.310  1.00  0.00    -0.237 OA
ATOM     80  O   UNL A   1      42.223  19.561  25.438  1.00  0.00    -0.237 OA
ATOM     81  O   UNL A   1      41.957  19.972  27.854  1.00  0.00    -0.744 OA
ENDBRANCH  74  78
ENDBRANCH  47  71
BRANCH  59  82
ATOM     82  C   UNL A   1      46.837  25.818  32.525  1.00  0.00     0.023 A 
ATOM     83  C   UNL A   1      48.084  26.108  31.946  1.00  0.00     0.031 A 
ATOM     84  C   UNL A   1      46.803  24.917  33.604  1.00  0.00     0.131 A 
ATOM     85  C   UNL A   1      49.240  25.461  32.410  1.00  0.00     0.055 A 
ATOM     86  C   UNL A   1      47.965  24.324  34.104  1.00  0.00     0.041 A 
ATOM     87  F   UNL A   1      45.640  24.598  34.193  1.00  0.00    -0.206 F 
ATOM     88  C   UNL A   1      49.189  24.584  33.497  1.00  0.00     0.022 A 
BRANCH  85  89
ATOM     89  S   UNL A   1      50.795  25.700  31.509  1.00  0.00     0.124 S 
ATOM     90  O   UNL A   1      50.355  25.624  30.119  1.00  0.00    -0.237 OA
ATOM     91  O   UNL A   1      51.225  27.016  31.970  1.00  0.00    -0.237 OA
ATOM     92  O   UNL A   1      51.626  24.584  31.956  1.00  0.00    -0.744 OA
ENDBRANCH  85  89
ENDBRANCH  59  82
ENDBRANCH  33  34
ENDBRANCH  25  28
ENDBRANCH  23  24
ENDBRANCH   1  23
TORSDOF 19
ENDMDL
MODEL 3
REMARK VINA RESULT:     -10.5      4.895      9.656
REMARK SMILES CCCC[C@@H](C(=O)NCCCNC(=O)c1ccc(-c2c3nc(c(-c4cc(S(=O)(=O)[O-])ccc4F)c4ccc([nH]4)c(-c4cc(S(=O)(=O)[O-])ccc4F)c4nc(c(-c5cc(S(=O)(=O)[O-])ccc5F)c5ccc2[nH]5)C=C4)C=C3)cc1)[C@H](O)c1ccc(Br)cc1F
REMARK SMILES IDX 10 1 9 2 8 3 6 4 7 5 5 7 4 8 3 9 2 10 1 11 78 12 80 13 81 14
REMARK SMILES IDX 86 15 82 16 85 17 87 18 83 19 84 20 79 21 11 23 12 24 13 25
REMARK SMILES IDX 14 27 15 28 16 29 77 30 17 31 76 32 18 33 19 34 20 35 70 36
REMARK SMILES IDX 21 37 75 38 69 39 71 40 22 41 74 42 68 43 67 44 23 46 55 47
REMARK SMILES IDX 35 48 54 49 36 50 39 51 53 52 72 53 37 54 38 55 52 57 73 58
REMARK SMILES IDX 40 59 24 60 25 61 33 62 26 63 32 64 34 65 31 66 27 67 28 68
REMARK SMILES IDX 29 69 30 70 56 71 57 72 65 73 58 74 64 75 66 76 63 77 59 78
REMARK SMILES IDX 60 79 61 80 62 81 41 82 42 83 50 84 43 85 49 86 51 87 48 88
REMARK SMILES IDX 44 89 45 90 46 91 47 92
REMARK H PARENT 8 6 79 22 12 26 71 45 39 56
REMARK Flexibility Score: inf
ROOT
ATOM      1  C   UNL A   1      36.717  23.154  24.081  1.00  0.00     0.042 C 
ENDROOT
BRANCH   1   2
ATOM      2  C   UNL A   1      35.267  23.337  23.644  1.00  0.00     0.117 C 
BRANCH   2   3
ATOM      3  N   UNL A   1      34.388  23.236  24.794  1.00  0.00    -0.356 N 
ATOM      4  C   UNL A   1      33.596  24.174  25.388  1.00  0.00     0.226 C 
ATOM      5  O   UNL A   1      33.205  23.918  26.530  1.00  0.00    -0.275 OA
ATOM      6  H   UNL A   1      34.360  22.347  25.215  1.00  0.00     0.163 HD
BRANCH   4   7
ATOM      7  C   UNL A   1      33.170  25.456  24.656  1.00  0.00     0.112 C 
BRANCH   7   8
ATOM      8  C   UNL A   1      33.103  26.702  25.570  1.00  0.00     0.016 C 
BRANCH   8   9
ATOM      9  C   UNL A   1      32.042  26.822  26.667  1.00  0.00     0.001 C 
BRANCH   9  10
ATOM     10  C   UNL A   1      31.409  28.192  26.888  1.00  0.00    -0.003 C 
ATOM     11  C   UNL A   1      31.778  29.185  25.803  1.00  0.00     0.004 C 
ENDBRANCH   9  10
ENDBRANCH   8   9
ENDBRANCH   7   8
BRANCH   7  12
ATOM     12  C   UNL A   1      31.803  25.100  23.923  1.00  0.00     0.160 C 
BRANCH  12  13
ATOM     13  C   UNL A   1      30.772  26.176  23.564  1.00  0.00     0.017 A 
ATOM     14  C   UNL A   1      29.430  26.112  23.976  1.00  0.00     0.010 A 
ATOM     15  C   UNL A   1      31.108  27.254  22.728  1.00  0.00     0.130 A 
ATOM     16  C   UNL A   1      28.541  27.172  23.750  1.00  0.00     0.016 A 
ATOM     17  C   UNL A   1      30.221  28.296  22.452  1.00  0.00     0.055 A 
ATOM     18  F   UNL A   1      32.312  27.296  22.136  1.00  0.00    -0.207 F 
ATOM     19  C   UNL A   1      28.949  28.270  23.004  1.00  0.00     0.020 A 
ATOM     20  Br  UNL A   1      27.764  29.713  22.718  1.00  0.00    -0.051 Br
ENDBRANCH  12  13
BRANCH  12  21
ATOM     21  O   UNL A   1      32.215  24.390  22.735  1.00  0.00    -0.387 OA
ATOM     22  H   UNL A   1      32.609  23.541  22.986  1.00  0.00     0.211 HD
ENDBRANCH  12  21
ENDBRANCH   7  12
ENDBRANCH   4   7
ENDBRANCH   2   3
ENDBRANCH   1   2
BRANCH   1  23
ATOM     23  C   UNL A   1      36.911  23.102  25.587  1.00  0.00     0.118 C 
BRANCH  23  24
ATOM     24  N   UNL A   1      37.985  22.202  25.966  1.00  0.00    -0.352 N 
ATOM     25  C   UNL A   1      39.252  22.473  26.425  1.00  0.00     0.251 C 
ATOM     26  H   UNL A   1      37.771  21.245  25.882  1.00  0.00     0.163 HD
ATOM     27  O   UNL A   1      40.072  21.558  26.456  1.00  0.00    -0.269 OA
BRANCH  25  28
ATOM     28  C   UNL A   1      39.647  23.839  26.855  1.00  0.00     0.039 A 
ATOM     29  C   UNL A   1      39.538  24.173  28.209  1.00  0.00     0.014 A 
ATOM     30  C   UNL A   1      40.073  24.809  25.944  1.00  0.00     0.014 A 
ATOM     31  C   UNL A   1      39.901  25.451  28.648  1.00  0.00     0.010 A 
ATOM     32  C   UNL A   1      40.535  26.044  26.396  1.00  0.00     0.010 A 
ATOM     33  C   UNL A   1      40.434  26.389  27.751  1.00  0.00    -0.014 A 
BRANCH  33  34
ATOM     34  C   UNL A   1      40.852  27.745  28.204  1.00  0.00     0.031 A 
ATOM     35  C   UNL A   1      42.315  28.099  28.284  1.00  0.00     0.074 A 
ATOM     36  C   UNL A   1      39.920  28.632  28.607  1.00  0.00     0.049 A 
ATOM     37  N   UNL A   1      42.881  29.197  28.716  1.00  0.00    -0.248 NA
ATOM     38  C   UNL A   1      43.267  27.063  27.857  1.00  0.00     0.031 C 
ATOM     39  C   UNL A   1      38.477  28.385  28.637  1.00  0.00     0.029 A 
ATOM     40  N   UNL A   1      40.046  29.915  29.078  1.00  0.00    -0.354 N 
ATOM     41  C   UNL A   1      44.253  28.973  28.641  1.00  0.00     0.074 A 
ATOM     42  C   UNL A   1      44.427  27.610  28.186  1.00  0.00     0.031 C 
ATOM     43  C   UNL A   1      37.851  29.486  29.082  1.00  0.00     0.029 A 
ATOM     44  C   UNL A   1      38.846  30.502  29.411  1.00  0.00     0.049 A 
ATOM     45  H   UNL A   1      40.913  30.373  29.169  1.00  0.00     0.167 HD
ATOM     46  C   UNL A   1      45.271  29.830  28.902  1.00  0.00     0.034 A 
ATOM     47  C   UNL A   1      38.578  31.714  29.935  1.00  0.00     0.034 A 
ATOM     48  C   UNL A   1      45.074  31.194  29.330  1.00  0.00     0.049 A 
ATOM     49  C   UNL A   1      39.718  32.659  30.204  1.00  0.00     0.074 A 
ATOM     50  C   UNL A   1      46.023  32.180  29.537  1.00  0.00     0.029 A 
ATOM     51  N   UNL A   1      43.842  31.762  29.633  1.00  0.00    -0.354 N 
ATOM     52  N   UNL A   1      41.008  32.461  30.050  1.00  0.00    -0.248 NA
ATOM     53  C   UNL A   1      39.369  33.995  30.699  1.00  0.00     0.031 C 
ATOM     54  C   UNL A   1      45.375  33.316  30.035  1.00  0.00     0.029 A 
ATOM     55  C   UNL A   1      44.012  33.071  30.062  1.00  0.00     0.049 A 
ATOM     56  H   UNL A   1      42.975  31.304  29.554  1.00  0.00     0.167 HD
ATOM     57  C   UNL A   1      41.622  33.657  30.413  1.00  0.00     0.074 A 
ATOM     58  C   UNL A   1      40.559  34.574  30.772  1.00  0.00     0.031 C 
ATOM     59  C   UNL A   1      42.944  33.968  30.442  1.00  0.00     0.034 A 
BRANCH  46  60
ATOM     60  C   UNL A   1      46.683  29.300  28.761  1.00  0.00     0.023 A 
ATOM     61  C   UNL A   1      47.296  29.139  27.505  1.00  0.00     0.031 A 
ATOM     62  C   UNL A   1      47.411  28.904  29.897  1.00  0.00     0.131 A 
ATOM     63  C   UNL A   1      48.545  28.507  27.408  1.00  0.00     0.055 A 
ATOM     64  C   UNL A   1      48.694  28.362  29.801  1.00  0.00     0.041 A 
ATOM     65  F   UNL A   1      46.877  29.013  31.125  1.00  0.00    -0.206 F 
ATOM     66  C   UNL A   1      49.261  28.141  28.549  1.00  0.00     0.022 A 
BRANCH  63  67
ATOM     67  S   UNL A   1      49.136  28.008  25.767  1.00  0.00     0.124 S 
ATOM     68  O   UNL A   1      49.515  26.617  25.999  1.00  0.00    -0.237 OA
ATOM     69  O   UNL A   1      47.960  28.219  24.931  1.00  0.00    -0.237 OA
ATOM     70  O   UNL A   1      50.253  28.916  25.513  1.00  0.00    -0.744 OA
ENDBRANCH  63  67
ENDBRANCH  46  60
BRANCH  47  71
ATOM     71  C   UNL A   1      37.170  32.091  30.254  1.00  0.00     0.023 A 
ATOM     72  C   UNL A   1      36.288  32.536  29.256  1.00  0.00     0.031 A 
ATOM     73  C   UNL A   1      36.688  32.011  31.573  1.00  0.00     0.131 A 
ATOM     74  C   UNL A   1      34.979  32.912  29.597  1.00  0.00     0.055 A 
ATOM     75  C   UNL A   1      35.372  32.342  31.899  1.00  0.00     0.041 A 
ATOM     76  F   UNL A   1      37.488  31.583  32.562  1.00  0.00    -0.206 F 
ATOM     77  C   UNL A   1      34.512  32.805  30.910  1.00  0.00     0.022 A 
BRANCH  74  78
ATOM     78  S   UNL A   1      33.905  33.600  28.307  1.00  0.00     0.124 S 
ATOM     79  O   UNL A   1      34.854  34.366  27.507  1.00  0.00    -0.237 OA
ATOM     80  O   UNL A   1      33.368  32.394  27.686  1.00  0.00    -0.237 OA
ATOM     81  O   UNL A   1      32.937  34.395  29.059  1.00  0.00    -0.744 OA
ENDBRANCH  74  78
ENDBRANCH  47  71
BRANCH  59  82
ATOM     82  C   UNL A   1      43.305  35.375  30.855  1.00  0.00     0.023 A 
ATOM     83  C   UNL A   1      43.456  36.407  29.913  1.00  0.00     0.031 A 
ATOM     84  C   UNL A   1      43.513  35.683  32.212  1.00  0.00     0.131 A 
ATOM     85  C   UNL A   1      43.859  37.684  30.332  1.00  0.00     0.055 A 
ATOM     86  C   UNL A   1      43.852  36.971  32.629  1.00  0.00     0.041 A 
ATOM     87  F   UNL A   1      43.388  34.736  33.155  1.00  0.00    -0.206 F 
ATOM     88  C   UNL A   1      44.041  37.976  31.686  1.00  0.00     0.022 A 
BRANCH  85  89
ATOM     89  S   UNL A   1      44.244  38.933  29.075  1.00  0.00     0.124 S 
ATOM     90  O   UNL A   1      45.487  39.503  29.585  1.00  0.00    -0.237 OA
ATOM     91  O   UNL A   1      44.361  38.130  27.862  1.00  0.00    -0.237 OA
ATOM     92  O   UNL A   1      43.090  39.829  29.116  1.00  0.00    -0.744 OA
ENDBRANCH  85  89
ENDBRANCH  59  82
ENDBRANCH  33  34
ENDBRANCH  25  28
ENDBRANCH  23  24
ENDBRANCH   1  23
TORSDOF 19
ENDMDL
