MODEL 1
REMARK VINA RESULT:     -13.2      0.000      0.000
REMARK SMILES CC1CCN(S(=O)(=O)c2ccc3c(ccn3CC(=O)NCCCNC(=O)c3ccc(-c4c5nc(c(-c6cc(S(=O)(=O)[O-])ccc6F)c6ccc([nH]6)c(-c6cc(S(=O)(=O)[O-])ccc6F)c6nc(c(-c7cc(S(=O)(=O)[O-])ccc7F)c7ccc4[nH]7)C=C6)C=C5)cc3)c2)CC1
REMARK SMILES IDX 22 1 21 2 20 3 18 4 19 5 17 7 16 8 9 9 10 10 90 11 11 12
REMARK SMILES IDX 13 13 12 14 14 15 15 16 6 17 7 18 8 19 5 20 1 21 2 22 3 23
REMARK SMILES IDX 92 24 4 25 91 26 23 27 24 28 25 29 26 31 27 32 28 33 89 34
REMARK SMILES IDX 29 35 88 36 30 37 31 38 32 39 82 40 33 41 87 42 81 43 83 44
REMARK SMILES IDX 34 45 86 46 80 47 79 48 35 50 67 51 47 52 66 53 48 54 51 55
REMARK SMILES IDX 65 56 84 57 49 58 50 59 64 61 85 62 52 63 36 64 37 65 45 66
REMARK SMILES IDX 38 67 44 68 46 69 43 70 39 71 40 72 41 73 42 74 68 75 69 76
REMARK SMILES IDX 77 77 70 78 76 79 78 80 75 81 71 82 72 83 73 84 74 85 53 86
REMARK SMILES IDX 54 87 62 88 55 89 61 90 63 91 60 92 56 93 57 94 58 95 59 96
REMARK H PARENT 20 6 24 30 83 49 51 60
REMARK Flexibility Score: inf
ROOT
ATOM      1  C   UNL A   1      36.803  21.394  24.718  1.00  0.00     0.042 C 
ENDROOT
BRANCH   1   2
ATOM      2  C   UNL A   1      35.614  20.701  25.382  1.00  0.00     0.117 C 
BRANCH   2   3
ATOM      3  N   UNL A   1      35.354  19.379  24.835  1.00  0.00    -0.354 N 
ATOM      4  C   UNL A   1      34.182  18.688  24.727  1.00  0.00     0.239 C 
ATOM      5  O   UNL A   1      34.219  17.562  24.223  1.00  0.00    -0.273 OA
ATOM      6  H   UNL A   1      36.146  18.910  24.488  1.00  0.00     0.163 HD
BRANCH   4   7
ATOM      7  C   UNL A   1      32.867  19.308  25.149  1.00  0.00     0.222 C 
BRANCH   7   8
ATOM      8  N   UNL A   1      32.447  20.407  24.295  1.00  0.00    -0.338 N 
ATOM      9  C   UNL A   1      31.395  24.321  25.033  1.00  0.00     0.083 A 
ATOM     10  C   UNL A   1      31.687  23.546  26.154  1.00  0.00     0.024 A 
ATOM     11  C   UNL A   1      31.431  23.777  23.744  1.00  0.00     0.032 A 
ATOM     12  C   UNL A   1      32.137  22.239  26.014  1.00  0.00     0.028 A 
ATOM     13  C   UNL A   1      31.799  22.425  23.593  1.00  0.00     0.001 A 
ATOM     14  C   UNL A   1      32.156  21.686  24.726  1.00  0.00     0.049 A 
ATOM     15  C   UNL A   1      31.891  21.554  22.475  1.00  0.00     0.028 A 
ATOM     16  C   UNL A   1      32.305  20.324  22.933  1.00  0.00     0.087 A 
BRANCH   9  17
ATOM     17  S   UNL A   1      30.833  25.993  25.276  1.00  0.00     0.243 S 
ATOM     18  O   UNL A   1      31.059  26.274  26.682  1.00  0.00    -0.207 OA
ATOM     19  O   UNL A   1      29.518  26.073  24.691  1.00  0.00    -0.207 OA
BRANCH  17  20
ATOM     20  N   UNL A   1      31.905  26.935  24.320  1.00  0.00    -0.198 NA
ATOM     21  C   UNL A   1      32.000  30.638  26.510  1.00  0.00     0.008 C 
ATOM     22  C   UNL A   1      32.306  29.662  25.374  1.00  0.00    -0.012 C 
ATOM     23  C   UNL A   1      31.026  29.250  24.627  1.00  0.00     0.020 C 
ATOM     24  C   UNL A   1      33.054  28.448  25.929  1.00  0.00     0.020 C 
ATOM     25  C   UNL A   1      31.227  28.092  23.651  1.00  0.00     0.103 C 
ATOM     26  C   UNL A   1      33.210  27.373  24.867  1.00  0.00     0.103 C 
ENDBRANCH  17  20
ENDBRANCH   9  17
ENDBRANCH   7   8
ENDBRANCH   4   7
ENDBRANCH   2   3
ENDBRANCH   1   2
BRANCH   1  27
ATOM     27  C   UNL A   1      37.593  22.303  25.662  1.00  0.00     0.118 C 
BRANCH  27  28
ATOM     28  N   UNL A   1      38.983  21.920  25.830  1.00  0.00    -0.352 N 
ATOM     29  C   UNL A   1      40.064  22.441  26.488  1.00  0.00     0.251 C 
ATOM     30  H   UNL A   1      39.201  21.084  25.356  1.00  0.00     0.163 HD
ATOM     31  O   UNL A   1      41.087  21.750  26.448  1.00  0.00    -0.269 OA
BRANCH  29  32
ATOM     32  C   UNL A   1      40.108  23.759  27.185  1.00  0.00     0.039 A 
ATOM     33  C   UNL A   1      39.089  24.710  27.186  1.00  0.00     0.014 A 
ATOM     34  C   UNL A   1      41.304  24.064  27.865  1.00  0.00     0.014 A 
ATOM     35  C   UNL A   1      39.288  25.957  27.777  1.00  0.00     0.010 A 
ATOM     36  C   UNL A   1      41.500  25.304  28.475  1.00  0.00     0.010 A 
ATOM     37  C   UNL A   1      40.501  26.268  28.399  1.00  0.00    -0.014 A 
BRANCH  37  38
ATOM     38  C   UNL A   1      40.628  27.598  28.995  1.00  0.00     0.031 A 
ATOM     39  C   UNL A   1      41.584  28.529  28.328  1.00  0.00     0.074 A 
ATOM     40  C   UNL A   1      39.898  28.048  30.034  1.00  0.00     0.049 A 
ATOM     41  N   UNL A   1      42.701  28.994  28.785  1.00  0.00    -0.248 NA
ATOM     42  C   UNL A   1      41.292  28.927  26.947  1.00  0.00     0.031 C 
ATOM     43  C   UNL A   1      38.690  27.461  30.614  1.00  0.00     0.029 A 
ATOM     44  N   UNL A   1      40.043  29.216  30.726  1.00  0.00    -0.354 N 
ATOM     45  C   UNL A   1      43.187  29.879  27.820  1.00  0.00     0.074 A 
ATOM     46  C   UNL A   1      42.343  29.699  26.663  1.00  0.00     0.031 C 
ATOM     47  C   UNL A   1      38.087  28.384  31.398  1.00  0.00     0.029 A 
ATOM     48  C   UNL A   1      38.939  29.562  31.486  1.00  0.00     0.049 A 
ATOM     49  H   UNL A   1      40.860  29.764  30.687  1.00  0.00     0.167 HD
ATOM     50  C   UNL A   1      44.145  30.812  28.102  1.00  0.00     0.034 A 
ATOM     51  C   UNL A   1      38.698  30.758  32.075  1.00  0.00     0.034 A 
ATOM     52  C   UNL A   1      44.767  30.564  29.374  1.00  0.00     0.049 A 
ATOM     53  C   UNL A   1      39.945  31.556  32.134  1.00  0.00     0.074 A 
ATOM     54  C   UNL A   1      45.489  29.528  29.933  1.00  0.00     0.029 A 
ATOM     55  N   UNL A   1      44.414  31.374  30.425  1.00  0.00    -0.354 N 
ATOM     56  N   UNL A   1      40.908  31.359  32.985  1.00  0.00    -0.248 NA
ATOM     57  C   UNL A   1      40.306  32.352  30.970  1.00  0.00     0.031 C 
ATOM     58  C   UNL A   1      45.103  29.507  31.305  1.00  0.00     0.029 A 
ATOM     59  C   UNL A   1      44.210  30.558  31.505  1.00  0.00     0.049 A 
ATOM     60  H   UNL A   1      44.325  32.354  30.406  1.00  0.00     0.167 HD
ATOM     61  C   UNL A   1      42.063  31.533  32.239  1.00  0.00     0.074 A 
ATOM     62  C   UNL A   1      41.637  32.287  31.063  1.00  0.00     0.031 C 
ATOM     63  C   UNL A   1      43.192  30.805  32.498  1.00  0.00     0.034 A 
BRANCH  50  64
ATOM     64  C   UNL A   1      44.308  32.141  27.390  1.00  0.00     0.023 A 
ATOM     65  C   UNL A   1      43.619  33.305  27.771  1.00  0.00     0.031 A 
ATOM     66  C   UNL A   1      45.357  32.328  26.461  1.00  0.00     0.131 A 
ATOM     67  C   UNL A   1      43.976  34.566  27.270  1.00  0.00     0.055 A 
ATOM     68  C   UNL A   1      45.759  33.594  26.015  1.00  0.00     0.041 A 
ATOM     69  F   UNL A   1      46.077  31.289  26.008  1.00  0.00    -0.206 F 
ATOM     70  C   UNL A   1      45.069  34.725  26.425  1.00  0.00     0.022 A 
BRANCH  67  71
ATOM     71  S   UNL A   1      43.026  36.038  27.739  1.00  0.00     0.124 S 
ATOM     72  O   UNL A   1      41.925  35.455  28.499  1.00  0.00    -0.237 OA
ATOM     73  O   UNL A   1      44.007  36.789  28.518  1.00  0.00    -0.237 OA
ATOM     74  O   UNL A   1      42.668  36.636  26.456  1.00  0.00    -0.744 OA
ENDBRANCH  67  71
ENDBRANCH  50  64
BRANCH  51  75
ATOM     75  C   UNL A   1      37.384  31.403  32.259  1.00  0.00     0.023 A 
ATOM     76  C   UNL A   1      36.660  31.798  31.121  1.00  0.00     0.031 A 
ATOM     77  C   UNL A   1      36.985  31.913  33.503  1.00  0.00     0.131 A 
ATOM     78  C   UNL A   1      35.617  32.723  31.235  1.00  0.00     0.055 A 
ATOM     79  C   UNL A   1      35.927  32.820  33.618  1.00  0.00     0.041 A 
ATOM     80  F   UNL A   1      37.652  31.587  34.620  1.00  0.00    -0.206 F 
ATOM     81  C   UNL A   1      35.248  33.243  32.477  1.00  0.00     0.022 A 
BRANCH  78  82
ATOM     82  S   UNL A   1      34.775  33.325  29.748  1.00  0.00     0.124 S 
ATOM     83  O   UNL A   1      33.663  34.090  30.307  1.00  0.00    -0.237 OA
ATOM     84  O   UNL A   1      35.825  34.113  29.113  1.00  0.00    -0.237 OA
ATOM     85  O   UNL A   1      34.391  32.099  29.055  1.00  0.00    -0.744 OA
ENDBRANCH  78  82
ENDBRANCH  51  75
BRANCH  63  86
ATOM     86  C   UNL A   1      43.273  30.031  33.792  1.00  0.00     0.023 A 
ATOM     87  C   UNL A   1      42.603  28.797  33.875  1.00  0.00     0.031 A 
ATOM     88  C   UNL A   1      43.908  30.498  34.958  1.00  0.00     0.131 A 
ATOM     89  C   UNL A   1      42.643  28.048  35.056  1.00  0.00     0.055 A 
ATOM     90  C   UNL A   1      44.055  29.692  36.083  1.00  0.00     0.041 A 
ATOM     91  F   UNL A   1      44.355  31.756  35.070  1.00  0.00    -0.206 F 
ATOM     92  C   UNL A   1      43.442  28.447  36.125  1.00  0.00     0.022 A 
BRANCH  89  93
ATOM     93  S   UNL A   1      41.608  26.575  35.239  1.00  0.00     0.124 S 
ATOM     94  O   UNL A   1      40.567  26.774  34.233  1.00  0.00    -0.237 OA
ATOM     95  O   UNL A   1      42.551  25.501  34.936  1.00  0.00    -0.237 OA
ATOM     96  O   UNL A   1      41.149  26.644  36.623  1.00  0.00    -0.744 OA
ENDBRANCH  89  93
ENDBRANCH  63  86
ENDBRANCH  37  38
ENDBRANCH  29  32
ENDBRANCH  27  28
ENDBRANCH   1  27
TORSDOF 16
ENDMDL
MODEL 2
REMARK VINA RESULT:     -13.1      1.536      1.799
REMARK SMILES CC1CCN(S(=O)(=O)c2ccc3c(ccn3CC(=O)NCCCNC(=O)c3ccc(-c4c5nc(c(-c6cc(S(=O)(=O)[O-])ccc6F)c6ccc([nH]6)c(-c6cc(S(=O)(=O)[O-])ccc6F)c6nc(c(-c7cc(S(=O)(=O)[O-])ccc7F)c7ccc4[nH]7)C=C6)C=C5)cc3)c2)CC1
REMARK SMILES IDX 22 1 21 2 20 3 18 4 19 5 17 7 16 8 9 9 10 10 90 11 11 12
REMARK SMILES IDX 13 13 12 14 14 15 15 16 6 17 7 18 8 19 5 20 1 21 2 22 3 23
REMARK SMILES IDX 92 24 4 25 91 26 23 27 24 28 25 29 26 31 27 32 28 33 89 34
REMARK SMILES IDX 29 35 88 36 30 37 31 38 32 39 82 40 33 41 87 42 81 43 83 44
REMARK SMILES IDX 34 45 86 46 80 47 79 48 35 50 67 51 47 52 66 53 48 54 51 55
REMARK SMILES IDX 65 56 84 57 49 58 50 59 64 61 85 62 52 63 36 64 37 65 45 66
REMARK SMILES IDX 38 67 44 68 46 69 43 70 39 71 40 72 41 73 42 74 68 75 69 76
REMARK SMILES IDX 77 77 70 78 76 79 78 80 75 81 71 82 72 83 73 84 74 85 53 86
REMARK SMILES IDX 54 87 62 88 55 89 61 90 63 91 60 92 56 93 57 94 58 95 59 96
REMARK H PARENT 20 6 24 30 83 49 51 60
REMARK Flexibility Score: inf
ROOT
ATOM      1  C   UNL A   1      37.545  20.724  24.977  1.00  0.00     0.042 C 
ENDROOT
BRANCH   1   2
ATOM      2  C   UNL A   1      36.047  20.639  25.262  1.00  0.00     0.117 C 
BRANCH   2   3
ATOM      3  N   UNL A   1      35.453  19.395  24.800  1.00  0.00    -0.354 N 
ATOM      4  C   UNL A   1      34.173  18.937  24.914  1.00  0.00     0.239 C 
ATOM      5  O   UNL A   1      33.911  17.829  24.437  1.00  0.00    -0.273 OA
ATOM      6  H   UNL A   1      36.071  18.790  24.330  1.00  0.00     0.163 HD
BRANCH   4   7
ATOM      7  C   UNL A   1      33.091  19.787  25.544  1.00  0.00     0.222 C 
BRANCH   7   8
ATOM      8  N   UNL A   1      32.577  20.819  24.658  1.00  0.00    -0.338 N 
ATOM      9  C   UNL A   1      31.354  24.708  25.249  1.00  0.00     0.083 A 
ATOM     10  C   UNL A   1      31.734  24.007  26.393  1.00  0.00     0.024 A 
ATOM     11  C   UNL A   1      31.363  24.101  23.988  1.00  0.00     0.032 A 
ATOM     12  C   UNL A   1      32.246  22.719  26.297  1.00  0.00     0.028 A 
ATOM     13  C   UNL A   1      31.795  22.764  23.888  1.00  0.00     0.001 A 
ATOM     14  C   UNL A   1      32.238  22.102  25.038  1.00  0.00     0.049 A 
ATOM     15  C   UNL A   1      31.885  21.842  22.810  1.00  0.00     0.028 A 
ATOM     16  C   UNL A   1      32.382  20.660  23.309  1.00  0.00     0.087 A 
BRANCH   9  17
ATOM     17  S   UNL A   1      30.716  26.360  25.436  1.00  0.00     0.243 S 
ATOM     18  O   UNL A   1      30.893  26.684  26.840  1.00  0.00    -0.207 OA
ATOM     19  O   UNL A   1      29.415  26.370  24.815  1.00  0.00    -0.207 OA
BRANCH  17  20
ATOM     20  N   UNL A   1      31.773  27.323  24.484  1.00  0.00    -0.198 NA
ATOM     21  C   UNL A   1      34.243  29.146  27.500  1.00  0.00     0.008 C 
ATOM     22  C   UNL A   1      33.704  28.865  26.097  1.00  0.00    -0.012 C 
ATOM     23  C   UNL A   1      32.226  29.275  25.971  1.00  0.00     0.020 C 
ATOM     24  C   UNL A   1      33.915  27.389  25.754  1.00  0.00     0.020 C 
ATOM     25  C   UNL A   1      31.560  28.793  24.683  1.00  0.00     0.103 C 
ATOM     26  C   UNL A   1      33.225  27.032  24.448  1.00  0.00     0.103 C 
ENDBRANCH  17  20
ENDBRANCH   9  17
ENDBRANCH   7   8
ENDBRANCH   4   7
ENDBRANCH   2   3
ENDBRANCH   1   2
BRANCH   1  27
ATOM     27  C   UNL A   1      38.253  21.855  25.727  1.00  0.00     0.118 C 
BRANCH  27  28
ATOM     28  N   UNL A   1      39.693  21.701  25.814  1.00  0.00    -0.352 N 
ATOM     29  C   UNL A   1      40.718  22.422  26.362  1.00  0.00     0.251 C 
ATOM     30  H   UNL A   1      40.009  20.880  25.370  1.00  0.00     0.163 HD
ATOM     31  O   UNL A   1      41.833  21.895  26.285  1.00  0.00    -0.269 OA
BRANCH  29  32
ATOM     32  C   UNL A   1      40.600  23.773  26.983  1.00  0.00     0.039 A 
ATOM     33  C   UNL A   1      39.646  24.735  26.654  1.00  0.00     0.014 A 
ATOM     34  C   UNL A   1      41.565  24.098  27.958  1.00  0.00     0.014 A 
ATOM     35  C   UNL A   1      39.703  26.008  27.221  1.00  0.00     0.010 A 
ATOM     36  C   UNL A   1      41.614  25.365  28.541  1.00  0.00     0.010 A 
ATOM     37  C   UNL A   1      40.701  26.336  28.143  1.00  0.00    -0.014 A 
BRANCH  37  38
ATOM     38  C   UNL A   1      40.690  27.692  28.690  1.00  0.00     0.031 A 
ATOM     39  C   UNL A   1      41.708  28.633  28.137  1.00  0.00     0.074 A 
ATOM     40  C   UNL A   1      39.793  28.155  29.582  1.00  0.00     0.049 A 
ATOM     41  N   UNL A   1      42.725  29.159  28.740  1.00  0.00    -0.248 NA
ATOM     42  C   UNL A   1      41.623  28.963  26.711  1.00  0.00     0.031 C 
ATOM     43  C   UNL A   1      38.528  27.545  29.994  1.00  0.00     0.029 A 
ATOM     44  N   UNL A   1      39.790  29.355  30.233  1.00  0.00    -0.354 N 
ATOM     45  C   UNL A   1      43.326  30.023  27.822  1.00  0.00     0.074 A 
ATOM     46  C   UNL A   1      42.680  29.763  26.558  1.00  0.00     0.031 C 
ATOM     47  C   UNL A   1      37.781  28.475  30.633  1.00  0.00     0.029 A 
ATOM     48  C   UNL A   1      38.570  29.687  30.797  1.00  0.00     0.049 A 
ATOM     49  H   UNL A   1      40.584  29.933  30.297  1.00  0.00     0.167 HD
ATOM     50  C   UNL A   1      44.198  31.004  28.205  1.00  0.00     0.034 A 
ATOM     51  C   UNL A   1      38.201  30.897  31.286  1.00  0.00     0.034 A 
ATOM     52  C   UNL A   1      44.620  30.832  29.569  1.00  0.00     0.049 A 
ATOM     53  C   UNL A   1      39.397  31.744  31.500  1.00  0.00     0.074 A 
ATOM     54  C   UNL A   1      45.280  29.848  30.280  1.00  0.00     0.029 A 
ATOM     55  N   UNL A   1      44.082  31.669  30.515  1.00  0.00    -0.354 N 
ATOM     56  N   UNL A   1      40.221  31.619  32.498  1.00  0.00    -0.248 NA
ATOM     57  C   UNL A   1      39.910  32.506  30.372  1.00  0.00     0.031 C 
ATOM     58  C   UNL A   1      44.685  29.867  31.575  1.00  0.00     0.029 A 
ATOM     59  C   UNL A   1      43.738  30.889  31.586  1.00  0.00     0.049 A 
ATOM     60  H   UNL A   1      43.965  32.643  30.437  1.00  0.00     0.167 HD
ATOM     61  C   UNL A   1      41.472  31.809  31.933  1.00  0.00     0.074 A 
ATOM     62  C   UNL A   1      41.211  32.497  30.672  1.00  0.00     0.031 C 
ATOM     63  C   UNL A   1      42.570  31.136  32.397  1.00  0.00     0.034 A 
BRANCH  50  64
ATOM     64  C   UNL A   1      44.427  32.307  27.467  1.00  0.00     0.023 A 
ATOM     65  C   UNL A   1      43.755  33.499  27.788  1.00  0.00     0.031 A 
ATOM     66  C   UNL A   1      45.519  32.442  26.579  1.00  0.00     0.131 A 
ATOM     67  C   UNL A   1      44.167  34.737  27.271  1.00  0.00     0.055 A 
ATOM     68  C   UNL A   1      45.973  33.685  26.118  1.00  0.00     0.041 A 
ATOM     69  F   UNL A   1      46.228  31.372  26.184  1.00  0.00    -0.206 F 
ATOM     70  C   UNL A   1      45.299  34.844  26.470  1.00  0.00     0.022 A 
BRANCH  67  71
ATOM     71  S   UNL A   1      43.238  36.245  27.661  1.00  0.00     0.124 S 
ATOM     72  O   UNL A   1      43.239  36.229  29.120  1.00  0.00    -0.237 OA
ATOM     73  O   UNL A   1      44.068  37.274  27.038  1.00  0.00    -0.237 OA
ATOM     74  O   UNL A   1      41.945  36.024  27.021  1.00  0.00    -0.744 OA
ENDBRANCH  67  71
ENDBRANCH  50  64
BRANCH  51  75
ATOM     75  C   UNL A   1      36.855  31.496  31.235  1.00  0.00     0.023 A 
ATOM     76  C   UNL A   1      36.369  31.963  30.001  1.00  0.00     0.031 A 
ATOM     77  C   UNL A   1      36.186  31.899  32.400  1.00  0.00     0.131 A 
ATOM     78  C   UNL A   1      35.291  32.852  29.958  1.00  0.00     0.055 A 
ATOM     79  C   UNL A   1      35.094  32.772  32.354  1.00  0.00     0.041 A 
ATOM     80  F   UNL A   1      36.618  31.502  33.607  1.00  0.00    -0.206 F 
ATOM     81  C   UNL A   1      34.653  33.267  31.129  1.00  0.00     0.022 A 
BRANCH  78  82
ATOM     82  S   UNL A   1      34.756  33.550  28.374  1.00  0.00     0.124 S 
ATOM     83  O   UNL A   1      35.884  33.242  27.499  1.00  0.00    -0.237 OA
ATOM     84  O   UNL A   1      33.535  32.796  28.116  1.00  0.00    -0.237 OA
ATOM     85  O   UNL A   1      34.577  34.968  28.671  1.00  0.00    -0.744 OA
ENDBRANCH  78  82
ENDBRANCH  51  75
BRANCH  63  86
ATOM     86  C   UNL A   1      42.473  30.419  33.722  1.00  0.00     0.023 A 
ATOM     87  C   UNL A   1      42.936  31.081  34.875  1.00  0.00     0.031 A 
ATOM     88  C   UNL A   1      42.026  29.094  33.878  1.00  0.00     0.131 A 
ATOM     89  C   UNL A   1      42.873  30.453  36.123  1.00  0.00     0.055 A 
ATOM     90  C   UNL A   1      41.844  28.526  35.135  1.00  0.00     0.041 A 
ATOM     91  F   UNL A   1      41.803  28.290  32.829  1.00  0.00    -0.206 F 
ATOM     92  C   UNL A   1      42.245  29.219  36.269  1.00  0.00     0.022 A 
BRANCH  89  93
ATOM     93  S   UNL A   1      43.663  31.209  37.565  1.00  0.00     0.124 S 
ATOM     94  O   UNL A   1      44.737  30.271  37.885  1.00  0.00    -0.237 OA
ATOM     95  O   UNL A   1      44.114  32.490  37.029  1.00  0.00    -0.237 OA
ATOM     96  O   UNL A   1      42.589  31.276  38.552  1.00  0.00    -0.744 OA
ENDBRANCH  89  93
ENDBRANCH  63  86
ENDBRANCH  37  38
ENDBRANCH  29  32
ENDBRANCH  27  28
ENDBRANCH   1  27
TORSDOF 16
ENDMDL
MODEL 3
REMARK VINA RESULT:     -13.1      2.872      9.062
REMARK SMILES CC1CCN(S(=O)(=O)c2ccc3c(ccn3CC(=O)NCCCNC(=O)c3ccc(-c4c5nc(c(-c6cc(S(=O)(=O)[O-])ccc6F)c6ccc([nH]6)c(-c6cc(S(=O)(=O)[O-])ccc6F)c6nc(c(-c7cc(S(=O)(=O)[O-])ccc7F)c7ccc4[nH]7)C=C6)C=C5)cc3)c2)CC1
REMARK SMILES IDX 22 1 21 2 20 3 18 4 19 5 17 7 16 8 9 9 10 10 90 11 11 12
REMARK SMILES IDX 13 13 12 14 14 15 15 16 6 17 7 18 8 19 5 20 1 21 2 22 3 23
REMARK SMILES IDX 92 24 4 25 91 26 23 27 24 28 25 29 26 31 27 32 28 33 89 34
REMARK SMILES IDX 29 35 88 36 30 37 31 38 32 39 82 40 33 41 87 42 81 43 83 44
REMARK SMILES IDX 34 45 86 46 80 47 79 48 35 50 67 51 47 52 66 53 48 54 51 55
REMARK SMILES IDX 65 56 84 57 49 58 50 59 64 61 85 62 52 63 36 64 37 65 45 66
REMARK SMILES IDX 38 67 44 68 46 69 43 70 39 71 40 72 41 73 42 74 68 75 69 76
REMARK SMILES IDX 77 77 70 78 76 79 78 80 75 81 71 82 72 83 73 84 74 85 53 86
REMARK SMILES IDX 54 87 62 88 55 89 61 90 63 91 60 92 56 93 57 94 58 95 59 96
REMARK H PARENT 20 6 24 30 83 49 51 60
REMARK Flexibility Score: inf
ROOT
ATOM      1  C   UNL A   1      32.035  30.691  26.423  1.00  0.00     0.042 C 
ENDROOT
BRANCH   1   2
ATOM      2  C   UNL A   1      31.821  29.646  25.329  1.00  0.00     0.117 C 
BRANCH   2   3
ATOM      3  N   UNL A   1      31.022  30.144  24.221  1.00  0.00    -0.354 N 
ATOM      4  C   UNL A   1      30.057  29.521  23.485  1.00  0.00     0.239 C 
ATOM      5  O   UNL A   1      29.517  30.162  22.579  1.00  0.00    -0.273 OA
ATOM      6  H   UNL A   1      31.205  31.076  23.963  1.00  0.00     0.163 HD
BRANCH   4   7
ATOM      7  C   UNL A   1      29.613  28.111  23.811  1.00  0.00     0.222 C 
BRANCH   7   8
ATOM      8  N   UNL A   1      30.433  27.088  23.183  1.00  0.00    -0.338 N 
ATOM      9  C   UNL A   1      31.624  23.315  24.331  1.00  0.00     0.083 A 
ATOM     10  C   UNL A   1      30.869  24.027  25.262  1.00  0.00     0.024 A 
ATOM     11  C   UNL A   1      31.975  23.877  23.098  1.00  0.00     0.032 A 
ATOM     12  C   UNL A   1      30.342  25.272  24.944  1.00  0.00     0.028 A 
ATOM     13  C   UNL A   1      31.522  25.177  22.798  1.00  0.00     0.001 A 
ATOM     14  C   UNL A   1      30.707  25.845  23.717  1.00  0.00     0.049 A 
ATOM     15  C   UNL A   1      31.721  26.053  21.697  1.00  0.00     0.028 A 
ATOM     16  C   UNL A   1      31.029  27.214  21.954  1.00  0.00     0.087 A 
BRANCH   9  17
ATOM     17  S   UNL A   1      32.262  21.719  24.794  1.00  0.00     0.243 S 
ATOM     18  O   UNL A   1      32.821  21.160  23.576  1.00  0.00    -0.207 OA
ATOM     19  O   UNL A   1      31.210  21.051  25.518  1.00  0.00    -0.207 OA
BRANCH  17  20
ATOM     20  N   UNL A   1      33.529  22.080  25.897  1.00  0.00    -0.198 NA
ATOM     21  C   UNL A   1      36.855  22.685  23.235  1.00  0.00     0.008 C 
ATOM     22  C   UNL A   1      36.122  22.554  24.570  1.00  0.00    -0.012 C 
ATOM     23  C   UNL A   1      35.538  21.142  24.753  1.00  0.00     0.020 C 
ATOM     24  C   UNL A   1      35.040  23.631  24.667  1.00  0.00     0.020 C 
ATOM     25  C   UNL A   1      34.585  21.018  25.941  1.00  0.00     0.103 C 
ATOM     26  C   UNL A   1      34.168  23.416  25.893  1.00  0.00     0.103 C 
ENDBRANCH  17  20
ENDBRANCH   9  17
ENDBRANCH   7   8
ENDBRANCH   4   7
ENDBRANCH   2   3
ENDBRANCH   1   2
BRANCH   1  27
ATOM     27  C   UNL A   1      33.382  30.568  27.139  1.00  0.00     0.118 C 
BRANCH  27  28
ATOM     28  N   UNL A   1      33.838  31.796  27.764  1.00  0.00    -0.352 N 
ATOM     29  C   UNL A   1      35.033  32.260  28.241  1.00  0.00     0.251 C 
ATOM     30  H   UNL A   1      33.112  32.454  27.870  1.00  0.00     0.163 HD
ATOM     31  O   UNL A   1      35.022  33.429  28.640  1.00  0.00    -0.269 OA
BRANCH  29  32
ATOM     32  C   UNL A   1      36.293  31.469  28.355  1.00  0.00     0.039 A 
ATOM     33  C   UNL A   1      36.529  30.231  27.761  1.00  0.00     0.014 A 
ATOM     34  C   UNL A   1      37.305  32.022  29.166  1.00  0.00     0.014 A 
ATOM     35  C   UNL A   1      37.704  29.530  28.032  1.00  0.00     0.010 A 
ATOM     36  C   UNL A   1      38.490  31.333  29.425  1.00  0.00     0.010 A 
ATOM     37  C   UNL A   1      38.674  30.064  28.884  1.00  0.00    -0.014 A 
BRANCH  37  38
ATOM     38  C   UNL A   1      39.877  29.265  29.116  1.00  0.00     0.031 A 
ATOM     39  C   UNL A   1      40.155  28.890  30.534  1.00  0.00     0.074 A 
ATOM     40  C   UNL A   1      40.686  28.794  28.148  1.00  0.00     0.049 A 
ATOM     41  N   UNL A   1      41.127  29.282  31.291  1.00  0.00    -0.248 NA
ATOM     42  C   UNL A   1      39.178  28.032  31.212  1.00  0.00     0.031 C 
ATOM     43  C   UNL A   1      40.436  28.736  26.707  1.00  0.00     0.029 A 
ATOM     44  N   UNL A   1      41.887  28.158  28.284  1.00  0.00    -0.354 N 
ATOM     45  C   UNL A   1      40.990  28.596  32.499  1.00  0.00     0.074 A 
ATOM     46  C   UNL A   1      39.705  27.941  32.434  1.00  0.00     0.031 C 
ATOM     47  C   UNL A   1      41.333  27.897  26.140  1.00  0.00     0.029 A 
ATOM     48  C   UNL A   1      42.298  27.481  27.148  1.00  0.00     0.049 A 
ATOM     49  H   UNL A   1      42.413  28.179  29.116  1.00  0.00     0.167 HD
ATOM     50  C   UNL A   1      42.015  28.484  33.396  1.00  0.00     0.034 A 
ATOM     51  C   UNL A   1      43.304  26.577  27.059  1.00  0.00     0.034 A 
ATOM     52  C   UNL A   1      43.094  29.381  33.080  1.00  0.00     0.049 A 
ATOM     53  C   UNL A   1      44.180  26.672  28.250  1.00  0.00     0.074 A 
ATOM     54  C   UNL A   1      43.234  30.750  32.959  1.00  0.00     0.029 A 
ATOM     55  N   UNL A   1      44.225  28.845  32.516  1.00  0.00    -0.354 N 
ATOM     56  N   UNL A   1      45.066  27.603  28.443  1.00  0.00    -0.248 NA
ATOM     57  C   UNL A   1      43.798  25.930  29.443  1.00  0.00     0.031 C 
ATOM     58  C   UNL A   1      44.174  30.933  31.903  1.00  0.00     0.029 A 
ATOM     59  C   UNL A   1      44.582  29.668  31.482  1.00  0.00     0.049 A 
ATOM     60  H   UNL A   1      44.691  28.026  32.801  1.00  0.00     0.167 HD
ATOM     61  C   UNL A   1      44.954  27.907  29.791  1.00  0.00     0.074 A 
ATOM     62  C   UNL A   1      44.279  26.753  30.378  1.00  0.00     0.031 C 
ATOM     63  C   UNL A   1      45.154  29.181  30.250  1.00  0.00     0.034 A 
BRANCH  50  64
ATOM     64  C   UNL A   1      42.201  27.342  34.376  1.00  0.00     0.023 A 
ATOM     65  C   UNL A   1      42.934  26.182  34.072  1.00  0.00     0.031 A 
ATOM     66  C   UNL A   1      41.851  27.505  35.736  1.00  0.00     0.131 A 
ATOM     67  C   UNL A   1      43.306  25.267  35.068  1.00  0.00     0.055 A 
ATOM     68  C   UNL A   1      42.282  26.628  36.740  1.00  0.00     0.041 A 
ATOM     69  F   UNL A   1      41.136  28.564  36.147  1.00  0.00    -0.206 F 
ATOM     70  C   UNL A   1      43.021  25.503  36.408  1.00  0.00     0.022 A 
BRANCH  67  71
ATOM     71  S   UNL A   1      44.200  23.751  34.628  1.00  0.00     0.124 S 
ATOM     72  O   UNL A   1      43.176  22.995  33.916  1.00  0.00    -0.237 OA
ATOM     73  O   UNL A   1      45.288  24.276  33.806  1.00  0.00    -0.237 OA
ATOM     74  O   UNL A   1      44.609  23.210  35.921  1.00  0.00    -0.744 OA
ENDBRANCH  67  71
ENDBRANCH  50  64
BRANCH  51  75
ATOM     75  C   UNL A   1      43.348  25.390  26.186  1.00  0.00     0.023 A 
ATOM     76  C   UNL A   1      42.509  24.302  26.483  1.00  0.00     0.031 A 
ATOM     77  C   UNL A   1      44.400  25.182  25.282  1.00  0.00     0.131 A 
ATOM     78  C   UNL A   1      42.768  23.042  25.935  1.00  0.00     0.055 A 
ATOM     79  C   UNL A   1      44.644  23.926  24.718  1.00  0.00     0.041 A 
ATOM     80  F   UNL A   1      45.245  26.178  24.978  1.00  0.00    -0.206 F 
ATOM     81  C   UNL A   1      43.835  22.843  25.057  1.00  0.00     0.022 A 
BRANCH  78  82
ATOM     82  S   UNL A   1      41.760  21.617  26.425  1.00  0.00     0.124 S 
ATOM     83  O   UNL A   1      41.863  21.647  27.882  1.00  0.00    -0.237 OA
ATOM     84  O   UNL A   1      40.457  21.975  25.878  1.00  0.00    -0.237 OA
ATOM     85  O   UNL A   1      42.433  20.490  25.785  1.00  0.00    -0.744 OA
ENDBRANCH  78  82
ENDBRANCH  51  75
BRANCH  63  86
ATOM     86  C   UNL A   1      45.796  30.190  29.329  1.00  0.00     0.023 A 
ATOM     87  C   UNL A   1      44.964  30.943  28.479  1.00  0.00     0.031 A 
ATOM     88  C   UNL A   1      47.185  30.376  29.198  1.00  0.00     0.131 A 
ATOM     89  C   UNL A   1      45.515  31.884  27.603  1.00  0.00     0.055 A 
ATOM     90  C   UNL A   1      47.716  31.402  28.423  1.00  0.00     0.041 A 
ATOM     91  F   UNL A   1      48.070  29.545  29.766  1.00  0.00    -0.206 F 
ATOM     92  C   UNL A   1      46.876  32.181  27.640  1.00  0.00     0.022 A 
BRANCH  89  93
ATOM     93  S   UNL A   1      44.477  32.693  26.361  1.00  0.00     0.124 S 
ATOM     94  O   UNL A   1      45.446  33.167  25.376  1.00  0.00    -0.237 OA
ATOM     95  O   UNL A   1      43.634  31.590  25.904  1.00  0.00    -0.237 OA
ATOM     96  O   UNL A   1      43.795  33.743  27.111  1.00  0.00    -0.744 OA
ENDBRANCH  89  93
ENDBRANCH  63  86
ENDBRANCH  37  38
ENDBRANCH  29  32
ENDBRANCH  27  28
ENDBRANCH   1  27
TORSDOF 16
ENDMDL
