MODEL 1
REMARK VINA RESULT:     -11.9      0.000      0.000
REMARK SMILES Cn1ccc(S(=O)(=O)N2CCO[C@H](CC(=O)NCCCNC(=O)c3ccc(-c4c5nc(c(-c6cc(S(=O)(=O)[O-])ccc6F)c6ccc([nH]6)c(-c6cc(S(=O)(=O)[O-])ccc6F)c6nc(c(-c7cc(S(=O)(=O)[O-])ccc7F)c7ccc4[nH]7)C=C6)C=C5)cc3)C2)c1
REMARK SMILES IDX 19 1 18 2 17 3 15 4 16 5 14 7 13 8 9 9 10 10 87 11 11 12
REMARK SMILES IDX 12 13 6 14 7 15 8 16 5 17 1 18 2 19 3 20 88 21 4 22 20 23
REMARK SMILES IDX 21 24 22 25 23 27 24 28 25 29 86 30 26 31 85 32 27 33 28 34
REMARK SMILES IDX 29 35 79 36 30 37 84 38 78 39 80 40 31 41 83 42 77 43 76 44
REMARK SMILES IDX 32 46 64 47 44 48 63 49 45 50 48 51 62 52 81 53 46 54 47 55
REMARK SMILES IDX 61 57 82 58 49 59 33 60 34 61 42 62 35 63 41 64 43 65 40 66
REMARK SMILES IDX 36 67 37 68 38 69 39 70 65 71 66 72 74 73 67 74 73 75 75 76
REMARK SMILES IDX 72 77 68 78 69 79 70 80 71 81 50 82 51 83 59 84 52 85 58 86
REMARK SMILES IDX 60 87 57 88 53 89 54 90 55 91 56 92
REMARK H PARENT 17 6 21 26 80 45 48 56
REMARK Flexibility Score: inf
ROOT
ATOM      1  C   UNL A   1      31.411  32.495  26.705  1.00  0.00     0.042 C 
ENDROOT
BRANCH   1   2
ATOM      2  C   UNL A   1      31.433  31.022  26.310  1.00  0.00     0.117 C 
BRANCH   2   3
ATOM      3  N   UNL A   1      32.635  30.344  26.764  1.00  0.00    -0.356 N 
ATOM      4  C   UNL A   1      32.819  29.040  27.102  1.00  0.00     0.222 C 
ATOM      5  O   UNL A   1      33.918  28.681  27.519  1.00  0.00    -0.275 OA
ATOM      6  H   UNL A   1      33.435  30.913  26.839  1.00  0.00     0.163 HD
BRANCH   4   7
ATOM      7  C   UNL A   1      31.675  28.068  26.974  1.00  0.00     0.133 C 
BRANCH   7   8
ATOM      8  C   UNL A   1      32.169  26.723  26.432  1.00  0.00     0.142 C 
ATOM      9  N   UNL A   1      31.229  26.927  24.194  1.00  0.00    -0.193 NA
ATOM     10  C   UNL A   1      30.319  25.791  24.427  1.00  0.00     0.131 C 
ATOM     11  C   UNL A   1      32.501  26.792  24.924  1.00  0.00     0.135 C 
ATOM     12  C   UNL A   1      30.017  25.747  25.928  1.00  0.00     0.177 C 
ATOM     13  O   UNL A   1      31.216  25.669  26.720  1.00  0.00    -0.375 OA
BRANCH   9  14
ATOM     14  S   UNL A   1      31.120  27.811  22.786  1.00  0.00     0.244 S 
ATOM     15  O   UNL A   1      30.872  26.911  21.682  1.00  0.00    -0.207 OA
ATOM     16  O   UNL A   1      32.153  28.822  22.759  1.00  0.00    -0.207 OA
BRANCH  14  17
ATOM     17  C   UNL A   1      29.658  28.733  22.926  1.00  0.00     0.100 A 
ATOM     18  C   UNL A   1      27.730  31.770  23.317  1.00  0.00     0.149 C 
ATOM     19  N   UNL A   1      28.243  30.430  23.150  1.00  0.00    -0.356 N 
ATOM     20  C   UNL A   1      27.489  29.285  23.149  1.00  0.00     0.086 A 
ATOM     21  C   UNL A   1      29.561  30.111  22.990  1.00  0.00     0.106 A 
ATOM     22  C   UNL A   1      28.345  28.210  23.009  1.00  0.00     0.041 A 
ENDBRANCH  14  17
ENDBRANCH   9  14
ENDBRANCH   7   8
ENDBRANCH   4   7
ENDBRANCH   2   3
ENDBRANCH   1   2
BRANCH   1  23
ATOM     23  C   UNL A   1      32.745  33.031  27.218  1.00  0.00     0.118 C 
BRANCH  23  24
ATOM     24  N   UNL A   1      32.607  34.290  27.934  1.00  0.00    -0.352 N 
ATOM     25  C   UNL A   1      33.278  34.760  29.038  1.00  0.00     0.251 C 
ATOM     26  H   UNL A   1      31.927  34.902  27.572  1.00  0.00     0.163 HD
ATOM     27  O   UNL A   1      32.873  35.778  29.594  1.00  0.00    -0.269 OA
BRANCH  25  28
ATOM     28  C   UNL A   1      34.454  34.037  29.573  1.00  0.00     0.039 A 
ATOM     29  C   UNL A   1      35.727  34.408  29.131  1.00  0.00     0.014 A 
ATOM     30  C   UNL A   1      34.310  32.991  30.489  1.00  0.00     0.014 A 
ATOM     31  C   UNL A   1      36.859  33.787  29.668  1.00  0.00     0.010 A 
ATOM     32  C   UNL A   1      35.440  32.417  31.070  1.00  0.00     0.010 A 
ATOM     33  C   UNL A   1      36.726  32.818  30.674  1.00  0.00    -0.014 A 
BRANCH  33  34
ATOM     34  C   UNL A   1      37.917  32.236  31.348  1.00  0.00     0.031 A 
ATOM     35  C   UNL A   1      38.694  31.126  30.696  1.00  0.00     0.074 A 
ATOM     36  C   UNL A   1      38.248  32.658  32.585  1.00  0.00     0.049 A 
ATOM     37  N   UNL A   1      39.691  30.424  31.173  1.00  0.00    -0.248 NA
ATOM     38  C   UNL A   1      38.279  30.739  29.340  1.00  0.00     0.031 C 
ATOM     39  C   UNL A   1      37.547  33.703  33.338  1.00  0.00     0.029 A 
ATOM     40  N   UNL A   1      39.243  32.250  33.438  1.00  0.00    -0.354 N 
ATOM     41  C   UNL A   1      40.014  29.502  30.183  1.00  0.00     0.074 A 
ATOM     42  C   UNL A   1      39.078  29.709  29.098  1.00  0.00     0.031 C 
ATOM     43  C   UNL A   1      38.139  33.858  34.532  1.00  0.00     0.029 A 
ATOM     44  C   UNL A   1      39.230  32.896  34.653  1.00  0.00     0.049 A 
ATOM     45  H   UNL A   1      39.905  31.561  33.202  1.00  0.00     0.167 HD
ATOM     46  C   UNL A   1      41.009  28.580  30.176  1.00  0.00     0.034 A 
ATOM     47  C   UNL A   1      39.993  32.720  35.750  1.00  0.00     0.034 A 
ATOM     48  C   UNL A   1      41.945  28.396  31.259  1.00  0.00     0.049 A 
ATOM     49  C   UNL A   1      41.077  31.672  35.723  1.00  0.00     0.074 A 
ATOM     50  C   UNL A   1      43.032  27.540  31.321  1.00  0.00     0.029 A 
ATOM     51  N   UNL A   1      41.903  29.069  32.472  1.00  0.00    -0.354 N 
ATOM     52  N   UNL A   1      41.401  30.844  34.759  1.00  0.00    -0.248 NA
ATOM     53  C   UNL A   1      41.901  31.543  36.933  1.00  0.00     0.031 C 
ATOM     54  C   UNL A   1      43.609  27.652  32.592  1.00  0.00     0.029 A 
ATOM     55  C   UNL A   1      42.922  28.625  33.301  1.00  0.00     0.049 A 
ATOM     56  H   UNL A   1      41.244  29.762  32.710  1.00  0.00     0.167 HD
ATOM     57  C   UNL A   1      42.481  30.110  35.238  1.00  0.00     0.074 A 
ATOM     58  C   UNL A   1      42.764  30.606  36.570  1.00  0.00     0.031 C 
ATOM     59  C   UNL A   1      43.180  29.116  34.633  1.00  0.00     0.034 A 
BRANCH  46  60
ATOM     60  C   UNL A   1      41.116  27.681  28.969  1.00  0.00     0.023 A 
ATOM     61  C   UNL A   1      42.092  27.887  27.979  1.00  0.00     0.031 A 
ATOM     62  C   UNL A   1      40.223  26.607  28.804  1.00  0.00     0.131 A 
ATOM     63  C   UNL A   1      42.115  27.069  26.840  1.00  0.00     0.055 A 
ATOM     64  C   UNL A   1      40.296  25.753  27.701  1.00  0.00     0.041 A 
ATOM     65  F   UNL A   1      39.260  26.374  29.709  1.00  0.00    -0.206 F 
ATOM     66  C   UNL A   1      41.239  25.990  26.705  1.00  0.00     0.022 A 
BRANCH  63  67
ATOM     67  S   UNL A   1      43.234  27.507  25.481  1.00  0.00     0.124 S 
ATOM     68  O   UNL A   1      42.335  28.223  24.578  1.00  0.00    -0.237 OA
ATOM     69  O   UNL A   1      44.244  28.317  26.152  1.00  0.00    -0.237 OA
ATOM     70  O   UNL A   1      43.699  26.212  24.988  1.00  0.00    -0.744 OA
ENDBRANCH  63  67
ENDBRANCH  46  60
BRANCH  47  71
ATOM     71  C   UNL A   1      39.748  33.525  36.980  1.00  0.00     0.023 A 
ATOM     72  C   UNL A   1      39.134  32.955  38.106  1.00  0.00     0.031 A 
ATOM     73  C   UNL A   1      40.078  34.890  37.025  1.00  0.00     0.131 A 
ATOM     74  C   UNL A   1      38.826  33.758  39.214  1.00  0.00     0.055 A 
ATOM     75  C   UNL A   1      39.813  35.675  38.149  1.00  0.00     0.041 A 
ATOM     76  F   UNL A   1      40.672  35.481  35.977  1.00  0.00    -0.206 F 
ATOM     77  C   UNL A   1      39.170  35.112  39.248  1.00  0.00     0.022 A 
BRANCH  74  78
ATOM     78  S   UNL A   1      37.885  33.027  40.581  1.00  0.00     0.124 S 
ATOM     79  O   UNL A   1      38.253  31.620  40.478  1.00  0.00    -0.237 OA
ATOM     80  O   UNL A   1      38.418  33.747  41.733  1.00  0.00    -0.237 OA
ATOM     81  O   UNL A   1      36.497  33.337  40.243  1.00  0.00    -0.744 OA
ENDBRANCH  74  78
ENDBRANCH  47  71
BRANCH  59  82
ATOM     82  C   UNL A   1      44.336  28.532  35.404  1.00  0.00     0.023 A 
ATOM     83  C   UNL A   1      44.151  27.496  36.335  1.00  0.00     0.031 A 
ATOM     84  C   UNL A   1      45.635  29.038  35.222  1.00  0.00     0.131 A 
ATOM     85  C   UNL A   1      45.240  27.033  37.089  1.00  0.00     0.055 A 
ATOM     86  C   UNL A   1      46.724  28.536  35.937  1.00  0.00     0.041 A 
ATOM     87  F   UNL A   1      45.866  30.030  34.347  1.00  0.00    -0.206 F 
ATOM     88  C   UNL A   1      46.527  27.537  36.885  1.00  0.00     0.022 A 
BRANCH  85  89
ATOM     89  S   UNL A   1      44.936  25.820  38.404  1.00  0.00     0.124 S 
ATOM     90  O   UNL A   1      44.556  24.636  37.642  1.00  0.00    -0.237 OA
ATOM     91  O   UNL A   1      46.230  25.758  39.076  1.00  0.00    -0.237 OA
ATOM     92  O   UNL A   1      43.860  26.425  39.187  1.00  0.00    -0.744 OA
ENDBRANCH  85  89
ENDBRANCH  59  82
ENDBRANCH  33  34
ENDBRANCH  25  28
ENDBRANCH  23  24
ENDBRANCH   1  23
TORSDOF 16
ENDMDL
MODEL 2
REMARK VINA RESULT:     -11.8      2.112      3.512
REMARK SMILES Cn1ccc(S(=O)(=O)N2CCO[C@H](CC(=O)NCCCNC(=O)c3ccc(-c4c5nc(c(-c6cc(S(=O)(=O)[O-])ccc6F)c6ccc([nH]6)c(-c6cc(S(=O)(=O)[O-])ccc6F)c6nc(c(-c7cc(S(=O)(=O)[O-])ccc7F)c7ccc4[nH]7)C=C6)C=C5)cc3)C2)c1
REMARK SMILES IDX 19 1 18 2 17 3 15 4 16 5 14 7 13 8 9 9 10 10 87 11 11 12
REMARK SMILES IDX 12 13 6 14 7 15 8 16 5 17 1 18 2 19 3 20 88 21 4 22 20 23
REMARK SMILES IDX 21 24 22 25 23 27 24 28 25 29 86 30 26 31 85 32 27 33 28 34
REMARK SMILES IDX 29 35 79 36 30 37 84 38 78 39 80 40 31 41 83 42 77 43 76 44
REMARK SMILES IDX 32 46 64 47 44 48 63 49 45 50 48 51 62 52 81 53 46 54 47 55
REMARK SMILES IDX 61 57 82 58 49 59 33 60 34 61 42 62 35 63 41 64 43 65 40 66
REMARK SMILES IDX 36 67 37 68 38 69 39 70 65 71 66 72 74 73 67 74 73 75 75 76
REMARK SMILES IDX 72 77 68 78 69 79 70 80 71 81 50 82 51 83 59 84 52 85 58 86
REMARK SMILES IDX 60 87 57 88 53 89 54 90 55 91 56 92
REMARK H PARENT 17 6 21 26 80 45 48 56
REMARK Flexibility Score: inf
ROOT
ATOM      1  C   UNL A   1      31.328  31.953  26.545  1.00  0.00     0.042 C 
ENDROOT
BRANCH   1   2
ATOM      2  C   UNL A   1      31.422  30.541  25.976  1.00  0.00     0.117 C 
BRANCH   2   3
ATOM      3  N   UNL A   1      30.883  30.450  24.630  1.00  0.00    -0.356 N 
ATOM      4  C   UNL A   1      30.645  29.351  23.865  1.00  0.00     0.222 C 
ATOM      5  O   UNL A   1      30.232  29.501  22.717  1.00  0.00    -0.275 OA
ATOM      6  H   UNL A   1      30.657  31.311  24.209  1.00  0.00     0.163 HD
BRANCH   4   7
ATOM      7  C   UNL A   1      30.904  27.979  24.430  1.00  0.00     0.133 C 
BRANCH   7   8
ATOM      8  C   UNL A   1      32.177  27.379  23.824  1.00  0.00     0.142 C 
ATOM      9  N   UNL A   1      32.328  25.435  25.285  1.00  0.00    -0.193 NA
ATOM     10  C   UNL A   1      33.587  25.924  25.875  1.00  0.00     0.131 C 
ATOM     11  C   UNL A   1      32.171  25.834  23.876  1.00  0.00     0.135 C 
ATOM     12  C   UNL A   1      33.564  27.454  25.802  1.00  0.00     0.177 C 
ATOM     13  O   UNL A   1      33.359  27.929  24.459  1.00  0.00    -0.375 OA
BRANCH   9  14
ATOM     14  S   UNL A   1      31.595  24.067  25.891  1.00  0.00     0.244 S 
ATOM     15  O   UNL A   1      30.757  23.487  24.867  1.00  0.00    -0.207 OA
ATOM     16  O   UNL A   1      31.133  24.313  27.239  1.00  0.00    -0.207 OA
BRANCH  14  17
ATOM     17  C   UNL A   1      32.871  22.912  26.108  1.00  0.00     0.100 A 
ATOM     18  C   UNL A   1      35.264  20.434  25.002  1.00  0.00     0.149 C 
ATOM     19  N   UNL A   1      34.422  21.375  25.703  1.00  0.00    -0.356 N 
ATOM     20  C   UNL A   1      34.378  21.543  27.063  1.00  0.00     0.086 A 
ATOM     21  C   UNL A   1      33.527  22.218  25.109  1.00  0.00     0.106 A 
ATOM     22  C   UNL A   1      33.422  22.498  27.346  1.00  0.00     0.041 A 
ENDBRANCH  14  17
ENDBRANCH   9  14
ENDBRANCH   7   8
ENDBRANCH   4   7
ENDBRANCH   2   3
ENDBRANCH   1   2
BRANCH   1  23
ATOM     23  C   UNL A   1      32.659  32.534  27.015  1.00  0.00     0.118 C 
BRANCH  23  24
ATOM     24  N   UNL A   1      32.512  33.835  27.649  1.00  0.00    -0.352 N 
ATOM     25  C   UNL A   1      33.188  34.385  28.711  1.00  0.00     0.251 C 
ATOM     26  H   UNL A   1      31.819  34.413  27.255  1.00  0.00     0.163 HD
ATOM     27  O   UNL A   1      32.776  35.432  29.204  1.00  0.00    -0.269 OA
BRANCH  25  28
ATOM     28  C   UNL A   1      34.380  33.715  29.277  1.00  0.00     0.039 A 
ATOM     29  C   UNL A   1      35.643  34.249  29.005  1.00  0.00     0.014 A 
ATOM     30  C   UNL A   1      34.265  32.560  30.056  1.00  0.00     0.014 A 
ATOM     31  C   UNL A   1      36.781  33.675  29.581  1.00  0.00     0.010 A 
ATOM     32  C   UNL A   1      35.392  32.027  30.680  1.00  0.00     0.010 A 
ATOM     33  C   UNL A   1      36.660  32.586  30.457  1.00  0.00    -0.014 A 
BRANCH  33  34
ATOM     34  C   UNL A   1      37.840  32.040  31.178  1.00  0.00     0.031 A 
ATOM     35  C   UNL A   1      38.683  30.964  30.552  1.00  0.00     0.074 A 
ATOM     36  C   UNL A   1      38.103  32.463  32.431  1.00  0.00     0.049 A 
ATOM     37  N   UNL A   1      39.683  30.292  31.066  1.00  0.00    -0.248 NA
ATOM     38  C   UNL A   1      38.341  30.574  29.176  1.00  0.00     0.031 C 
ATOM     39  C   UNL A   1      37.335  33.476  33.160  1.00  0.00     0.029 A 
ATOM     40  N   UNL A   1      39.074  32.082  33.323  1.00  0.00    -0.354 N 
ATOM     41  C   UNL A   1      40.080  29.391  30.085  1.00  0.00     0.074 A 
ATOM     42  C   UNL A   1      39.185  29.575  28.962  1.00  0.00     0.031 C 
ATOM     43  C   UNL A   1      37.869  33.641  34.381  1.00  0.00     0.029 A 
ATOM     44  C   UNL A   1      38.986  32.716  34.542  1.00  0.00     0.049 A 
ATOM     45  H   UNL A   1      39.770  31.418  33.111  1.00  0.00     0.167 HD
ATOM     46  C   UNL A   1      41.106  28.503  30.114  1.00  0.00     0.034 A 
ATOM     47  C   UNL A   1      39.707  32.556  35.669  1.00  0.00     0.034 A 
ATOM     48  C   UNL A   1      42.001  28.343  31.235  1.00  0.00     0.049 A 
ATOM     49  C   UNL A   1      40.827  31.547  35.682  1.00  0.00     0.074 A 
ATOM     50  C   UNL A   1      43.114  27.525  31.338  1.00  0.00     0.029 A 
ATOM     51  N   UNL A   1      41.883  29.003  32.450  1.00  0.00    -0.354 N 
ATOM     52  N   UNL A   1      41.221  30.740  34.726  1.00  0.00    -0.248 NA
ATOM     53  C   UNL A   1      41.603  31.436  36.925  1.00  0.00     0.031 C 
ATOM     54  C   UNL A   1      43.631  27.646  32.633  1.00  0.00     0.029 A 
ATOM     55  C   UNL A   1      42.880  28.587  33.319  1.00  0.00     0.049 A 
ATOM     56  H   UNL A   1      41.191  29.671  32.664  1.00  0.00     0.167 HD
ATOM     57  C   UNL A   1      42.305  30.040  35.246  1.00  0.00     0.074 A 
ATOM     58  C   UNL A   1      42.513  30.533  36.592  1.00  0.00     0.031 C 
ATOM     59  C   UNL A   1      43.064  29.076  34.664  1.00  0.00     0.034 A 
BRANCH  46  60
ATOM     60  C   UNL A   1      41.296  27.620  28.906  1.00  0.00     0.023 A 
ATOM     61  C   UNL A   1      42.289  27.883  27.948  1.00  0.00     0.031 A 
ATOM     62  C   UNL A   1      40.466  26.502  28.708  1.00  0.00     0.131 A 
ATOM     63  C   UNL A   1      42.390  27.075  26.805  1.00  0.00     0.055 A 
ATOM     64  C   UNL A   1      40.617  25.661  27.603  1.00  0.00     0.041 A 
ATOM     65  F   UNL A   1      39.490  26.213  29.582  1.00  0.00    -0.206 F 
ATOM     66  C   UNL A   1      41.576  25.953  26.638  1.00  0.00     0.022 A 
BRANCH  63  67
ATOM     67  S   UNL A   1      43.525  27.580  25.483  1.00  0.00     0.124 S 
ATOM     68  O   UNL A   1      44.255  28.672  26.123  1.00  0.00    -0.237 OA
ATOM     69  O   UNL A   1      44.285  26.360  25.237  1.00  0.00    -0.237 OA
ATOM     70  O   UNL A   1      42.631  27.987  24.400  1.00  0.00    -0.744 OA
ENDBRANCH  63  67
ENDBRANCH  46  60
BRANCH  47  71
ATOM     71  C   UNL A   1      39.381  33.342  36.893  1.00  0.00     0.023 A 
ATOM     72  C   UNL A   1      40.024  34.561  37.160  1.00  0.00     0.031 A 
ATOM     73  C   UNL A   1      38.460  32.857  37.837  1.00  0.00     0.131 A 
ATOM     74  C   UNL A   1      39.771  35.232  38.366  1.00  0.00     0.055 A 
ATOM     75  C   UNL A   1      38.176  33.554  39.013  1.00  0.00     0.041 A 
ATOM     76  F   UNL A   1      37.814  31.700  37.624  1.00  0.00    -0.206 F 
ATOM     77  C   UNL A   1      38.845  34.743  39.290  1.00  0.00     0.022 A 
BRANCH  74  78
ATOM     78  S   UNL A   1      40.742  36.715  38.753  1.00  0.00     0.124 S 
ATOM     79  O   UNL A   1      41.633  36.798  37.602  1.00  0.00    -0.237 OA
ATOM     80  O   UNL A   1      39.705  37.739  38.836  1.00  0.00    -0.237 OA
ATOM     81  O   UNL A   1      41.386  36.380  40.020  1.00  0.00    -0.744 OA
ENDBRANCH  74  78
ENDBRANCH  47  71
BRANCH  59  82
ATOM     82  C   UNL A   1      44.205  28.525  35.480  1.00  0.00     0.023 A 
ATOM     83  C   UNL A   1      44.028  27.441  36.357  1.00  0.00     0.031 A 
ATOM     84  C   UNL A   1      45.481  29.110  35.397  1.00  0.00     0.131 A 
ATOM     85  C   UNL A   1      45.096  27.009  37.157  1.00  0.00     0.055 A 
ATOM     86  C   UNL A   1      46.554  28.641  36.156  1.00  0.00     0.041 A 
ATOM     87  F   UNL A   1      45.703  30.151  34.578  1.00  0.00    -0.206 F 
ATOM     88  C   UNL A   1      46.361  27.593  37.051  1.00  0.00     0.022 A 
BRANCH  85  89
ATOM     89  S   UNL A   1      44.788  25.725  38.402  1.00  0.00     0.124 S 
ATOM     90  O   UNL A   1      44.140  26.484  39.466  1.00  0.00    -0.237 OA
ATOM     91  O   UNL A   1      43.937  24.786  37.678  1.00  0.00    -0.237 OA
ATOM     92  O   UNL A   1      46.126  25.228  38.721  1.00  0.00    -0.744 OA
ENDBRANCH  85  89
ENDBRANCH  59  82
ENDBRANCH  33  34
ENDBRANCH  25  28
ENDBRANCH  23  24
ENDBRANCH   1  23
TORSDOF 16
ENDMDL
MODEL 3
REMARK VINA RESULT:     -11.8      1.800      2.991
REMARK SMILES Cn1ccc(S(=O)(=O)N2CCO[C@H](CC(=O)NCCCNC(=O)c3ccc(-c4c5nc(c(-c6cc(S(=O)(=O)[O-])ccc6F)c6ccc([nH]6)c(-c6cc(S(=O)(=O)[O-])ccc6F)c6nc(c(-c7cc(S(=O)(=O)[O-])ccc7F)c7ccc4[nH]7)C=C6)C=C5)cc3)C2)c1
REMARK SMILES IDX 19 1 18 2 17 3 15 4 16 5 14 7 13 8 9 9 10 10 87 11 11 12
REMARK SMILES IDX 12 13 6 14 7 15 8 16 5 17 1 18 2 19 3 20 88 21 4 22 20 23
REMARK SMILES IDX 21 24 22 25 23 27 24 28 25 29 86 30 26 31 85 32 27 33 28 34
REMARK SMILES IDX 29 35 79 36 30 37 84 38 78 39 80 40 31 41 83 42 77 43 76 44
REMARK SMILES IDX 32 46 64 47 44 48 63 49 45 50 48 51 62 52 81 53 46 54 47 55
REMARK SMILES IDX 61 57 82 58 49 59 33 60 34 61 42 62 35 63 41 64 43 65 40 66
REMARK SMILES IDX 36 67 37 68 38 69 39 70 65 71 66 72 74 73 67 74 73 75 75 76
REMARK SMILES IDX 72 77 68 78 69 79 70 80 71 81 50 82 51 83 59 84 52 85 58 86
REMARK SMILES IDX 60 87 57 88 53 89 54 90 55 91 56 92
REMARK H PARENT 17 6 21 26 80 45 48 56
REMARK Flexibility Score: inf
ROOT
ATOM      1  C   UNL A   1      31.142  32.004  26.189  1.00  0.00     0.042 C 
ENDROOT
BRANCH   1   2
ATOM      2  C   UNL A   1      31.203  30.722  25.366  1.00  0.00     0.117 C 
BRANCH   2   3
ATOM      3  N   UNL A   1      30.224  30.705  24.293  1.00  0.00    -0.356 N 
ATOM      4  C   UNL A   1      30.102  29.847  23.245  1.00  0.00     0.222 C 
ATOM      5  O   UNL A   1      29.223  30.048  22.409  1.00  0.00    -0.275 OA
ATOM      6  H   UNL A   1      29.548  31.420  24.331  1.00  0.00     0.163 HD
BRANCH   4   7
ATOM      7  C   UNL A   1      31.050  28.684  23.119  1.00  0.00     0.133 C 
BRANCH   7   8
ATOM      8  C   UNL A   1      30.307  27.432  22.642  1.00  0.00     0.142 C 
ATOM      9  N   UNL A   1      31.392  25.841  24.133  1.00  0.00    -0.193 NA
ATOM     10  C   UNL A   1      32.019  25.141  22.998  1.00  0.00     0.131 C 
ATOM     11  C   UNL A   1      30.083  26.419  23.789  1.00  0.00     0.135 C 
ATOM     12  C   UNL A   1      32.220  26.169  21.880  1.00  0.00     0.177 C 
ATOM     13  O   UNL A   1      30.990  26.823  21.518  1.00  0.00    -0.375 OA
BRANCH   9  14
ATOM     14  S   UNL A   1      31.769  25.405  25.697  1.00  0.00     0.244 S 
ATOM     15  O   UNL A   1      32.881  24.481  25.674  1.00  0.00    -0.207 OA
ATOM     16  O   UNL A   1      30.557  25.157  26.444  1.00  0.00    -0.207 OA
BRANCH  14  17
ATOM     17  C   UNL A   1      32.413  26.835  26.437  1.00  0.00     0.100 A 
ATOM     18  C   UNL A   1      35.000  29.253  27.182  1.00  0.00     0.149 C 
ATOM     19  N   UNL A   1      33.803  28.456  27.049  1.00  0.00    -0.356 N 
ATOM     20  C   UNL A   1      32.629  28.666  27.725  1.00  0.00     0.086 A 
ATOM     21  C   UNL A   1      33.678  27.360  26.244  1.00  0.00     0.106 A 
ATOM     22  C   UNL A   1      31.742  27.672  27.362  1.00  0.00     0.041 A 
ENDBRANCH  14  17
ENDBRANCH   9  14
ENDBRANCH   7   8
ENDBRANCH   4   7
ENDBRANCH   2   3
ENDBRANCH   1   2
BRANCH   1  23
ATOM     23  C   UNL A   1      32.400  32.291  27.005  1.00  0.00     0.118 C 
BRANCH  23  24
ATOM     24  N   UNL A   1      32.474  33.672  27.456  1.00  0.00    -0.352 N 
ATOM     25  C   UNL A   1      33.341  34.271  28.339  1.00  0.00     0.251 C 
ATOM     26  H   UNL A   1      31.797  34.273  27.069  1.00  0.00     0.163 HD
ATOM     27  O   UNL A   1      33.109  35.415  28.720  1.00  0.00    -0.269 OA
BRANCH  25  28
ATOM     28  C   UNL A   1      34.523  33.542  28.850  1.00  0.00     0.039 A 
ATOM     29  C   UNL A   1      35.797  34.035  28.552  1.00  0.00     0.014 A 
ATOM     30  C   UNL A   1      34.387  32.371  29.602  1.00  0.00     0.014 A 
ATOM     31  C   UNL A   1      36.929  33.404  29.076  1.00  0.00     0.010 A 
ATOM     32  C   UNL A   1      35.512  31.780  30.176  1.00  0.00     0.010 A 
ATOM     33  C   UNL A   1      36.793  32.297  29.928  1.00  0.00    -0.014 A 
BRANCH  33  34
ATOM     34  C   UNL A   1      37.973  31.688  30.597  1.00  0.00     0.031 A 
ATOM     35  C   UNL A   1      38.784  30.633  29.898  1.00  0.00     0.074 A 
ATOM     36  C   UNL A   1      38.264  32.035  31.867  1.00  0.00     0.049 A 
ATOM     37  N   UNL A   1      39.778  29.914  30.356  1.00  0.00    -0.248 NA
ATOM     38  C   UNL A   1      38.413  30.329  28.508  1.00  0.00     0.031 C 
ATOM     39  C   UNL A   1      37.528  33.019  32.665  1.00  0.00     0.029 A 
ATOM     40  N   UNL A   1      39.241  31.585  32.720  1.00  0.00    -0.354 N 
ATOM     41  C   UNL A   1      40.141  29.062  29.319  1.00  0.00     0.074 A 
ATOM     42  C   UNL A   1      39.232  29.327  28.223  1.00  0.00     0.031 C 
ATOM     43  C   UNL A   1      38.085  33.105  33.884  1.00  0.00     0.029 A 
ATOM     44  C   UNL A   1      39.185  32.151  33.974  1.00  0.00     0.049 A 
ATOM     45  H   UNL A   1      39.920  30.921  32.459  1.00  0.00     0.167 HD
ATOM     46  C   UNL A   1      41.149  28.155  29.281  1.00  0.00     0.034 A 
ATOM     47  C   UNL A   1      39.921  31.914  35.078  1.00  0.00     0.034 A 
ATOM     48  C   UNL A   1      42.058  27.913  30.376  1.00  0.00     0.049 A 
ATOM     49  C   UNL A   1      41.020  30.884  35.015  1.00  0.00     0.074 A 
ATOM     50  C   UNL A   1      43.155  27.069  30.414  1.00  0.00     0.029 A 
ATOM     51  N   UNL A   1      41.973  28.507  31.628  1.00  0.00    -0.354 N 
ATOM     52  N   UNL A   1      41.382  30.124  34.009  1.00  0.00    -0.248 NA
ATOM     53  C   UNL A   1      41.813  30.688  36.236  1.00  0.00     0.031 C 
ATOM     54  C   UNL A   1      43.695  27.107  31.705  1.00  0.00     0.029 A 
ATOM     55  C   UNL A   1      42.975  28.022  32.455  1.00  0.00     0.049 A 
ATOM     56  H   UNL A   1      41.298  29.174  31.891  1.00  0.00     0.167 HD
ATOM     57  C   UNL A   1      42.460  29.375  34.471  1.00  0.00     0.074 A 
ATOM     58  C   UNL A   1      42.699  29.787  35.838  1.00  0.00     0.031 C 
ATOM     59  C   UNL A   1      43.190  28.431  33.822  1.00  0.00     0.034 A 
BRANCH  46  60
ATOM     60  C   UNL A   1      41.302  27.337  28.023  1.00  0.00     0.023 A 
ATOM     61  C   UNL A   1      40.940  25.981  27.974  1.00  0.00     0.031 A 
ATOM     62  C   UNL A   1      41.825  27.924  26.857  1.00  0.00     0.131 A 
ATOM     63  C   UNL A   1      41.160  25.240  26.803  1.00  0.00     0.055 A 
ATOM     64  C   UNL A   1      41.977  27.198  25.672  1.00  0.00     0.041 A 
ATOM     65  F   UNL A   1      42.204  29.211  26.850  1.00  0.00    -0.206 F 
ATOM     66  C   UNL A   1      41.654  25.845  25.645  1.00  0.00     0.022 A 
BRANCH  63  67
ATOM     67  S   UNL A   1      40.897  23.445  26.850  1.00  0.00     0.124 S 
ATOM     68  O   UNL A   1      41.300  23.125  28.217  1.00  0.00    -0.237 OA
ATOM     69  O   UNL A   1      39.473  23.327  26.558  1.00  0.00    -0.237 OA
ATOM     70  O   UNL A   1      41.792  22.941  25.809  1.00  0.00    -0.744 OA
ENDBRANCH  63  67
ENDBRANCH  46  60
BRANCH  47  71
ATOM     71  C   UNL A   1      39.631  32.635  36.349  1.00  0.00     0.023 A 
ATOM     72  C   UNL A   1      38.687  32.139  37.261  1.00  0.00     0.031 A 
ATOM     73  C   UNL A   1      40.257  33.858  36.643  1.00  0.00     0.131 A 
ATOM     74  C   UNL A   1      38.360  32.886  38.403  1.00  0.00     0.055 A 
ATOM     75  C   UNL A   1      39.964  34.575  37.805  1.00  0.00     0.041 A 
ATOM     76  F   UNL A   1      41.172  34.372  35.806  1.00  0.00    -0.206 F 
ATOM     77  C   UNL A   1      38.999  34.095  38.687  1.00  0.00     0.022 A 
BRANCH  74  78
ATOM     78  S   UNL A   1      37.019  32.296  39.472  1.00  0.00     0.124 S 
ATOM     79  O   UNL A   1      35.837  32.708  38.724  1.00  0.00    -0.237 OA
ATOM     80  O   UNL A   1      37.281  30.861  39.518  1.00  0.00    -0.237 OA
ATOM     81  O   UNL A   1      37.244  33.009  40.727  1.00  0.00    -0.744 OA
ENDBRANCH  74  78
ENDBRANCH  47  71
BRANCH  59  82
ATOM     82  C   UNL A   1      44.332  27.813  34.587  1.00  0.00     0.023 A 
ATOM     83  C   UNL A   1      44.172  26.620  35.313  1.00  0.00     0.031 A 
ATOM     84  C   UNL A   1      45.590  28.441  34.609  1.00  0.00     0.131 A 
ATOM     85  C   UNL A   1      45.239  26.119  36.075  1.00  0.00     0.055 A 
ATOM     86  C   UNL A   1      46.662  27.908  35.326  1.00  0.00     0.041 A 
ATOM     87  F   UNL A   1      45.794  29.584  33.936  1.00  0.00    -0.206 F 
ATOM     88  C   UNL A   1      46.486  26.748  36.074  1.00  0.00     0.022 A 
BRANCH  85  89
ATOM     89  S   UNL A   1      44.948  24.677  37.137  1.00  0.00     0.124 S 
ATOM     90  O   UNL A   1      44.285  23.755  36.222  1.00  0.00    -0.237 OA
ATOM     91  O   UNL A   1      46.302  24.310  37.542  1.00  0.00    -0.237 OA
ATOM     92  O   UNL A   1      44.103  25.204  38.207  1.00  0.00    -0.744 OA
ENDBRANCH  85  89
ENDBRANCH  59  82
ENDBRANCH  33  34
ENDBRANCH  25  28
ENDBRANCH  23  24
ENDBRANCH   1  23
TORSDOF 16
ENDMDL
