MODEL 1
REMARK VINA RESULT:     -14.0      0.000      0.000
REMARK SMILES Cc1cc(C(=O)NCCCNC(=O)c2ccc(-c3c4nc(c(-c5cc(S(=O)(=O)[O-])ccc5F)c5ccc([nH]5)c(-c5cc(S(=O)(=O)[O-])ccc5F)c5nc(c(-c6cc(S(=O)(=O)[O-])ccc6F)c6ccc3[nH]6)C=C5)C=C4)cc2)ccc1NS(=O)(=O)c1ccc2c(c1)CCC2
REMARK SMILES IDX 9 1 8 2 7 3 5 4 6 5 4 7 1 8 2 9 3 10 79 11 78 12 77 13 80 14
REMARK SMILES IDX 81 16 82 17 83 18 84 19 85 20 89 21 86 22 88 23 87 24 90 25
REMARK SMILES IDX 92 26 91 27 10 28 11 29 12 30 13 32 14 33 15 34 76 35 16 36
REMARK SMILES IDX 75 37 17 38 18 39 19 40 69 41 20 42 74 43 68 44 70 45 21 46
REMARK SMILES IDX 73 47 67 48 66 49 22 51 54 52 34 53 53 54 35 55 38 56 52 57
REMARK SMILES IDX 71 58 36 59 37 60 51 62 72 63 39 64 23 65 24 66 32 67 25 68
REMARK SMILES IDX 31 69 33 70 30 71 26 72 27 73 28 74 29 75 55 76 56 77 64 78
REMARK SMILES IDX 57 79 63 80 65 81 62 82 58 83 59 84 60 85 61 86 40 87 41 88
REMARK SMILES IDX 49 89 42 90 48 91 50 92 47 93 43 94 44 95 45 96 46 97
REMARK H PARENT 7 6 80 15 11 31 70 50 38 61
REMARK Flexibility Score: inf
ROOT
ATOM      1  C   UNL A   1      32.009  30.454  26.482  1.00  0.00     0.042 C 
ENDROOT
BRANCH   1   2
ATOM      2  C   UNL A   1      31.568  29.463  25.415  1.00  0.00     0.118 C 
BRANCH   2   3
ATOM      3  N   UNL A   1      31.077  30.072  24.187  1.00  0.00    -0.352 N 
ATOM      4  C   UNL A   1      30.448  29.455  23.124  1.00  0.00     0.251 C 
ATOM      5  O   UNL A   1      30.167  30.070  22.100  1.00  0.00    -0.269 OA
ATOM      6  H   UNL A   1      31.210  31.045  24.105  1.00  0.00     0.163 HD
BRANCH   4   7
ATOM      7  C   UNL A   1      30.239  27.987  23.169  1.00  0.00     0.040 A 
ATOM      8  C   UNL A   1      32.397  24.937  22.611  1.00  0.00     0.046 C 
ATOM      9  C   UNL A   1      31.297  25.811  23.143  1.00  0.00    -0.026 A 
ATOM     10  C   UNL A   1      31.291  27.162  22.770  1.00  0.00     0.019 A 
ATOM     11  C   UNL A   1      30.283  25.343  23.999  1.00  0.00     0.052 A 
ATOM     12  C   UNL A   1      29.101  26.079  24.111  1.00  0.00     0.028 A 
ATOM     13  C   UNL A   1      29.081  27.416  23.697  1.00  0.00     0.016 A 
BRANCH  11  14
ATOM     14  N   UNL A   1      30.636  24.304  24.913  1.00  0.00    -0.279 N 
ATOM     15  H   UNL A   1      30.545  23.389  24.563  1.00  0.00     0.180 HD
BRANCH  14  16
ATOM     16  S   UNL A   1      31.178  24.409  26.485  1.00  0.00     0.261 S 
ATOM     17  O   UNL A   1      31.340  25.825  26.809  1.00  0.00    -0.201 OA
ATOM     18  O   UNL A   1      30.281  23.583  27.245  1.00  0.00    -0.201 OA
BRANCH  16  19
ATOM     19  C   UNL A   1      32.793  23.663  26.637  1.00  0.00     0.088 A 
ATOM     20  C   UNL A   1      33.015  22.476  27.347  1.00  0.00     0.022 A 
ATOM     21  C   UNL A   1      33.816  24.224  25.856  1.00  0.00     0.026 A 
ATOM     22  C   UNL A   1      34.159  21.716  27.088  1.00  0.00     0.005 A 
ATOM     23  C   UNL A   1      34.973  23.488  25.666  1.00  0.00    -0.043 A 
ATOM     24  C   UNL A   1      35.100  22.209  26.207  1.00  0.00    -0.045 A 
ATOM     25  C   UNL A   1      36.195  23.833  24.878  1.00  0.00     0.036 C 
ATOM     26  C   UNL A   1      36.317  21.511  25.683  1.00  0.00     0.036 C 
ATOM     27  C   UNL A   1      36.694  22.430  24.508  1.00  0.00     0.010 C 
ENDBRANCH  16  19
ENDBRANCH  14  16
ENDBRANCH  11  14
ENDBRANCH   4   7
ENDBRANCH   2   3
ENDBRANCH   1   2
BRANCH   1  28
ATOM     28  C   UNL A   1      33.254  30.014  27.242  1.00  0.00     0.118 C 
BRANCH  28  29
ATOM     29  N   UNL A   1      33.879  31.111  27.998  1.00  0.00    -0.352 N 
ATOM     30  C   UNL A   1      35.144  31.188  28.557  1.00  0.00     0.251 C 
ATOM     31  H   UNL A   1      33.314  31.908  28.128  1.00  0.00     0.163 HD
ATOM     32  O   UNL A   1      35.567  32.201  29.104  1.00  0.00    -0.269 OA
BRANCH  30  33
ATOM     33  C   UNL A   1      36.042  30.032  28.363  1.00  0.00     0.039 A 
ATOM     34  C   UNL A   1      36.378  29.314  29.514  1.00  0.00     0.014 A 
ATOM     35  C   UNL A   1      36.828  29.982  27.217  1.00  0.00     0.014 A 
ATOM     36  C   UNL A   1      37.665  28.803  29.627  1.00  0.00     0.010 A 
ATOM     37  C   UNL A   1      38.134  29.547  27.362  1.00  0.00     0.010 A 
ATOM     38  C   UNL A   1      38.574  29.051  28.598  1.00  0.00    -0.014 A 
BRANCH  38  39
ATOM     39  C   UNL A   1      40.017  28.980  28.810  1.00  0.00     0.031 A 
ATOM     40  C   UNL A   1      40.800  27.889  28.208  1.00  0.00     0.074 A 
ATOM     41  C   UNL A   1      40.662  29.896  29.569  1.00  0.00     0.049 A 
ATOM     42  N   UNL A   1      41.868  27.391  28.733  1.00  0.00    -0.248 NA
ATOM     43  C   UNL A   1      40.402  27.241  26.968  1.00  0.00     0.031 C 
ATOM     44  C   UNL A   1      42.106  30.055  29.727  1.00  0.00     0.029 A 
ATOM     45  N   UNL A   1      40.117  30.716  30.553  1.00  0.00    -0.354 N 
ATOM     46  C   UNL A   1      42.451  26.582  27.789  1.00  0.00     0.074 A 
ATOM     47  C   UNL A   1      41.465  26.468  26.737  1.00  0.00     0.031 C 
ATOM     48  C   UNL A   1      42.349  30.682  30.887  1.00  0.00     0.029 A 
ATOM     49  C   UNL A   1      41.083  30.853  31.571  1.00  0.00     0.049 A 
ATOM     50  H   UNL A   1      39.221  31.125  30.541  1.00  0.00     0.167 HD
ATOM     51  C   UNL A   1      43.754  26.207  27.927  1.00  0.00     0.034 A 
ATOM     52  C   UNL A   1      40.803  30.472  32.850  1.00  0.00     0.034 A 
ATOM     53  C   UNL A   1      44.357  26.728  29.157  1.00  0.00     0.049 A 
ATOM     54  C   UNL A   1      41.651  29.309  33.340  1.00  0.00     0.074 A 
ATOM     55  C   UNL A   1      45.238  27.761  29.442  1.00  0.00     0.029 A 
ATOM     56  N   UNL A   1      43.853  26.318  30.382  1.00  0.00    -0.354 N 
ATOM     57  N   UNL A   1      42.619  28.749  32.667  1.00  0.00    -0.248 NA
ATOM     58  C   UNL A   1      41.387  28.618  34.602  1.00  0.00     0.031 C 
ATOM     59  C   UNL A   1      45.249  27.966  30.853  1.00  0.00     0.029 A 
ATOM     60  C   UNL A   1      44.392  27.045  31.429  1.00  0.00     0.049 A 
ATOM     61  H   UNL A   1      43.191  25.598  30.493  1.00  0.00     0.167 HD
ATOM     62  C   UNL A   1      43.033  27.608  33.316  1.00  0.00     0.074 A 
ATOM     63  C   UNL A   1      42.230  27.575  34.526  1.00  0.00     0.031 C 
ATOM     64  C   UNL A   1      43.956  26.744  32.787  1.00  0.00     0.034 A 
BRANCH  51  65
ATOM     65  C   UNL A   1      44.548  25.606  26.789  1.00  0.00     0.023 A 
ATOM     66  C   UNL A   1      44.387  24.245  26.470  1.00  0.00     0.031 A 
ATOM     67  C   UNL A   1      45.500  26.299  26.016  1.00  0.00     0.131 A 
ATOM     68  C   UNL A   1      45.228  23.608  25.539  1.00  0.00     0.055 A 
ATOM     69  C   UNL A   1      46.393  25.653  25.151  1.00  0.00     0.041 A 
ATOM     70  F   UNL A   1      45.571  27.638  26.024  1.00  0.00    -0.206 F 
ATOM     71  C   UNL A   1      46.271  24.293  24.921  1.00  0.00     0.022 A 
BRANCH  68  72
ATOM     72  S   UNL A   1      44.924  21.869  25.123  1.00  0.00     0.124 S 
ATOM     73  O   UNL A   1      46.195  21.241  25.465  1.00  0.00    -0.237 OA
ATOM     74  O   UNL A   1      43.789  21.545  25.981  1.00  0.00    -0.237 OA
ATOM     75  O   UNL A   1      44.623  21.911  23.693  1.00  0.00    -0.744 OA
ENDBRANCH  68  72
ENDBRANCH  51  65
BRANCH  52  76
ATOM     76  C   UNL A   1      39.376  30.737  33.209  1.00  0.00     0.023 A 
ATOM     77  C   UNL A   1      38.997  32.089  33.381  1.00  0.00     0.031 A 
ATOM     78  C   UNL A   1      38.366  29.800  32.961  1.00  0.00     0.131 A 
ATOM     79  C   UNL A   1      37.678  32.492  33.120  1.00  0.00     0.055 A 
ATOM     80  C   UNL A   1      37.037  30.198  32.777  1.00  0.00     0.041 A 
ATOM     81  F   UNL A   1      38.663  28.510  32.749  1.00  0.00    -0.206 F 
ATOM     82  C   UNL A   1      36.699  31.552  32.800  1.00  0.00     0.022 A 
BRANCH  79  83
ATOM     83  S   UNL A   1      37.319  34.262  32.908  1.00  0.00     0.124 S 
ATOM     84  O   UNL A   1      35.865  34.298  32.985  1.00  0.00    -0.237 OA
ATOM     85  O   UNL A   1      38.036  34.874  34.022  1.00  0.00    -0.237 OA
ATOM     86  O   UNL A   1      37.890  34.580  31.599  1.00  0.00    -0.744 OA
ENDBRANCH  79  83
ENDBRANCH  52  76
BRANCH  64  87
ATOM     87  C   UNL A   1      44.478  25.503  33.490  1.00  0.00     0.023 A 
ATOM     88  C   UNL A   1      45.185  25.558  34.703  1.00  0.00     0.031 A 
ATOM     89  C   UNL A   1      44.342  24.209  32.929  1.00  0.00     0.131 A 
ATOM     90  C   UNL A   1      45.600  24.385  35.362  1.00  0.00     0.055 A 
ATOM     91  C   UNL A   1      44.822  23.049  33.548  1.00  0.00     0.041 A 
ATOM     92  F   UNL A   1      43.723  24.002  31.759  1.00  0.00    -0.206 F 
ATOM     93  C   UNL A   1      45.435  23.129  34.787  1.00  0.00     0.022 A 
BRANCH  90  94
ATOM     94  S   UNL A   1      46.306  24.532  37.024  1.00  0.00     0.124 S 
ATOM     95  O   UNL A   1      45.834  25.844  37.455  1.00  0.00    -0.237 OA
ATOM     96  O   UNL A   1      45.708  23.387  37.704  1.00  0.00    -0.237 OA
ATOM     97  O   UNL A   1      47.748  24.434  36.798  1.00  0.00    -0.744 OA
ENDBRANCH  90  94
ENDBRANCH  64  87
ENDBRANCH  38  39
ENDBRANCH  30  33
ENDBRANCH  28  29
ENDBRANCH   1  28
TORSDOF 16
ENDMDL
MODEL 2
REMARK VINA RESULT:     -13.9      2.338      2.981
REMARK SMILES Cc1cc(C(=O)NCCCNC(=O)c2ccc(-c3c4nc(c(-c5cc(S(=O)(=O)[O-])ccc5F)c5ccc([nH]5)c(-c5cc(S(=O)(=O)[O-])ccc5F)c5nc(c(-c6cc(S(=O)(=O)[O-])ccc6F)c6ccc3[nH]6)C=C5)C=C4)cc2)ccc1NS(=O)(=O)c1ccc2c(c1)CCC2
REMARK SMILES IDX 9 1 8 2 7 3 5 4 6 5 4 7 1 8 2 9 3 10 79 11 78 12 77 13 80 14
REMARK SMILES IDX 81 16 82 17 83 18 84 19 85 20 89 21 86 22 88 23 87 24 90 25
REMARK SMILES IDX 92 26 91 27 10 28 11 29 12 30 13 32 14 33 15 34 76 35 16 36
REMARK SMILES IDX 75 37 17 38 18 39 19 40 69 41 20 42 74 43 68 44 70 45 21 46
REMARK SMILES IDX 73 47 67 48 66 49 22 51 54 52 34 53 53 54 35 55 38 56 52 57
REMARK SMILES IDX 71 58 36 59 37 60 51 62 72 63 39 64 23 65 24 66 32 67 25 68
REMARK SMILES IDX 31 69 33 70 30 71 26 72 27 73 28 74 29 75 55 76 56 77 64 78
REMARK SMILES IDX 57 79 63 80 65 81 62 82 58 83 59 84 60 85 61 86 40 87 41 88
REMARK SMILES IDX 49 89 42 90 48 91 50 92 47 93 43 94 44 95 45 96 46 97
REMARK H PARENT 7 6 80 15 11 31 70 50 38 61
REMARK Flexibility Score: inf
ROOT
ATOM      1  C   UNL A   1      33.192  31.310  27.630  1.00  0.00     0.042 C 
ENDROOT
BRANCH   1   2
ATOM      2  C   UNL A   1      32.257  30.453  26.790  1.00  0.00     0.118 C 
BRANCH   2   3
ATOM      3  N   UNL A   1      32.614  30.366  25.381  1.00  0.00    -0.352 N 
ATOM      4  C   UNL A   1      32.792  29.229  24.618  1.00  0.00     0.251 C 
ATOM      5  O   UNL A   1      33.188  29.290  23.458  1.00  0.00    -0.269 OA
ATOM      6  H   UNL A   1      32.745  31.223  24.915  1.00  0.00     0.163 HD
BRANCH   4   7
ATOM      7  C   UNL A   1      32.635  27.902  25.262  1.00  0.00     0.040 A 
ATOM      8  C   UNL A   1      29.739  25.604  26.038  1.00  0.00     0.046 C 
ATOM      9  C   UNL A   1      31.134  26.060  25.717  1.00  0.00    -0.026 A 
ATOM     10  C   UNL A   1      31.342  27.425  25.476  1.00  0.00     0.019 A 
ATOM     11  C   UNL A   1      32.234  25.186  25.639  1.00  0.00     0.052 A 
ATOM     12  C   UNL A   1      33.523  25.711  25.749  1.00  0.00     0.028 A 
ATOM     13  C   UNL A   1      33.726  27.082  25.553  1.00  0.00     0.016 A 
BRANCH  11  14
ATOM     14  N   UNL A   1      31.977  23.862  25.168  1.00  0.00    -0.279 N 
ATOM     15  H   UNL A   1      31.776  23.792  24.207  1.00  0.00     0.180 HD
BRANCH  14  16
ATOM     16  S   UNL A   1      31.965  22.420  26.000  1.00  0.00     0.261 S 
ATOM     17  O   UNL A   1      32.587  22.651  27.303  1.00  0.00    -0.201 OA
ATOM     18  O   UNL A   1      30.612  21.947  25.910  1.00  0.00    -0.201 OA
BRANCH  16  19
ATOM     19  C   UNL A   1      32.973  21.209  25.162  1.00  0.00     0.088 A 
ATOM     20  C   UNL A   1      34.347  21.072  25.399  1.00  0.00     0.022 A 
ATOM     21  C   UNL A   1      32.292  20.264  24.377  1.00  0.00     0.026 A 
ATOM     22  C   UNL A   1      34.993  19.877  25.070  1.00  0.00     0.005 A 
ATOM     23  C   UNL A   1      32.968  19.117  24.000  1.00  0.00    -0.043 A 
ATOM     24  C   UNL A   1      34.279  18.891  24.421  1.00  0.00    -0.045 A 
ATOM     25  C   UNL A   1      32.486  17.957  23.189  1.00  0.00     0.036 C 
ATOM     26  C   UNL A   1      34.725  17.498  24.101  1.00  0.00     0.036 C 
ATOM     27  C   UNL A   1      33.382  16.840  23.740  1.00  0.00     0.010 C 
ENDBRANCH  16  19
ENDBRANCH  14  16
ENDBRANCH  11  14
ENDBRANCH   4   7
ENDBRANCH   2   3
ENDBRANCH   1   2
BRANCH   1  28
ATOM     28  C   UNL A   1      34.532  30.646  27.915  1.00  0.00     0.118 C 
BRANCH  28  29
ATOM     29  N   UNL A   1      35.365  31.419  28.851  1.00  0.00    -0.352 N 
ATOM     30  C   UNL A   1      36.512  31.040  29.530  1.00  0.00     0.251 C 
ATOM     31  H   UNL A   1      35.063  32.341  29.021  1.00  0.00     0.163 HD
ATOM     32  O   UNL A   1      37.155  31.815  30.230  1.00  0.00    -0.269 OA
BRANCH  30  33
ATOM     33  C   UNL A   1      37.026  29.678  29.285  1.00  0.00     0.039 A 
ATOM     34  C   UNL A   1      37.416  28.954  30.416  1.00  0.00     0.014 A 
ATOM     35  C   UNL A   1      37.502  29.361  28.018  1.00  0.00     0.014 A 
ATOM     36  C   UNL A   1      38.525  28.124  30.324  1.00  0.00     0.010 A 
ATOM     37  C   UNL A   1      38.657  28.600  27.946  1.00  0.00     0.010 A 
ATOM     38  C   UNL A   1      39.219  28.067  29.115  1.00  0.00    -0.014 A 
BRANCH  38  39
ATOM     39  C   UNL A   1      40.608  27.624  29.041  1.00  0.00     0.031 A 
ATOM     40  C   UNL A   1      40.926  26.264  28.577  1.00  0.00     0.074 A 
ATOM     41  C   UNL A   1      41.626  28.435  29.410  1.00  0.00     0.049 A 
ATOM     42  N   UNL A   1      41.944  25.583  28.980  1.00  0.00    -0.248 NA
ATOM     43  C   UNL A   1      40.079  25.547  27.636  1.00  0.00     0.031 C 
ATOM     44  C   UNL A   1      43.056  28.198  29.231  1.00  0.00     0.029 A 
ATOM     45  N   UNL A   1      41.564  29.540  30.256  1.00  0.00    -0.354 N 
ATOM     46  C   UNL A   1      42.054  24.485  28.162  1.00  0.00     0.074 A 
ATOM     47  C   UNL A   1      40.831  24.473  27.390  1.00  0.00     0.031 C 
ATOM     48  C   UNL A   1      43.734  28.926  30.131  1.00  0.00     0.029 A 
ATOM     49  C   UNL A   1      42.766  29.573  30.994  1.00  0.00     0.049 A 
ATOM     50  H   UNL A   1      40.819  30.181  30.326  1.00  0.00     0.167 HD
ATOM     51  C   UNL A   1      43.221  23.782  28.120  1.00  0.00     0.034 A 
ATOM     52  C   UNL A   1      42.745  29.523  32.357  1.00  0.00     0.034 A 
ATOM     53  C   UNL A   1      44.228  24.319  29.040  1.00  0.00     0.049 A 
ATOM     54  C   UNL A   1      43.390  28.273  32.932  1.00  0.00     0.074 A 
ATOM     55  C   UNL A   1      45.371  25.088  28.883  1.00  0.00     0.029 A 
ATOM     56  N   UNL A   1      43.976  24.297  30.404  1.00  0.00    -0.354 N 
ATOM     57  N   UNL A   1      43.990  27.347  32.233  1.00  0.00    -0.248 NA
ATOM     58  C   UNL A   1      43.307  27.924  34.350  1.00  0.00     0.031 C 
ATOM     59  C   UNL A   1      45.796  25.530  30.171  1.00  0.00     0.029 A 
ATOM     60  C   UNL A   1      44.925  25.013  31.113  1.00  0.00     0.049 A 
ATOM     61  H   UNL A   1      43.216  23.830  30.817  1.00  0.00     0.167 HD
ATOM     62  C   UNL A   1      44.275  26.271  33.042  1.00  0.00     0.074 A 
ATOM     63  C   UNL A   1      43.830  26.688  34.360  1.00  0.00     0.031 C 
ATOM     64  C   UNL A   1      44.798  25.098  32.563  1.00  0.00     0.034 A 
BRANCH  51  65
ATOM     65  C   UNL A   1      43.527  22.785  27.026  1.00  0.00     0.023 A 
ATOM     66  C   UNL A   1      42.949  21.502  27.070  1.00  0.00     0.031 A 
ATOM     67  C   UNL A   1      44.403  23.015  25.947  1.00  0.00     0.131 A 
ATOM     68  C   UNL A   1      43.340  20.493  26.172  1.00  0.00     0.055 A 
ATOM     69  C   UNL A   1      44.857  21.993  25.104  1.00  0.00     0.041 A 
ATOM     70  F   UNL A   1      44.814  24.252  25.628  1.00  0.00    -0.206 F 
ATOM     71  C   UNL A   1      44.337  20.715  25.226  1.00  0.00     0.022 A 
BRANCH  68  72
ATOM     72  S   UNL A   1      42.508  18.883  26.240  1.00  0.00     0.124 S 
ATOM     73  O   UNL A   1      42.513  18.590  27.668  1.00  0.00    -0.237 OA
ATOM     74  O   UNL A   1      41.211  19.185  25.644  1.00  0.00    -0.237 OA
ATOM     75  O   UNL A   1      43.371  18.022  25.431  1.00  0.00    -0.744 OA
ENDBRANCH  68  72
ENDBRANCH  51  65
BRANCH  52  76
ATOM     76  C   UNL A   1      41.565  30.248  32.921  1.00  0.00     0.023 A 
ATOM     77  C   UNL A   1      41.584  31.660  32.852  1.00  0.00     0.031 A 
ATOM     78  C   UNL A   1      40.327  29.617  33.098  1.00  0.00     0.131 A 
ATOM     79  C   UNL A   1      40.382  32.380  32.772  1.00  0.00     0.055 A 
ATOM     80  C   UNL A   1      39.134  30.348  33.096  1.00  0.00     0.041 A 
ATOM     81  F   UNL A   1      40.237  28.280  33.133  1.00  0.00    -0.206 F 
ATOM     82  C   UNL A   1      39.154  31.726  32.876  1.00  0.00     0.022 A 
BRANCH  79  83
ATOM     83  S   UNL A   1      40.425  34.118  32.238  1.00  0.00     0.124 S 
ATOM     84  O   UNL A   1      40.833  34.809  33.452  1.00  0.00    -0.237 OA
ATOM     85  O   UNL A   1      41.398  34.100  31.151  1.00  0.00    -0.237 OA
ATOM     86  O   UNL A   1      39.055  34.380  31.793  1.00  0.00    -0.744 OA
ENDBRANCH  79  83
ENDBRANCH  52  76
BRANCH  64  87
ATOM     87  C   UNL A   1      45.176  23.906  33.425  1.00  0.00     0.023 A 
ATOM     88  C   UNL A   1      46.493  23.658  33.842  1.00  0.00     0.031 A 
ATOM     89  C   UNL A   1      44.226  22.928  33.810  1.00  0.00     0.131 A 
ATOM     90  C   UNL A   1      46.801  22.579  34.694  1.00  0.00     0.055 A 
ATOM     91  C   UNL A   1      44.546  21.813  34.594  1.00  0.00     0.041 A 
ATOM     92  F   UNL A   1      42.936  23.009  33.458  1.00  0.00    -0.206 F 
ATOM     93  C   UNL A   1      45.837  21.646  35.064  1.00  0.00     0.022 A 
BRANCH  90  94
ATOM     94  S   UNL A   1      48.480  22.458  35.362  1.00  0.00     0.124 S 
ATOM     95  O   UNL A   1      48.997  23.809  35.169  1.00  0.00    -0.237 OA
ATOM     96  O   UNL A   1      48.223  22.069  36.746  1.00  0.00    -0.237 OA
ATOM     97  O   UNL A   1      49.109  21.428  34.536  1.00  0.00    -0.744 OA
ENDBRANCH  90  94
ENDBRANCH  64  87
ENDBRANCH  38  39
ENDBRANCH  30  33
ENDBRANCH  28  29
ENDBRANCH   1  28
TORSDOF 16
ENDMDL
MODEL 3
REMARK VINA RESULT:     -13.7      2.569      3.586
REMARK SMILES Cc1cc(C(=O)NCCCNC(=O)c2ccc(-c3c4nc(c(-c5cc(S(=O)(=O)[O-])ccc5F)c5ccc([nH]5)c(-c5cc(S(=O)(=O)[O-])ccc5F)c5nc(c(-c6cc(S(=O)(=O)[O-])ccc6F)c6ccc3[nH]6)C=C5)C=C4)cc2)ccc1NS(=O)(=O)c1ccc2c(c1)CCC2
REMARK SMILES IDX 9 1 8 2 7 3 5 4 6 5 4 7 1 8 2 9 3 10 79 11 78 12 77 13 80 14
REMARK SMILES IDX 81 16 82 17 83 18 84 19 85 20 89 21 86 22 88 23 87 24 90 25
REMARK SMILES IDX 92 26 91 27 10 28 11 29 12 30 13 32 14 33 15 34 76 35 16 36
REMARK SMILES IDX 75 37 17 38 18 39 19 40 69 41 20 42 74 43 68 44 70 45 21 46
REMARK SMILES IDX 73 47 67 48 66 49 22 51 54 52 34 53 53 54 35 55 38 56 52 57
REMARK SMILES IDX 71 58 36 59 37 60 51 62 72 63 39 64 23 65 24 66 32 67 25 68
REMARK SMILES IDX 31 69 33 70 30 71 26 72 27 73 28 74 29 75 55 76 56 77 64 78
REMARK SMILES IDX 57 79 63 80 65 81 62 82 58 83 59 84 60 85 61 86 40 87 41 88
REMARK SMILES IDX 49 89 42 90 48 91 50 92 47 93 43 94 44 95 45 96 46 97
REMARK H PARENT 7 6 80 15 11 31 70 50 38 61
REMARK Flexibility Score: inf
ROOT
ATOM      1  C   UNL A   1      34.277  31.855  27.634  1.00  0.00     0.042 C 
ENDROOT
BRANCH   1   2
ATOM      2  C   UNL A   1      33.107  31.144  26.970  1.00  0.00     0.118 C 
BRANCH   2   3
ATOM      3  N   UNL A   1      32.698  29.908  27.622  1.00  0.00    -0.352 N 
ATOM      4  C   UNL A   1      32.234  28.749  27.033  1.00  0.00     0.251 C 
ATOM      5  O   UNL A   1      31.830  27.805  27.705  1.00  0.00    -0.269 OA
ATOM      6  H   UNL A   1      32.761  29.897  28.605  1.00  0.00     0.163 HD
BRANCH   4   7
ATOM      7  C   UNL A   1      32.088  28.704  25.557  1.00  0.00     0.040 A 
ATOM      8  C   UNL A   1      34.456  28.671  22.613  1.00  0.00     0.046 C 
ATOM      9  C   UNL A   1      33.226  28.425  23.440  1.00  0.00    -0.026 A 
ATOM     10  C   UNL A   1      33.240  28.833  24.780  1.00  0.00     0.019 A 
ATOM     11  C   UNL A   1      32.069  27.801  22.937  1.00  0.00     0.052 A 
ATOM     12  C   UNL A   1      30.859  27.978  23.612  1.00  0.00     0.028 A 
ATOM     13  C   UNL A   1      30.870  28.428  24.937  1.00  0.00     0.016 A 
BRANCH  11  14
ATOM     14  N   UNL A   1      32.257  26.799  21.937  1.00  0.00    -0.279 N 
ATOM     15  H   UNL A   1      32.253  27.127  21.009  1.00  0.00     0.180 HD
BRANCH  14  16
ATOM     16  S   UNL A   1      32.479  25.156  22.105  1.00  0.00     0.261 S 
ATOM     17  O   UNL A   1      31.246  24.592  22.651  1.00  0.00    -0.201 OA
ATOM     18  O   UNL A   1      32.986  24.716  20.836  1.00  0.00    -0.201 OA
BRANCH  16  19
ATOM     19  C   UNL A   1      33.764  24.821  23.299  1.00  0.00     0.088 A 
ATOM     20  C   UNL A   1      33.674  25.216  24.639  1.00  0.00     0.022 A 
ATOM     21  C   UNL A   1      34.804  23.977  22.876  1.00  0.00     0.026 A 
ATOM     22  C   UNL A   1      34.460  24.580  25.605  1.00  0.00     0.005 A 
ATOM     23  C   UNL A   1      35.619  23.410  23.840  1.00  0.00    -0.043 A 
ATOM     24  C   UNL A   1      35.388  23.644  25.196  1.00  0.00    -0.045 A 
ATOM     25  C   UNL A   1      36.774  22.475  23.674  1.00  0.00     0.036 C 
ATOM     26  C   UNL A   1      36.228  22.752  26.057  1.00  0.00     0.036 C 
ATOM     27  C   UNL A   1      36.730  21.735  25.017  1.00  0.00     0.010 C 
ENDBRANCH  16  19
ENDBRANCH  14  16
ENDBRANCH  11  14
ENDBRANCH   4   7
ENDBRANCH   2   3
ENDBRANCH   1   2
BRANCH   1  28
ATOM     28  C   UNL A   1      34.785  31.150  28.884  1.00  0.00     0.118 C 
BRANCH  28  29
ATOM     29  N   UNL A   1      35.965  31.807  29.471  1.00  0.00    -0.352 N 
ATOM     30  C   UNL A   1      37.264  31.343  29.590  1.00  0.00     0.251 C 
ATOM     31  H   UNL A   1      35.807  32.709  29.833  1.00  0.00     0.163 HD
ATOM     32  O   UNL A   1      38.175  32.030  30.039  1.00  0.00    -0.269 OA
BRANCH  30  33
ATOM     33  C   UNL A   1      37.562  30.009  29.032  1.00  0.00     0.039 A 
ATOM     34  C   UNL A   1      37.675  28.966  29.957  1.00  0.00     0.014 A 
ATOM     35  C   UNL A   1      38.132  29.926  27.767  1.00  0.00     0.014 A 
ATOM     36  C   UNL A   1      38.626  27.980  29.733  1.00  0.00     0.010 A 
ATOM     37  C   UNL A   1      39.137  28.991  27.584  1.00  0.00     0.010 A 
ATOM     38  C   UNL A   1      39.446  28.085  28.609  1.00  0.00    -0.014 A 
BRANCH  38  39
ATOM     39  C   UNL A   1      40.736  27.405  28.527  1.00  0.00     0.031 A 
ATOM     40  C   UNL A   1      40.792  25.944  28.366  1.00  0.00     0.074 A 
ATOM     41  C   UNL A   1      41.899  28.091  28.614  1.00  0.00     0.049 A 
ATOM     42  N   UNL A   1      41.738  25.201  28.831  1.00  0.00    -0.248 NA
ATOM     43  C   UNL A   1      39.743  25.197  27.690  1.00  0.00     0.031 C 
ATOM     44  C   UNL A   1      43.247  27.580  28.378  1.00  0.00     0.029 A 
ATOM     45  N   UNL A   1      42.103  29.346  29.182  1.00  0.00    -0.354 N 
ATOM     46  C   UNL A   1      41.587  23.951  28.283  1.00  0.00     0.074 A 
ATOM     47  C   UNL A   1      40.293  23.983  27.638  1.00  0.00     0.031 C 
ATOM     48  C   UNL A   1      44.127  28.358  29.026  1.00  0.00     0.029 A 
ATOM     49  C   UNL A   1      43.374  29.331  29.792  1.00  0.00     0.049 A 
ATOM     50  H   UNL A   1      41.474  30.104  29.163  1.00  0.00     0.167 HD
ATOM     51  C   UNL A   1      42.624  23.067  28.311  1.00  0.00     0.034 A 
ATOM     52  C   UNL A   1      43.508  29.580  31.126  1.00  0.00     0.034 A 
ATOM     53  C   UNL A   1      43.801  23.609  28.996  1.00  0.00     0.049 A 
ATOM     54  C   UNL A   1      44.024  28.392  31.921  1.00  0.00     0.074 A 
ATOM     55  C   UNL A   1      45.018  24.119  28.572  1.00  0.00     0.029 A 
ATOM     56  N   UNL A   1      43.711  23.924  30.343  1.00  0.00    -0.354 N 
ATOM     57  N   UNL A   1      44.393  27.249  31.409  1.00  0.00    -0.248 NA
ATOM     58  C   UNL A   1      44.058  28.376  33.383  1.00  0.00     0.031 C 
ATOM     59  C   UNL A   1      45.653  24.749  29.683  1.00  0.00     0.029 A 
ATOM     60  C   UNL A   1      44.833  24.603  30.788  1.00  0.00     0.049 A 
ATOM     61  H   UNL A   1      42.944  23.694  30.914  1.00  0.00     0.167 HD
ATOM     62  C   UNL A   1      44.609  26.340  32.418  1.00  0.00     0.074 A 
ATOM     63  C   UNL A   1      44.390  27.100  33.637  1.00  0.00     0.031 C 
ATOM     64  C   UNL A   1      44.892  25.019  32.183  1.00  0.00     0.034 A 
BRANCH  51  65
ATOM     65  C   UNL A   1      42.647  21.820  27.456  1.00  0.00     0.023 A 
ATOM     66  C   UNL A   1      43.695  21.622  26.538  1.00  0.00     0.031 A 
ATOM     67  C   UNL A   1      41.655  20.819  27.464  1.00  0.00     0.131 A 
ATOM     68  C   UNL A   1      43.663  20.568  25.607  1.00  0.00     0.055 A 
ATOM     69  C   UNL A   1      41.576  19.819  26.487  1.00  0.00     0.041 A 
ATOM     70  F   UNL A   1      40.751  20.735  28.451  1.00  0.00    -0.206 F 
ATOM     71  C   UNL A   1      42.577  19.699  25.537  1.00  0.00     0.022 A 
BRANCH  68  72
ATOM     72  S   UNL A   1      45.077  20.330  24.497  1.00  0.00     0.124 S 
ATOM     73  O   UNL A   1      45.117  18.880  24.351  1.00  0.00    -0.237 OA
ATOM     74  O   UNL A   1      44.671  21.090  23.320  1.00  0.00    -0.237 OA
ATOM     75  O   UNL A   1      46.194  20.905  25.246  1.00  0.00    -0.744 OA
ENDBRANCH  68  72
ENDBRANCH  51  65
BRANCH  52  76
ATOM     76  C   UNL A   1      42.523  30.600  31.601  1.00  0.00     0.023 A 
ATOM     77  C   UNL A   1      41.266  30.125  32.041  1.00  0.00     0.031 A 
ATOM     78  C   UNL A   1      42.926  31.874  32.021  1.00  0.00     0.131 A 
ATOM     79  C   UNL A   1      40.544  30.832  33.015  1.00  0.00     0.055 A 
ATOM     80  C   UNL A   1      42.163  32.610  32.935  1.00  0.00     0.041 A 
ATOM     81  F   UNL A   1      44.123  32.366  31.672  1.00  0.00    -0.206 F 
ATOM     82  C   UNL A   1      40.998  32.067  33.479  1.00  0.00     0.022 A 
BRANCH  79  83
ATOM     83  S   UNL A   1      39.180  30.000  33.884  1.00  0.00     0.124 S 
ATOM     84  O   UNL A   1      39.668  29.948  35.255  1.00  0.00    -0.237 OA
ATOM     85  O   UNL A   1      38.049  30.889  33.638  1.00  0.00    -0.237 OA
ATOM     86  O   UNL A   1      39.069  28.709  33.203  1.00  0.00    -0.744 OA
ENDBRANCH  79  83
ENDBRANCH  52  76
BRANCH  64  87
ATOM     87  C   UNL A   1      45.188  23.994  33.265  1.00  0.00     0.023 A 
ATOM     88  C   UNL A   1      46.429  23.915  33.917  1.00  0.00     0.031 A 
ATOM     89  C   UNL A   1      44.246  23.004  33.638  1.00  0.00     0.131 A 
ATOM     90  C   UNL A   1      46.651  22.995  34.960  1.00  0.00     0.055 A 
ATOM     91  C   UNL A   1      44.494  22.040  34.622  1.00  0.00     0.041 A 
ATOM     92  F   UNL A   1      43.031  22.929  33.078  1.00  0.00    -0.206 F 
ATOM     93  C   UNL A   1      45.695  22.047  35.310  1.00  0.00     0.022 A 
BRANCH  90  94
ATOM     94  S   UNL A   1      48.198  23.108  35.896  1.00  0.00     0.124 S 
ATOM     95  O   UNL A   1      48.815  21.809  35.647  1.00  0.00    -0.237 OA
ATOM     96  O   UNL A   1      48.848  24.251  35.259  1.00  0.00    -0.237 OA
ATOM     97  O   UNL A   1      47.756  23.333  37.271  1.00  0.00    -0.744 OA
ENDBRANCH  90  94
ENDBRANCH  64  87
ENDBRANCH  38  39
ENDBRANCH  30  33
ENDBRANCH  28  29
ENDBRANCH   1  28
TORSDOF 16
ENDMDL
