MODEL 1
REMARK VINA RESULT:     -12.1      0.000      0.000
REMARK SMILES COc1ccc(-c2nc(SCC(=O)NCCCNC(=O)c3ccc(-c4c5nc(c(-c6cc(S(=O)(=O)[O-])ccc6F)c6ccc([nH]6)c(-c6cc(S(=O)(=O)[O-])ccc6F)c6nc(c(-c7cc(S(=O)(=O)[O-])ccc7F)c7ccc4[nH]7)C=C6)C=C5)cc3)[nH]c2C)cc1
REMARK SMILES IDX 15 1 14 2 12 3 13 4 11 6 10 7 9 8 7 9 8 10 85 11 84 12 86 13
REMARK SMILES IDX 6 15 3 16 4 17 88 18 5 19 87 20 2 21 1 22 16 23 17 24 18 25
REMARK SMILES IDX 19 26 20 28 21 29 22 30 83 31 23 32 82 33 24 34 25 35 26 36
REMARK SMILES IDX 76 37 27 38 81 39 75 40 77 41 28 42 80 43 74 44 73 45 29 47
REMARK SMILES IDX 61 48 41 49 60 50 42 51 45 52 59 53 78 54 43 55 44 56 58 58
REMARK SMILES IDX 79 59 46 60 30 61 31 62 39 63 32 64 38 65 40 66 37 67 33 68
REMARK SMILES IDX 34 69 35 70 36 71 62 72 63 73 71 74 64 75 70 76 72 77 69 78
REMARK SMILES IDX 65 79 66 80 67 81 68 82 47 83 48 84 56 85 49 86 55 87 57 88
REMARK SMILES IDX 54 89 50 90 51 91 52 92 53 93
REMARK H PARENT 14 5 84 14 18 27 77 46 45 57
REMARK Flexibility Score: inf
ROOT
ATOM      1  C   UNL A   1      35.045  20.630  25.485  1.00  0.00     0.117 C 
ENDROOT
BRANCH   1   2
ATOM      2  N   UNL A   1      34.518  21.285  26.667  1.00  0.00    -0.355 N 
ATOM      3  C   UNL A   1      33.390  22.037  26.829  1.00  0.00     0.230 C 
ATOM      4  O   UNL A   1      33.123  22.402  27.978  1.00  0.00    -0.274 OA
ATOM      5  H   UNL A   1      35.059  21.169  27.480  1.00  0.00     0.163 HD
BRANCH   3   6
ATOM      6  C   UNL A   1      32.430  22.275  25.676  1.00  0.00     0.178 C 
BRANCH   6   7
ATOM      7  S   UNL A   1      30.749  22.724  26.181  1.00  0.00    -0.078 SA
BRANCH   7   8
ATOM      8  C   UNL A   1      30.727  24.415  25.878  1.00  0.00     0.166 A 
ATOM      9  C   UNL A   1      30.549  26.359  25.041  1.00  0.00     0.092 A 
ATOM     10  N   UNL A   1      30.305  25.028  24.803  1.00  0.00    -0.222 NA
ATOM     11  C   UNL A   1      31.122  26.551  26.284  1.00  0.00     0.040 A 
ATOM     12  N   UNL A   1      31.217  25.282  26.807  1.00  0.00    -0.337 N 
ATOM     13  C   UNL A   1      31.573  27.747  27.029  1.00  0.00     0.067 C 
ATOM     14  H   UNL A   1      31.575  25.045  27.692  1.00  0.00     0.168 HD
BRANCH   9  15
ATOM     15  C   UNL A   1      30.248  27.390  24.074  1.00  0.00     0.002 A 
ATOM     16  C   UNL A   1      29.677  29.341  22.142  1.00  0.00     0.118 A 
ATOM     17  C   UNL A   1      28.654  28.552  22.673  1.00  0.00     0.047 A 
ATOM     18  C   UNL A   1      30.985  29.170  22.599  1.00  0.00     0.047 A 
ATOM     19  C   UNL A   1      28.938  27.567  23.623  1.00  0.00     0.014 A 
ATOM     20  C   UNL A   1      31.269  28.197  23.562  1.00  0.00     0.014 A 
BRANCH  16  21
ATOM     21  O   UNL A   1      29.282  30.259  21.206  1.00  0.00    -0.497 OA
ATOM     22  C   UNL A   1      28.818  31.501  21.722  1.00  0.00     0.278 C 
ENDBRANCH  16  21
ENDBRANCH   9  15
ENDBRANCH   7   8
ENDBRANCH   6   7
ENDBRANCH   3   6
ENDBRANCH   1   2
BRANCH   1  23
ATOM     23  C   UNL A   1      35.767  21.603  24.557  1.00  0.00     0.042 C 
BRANCH  23  24
ATOM     24  C   UNL A   1      37.137  22.047  25.062  1.00  0.00     0.118 C 
BRANCH  24  25
ATOM     25  N   UNL A   1      37.983  20.928  25.452  1.00  0.00    -0.352 N 
ATOM     26  C   UNL A   1      39.213  20.933  26.068  1.00  0.00     0.251 C 
ATOM     27  H   UNL A   1      37.621  20.037  25.247  1.00  0.00     0.163 HD
ATOM     28  O   UNL A   1      39.850  19.887  26.157  1.00  0.00    -0.269 OA
BRANCH  26  29
ATOM     29  C   UNL A   1      39.779  22.198  26.590  1.00  0.00     0.039 A 
ATOM     30  C   UNL A   1      40.784  22.144  27.561  1.00  0.00     0.014 A 
ATOM     31  C   UNL A   1      39.322  23.434  26.125  1.00  0.00     0.014 A 
ATOM     32  C   UNL A   1      41.390  23.323  28.002  1.00  0.00     0.010 A 
ATOM     33  C   UNL A   1      39.972  24.602  26.515  1.00  0.00     0.010 A 
ATOM     34  C   UNL A   1      41.019  24.559  27.449  1.00  0.00    -0.014 A 
BRANCH  34  35
ATOM     35  C   UNL A   1      41.706  25.825  27.819  1.00  0.00     0.031 A 
ATOM     36  C   UNL A   1      40.960  26.885  28.583  1.00  0.00     0.074 A 
ATOM     37  C   UNL A   1      42.959  26.065  27.380  1.00  0.00     0.049 A 
ATOM     38  N   UNL A   1      41.304  28.120  28.841  1.00  0.00    -0.248 NA
ATOM     39  C   UNL A   1      39.634  26.509  29.092  1.00  0.00     0.031 C 
ATOM     40  C   UNL A   1      43.781  25.125  26.616  1.00  0.00     0.029 A 
ATOM     41  N   UNL A   1      43.751  27.181  27.492  1.00  0.00    -0.354 N 
ATOM     42  C   UNL A   1      40.228  28.679  29.521  1.00  0.00     0.074 A 
ATOM     43  C   UNL A   1      39.203  27.658  29.592  1.00  0.00     0.031 C 
ATOM     44  C   UNL A   1      44.960  25.701  26.332  1.00  0.00     0.029 A 
ATOM     45  C   UNL A   1      44.960  27.068  26.844  1.00  0.00     0.049 A 
ATOM     46  H   UNL A   1      43.480  27.985  27.991  1.00  0.00     0.167 HD
ATOM     47  C   UNL A   1      40.111  29.923  30.050  1.00  0.00     0.034 A 
ATOM     48  C   UNL A   1      45.942  27.972  26.655  1.00  0.00     0.034 A 
ATOM     49  C   UNL A   1      41.150  30.923  29.985  1.00  0.00     0.049 A 
ATOM     50  C   UNL A   1      45.779  29.359  27.223  1.00  0.00     0.074 A 
ATOM     51  C   UNL A   1      41.157  32.195  30.532  1.00  0.00     0.029 A 
ATOM     52  N   UNL A   1      42.366  30.765  29.332  1.00  0.00    -0.354 N 
ATOM     53  N   UNL A   1      44.764  29.865  27.885  1.00  0.00    -0.248 NA
ATOM     54  C   UNL A   1      46.893  30.295  27.021  1.00  0.00     0.031 C 
ATOM     55  C   UNL A   1      42.348  32.826  30.157  1.00  0.00     0.029 A 
ATOM     56  C   UNL A   1      43.117  31.925  29.438  1.00  0.00     0.049 A 
ATOM     57  H   UNL A   1      42.651  29.949  28.861  1.00  0.00     0.167 HD
ATOM     58  C   UNL A   1      45.135  31.168  28.208  1.00  0.00     0.074 A 
ATOM     59  C   UNL A   1      46.465  31.368  27.671  1.00  0.00     0.031 C 
ATOM     60  C   UNL A   1      44.441  32.110  28.895  1.00  0.00     0.034 A 
BRANCH  47  61
ATOM     61  C   UNL A   1      38.801  30.275  30.712  1.00  0.00     0.023 A 
ATOM     62  C   UNL A   1      37.797  30.985  30.031  1.00  0.00     0.031 A 
ATOM     63  C   UNL A   1      38.564  29.923  32.053  1.00  0.00     0.131 A 
ATOM     64  C   UNL A   1      36.641  31.390  30.713  1.00  0.00     0.055 A 
ATOM     65  C   UNL A   1      37.374  30.257  32.702  1.00  0.00     0.041 A 
ATOM     66  F   UNL A   1      39.492  29.261  32.761  1.00  0.00    -0.206 F 
ATOM     67  C   UNL A   1      36.410  31.010  32.038  1.00  0.00     0.022 A 
BRANCH  64  68
ATOM     68  S   UNL A   1      35.512  32.545  29.889  1.00  0.00     0.124 S 
ATOM     69  O   UNL A   1      36.300  33.776  29.888  1.00  0.00    -0.237 OA
ATOM     70  O   UNL A   1      35.309  31.915  28.590  1.00  0.00    -0.237 OA
ATOM     71  O   UNL A   1      34.341  32.564  30.764  1.00  0.00    -0.744 OA
ENDBRANCH  64  68
ENDBRANCH  47  61
BRANCH  48  72
ATOM     72  C   UNL A   1      47.159  27.610  25.872  1.00  0.00     0.023 A 
ATOM     73  C   UNL A   1      47.238  27.882  24.498  1.00  0.00     0.031 A 
ATOM     74  C   UNL A   1      48.242  26.951  26.480  1.00  0.00     0.131 A 
ATOM     75  C   UNL A   1      48.358  27.459  23.766  1.00  0.00     0.055 A 
ATOM     76  C   UNL A   1      49.376  26.576  25.756  1.00  0.00     0.041 A 
ATOM     77  F   UNL A   1      48.220  26.673  27.793  1.00  0.00    -0.206 F 
ATOM     78  C   UNL A   1      49.433  26.820  24.387  1.00  0.00     0.022 A 
BRANCH  75  79
ATOM     79  S   UNL A   1      48.356  27.688  21.967  1.00  0.00     0.124 S 
ATOM     80  O   UNL A   1      47.030  28.253  21.741  1.00  0.00    -0.237 OA
ATOM     81  O   UNL A   1      49.482  28.597  21.776  1.00  0.00    -0.237 OA
ATOM     82  O   UNL A   1      48.555  26.335  21.452  1.00  0.00    -0.744 OA
ENDBRANCH  75  79
ENDBRANCH  48  72
BRANCH  60  83
ATOM     83  C   UNL A   1      45.136  33.423  29.156  1.00  0.00     0.023 A 
ATOM     84  C   UNL A   1      45.030  34.509  28.271  1.00  0.00     0.031 A 
ATOM     85  C   UNL A   1      45.907  33.587  30.320  1.00  0.00     0.131 A 
ATOM     86  C   UNL A   1      45.718  35.701  28.546  1.00  0.00     0.055 A 
ATOM     87  C   UNL A   1      46.547  34.791  30.614  1.00  0.00     0.041 A 
ATOM     88  F   UNL A   1      46.041  32.580  31.199  1.00  0.00    -0.206 F 
ATOM     89  C   UNL A   1      46.462  35.854  29.719  1.00  0.00     0.022 A 
BRANCH  86  90
ATOM     90  S   UNL A   1      45.676  37.036  27.319  1.00  0.00     0.124 S 
ATOM     91  O   UNL A   1      46.396  36.441  26.199  1.00  0.00    -0.237 OA
ATOM     92  O   UNL A   1      44.244  37.236  27.122  1.00  0.00    -0.237 OA
ATOM     93  O   UNL A   1      46.368  38.137  27.987  1.00  0.00    -0.744 OA
ENDBRANCH  86  90
ENDBRANCH  60  83
ENDBRANCH  34  35
ENDBRANCH  26  29
ENDBRANCH  24  25
ENDBRANCH  23  24
ENDBRANCH   1  23
TORSDOF 17
ENDMDL
MODEL 2
REMARK VINA RESULT:     -11.8      5.295     10.682
REMARK SMILES COc1ccc(-c2nc(SCC(=O)NCCCNC(=O)c3ccc(-c4c5nc(c(-c6cc(S(=O)(=O)[O-])ccc6F)c6ccc([nH]6)c(-c6cc(S(=O)(=O)[O-])ccc6F)c6nc(c(-c7cc(S(=O)(=O)[O-])ccc7F)c7ccc4[nH]7)C=C6)C=C5)cc3)[nH]c2C)cc1
REMARK SMILES IDX 15 1 14 2 12 3 13 4 11 6 10 7 9 8 7 9 8 10 85 11 84 12 86 13
REMARK SMILES IDX 6 15 3 16 4 17 88 18 5 19 87 20 2 21 1 22 16 23 17 24 18 25
REMARK SMILES IDX 19 26 20 28 21 29 22 30 83 31 23 32 82 33 24 34 25 35 26 36
REMARK SMILES IDX 76 37 27 38 81 39 75 40 77 41 28 42 80 43 74 44 73 45 29 47
REMARK SMILES IDX 61 48 41 49 60 50 42 51 45 52 59 53 78 54 43 55 44 56 58 58
REMARK SMILES IDX 79 59 46 60 30 61 31 62 39 63 32 64 38 65 40 66 37 67 33 68
REMARK SMILES IDX 34 69 35 70 36 71 62 72 63 73 71 74 64 75 70 76 72 77 69 78
REMARK SMILES IDX 65 79 66 80 67 81 68 82 47 83 48 84 56 85 49 86 55 87 57 88
REMARK SMILES IDX 54 89 50 90 51 91 52 92 53 93
REMARK H PARENT 14 5 84 14 18 27 77 46 45 57
REMARK Flexibility Score: inf
ROOT
ATOM      1  C   UNL A   1      31.635  28.904  24.059  1.00  0.00     0.117 C 
ENDROOT
BRANCH   1   2
ATOM      2  N   UNL A   1      30.895  27.719  24.451  1.00  0.00    -0.355 N 
ATOM      3  C   UNL A   1      30.847  26.480  23.879  1.00  0.00     0.230 C 
ATOM      4  O   UNL A   1      30.202  25.614  24.477  1.00  0.00    -0.274 OA
ATOM      5  H   UNL A   1      30.340  27.825  25.256  1.00  0.00     0.163 HD
BRANCH   3   6
ATOM      6  C   UNL A   1      31.678  26.148  22.652  1.00  0.00     0.178 C 
BRANCH   6   7
ATOM      7  S   UNL A   1      33.420  25.789  23.002  1.00  0.00    -0.078 SA
BRANCH   7   8
ATOM      8  C   UNL A   1      33.314  24.284  23.823  1.00  0.00     0.166 A 
ATOM      9  C   UNL A   1      33.242  22.233  24.371  1.00  0.00     0.092 A 
ATOM     10  N   UNL A   1      33.485  23.089  23.323  1.00  0.00    -0.222 NA
ATOM     11  C   UNL A   1      32.925  22.927  25.524  1.00  0.00     0.040 A 
ATOM     12  N   UNL A   1      32.988  24.248  25.145  1.00  0.00    -0.337 N 
ATOM     13  C   UNL A   1      32.588  22.517  26.904  1.00  0.00     0.067 C 
ATOM     14  H   UNL A   1      32.826  25.026  25.725  1.00  0.00     0.168 HD
BRANCH   9  15
ATOM     15  C   UNL A   1      33.301  20.796  24.231  1.00  0.00     0.002 A 
ATOM     16  C   UNL A   1      33.453  18.016  23.896  1.00  0.00     0.118 A 
ATOM     17  C   UNL A   1      34.431  18.693  24.626  1.00  0.00     0.047 A 
ATOM     18  C   UNL A   1      32.382  18.729  23.354  1.00  0.00     0.047 A 
ATOM     19  C   UNL A   1      34.368  20.081  24.781  1.00  0.00     0.014 A 
ATOM     20  C   UNL A   1      32.307  20.115  23.523  1.00  0.00     0.014 A 
BRANCH  16  21
ATOM     21  O   UNL A   1      33.630  16.662  23.797  1.00  0.00    -0.497 OA
ATOM     22  C   UNL A   1      33.281  15.910  24.954  1.00  0.00     0.278 C 
ENDBRANCH  16  21
ENDBRANCH   9  15
ENDBRANCH   7   8
ENDBRANCH   6   7
ENDBRANCH   3   6
ENDBRANCH   1   2
BRANCH   1  23
ATOM     23  C   UNL A   1      32.903  29.095  24.885  1.00  0.00     0.042 C 
BRANCH  23  24
ATOM     24  C   UNL A   1      32.650  29.461  26.345  1.00  0.00     0.118 C 
BRANCH  24  25
ATOM     25  N   UNL A   1      32.412  30.885  26.535  1.00  0.00    -0.352 N 
ATOM     26  C   UNL A   1      33.142  31.807  27.249  1.00  0.00     0.251 C 
ATOM     27  H   UNL A   1      31.612  31.240  26.086  1.00  0.00     0.163 HD
ATOM     28  O   UNL A   1      32.681  32.930  27.435  1.00  0.00    -0.269 OA
BRANCH  26  29
ATOM     29  C   UNL A   1      34.458  31.436  27.816  1.00  0.00     0.039 A 
ATOM     30  C   UNL A   1      35.426  32.430  27.994  1.00  0.00     0.014 A 
ATOM     31  C   UNL A   1      34.739  30.115  28.172  1.00  0.00     0.014 A 
ATOM     32  C   UNL A   1      36.641  32.115  28.607  1.00  0.00     0.010 A 
ATOM     33  C   UNL A   1      35.923  29.817  28.843  1.00  0.00     0.010 A 
ATOM     34  C   UNL A   1      36.882  30.815  29.077  1.00  0.00    -0.014 A 
BRANCH  34  35
ATOM     35  C   UNL A   1      38.120  30.463  29.822  1.00  0.00     0.031 A 
ATOM     36  C   UNL A   1      39.094  29.481  29.230  1.00  0.00     0.074 A 
ATOM     37  C   UNL A   1      38.316  30.941  31.068  1.00  0.00     0.049 A 
ATOM     38  N   UNL A   1      40.127  28.900  29.783  1.00  0.00    -0.248 NA
ATOM     39  C   UNL A   1      38.847  29.076  27.839  1.00  0.00     0.031 C 
ATOM     40  C   UNL A   1      37.436  31.885  31.759  1.00  0.00     0.029 A 
ATOM     41  N   UNL A   1      39.305  30.680  31.984  1.00  0.00    -0.354 N 
ATOM     42  C   UNL A   1      40.641  28.041  28.818  1.00  0.00     0.074 A 
ATOM     43  C   UNL A   1      39.774  28.146  27.662  1.00  0.00     0.031 C 
ATOM     44  C   UNL A   1      37.925  32.127  32.986  1.00  0.00     0.029 A 
ATOM     45  C   UNL A   1      39.121  31.315  33.191  1.00  0.00     0.049 A 
ATOM     46  H   UNL A   1      40.073  30.095  31.794  1.00  0.00     0.167 HD
ATOM     47  C   UNL A   1      41.741  27.250  28.884  1.00  0.00     0.034 A 
ATOM     48  C   UNL A   1      39.818  31.230  34.343  1.00  0.00     0.034 A 
ATOM     49  C   UNL A   1      42.603  27.171  30.038  1.00  0.00     0.049 A 
ATOM     50  C   UNL A   1      41.019  30.320  34.406  1.00  0.00     0.074 A 
ATOM     51  C   UNL A   1      43.771  26.443  30.194  1.00  0.00     0.029 A 
ATOM     52  N   UNL A   1      42.392  27.840  31.237  1.00  0.00    -0.354 N 
ATOM     53  N   UNL A   1      41.505  29.531  33.476  1.00  0.00    -0.248 NA
ATOM     54  C   UNL A   1      41.764  30.291  35.671  1.00  0.00     0.031 C 
ATOM     55  C   UNL A   1      44.230  26.624  31.503  1.00  0.00     0.029 A 
ATOM     56  C   UNL A   1      43.390  27.521  32.144  1.00  0.00     0.049 A 
ATOM     57  H   UNL A   1      41.642  28.452  31.416  1.00  0.00     0.167 HD
ATOM     58  C   UNL A   1      42.635  28.940  34.034  1.00  0.00     0.074 A 
ATOM     59  C   UNL A   1      42.758  29.464  35.379  1.00  0.00     0.031 C 
ATOM     60  C   UNL A   1      43.498  28.050  33.482  1.00  0.00     0.034 A 
BRANCH  47  61
ATOM     61  C   UNL A   1      42.046  26.385  27.685  1.00  0.00     0.023 A 
ATOM     62  C   UNL A   1      41.595  25.057  27.598  1.00  0.00     0.031 A 
ATOM     63  C   UNL A   1      42.827  26.886  26.627  1.00  0.00     0.131 A 
ATOM     64  C   UNL A   1      41.992  24.251  26.522  1.00  0.00     0.055 A 
ATOM     65  C   UNL A   1      43.150  26.103  25.517  1.00  0.00     0.041 A 
ATOM     66  F   UNL A   1      43.302  28.140  26.662  1.00  0.00    -0.206 F 
ATOM     67  C   UNL A   1      42.747  24.772  25.467  1.00  0.00     0.022 A 
BRANCH  64  68
ATOM     68  S   UNL A   1      41.634  22.475  26.593  1.00  0.00     0.124 S 
ATOM     69  O   UNL A   1      40.173  22.471  26.608  1.00  0.00    -0.237 OA
ATOM     70  O   UNL A   1      42.262  21.977  25.376  1.00  0.00    -0.237 OA
ATOM     71  O   UNL A   1      42.264  22.048  27.841  1.00  0.00    -0.744 OA
ENDBRANCH  64  68
ENDBRANCH  47  61
BRANCH  48  72
ATOM     72  C   UNL A   1      39.388  32.004  35.542  1.00  0.00     0.023 A 
ATOM     73  C   UNL A   1      38.615  31.405  36.548  1.00  0.00     0.031 A 
ATOM     74  C   UNL A   1      39.711  33.366  35.680  1.00  0.00     0.131 A 
ATOM     75  C   UNL A   1      38.154  32.174  37.627  1.00  0.00     0.055 A 
ATOM     76  C   UNL A   1      39.290  34.116  36.780  1.00  0.00     0.041 A 
ATOM     77  F   UNL A   1      40.453  33.987  34.749  1.00  0.00    -0.206 F 
ATOM     78  C   UNL A   1      38.496  33.522  37.756  1.00  0.00     0.022 A 
BRANCH  75  79
ATOM     79  S   UNL A   1      37.029  31.405  38.824  1.00  0.00     0.124 S 
ATOM     80  O   UNL A   1      35.876  32.295  38.762  1.00  0.00    -0.237 OA
ATOM     81  O   UNL A   1      36.845  30.074  38.253  1.00  0.00    -0.237 OA
ATOM     82  O   UNL A   1      37.784  31.445  40.074  1.00  0.00    -0.744 OA
ENDBRANCH  75  79
ENDBRANCH  48  72
BRANCH  60  83
ATOM     83  C   UNL A   1      44.686  27.636  34.314  1.00  0.00     0.023 A 
ATOM     84  C   UNL A   1      44.656  26.496  35.135  1.00  0.00     0.031 A 
ATOM     85  C   UNL A   1      45.870  28.392  34.269  1.00  0.00     0.131 A 
ATOM     86  C   UNL A   1      45.779  26.167  35.910  1.00  0.00     0.055 A 
ATOM     87  C   UNL A   1      47.000  28.032  35.002  1.00  0.00     0.041 A 
ATOM     88  F   UNL A   1      45.950  29.490  33.500  1.00  0.00    -0.206 F 
ATOM     89  C   UNL A   1      46.956  26.918  35.836  1.00  0.00     0.022 A 
BRANCH  86  90
ATOM     90  S   UNL A   1      45.665  24.774  37.065  1.00  0.00     0.124 S 
ATOM     91  O   UNL A   1      45.991  23.640  36.206  1.00  0.00    -0.237 OA
ATOM     92  O   UNL A   1      46.665  25.118  38.072  1.00  0.00    -0.237 OA
ATOM     93  O   UNL A   1      44.279  24.823  37.528  1.00  0.00    -0.744 OA
ENDBRANCH  86  90
ENDBRANCH  60  83
ENDBRANCH  34  35
ENDBRANCH  26  29
ENDBRANCH  24  25
ENDBRANCH  23  24
ENDBRANCH   1  23
TORSDOF 17
ENDMDL
MODEL 3
REMARK VINA RESULT:     -11.7      1.934      2.417
REMARK SMILES COc1ccc(-c2nc(SCC(=O)NCCCNC(=O)c3ccc(-c4c5nc(c(-c6cc(S(=O)(=O)[O-])ccc6F)c6ccc([nH]6)c(-c6cc(S(=O)(=O)[O-])ccc6F)c6nc(c(-c7cc(S(=O)(=O)[O-])ccc7F)c7ccc4[nH]7)C=C6)C=C5)cc3)[nH]c2C)cc1
REMARK SMILES IDX 15 1 14 2 12 3 13 4 11 6 10 7 9 8 7 9 8 10 85 11 84 12 86 13
REMARK SMILES IDX 6 15 3 16 4 17 88 18 5 19 87 20 2 21 1 22 16 23 17 24 18 25
REMARK SMILES IDX 19 26 20 28 21 29 22 30 83 31 23 32 82 33 24 34 25 35 26 36
REMARK SMILES IDX 76 37 27 38 81 39 75 40 77 41 28 42 80 43 74 44 73 45 29 47
REMARK SMILES IDX 61 48 41 49 60 50 42 51 45 52 59 53 78 54 43 55 44 56 58 58
REMARK SMILES IDX 79 59 46 60 30 61 31 62 39 63 32 64 38 65 40 66 37 67 33 68
REMARK SMILES IDX 34 69 35 70 36 71 62 72 63 73 71 74 64 75 70 76 72 77 69 78
REMARK SMILES IDX 65 79 66 80 67 81 68 82 47 83 48 84 56 85 49 86 55 87 57 88
REMARK SMILES IDX 54 89 50 90 51 91 52 92 53 93
REMARK H PARENT 14 5 84 14 18 27 77 46 45 57
REMARK Flexibility Score: inf
ROOT
ATOM      1  C   UNL A   1      36.471  20.792  25.247  1.00  0.00     0.117 C 
ENDROOT
BRANCH   1   2
ATOM      2  N   UNL A   1      35.948  21.777  26.175  1.00  0.00    -0.355 N 
ATOM      3  C   UNL A   1      34.880  22.620  26.056  1.00  0.00     0.230 C 
ATOM      4  O   UNL A   1      34.593  23.300  27.046  1.00  0.00    -0.274 OA
ATOM      5  H   UNL A   1      36.440  21.849  27.024  1.00  0.00     0.163 HD
BRANCH   3   6
ATOM      6  C   UNL A   1      33.997  22.602  24.820  1.00  0.00     0.178 C 
BRANCH   6   7
ATOM      7  S   UNL A   1      32.233  22.370  25.165  1.00  0.00    -0.078 SA
BRANCH   7   8
ATOM      8  C   UNL A   1      31.662  23.990  25.196  1.00  0.00     0.166 A 
ATOM      9  C   UNL A   1      30.793  25.881  24.768  1.00  0.00     0.092 A 
ATOM     10  N   UNL A   1      30.929  24.596  24.300  1.00  0.00    -0.222 NA
ATOM     11  C   UNL A   1      31.451  26.048  25.973  1.00  0.00     0.040 A 
ATOM     12  N   UNL A   1      31.995  24.811  26.231  1.00  0.00    -0.337 N 
ATOM     13  C   UNL A   1      31.621  27.193  26.894  1.00  0.00     0.067 C 
ATOM     14  H   UNL A   1      32.528  24.565  27.021  1.00  0.00     0.168 HD
BRANCH   9  15
ATOM     15  C   UNL A   1      30.064  26.898  24.048  1.00  0.00     0.002 A 
ATOM     16  C   UNL A   1      28.655  28.833  22.586  1.00  0.00     0.118 A 
ATOM     17  C   UNL A   1      27.971  27.811  23.246  1.00  0.00     0.047 A 
ATOM     18  C   UNL A   1      30.047  28.902  22.679  1.00  0.00     0.047 A 
ATOM     19  C   UNL A   1      28.671  26.835  23.961  1.00  0.00     0.014 A 
ATOM     20  C   UNL A   1      30.748  27.937  23.409  1.00  0.00     0.014 A 
BRANCH  16  21
ATOM     21  O   UNL A   1      27.866  29.720  21.904  1.00  0.00    -0.497 OA
ATOM     22  C   UNL A   1      28.547  30.818  21.309  1.00  0.00     0.278 C 
ENDBRANCH  16  21
ENDBRANCH   9  15
ENDBRANCH   7   8
ENDBRANCH   6   7
ENDBRANCH   3   6
ENDBRANCH   1   2
BRANCH   1  23
ATOM     23  C   UNL A   1      37.930  21.056  24.884  1.00  0.00     0.042 C 
BRANCH  23  24
ATOM     24  C   UNL A   1      38.886  21.022  26.074  1.00  0.00     0.118 C 
BRANCH  24  25
ATOM     25  N   UNL A   1      39.827  19.914  26.008  1.00  0.00    -0.352 N 
ATOM     26  C   UNL A   1      41.201  19.926  26.070  1.00  0.00     0.251 C 
ATOM     27  H   UNL A   1      39.420  19.023  25.905  1.00  0.00     0.163 HD
ATOM     28  O   UNL A   1      41.828  18.900  25.819  1.00  0.00    -0.269 OA
BRANCH  26  29
ATOM     29  C   UNL A   1      41.919  21.177  26.404  1.00  0.00     0.039 A 
ATOM     30  C   UNL A   1      42.238  22.073  25.379  1.00  0.00     0.014 A 
ATOM     31  C   UNL A   1      42.278  21.467  27.723  1.00  0.00     0.014 A 
ATOM     32  C   UNL A   1      42.838  23.297  25.686  1.00  0.00     0.010 A 
ATOM     33  C   UNL A   1      42.815  22.714  28.035  1.00  0.00     0.010 A 
ATOM     34  C   UNL A   1      43.091  23.646  27.022  1.00  0.00    -0.014 A 
BRANCH  34  35
ATOM     35  C   UNL A   1      43.637  24.977  27.398  1.00  0.00     0.031 A 
ATOM     36  C   UNL A   1      42.725  26.023  27.977  1.00  0.00     0.074 A 
ATOM     37  C   UNL A   1      44.923  25.279  27.123  1.00  0.00     0.049 A 
ATOM     38  N   UNL A   1      42.951  27.293  28.198  1.00  0.00    -0.248 NA
ATOM     39  C   UNL A   1      41.365  25.584  28.321  1.00  0.00     0.031 C 
ATOM     40  C   UNL A   1      45.903  24.358  26.546  1.00  0.00     0.029 A 
ATOM     41  N   UNL A   1      45.620  26.453  27.270  1.00  0.00    -0.354 N 
ATOM     42  C   UNL A   1      41.756  27.812  28.683  1.00  0.00     0.074 A 
ATOM     43  C   UNL A   1      40.797  26.726  28.678  1.00  0.00     0.031 C 
ATOM     44  C   UNL A   1      47.073  24.999  26.392  1.00  0.00     0.029 A 
ATOM     45  C   UNL A   1      46.914  26.389  26.806  1.00  0.00     0.049 A 
ATOM     46  H   UNL A   1      45.231  27.264  27.671  1.00  0.00     0.167 HD
ATOM     47  C   UNL A   1      41.487  29.072  29.105  1.00  0.00     0.034 A 
ATOM     48  C   UNL A   1      47.855  27.349  26.696  1.00  0.00     0.034 A 
ATOM     49  C   UNL A   1      42.460  30.138  29.119  1.00  0.00     0.049 A 
ATOM     50  C   UNL A   1      47.526  28.751  27.142  1.00  0.00     0.074 A 
ATOM     51  C   UNL A   1      42.310  31.437  29.575  1.00  0.00     0.029 A 
ATOM     52  N   UNL A   1      43.765  30.030  28.654  1.00  0.00    -0.354 N 
ATOM     53  N   UNL A   1      46.398  29.221  27.620  1.00  0.00    -0.248 NA
ATOM     54  C   UNL A   1      48.597  29.750  27.035  1.00  0.00     0.031 C 
ATOM     55  C   UNL A   1      43.501  32.129  29.330  1.00  0.00     0.029 A 
ATOM     56  C   UNL A   1      44.420  31.244  28.786  1.00  0.00     0.049 A 
ATOM     57  H   UNL A   1      44.165  29.211  28.284  1.00  0.00     0.167 HD
ATOM     58  C   UNL A   1      46.636  30.563  27.904  1.00  0.00     0.074 A 
ATOM     59  C   UNL A   1      48.015  30.826  27.546  1.00  0.00     0.031 C 
ATOM     60  C   UNL A   1      45.794  31.492  28.423  1.00  0.00     0.034 A 
BRANCH  47  61
ATOM     61  C   UNL A   1      40.076  29.368  29.553  1.00  0.00     0.023 A 
ATOM     62  C   UNL A   1      39.744  29.491  30.914  1.00  0.00     0.031 A 
ATOM     63  C   UNL A   1      39.042  29.498  28.609  1.00  0.00     0.131 A 
ATOM     64  C   UNL A   1      38.404  29.654  31.295  1.00  0.00     0.055 A 
ATOM     65  C   UNL A   1      37.722  29.744  28.992  1.00  0.00     0.041 A 
ATOM     66  F   UNL A   1      39.294  29.372  27.297  1.00  0.00    -0.206 F 
ATOM     67  C   UNL A   1      37.394  29.807  30.343  1.00  0.00     0.022 A 
BRANCH  64  68
ATOM     68  S   UNL A   1      37.984  29.516  33.054  1.00  0.00     0.124 S 
ATOM     69  O   UNL A   1      37.142  30.694  33.248  1.00  0.00    -0.237 OA
ATOM     70  O   UNL A   1      37.306  28.227  33.116  1.00  0.00    -0.237 OA
ATOM     71  O   UNL A   1      39.283  29.572  33.722  1.00  0.00    -0.744 OA
ENDBRANCH  64  68
ENDBRANCH  47  61
BRANCH  48  72
ATOM     72  C   UNL A   1      49.192  27.030  26.116  1.00  0.00     0.023 A 
ATOM     73  C   UNL A   1      49.518  27.410  24.806  1.00  0.00     0.031 A 
ATOM     74  C   UNL A   1      50.147  26.306  26.852  1.00  0.00     0.131 A 
ATOM     75  C   UNL A   1      50.750  27.028  24.254  1.00  0.00     0.055 A 
ATOM     76  C   UNL A   1      51.391  25.970  26.314  1.00  0.00     0.041 A 
ATOM     77  F   UNL A   1      49.888  25.923  28.112  1.00  0.00    -0.206 F 
ATOM     78  C   UNL A   1      51.694  26.322  25.003  1.00  0.00     0.022 A 
BRANCH  75  79
ATOM     79  S   UNL A   1      51.072  27.401  22.508  1.00  0.00     0.124 S 
ATOM     80  O   UNL A   1      52.374  26.775  22.306  1.00  0.00    -0.237 OA
ATOM     81  O   UNL A   1      49.941  26.756  21.848  1.00  0.00    -0.237 OA
ATOM     82  O   UNL A   1      51.066  28.861  22.466  1.00  0.00    -0.744 OA
ENDBRANCH  75  79
ENDBRANCH  48  72
BRANCH  60  83
ATOM     83  C   UNL A   1      46.361  32.863  28.690  1.00  0.00     0.023 A 
ATOM     84  C   UNL A   1      46.240  33.911  27.762  1.00  0.00     0.031 A 
ATOM     85  C   UNL A   1      47.024  33.122  29.903  1.00  0.00     0.131 A 
ATOM     86  C   UNL A   1      46.808  35.163  28.047  1.00  0.00     0.055 A 
ATOM     87  C   UNL A   1      47.542  34.382  30.202  1.00  0.00     0.041 A 
ATOM     88  F   UNL A   1      47.167  32.155  30.823  1.00  0.00    -0.206 F 
ATOM     89  C   UNL A   1      47.444  35.409  29.267  1.00  0.00     0.022 A 
BRANCH  86  90
ATOM     90  S   UNL A   1      46.758  36.454  26.775  1.00  0.00     0.124 S 
ATOM     91  O   UNL A   1      46.944  35.682  25.551  1.00  0.00    -0.237 OA
ATOM     92  O   UNL A   1      45.432  37.033  26.968  1.00  0.00    -0.237 OA
ATOM     93  O   UNL A   1      47.873  37.331  27.131  1.00  0.00    -0.744 OA
ENDBRANCH  86  90
ENDBRANCH  60  83
ENDBRANCH  34  35
ENDBRANCH  26  29
ENDBRANCH  24  25
ENDBRANCH  23  24
ENDBRANCH   1  23
TORSDOF 17
ENDMDL
