MODEL 1
REMARK VINA RESULT:     -10.9      0.000      0.000
REMARK SMILES CC(C)C[C@H](NC(=O)[C@H](Cc1ccccc1)NC(=O)CNC(=O)C[NH3+])C(=O)NCCCNC(=O)c1ccc(-c2c3nc(c(-c4cc(S(=O)(=O)[O-])ccc4F)c4ccc([nH]4)c(-c4cc(S(=O)(=O)[O-])ccc4F)c4nc(c(-c5cc(S(=O)(=O)[O-])ccc5F)c5ccc2[nH]5)C=C4)C=C3)cc1
REMARK SMILES IDX 26 1 27 2 28 3 5 5 4 6 2 7 1 8 3 9 6 10 7 11 8 13 9 14 17 15
REMARK SMILES IDX 18 16 19 18 20 19 21 20 22 21 23 23 24 24 25 25 10 29 11 30
REMARK SMILES IDX 12 31 16 32 13 33 15 34 14 35 29 36 30 37 31 38 32 39 33 40
REMARK SMILES IDX 34 42 35 43 36 44 97 45 37 46 96 47 38 48 39 49 40 50 90 51
REMARK SMILES IDX 41 52 95 53 89 54 91 55 42 56 94 57 88 58 87 59 43 61 75 62
REMARK SMILES IDX 55 63 74 64 56 65 59 66 73 67 92 68 57 69 58 70 72 72 93 73
REMARK SMILES IDX 60 74 44 75 45 76 53 77 46 78 52 79 54 80 51 81 47 82 48 83
REMARK SMILES IDX 49 84 50 85 76 86 77 87 85 88 78 89 84 90 86 91 83 92 79 93
REMARK SMILES IDX 80 94 81 95 82 96 61 97 62 98 70 99 63 100 69 101 71 102
REMARK SMILES IDX 68 103 64 104 65 105 66 106 67 107
REMARK H PARENT 28 4 6 12 17 17 21 22 25 26 25 27 25 28 32 41 91 60 59 71
REMARK Flexibility Score: inf
ROOT
ATOM      1  C   UNL A   1      37.088  23.522  25.691  1.00  0.00     0.242 C 
ATOM      2  O   UNL A   1      37.590  24.395  26.400  1.00  0.00    -0.273 OA
ATOM      3  N   UNL A   1      37.880  22.508  25.222  1.00  0.00    -0.354 N 
ATOM      4  H   UNL A   1      38.846  22.602  25.387  1.00  0.00     0.163 HD
ENDROOT
BRANCH   1   5
ATOM      5  C   UNL A   1      35.590  23.537  25.332  1.00  0.00     0.171 C 
BRANCH   5   6
ATOM      6  C   UNL A   1      35.193  24.846  24.653  1.00  0.00     0.038 C 
BRANCH   6   7
ATOM      7  C   UNL A   1      33.962  24.919  23.731  1.00  0.00    -0.015 C 
ATOM      8  C   UNL A   1      33.869  26.260  23.009  1.00  0.00     0.007 C 
ATOM      9  C   UNL A   1      34.063  23.779  22.708  1.00  0.00     0.007 C 
ENDBRANCH   6   7
ENDBRANCH   5   6
BRANCH   5  10
ATOM     10  N   UNL A   1      34.883  23.187  26.593  1.00  0.00    -0.343 N 
ATOM     11  C   UNL A   1      33.903  22.381  27.054  1.00  0.00     0.243 C 
ATOM     12  H   UNL A   1      35.252  23.718  27.335  1.00  0.00     0.164 HD
ATOM     13  O   UNL A   1      33.755  22.425  28.287  1.00  0.00    -0.273 OA
BRANCH  11  14
ATOM     14  C   UNL A   1      32.892  21.555  26.215  1.00  0.00     0.175 C 
BRANCH  14  15
ATOM     15  N   UNL A   1      32.864  20.130  26.451  1.00  0.00    -0.342 N 
ATOM     16  C   UNL A   1      32.646  19.100  25.578  1.00  0.00     0.240 C 
ATOM     17  H   UNL A   1      33.028  19.859  27.383  1.00  0.00     0.164 HD
ATOM     18  O   UNL A   1      32.515  17.970  26.059  1.00  0.00    -0.273 OA
BRANCH  16  19
ATOM     19  C   UNL A   1      32.807  19.294  24.066  1.00  0.00     0.216 C 
BRANCH  19  20
ATOM     20  N   UNL A   1      33.038  18.085  23.304  1.00  0.00    -0.342 N 
ATOM     21  C   UNL A   1      34.093  17.224  23.410  1.00  0.00     0.275 C 
ATOM     22  H   UNL A   1      32.355  17.858  22.632  1.00  0.00     0.164 HD
ATOM     23  O   UNL A   1      34.108  16.217  22.700  1.00  0.00    -0.268 OA
BRANCH  21  24
ATOM     24  C   UNL A   1      35.251  17.549  24.362  1.00  0.00     0.360 C 
BRANCH  24  25
ATOM     25  N   UNL A   1      35.324  16.539  25.434  1.00  0.00    -0.350 N 
ATOM     26  H   UNL A   1      34.798  16.864  26.245  1.00  0.00     0.344 HD
ATOM     27  H   UNL A   1      36.300  16.395  25.698  1.00  0.00     0.344 HD
ATOM     28  H   UNL A   1      34.929  15.660  25.101  1.00  0.00     0.344 HD
ENDBRANCH  24  25
ENDBRANCH  21  24
ENDBRANCH  19  20
ENDBRANCH  16  19
ENDBRANCH  14  15
BRANCH  14  29
ATOM     29  C   UNL A   1      31.487  22.227  26.380  1.00  0.00     0.070 C 
BRANCH  29  30
ATOM     30  C   UNL A   1      31.037  23.407  25.528  1.00  0.00    -0.045 A 
ATOM     31  C   UNL A   1      30.976  24.729  25.994  1.00  0.00     0.004 A 
ATOM     32  C   UNL A   1      30.815  23.203  24.157  1.00  0.00     0.004 A 
ATOM     33  C   UNL A   1      30.601  25.786  25.162  1.00  0.00     0.000 A 
ATOM     34  C   UNL A   1      30.487  24.268  23.308  1.00  0.00     0.000 A 
ATOM     35  C   UNL A   1      30.358  25.557  23.816  1.00  0.00     0.000 A 
ENDBRANCH  29  30
ENDBRANCH  14  29
ENDBRANCH  11  14
ENDBRANCH   5  10
ENDBRANCH   1   5
BRANCH   3  36
ATOM     36  C   UNL A   1      37.465  21.310  24.509  1.00  0.00     0.117 C 
BRANCH  36  37
ATOM     37  C   UNL A   1      38.165  20.059  24.991  1.00  0.00     0.042 C 
BRANCH  37  38
ATOM     38  C   UNL A   1      39.329  20.347  25.921  1.00  0.00     0.118 C 
BRANCH  38  39
ATOM     39  N   UNL A   1      40.297  19.257  25.992  1.00  0.00    -0.352 N 
ATOM     40  C   UNL A   1      41.662  19.339  26.162  1.00  0.00     0.251 C 
ATOM     41  H   UNL A   1      39.928  18.348  25.909  1.00  0.00     0.163 HD
ATOM     42  O   UNL A   1      42.361  18.336  26.065  1.00  0.00    -0.269 OA
BRANCH  40  43
ATOM     43  C   UNL A   1      42.260  20.666  26.409  1.00  0.00     0.039 A 
ATOM     44  C   UNL A   1      42.544  21.502  25.328  1.00  0.00     0.014 A 
ATOM     45  C   UNL A   1      42.416  21.121  27.720  1.00  0.00     0.014 A 
ATOM     46  C   UNL A   1      42.890  22.833  25.568  1.00  0.00     0.010 A 
ATOM     47  C   UNL A   1      42.641  22.470  27.949  1.00  0.00     0.010 A 
ATOM     48  C   UNL A   1      42.885  23.343  26.878  1.00  0.00    -0.014 A 
BRANCH  48  49
ATOM     49  C   UNL A   1      43.151  24.776  27.163  1.00  0.00     0.031 A 
ATOM     50  C   UNL A   1      44.518  25.343  26.883  1.00  0.00     0.074 A 
ATOM     51  C   UNL A   1      42.205  25.538  27.750  1.00  0.00     0.049 A 
ATOM     52  N   UNL A   1      45.001  26.524  27.169  1.00  0.00    -0.248 NA
ATOM     53  C   UNL A   1      45.485  24.440  26.239  1.00  0.00     0.031 C 
ATOM     54  C   UNL A   1      40.863  25.085  28.127  1.00  0.00     0.029 A 
ATOM     55  N   UNL A   1      42.229  26.853  28.144  1.00  0.00    -0.354 N 
ATOM     56  C   UNL A   1      46.333  26.493  26.767  1.00  0.00     0.074 A 
ATOM     57  C   UNL A   1      46.598  25.153  26.294  1.00  0.00     0.031 C 
ATOM     58  C   UNL A   1      40.184  26.113  28.663  1.00  0.00     0.029 A 
ATOM     59  C   UNL A   1      41.054  27.284  28.715  1.00  0.00     0.049 A 
ATOM     60  H   UNL A   1      43.015  27.434  28.028  1.00  0.00     0.167 HD
ATOM     61  C   UNL A   1      47.242  27.499  26.759  1.00  0.00     0.034 A 
ATOM     62  C   UNL A   1      40.718  28.484  29.229  1.00  0.00     0.034 A 
ATOM     63  C   UNL A   1      46.946  28.839  27.200  1.00  0.00     0.049 A 
ATOM     64  C   UNL A   1      41.741  29.593  29.202  1.00  0.00     0.074 A 
ATOM     65  C   UNL A   1      47.764  29.954  27.177  1.00  0.00     0.029 A 
ATOM     66  N   UNL A   1      45.733  29.245  27.743  1.00  0.00    -0.354 N 
ATOM     67  N   UNL A   1      42.980  29.563  28.768  1.00  0.00    -0.248 NA
ATOM     68  C   UNL A   1      41.316  30.899  29.722  1.00  0.00     0.031 C 
ATOM     69  C   UNL A   1      47.068  31.019  27.760  1.00  0.00     0.029 A 
ATOM     70  C   UNL A   1      45.789  30.588  28.078  1.00  0.00     0.049 A 
ATOM     71  H   UNL A   1      44.949  28.664  27.870  1.00  0.00     0.167 HD
ATOM     72  C   UNL A   1      43.469  30.855  28.930  1.00  0.00     0.074 A 
ATOM     73  C   UNL A   1      42.390  31.641  29.492  1.00  0.00     0.031 C 
ATOM     74  C   UNL A   1      44.698  31.352  28.637  1.00  0.00     0.034 A 
BRANCH  61  75
ATOM     75  C   UNL A   1      48.633  27.173  26.271  1.00  0.00     0.023 A 
ATOM     76  C   UNL A   1      49.071  27.548  24.988  1.00  0.00     0.031 A 
ATOM     77  C   UNL A   1      49.520  26.438  27.077  1.00  0.00     0.131 A 
ATOM     78  C   UNL A   1      50.317  27.111  24.516  1.00  0.00     0.055 A 
ATOM     79  C   UNL A   1      50.796  26.084  26.636  1.00  0.00     0.041 A 
ATOM     80  F   UNL A   1      49.152  26.032  28.303  1.00  0.00    -0.206 F 
ATOM     81  C   UNL A   1      51.195  26.405  25.341  1.00  0.00     0.022 A 
BRANCH  78  82
ATOM     82  S   UNL A   1      50.703  27.341  22.758  1.00  0.00     0.124 S 
ATOM     83  O   UNL A   1      50.733  28.797  22.653  1.00  0.00    -0.237 OA
ATOM     84  O   UNL A   1      51.988  26.665  22.627  1.00  0.00    -0.237 OA
ATOM     85  O   UNL A   1      49.585  26.696  22.075  1.00  0.00    -0.744 OA
ENDBRANCH  78  82
ENDBRANCH  61  75
BRANCH  62  86
ATOM     86  C   UNL A   1      39.361  28.711  29.807  1.00  0.00     0.023 A 
ATOM     87  C   UNL A   1      38.338  29.290  29.040  1.00  0.00     0.031 A 
ATOM     88  C   UNL A   1      39.079  28.391  31.147  1.00  0.00     0.131 A 
ATOM     89  C   UNL A   1      37.096  29.574  29.628  1.00  0.00     0.055 A 
ATOM     90  C   UNL A   1      37.825  28.629  31.714  1.00  0.00     0.041 A 
ATOM     91  F   UNL A   1      40.019  27.829  31.923  1.00  0.00    -0.206 F 
ATOM     92  C   UNL A   1      36.828  29.237  30.957  1.00  0.00     0.022 A 
BRANCH  89  93
ATOM     93  S   UNL A   1      35.857  30.471  28.653  1.00  0.00     0.124 S 
ATOM     94  O   UNL A   1      35.105  29.376  28.049  1.00  0.00    -0.237 OA
ATOM     95  O   UNL A   1      35.161  31.238  29.680  1.00  0.00    -0.237 OA
ATOM     96  O   UNL A   1      36.662  31.263  27.725  1.00  0.00    -0.744 OA
ENDBRANCH  89  93
ENDBRANCH  62  86
BRANCH  74  97
ATOM     97  C   UNL A   1      44.916  32.826  28.865  1.00  0.00     0.023 A 
ATOM     98  C   UNL A   1      45.436  33.321  30.073  1.00  0.00     0.031 A 
ATOM     99  C   UNL A   1      44.602  33.748  27.850  1.00  0.00     0.131 A 
ATOM    100  C   UNL A   1      45.580  34.705  30.254  1.00  0.00     0.055 A 
ATOM    101  C   UNL A   1      44.802  35.118  28.014  1.00  0.00     0.041 A 
ATOM    102  F   UNL A   1      44.102  33.328  26.677  1.00  0.00    -0.206 F 
ATOM    103  C   UNL A   1      45.283  35.605  29.226  1.00  0.00     0.022 A 
BRANCH 100 104
ATOM    104  S   UNL A   1      46.088  35.322  31.882  1.00  0.00     0.124 S 
ATOM    105  O   UNL A   1      46.569  34.106  32.530  1.00  0.00    -0.237 OA
ATOM    106  O   UNL A   1      47.108  36.307  31.539  1.00  0.00    -0.237 OA
ATOM    107  O   UNL A   1      44.855  35.876  32.440  1.00  0.00    -0.744 OA
ENDBRANCH 100 104
ENDBRANCH  74  97
ENDBRANCH  48  49
ENDBRANCH  40  43
ENDBRANCH  38  39
ENDBRANCH  37  38
ENDBRANCH  36  37
ENDBRANCH   3  36
TORSDOF 24
ENDMDL
MODEL 2
REMARK VINA RESULT:     -10.6      2.408      4.485
REMARK SMILES CC(C)C[C@H](NC(=O)[C@H](Cc1ccccc1)NC(=O)CNC(=O)C[NH3+])C(=O)NCCCNC(=O)c1ccc(-c2c3nc(c(-c4cc(S(=O)(=O)[O-])ccc4F)c4ccc([nH]4)c(-c4cc(S(=O)(=O)[O-])ccc4F)c4nc(c(-c5cc(S(=O)(=O)[O-])ccc5F)c5ccc2[nH]5)C=C4)C=C3)cc1
REMARK SMILES IDX 26 1 27 2 28 3 5 5 4 6 2 7 1 8 3 9 6 10 7 11 8 13 9 14 17 15
REMARK SMILES IDX 18 16 19 18 20 19 21 20 22 21 23 23 24 24 25 25 10 29 11 30
REMARK SMILES IDX 12 31 16 32 13 33 15 34 14 35 29 36 30 37 31 38 32 39 33 40
REMARK SMILES IDX 34 42 35 43 36 44 97 45 37 46 96 47 38 48 39 49 40 50 90 51
REMARK SMILES IDX 41 52 95 53 89 54 91 55 42 56 94 57 88 58 87 59 43 61 75 62
REMARK SMILES IDX 55 63 74 64 56 65 59 66 73 67 92 68 57 69 58 70 72 72 93 73
REMARK SMILES IDX 60 74 44 75 45 76 53 77 46 78 52 79 54 80 51 81 47 82 48 83
REMARK SMILES IDX 49 84 50 85 76 86 77 87 85 88 78 89 84 90 86 91 83 92 79 93
REMARK SMILES IDX 80 94 81 95 82 96 61 97 62 98 70 99 63 100 69 101 71 102
REMARK SMILES IDX 68 103 64 104 65 105 66 106 67 107
REMARK H PARENT 28 4 6 12 17 17 21 22 25 26 25 27 25 28 32 41 91 60 59 71
REMARK Flexibility Score: inf
ROOT
ATOM      1  C   UNL A   1      32.665  22.491  23.178  1.00  0.00     0.242 C 
ATOM      2  O   UNL A   1      32.018  21.921  22.299  1.00  0.00    -0.273 OA
ATOM      3  N   UNL A   1      33.751  21.858  23.722  1.00  0.00    -0.354 N 
ATOM      4  H   UNL A   1      33.883  20.919  23.456  1.00  0.00     0.163 HD
ENDROOT
BRANCH   1   5
ATOM      5  C   UNL A   1      32.292  23.904  23.668  1.00  0.00     0.171 C 
BRANCH   5   6
ATOM      6  C   UNL A   1      33.423  24.898  23.412  1.00  0.00     0.038 C 
BRANCH   6   7
ATOM      7  C   UNL A   1      33.465  25.735  22.120  1.00  0.00    -0.015 C 
ATOM      8  C   UNL A   1      32.191  25.576  21.296  1.00  0.00     0.007 C 
ATOM      9  C   UNL A   1      33.654  27.208  22.512  1.00  0.00     0.007 C 
ENDBRANCH   6   7
ENDBRANCH   5   6
BRANCH   5  10
ATOM     10  N   UNL A   1      31.854  23.725  25.078  1.00  0.00    -0.343 N 
ATOM     11  C   UNL A   1      30.951  24.201  25.962  1.00  0.00     0.243 C 
ATOM     12  H   UNL A   1      32.404  23.030  25.508  1.00  0.00     0.164 HD
ATOM     13  O   UNL A   1      30.958  23.610  27.054  1.00  0.00    -0.273 OA
BRANCH  11  14
ATOM     14  C   UNL A   1      30.050  25.454  25.802  1.00  0.00     0.175 C 
BRANCH  14  15
ATOM     15  N   UNL A   1      30.278  26.540  26.728  1.00  0.00    -0.342 N 
ATOM     16  C   UNL A   1      31.438  27.189  27.052  1.00  0.00     0.240 C 
ATOM     17  H   UNL A   1      29.475  26.861  27.199  1.00  0.00     0.164 HD
ATOM     18  O   UNL A   1      31.397  27.982  27.997  1.00  0.00    -0.273 OA
BRANCH  16  19
ATOM     19  C   UNL A   1      32.663  27.128  26.134  1.00  0.00     0.216 C 
BRANCH  19  20
ATOM     20  N   UNL A   1      33.870  27.727  26.663  1.00  0.00    -0.342 N 
ATOM     21  C   UNL A   1      34.203  29.052  26.680  1.00  0.00     0.275 C 
ATOM     22  H   UNL A   1      34.526  27.108  27.059  1.00  0.00     0.164 HD
ATOM     23  O   UNL A   1      35.263  29.389  27.209  1.00  0.00    -0.268 OA
BRANCH  21  24
ATOM     24  C   UNL A   1      33.285  30.077  26.001  1.00  0.00     0.360 C 
BRANCH  24  25
ATOM     25  N   UNL A   1      32.489  30.794  27.014  1.00  0.00    -0.350 N 
ATOM     26  H   UNL A   1      31.650  31.178  26.579  1.00  0.00     0.344 HD
ATOM     27  H   UNL A   1      33.046  31.554  27.408  1.00  0.00     0.344 HD
ATOM     28  H   UNL A   1      32.222  30.148  27.757  1.00  0.00     0.344 HD
ENDBRANCH  24  25
ENDBRANCH  21  24
ENDBRANCH  19  20
ENDBRANCH  16  19
ENDBRANCH  14  15
BRANCH  14  29
ATOM     29  C   UNL A   1      30.134  25.904  24.304  1.00  0.00     0.070 C 
BRANCH  29  30
ATOM     30  C   UNL A   1      29.601  27.246  23.820  1.00  0.00    -0.045 A 
ATOM     31  C   UNL A   1      30.416  28.347  23.515  1.00  0.00     0.004 A 
ATOM     32  C   UNL A   1      28.237  27.357  23.506  1.00  0.00     0.004 A 
ATOM     33  C   UNL A   1      29.886  29.544  23.029  1.00  0.00     0.000 A 
ATOM     34  C   UNL A   1      27.709  28.539  22.973  1.00  0.00     0.000 A 
ATOM     35  C   UNL A   1      28.530  29.640  22.755  1.00  0.00     0.000 A 
ENDBRANCH  29  30
ENDBRANCH  14  29
ENDBRANCH  11  14
ENDBRANCH   5  10
ENDBRANCH   1   5
BRANCH   3  36
ATOM     36  C   UNL A   1      34.732  22.406  24.647  1.00  0.00     0.117 C 
BRANCH  36  37
ATOM     37  C   UNL A   1      36.128  21.873  24.416  1.00  0.00     0.042 C 
BRANCH  37  38
ATOM     38  C   UNL A   1      37.092  22.222  25.534  1.00  0.00     0.118 C 
BRANCH  38  39
ATOM     39  N   UNL A   1      38.173  21.254  25.691  1.00  0.00    -0.352 N 
ATOM     40  C   UNL A   1      39.427  21.453  26.225  1.00  0.00     0.251 C 
ATOM     41  H   UNL A   1      37.981  20.341  25.377  1.00  0.00     0.163 HD
ATOM     42  O   UNL A   1      40.276  20.571  26.164  1.00  0.00    -0.269 OA
BRANCH  40  43
ATOM     43  C   UNL A   1      39.735  22.770  26.820  1.00  0.00     0.039 A 
ATOM     44  C   UNL A   1      40.724  22.865  27.800  1.00  0.00     0.014 A 
ATOM     45  C   UNL A   1      39.127  23.919  26.308  1.00  0.00     0.014 A 
ATOM     46  C   UNL A   1      41.173  24.126  28.194  1.00  0.00     0.010 A 
ATOM     47  C   UNL A   1      39.660  25.162  26.612  1.00  0.00     0.010 A 
ATOM     48  C   UNL A   1      40.686  25.284  27.562  1.00  0.00    -0.014 A 
BRANCH  48  49
ATOM     49  C   UNL A   1      41.213  26.635  27.884  1.00  0.00     0.031 A 
ATOM     50  C   UNL A   1      42.629  26.984  27.510  1.00  0.00     0.074 A 
ATOM     51  C   UNL A   1      40.459  27.507  28.585  1.00  0.00     0.049 A 
ATOM     52  N   UNL A   1      43.327  28.050  27.803  1.00  0.00    -0.248 NA
ATOM     53  C   UNL A   1      43.375  25.971  26.744  1.00  0.00     0.031 C 
ATOM     54  C   UNL A   1      39.094  27.261  29.058  1.00  0.00     0.029 A 
ATOM     55  N   UNL A   1      40.736  28.775  29.031  1.00  0.00    -0.354 N 
ATOM     56  C   UNL A   1      44.598  27.823  27.284  1.00  0.00     0.074 A 
ATOM     57  C   UNL A   1      44.594  26.487  26.732  1.00  0.00     0.031 C 
ATOM     58  C   UNL A   1      38.644  28.354  29.696  1.00  0.00     0.029 A 
ATOM     59  C   UNL A   1      39.700  29.361  29.722  1.00  0.00     0.049 A 
ATOM     60  H   UNL A   1      41.598  29.224  28.872  1.00  0.00     0.167 HD
ATOM     61  C   UNL A   1      45.660  28.664  27.240  1.00  0.00     0.034 A 
ATOM     62  C   UNL A   1      39.614  30.569  30.315  1.00  0.00     0.034 A 
ATOM     63  C   UNL A   1      45.631  30.006  27.763  1.00  0.00     0.049 A 
ATOM     64  C   UNL A   1      40.805  31.493  30.247  1.00  0.00     0.074 A 
ATOM     65  C   UNL A   1      46.622  30.971  27.717  1.00  0.00     0.029 A 
ATOM     66  N   UNL A   1      44.552  30.575  28.428  1.00  0.00    -0.354 N 
ATOM     67  N   UNL A   1      41.983  31.284  29.704  1.00  0.00    -0.248 NA
ATOM     68  C   UNL A   1      40.650  32.819  30.858  1.00  0.00     0.031 C 
ATOM     69  C   UNL A   1      46.165  32.101  28.405  1.00  0.00     0.029 A 
ATOM     70  C   UNL A   1      44.861  31.869  28.815  1.00  0.00     0.049 A 
ATOM     71  H   UNL A   1      43.693  30.125  28.598  1.00  0.00     0.167 HD
ATOM     72  C   UNL A   1      42.695  32.466  29.878  1.00  0.00     0.074 A 
ATOM     73  C   UNL A   1      41.812  33.386  30.566  1.00  0.00     0.031 C 
ATOM     74  C   UNL A   1      43.963  32.769  29.500  1.00  0.00     0.034 A 
BRANCH  61  75
ATOM     75  C   UNL A   1      46.933  28.141  26.618  1.00  0.00     0.023 A 
ATOM     76  C   UNL A   1      47.162  28.220  25.232  1.00  0.00     0.031 A 
ATOM     77  C   UNL A   1      47.910  27.514  27.409  1.00  0.00     0.131 A 
ATOM     78  C   UNL A   1      48.290  27.604  24.672  1.00  0.00     0.055 A 
ATOM     79  C   UNL A   1      49.077  26.982  26.856  1.00  0.00     0.041 A 
ATOM     80  F   UNL A   1      47.739  27.388  28.734  1.00  0.00    -0.206 F 
ATOM     81  C   UNL A   1      49.264  27.009  25.476  1.00  0.00     0.022 A 
BRANCH  78  82
ATOM     82  S   UNL A   1      48.382  27.451  22.866  1.00  0.00     0.124 S 
ATOM     83  O   UNL A   1      47.190  28.186  22.449  1.00  0.00    -0.237 OA
ATOM     84  O   UNL A   1      49.660  28.081  22.560  1.00  0.00    -0.237 OA
ATOM     85  O   UNL A   1      48.326  26.008  22.642  1.00  0.00    -0.744 OA
ENDBRANCH  78  82
ENDBRANCH  61  75
BRANCH  62  86
ATOM     86  C   UNL A   1      38.366  30.983  31.019  1.00  0.00     0.023 A 
ATOM     87  C   UNL A   1      37.322  31.614  30.326  1.00  0.00     0.031 A 
ATOM     88  C   UNL A   1      38.215  30.791  32.404  1.00  0.00     0.131 A 
ATOM     89  C   UNL A   1      36.194  32.073  31.023  1.00  0.00     0.055 A 
ATOM     90  C   UNL A   1      37.068  31.203  33.085  1.00  0.00     0.041 A 
ATOM     91  F   UNL A   1      39.179  30.185  33.115  1.00  0.00    -0.206 F 
ATOM     92  C   UNL A   1      36.054  31.862  32.397  1.00  0.00     0.022 A 
BRANCH  89  93
ATOM     93  S   UNL A   1      34.944  33.030  30.121  1.00  0.00     0.124 S 
ATOM     94  O   UNL A   1      35.736  34.142  29.606  1.00  0.00    -0.237 OA
ATOM     95  O   UNL A   1      34.479  32.063  29.132  1.00  0.00    -0.237 OA
ATOM     96  O   UNL A   1      33.972  33.380  31.153  1.00  0.00    -0.744 OA
ENDBRANCH  89  93
ENDBRANCH  62  86
BRANCH  74  97
ATOM     97  C   UNL A   1      44.444  34.172  29.772  1.00  0.00     0.023 A 
ATOM     98  C   UNL A   1      45.095  34.514  30.969  1.00  0.00     0.031 A 
ATOM     99  C   UNL A   1      44.252  35.179  28.810  1.00  0.00     0.131 A 
ATOM    100  C   UNL A   1      45.487  35.842  31.194  1.00  0.00     0.055 A 
ATOM    101  C   UNL A   1      44.696  36.486  29.015  1.00  0.00     0.041 A 
ATOM    102  F   UNL A   1      43.635  34.906  27.648  1.00  0.00    -0.206 F 
ATOM    103  C   UNL A   1      45.306  36.825  30.217  1.00  0.00     0.022 A 
BRANCH 100 104
ATOM    104  S   UNL A   1      46.166  36.286  32.816  1.00  0.00     0.124 S 
ATOM    105  O   UNL A   1      47.139  37.316  32.466  1.00  0.00    -0.237 OA
ATOM    106  O   UNL A   1      44.983  36.745  33.536  1.00  0.00    -0.237 OA
ATOM    107  O   UNL A   1      46.739  35.032  33.304  1.00  0.00    -0.744 OA
ENDBRANCH 100 104
ENDBRANCH  74  97
ENDBRANCH  48  49
ENDBRANCH  40  43
ENDBRANCH  38  39
ENDBRANCH  37  38
ENDBRANCH  36  37
ENDBRANCH   3  36
TORSDOF 24
ENDMDL
MODEL 3
REMARK VINA RESULT:     -10.6      3.257      5.306
REMARK SMILES CC(C)C[C@H](NC(=O)[C@H](Cc1ccccc1)NC(=O)CNC(=O)C[NH3+])C(=O)NCCCNC(=O)c1ccc(-c2c3nc(c(-c4cc(S(=O)(=O)[O-])ccc4F)c4ccc([nH]4)c(-c4cc(S(=O)(=O)[O-])ccc4F)c4nc(c(-c5cc(S(=O)(=O)[O-])ccc5F)c5ccc2[nH]5)C=C4)C=C3)cc1
REMARK SMILES IDX 26 1 27 2 28 3 5 5 4 6 2 7 1 8 3 9 6 10 7 11 8 13 9 14 17 15
REMARK SMILES IDX 18 16 19 18 20 19 21 20 22 21 23 23 24 24 25 25 10 29 11 30
REMARK SMILES IDX 12 31 16 32 13 33 15 34 14 35 29 36 30 37 31 38 32 39 33 40
REMARK SMILES IDX 34 42 35 43 36 44 97 45 37 46 96 47 38 48 39 49 40 50 90 51
REMARK SMILES IDX 41 52 95 53 89 54 91 55 42 56 94 57 88 58 87 59 43 61 75 62
REMARK SMILES IDX 55 63 74 64 56 65 59 66 73 67 92 68 57 69 58 70 72 72 93 73
REMARK SMILES IDX 60 74 44 75 45 76 53 77 46 78 52 79 54 80 51 81 47 82 48 83
REMARK SMILES IDX 49 84 50 85 76 86 77 87 85 88 78 89 84 90 86 91 83 92 79 93
REMARK SMILES IDX 80 94 81 95 82 96 61 97 62 98 70 99 63 100 69 101 71 102
REMARK SMILES IDX 68 103 64 104 65 105 66 106 67 107
REMARK H PARENT 28 4 6 12 17 17 21 22 25 26 25 27 25 28 32 41 91 60 59 71
REMARK Flexibility Score: inf
ROOT
ATOM      1  C   UNL A   1      33.857  23.499  23.129  1.00  0.00     0.242 C 
ATOM      2  O   UNL A   1      33.844  23.305  21.914  1.00  0.00    -0.273 OA
ATOM      3  N   UNL A   1      34.506  22.605  23.939  1.00  0.00    -0.354 N 
ATOM      4  H   UNL A   1      34.831  21.784  23.504  1.00  0.00     0.163 HD
ENDROOT
BRANCH   1   5
ATOM      5  C   UNL A   1      33.175  24.729  23.758  1.00  0.00     0.171 C 
BRANCH   5   6
ATOM      6  C   UNL A   1      32.534  24.385  25.101  1.00  0.00     0.038 C 
BRANCH   6   7
ATOM      7  C   UNL A   1      31.076  23.897  25.182  1.00  0.00    -0.015 C 
ATOM      8  C   UNL A   1      30.955  22.583  25.947  1.00  0.00     0.007 C 
ATOM      9  C   UNL A   1      30.247  24.987  25.878  1.00  0.00     0.007 C 
ENDBRANCH   6   7
ENDBRANCH   5   6
BRANCH   5  10
ATOM     10  N   UNL A   1      32.279  25.263  22.698  1.00  0.00    -0.343 N 
ATOM     11  C   UNL A   1      31.868  26.435  22.168  1.00  0.00     0.243 C 
ATOM     12  H   UNL A   1      31.842  24.516  22.229  1.00  0.00     0.164 HD
ATOM     13  O   UNL A   1      31.125  26.306  21.180  1.00  0.00    -0.273 OA
BRANCH  11  14
ATOM     14  C   UNL A   1      32.103  27.859  22.738  1.00  0.00     0.175 C 
BRANCH  14  15
ATOM     15  N   UNL A   1      31.489  28.954  22.022  1.00  0.00    -0.342 N 
ATOM     16  C   UNL A   1      30.185  29.365  21.997  1.00  0.00     0.240 C 
ATOM     17  H   UNL A   1      32.104  29.485  21.467  1.00  0.00     0.164 HD
ATOM     18  O   UNL A   1      29.882  30.237  21.176  1.00  0.00    -0.273 OA
BRANCH  16  19
ATOM     19  C   UNL A   1      29.202  28.952  23.098  1.00  0.00     0.216 C 
BRANCH  19  20
ATOM     20  N   UNL A   1      28.013  29.770  23.212  1.00  0.00    -0.342 N 
ATOM     21  C   UNL A   1      27.937  31.079  23.593  1.00  0.00     0.275 C 
ATOM     22  H   UNL A   1      27.160  29.332  22.987  1.00  0.00     0.164 HD
ATOM     23  O   UNL A   1      26.836  31.632  23.598  1.00  0.00    -0.268 OA
BRANCH  21  24
ATOM     24  C   UNL A   1      29.203  31.814  24.053  1.00  0.00     0.360 C 
BRANCH  24  25
ATOM     25  N   UNL A   1      29.505  32.927  23.134  1.00  0.00    -0.350 N 
ATOM     26  H   UNL A   1      30.464  33.242  23.284  1.00  0.00     0.344 HD
ATOM     27  H   UNL A   1      28.862  33.700  23.313  1.00  0.00     0.344 HD
ATOM     28  H   UNL A   1      29.397  32.611  22.170  1.00  0.00     0.344 HD
ENDBRANCH  24  25
ENDBRANCH  21  24
ENDBRANCH  19  20
ENDBRANCH  16  19
ENDBRANCH  14  15
BRANCH  14  29
ATOM     29  C   UNL A   1      31.712  27.827  24.254  1.00  0.00     0.070 C 
BRANCH  29  30
ATOM     30  C   UNL A   1      32.439  28.654  25.306  1.00  0.00    -0.045 A 
ATOM     31  C   UNL A   1      31.908  29.811  25.896  1.00  0.00     0.004 A 
ATOM     32  C   UNL A   1      33.641  28.162  25.839  1.00  0.00     0.004 A 
ATOM     33  C   UNL A   1      32.592  30.512  26.891  1.00  0.00     0.000 A 
ATOM     34  C   UNL A   1      34.307  28.834  26.871  1.00  0.00     0.000 A 
ATOM     35  C   UNL A   1      33.793  30.022  27.382  1.00  0.00     0.000 A 
ENDBRANCH  29  30
ENDBRANCH  14  29
ENDBRANCH  11  14
ENDBRANCH   5  10
ENDBRANCH   1   5
BRANCH   3  36
ATOM     36  C   UNL A   1      34.773  22.725  25.364  1.00  0.00     0.117 C 
BRANCH  36  37
ATOM     37  C   UNL A   1      35.842  21.772  25.850  1.00  0.00     0.042 C 
BRANCH  37  38
ATOM     38  C   UNL A   1      37.146  21.896  25.085  1.00  0.00     0.118 C 
BRANCH  38  39
ATOM     39  N   UNL A   1      38.108  20.846  25.403  1.00  0.00    -0.352 N 
ATOM     40  C   UNL A   1      39.309  20.963  26.067  1.00  0.00     0.251 C 
ATOM     41  H   UNL A   1      37.867  19.938  25.108  1.00  0.00     0.163 HD
ATOM     42  O   UNL A   1      40.074  20.007  26.140  1.00  0.00    -0.269 OA
BRANCH  40  43
ATOM     43  C   UNL A   1      39.671  22.276  26.638  1.00  0.00     0.039 A 
ATOM     44  C   UNL A   1      40.697  22.355  27.580  1.00  0.00     0.014 A 
ATOM     45  C   UNL A   1      39.075  23.435  26.136  1.00  0.00     0.014 A 
ATOM     46  C   UNL A   1      41.192  23.608  27.946  1.00  0.00     0.010 A 
ATOM     47  C   UNL A   1      39.650  24.668  26.409  1.00  0.00     0.010 A 
ATOM     48  C   UNL A   1      40.712  24.771  27.320  1.00  0.00    -0.014 A 
BRANCH  48  49
ATOM     49  C   UNL A   1      41.284  26.111  27.610  1.00  0.00     0.031 A 
ATOM     50  C   UNL A   1      42.656  26.456  27.093  1.00  0.00     0.074 A 
ATOM     51  C   UNL A   1      40.618  26.976  28.403  1.00  0.00     0.049 A 
ATOM     52  N   UNL A   1      43.392  27.510  27.329  1.00  0.00    -0.248 NA
ATOM     53  C   UNL A   1      43.306  25.453  26.233  1.00  0.00     0.031 C 
ATOM     54  C   UNL A   1      39.309  26.731  29.015  1.00  0.00     0.029 A 
ATOM     55  N   UNL A   1      40.955  28.232  28.841  1.00  0.00    -0.354 N 
ATOM     56  C   UNL A   1      44.598  27.284  26.674  1.00  0.00     0.074 A 
ATOM     57  C   UNL A   1      44.521  25.959  26.100  1.00  0.00     0.031 C 
ATOM     58  C   UNL A   1      38.941  27.815  29.717  1.00  0.00     0.029 A 
ATOM     59  C   UNL A   1      40.004  28.812  29.650  1.00  0.00     0.049 A 
ATOM     60  H   UNL A   1      41.799  28.678  28.600  1.00  0.00     0.167 HD
ATOM     61  C   UNL A   1      45.658  28.116  26.532  1.00  0.00     0.034 A 
ATOM     62  C   UNL A   1      39.994  30.009  30.271  1.00  0.00     0.034 A 
ATOM     63  C   UNL A   1      45.699  29.448  27.081  1.00  0.00     0.049 A 
ATOM     64  C   UNL A   1      41.180  30.925  30.094  1.00  0.00     0.074 A 
ATOM     65  C   UNL A   1      46.688  30.405  26.948  1.00  0.00     0.029 A 
ATOM     66  N   UNL A   1      44.702  30.013  27.868  1.00  0.00    -0.354 N 
ATOM     67  N   UNL A   1      42.291  30.717  29.425  1.00  0.00    -0.248 NA
ATOM     68  C   UNL A   1      41.105  32.239  30.743  1.00  0.00     0.031 C 
ATOM     69  C   UNL A   1      46.319  31.525  27.702  1.00  0.00     0.029 A 
ATOM     70  C   UNL A   1      45.064  31.296  28.244  1.00  0.00     0.049 A 
ATOM     71  H   UNL A   1      43.862  29.566  28.120  1.00  0.00     0.167 HD
ATOM     72  C   UNL A   1      43.030  31.890  29.544  1.00  0.00     0.074 A 
ATOM     73  C   UNL A   1      42.235  32.803  30.340  1.00  0.00     0.031 C 
ATOM     74  C   UNL A   1      44.254  32.190  29.038  1.00  0.00     0.034 A 
BRANCH  61  75
ATOM     75  C   UNL A   1      46.852  27.596  25.768  1.00  0.00     0.023 A 
ATOM     76  C   UNL A   1      47.111  27.996  24.445  1.00  0.00     0.031 A 
ATOM     77  C   UNL A   1      47.717  26.653  26.349  1.00  0.00     0.131 A 
ATOM     78  C   UNL A   1      48.147  27.391  23.719  1.00  0.00     0.055 A 
ATOM     79  C   UNL A   1      48.803  26.121  25.651  1.00  0.00     0.041 A 
ATOM     80  F   UNL A   1      47.509  26.215  27.601  1.00  0.00    -0.206 F 
ATOM     81  C   UNL A   1      49.013  26.475  24.322  1.00  0.00     0.022 A 
BRANCH  78  82
ATOM     82  S   UNL A   1      48.243  27.697  21.933  1.00  0.00     0.124 S 
ATOM     83  O   UNL A   1      48.464  26.349  21.416  1.00  0.00    -0.237 OA
ATOM     84  O   UNL A   1      46.942  28.287  21.644  1.00  0.00    -0.237 OA
ATOM     85  O   UNL A   1      49.383  28.602  21.803  1.00  0.00    -0.744 OA
ENDBRANCH  78  82
ENDBRANCH  61  75
BRANCH  62  86
ATOM     86  C   UNL A   1      38.833  30.419  31.112  1.00  0.00     0.023 A 
ATOM     87  C   UNL A   1      37.790  31.190  30.576  1.00  0.00     0.031 A 
ATOM     88  C   UNL A   1      38.768  30.081  32.476  1.00  0.00     0.131 A 
ATOM     89  C   UNL A   1      36.750  31.638  31.406  1.00  0.00     0.055 A 
ATOM     90  C   UNL A   1      37.704  30.486  33.286  1.00  0.00     0.041 A 
ATOM     91  F   UNL A   1      39.734  29.339  33.039  1.00  0.00    -0.206 F 
ATOM     92  C   UNL A   1      36.694  31.282  32.755  1.00  0.00     0.022 A 
BRANCH  89  93
ATOM     93  S   UNL A   1      35.511  32.768  30.713  1.00  0.00     0.124 S 
ATOM     94  O   UNL A   1      34.356  32.497  31.562  1.00  0.00    -0.237 OA
ATOM     95  O   UNL A   1      36.151  34.067  30.897  1.00  0.00    -0.237 OA
ATOM     96  O   UNL A   1      35.385  32.327  29.326  1.00  0.00    -0.744 OA
ENDBRANCH  89  93
ENDBRANCH  62  86
BRANCH  74  97
ATOM     97  C   UNL A   1      44.776  33.583  29.284  1.00  0.00     0.023 A 
ATOM     98  C   UNL A   1      45.581  33.888  30.394  1.00  0.00     0.031 A 
ATOM     99  C   UNL A   1      44.464  34.618  28.384  1.00  0.00     0.131 A 
ATOM    100  C   UNL A   1      46.007  35.208  30.603  1.00  0.00     0.055 A 
ATOM    101  C   UNL A   1      44.940  35.917  28.565  1.00  0.00     0.041 A 
ATOM    102  F   UNL A   1      43.699  34.380  27.307  1.00  0.00    -0.206 F 
ATOM    103  C   UNL A   1      45.706  36.220  29.686  1.00  0.00     0.022 A 
BRANCH 100 104
ATOM    104  S   UNL A   1      46.897  35.604  32.133  1.00  0.00     0.124 S 
ATOM    105  O   UNL A   1      48.287  35.579  31.690  1.00  0.00    -0.237 OA
ATOM    106  O   UNL A   1      46.361  36.916  32.476  1.00  0.00    -0.237 OA
ATOM    107  O   UNL A   1      46.516  34.523  33.041  1.00  0.00    -0.744 OA
ENDBRANCH 100 104
ENDBRANCH  74  97
ENDBRANCH  48  49
ENDBRANCH  40  43
ENDBRANCH  38  39
ENDBRANCH  37  38
ENDBRANCH  36  37
ENDBRANCH   3  36
TORSDOF 24
ENDMDL
