MODEL 1
REMARK VINA RESULT:     -12.6      0.000      0.000
REMARK SMILES O=C(NCCCNC(=O)c1ccc(-c2c3nc(c(-c4cc(S(=O)(=O)[O-])ccc4F)c4ccc([nH]4)c(-c4cc(S(=O)(=O)[O-])ccc4F)c4nc(c(-c5cc(S(=O)(=O)[O-])ccc5F)c5ccc2[nH]5)C=C4)C=C3)cc1)c1ccc(C[C@H]2SC(=O)N(c3ccccc3)C2=O)cc1
REMARK SMILES IDX 5 1 4 2 3 3 1 4 2 5 73 7 74 8 92 9 75 10 91 11 76 12 77 13
REMARK SMILES IDX 78 14 79 15 89 16 80 17 82 18 90 19 81 20 83 21 84 22 88 23
REMARK SMILES IDX 85 24 87 25 86 26 6 27 7 28 8 29 9 31 10 32 11 33 72 34
REMARK SMILES IDX 12 35 71 36 13 37 14 38 15 39 65 40 16 41 70 42 64 43 66 44
REMARK SMILES IDX 17 45 69 46 63 47 62 48 18 50 50 51 30 52 49 53 31 54 34 55
REMARK SMILES IDX 48 56 67 57 32 58 33 59 47 61 68 62 35 63 19 64 20 65 28 66
REMARK SMILES IDX 21 67 27 68 29 69 26 70 22 71 23 72 24 73 25 74 51 75 52 76
REMARK SMILES IDX 60 77 53 78 59 79 61 80 58 81 54 82 55 83 56 84 57 85 36 86
REMARK SMILES IDX 37 87 45 88 38 89 44 90 46 91 43 92 39 93 40 94 41 95 42 96
REMARK H PARENT 3 6 7 30 66 49 34 60
REMARK Flexibility Score: inf
ROOT
ATOM      1  C   UNL A   1      31.582  32.104  26.832  1.00  0.00     0.042 C 
ENDROOT
BRANCH   1   2
ATOM      2  C   UNL A   1      31.909  30.620  26.917  1.00  0.00     0.118 C 
BRANCH   2   3
ATOM      3  N   UNL A   1      33.220  30.368  27.502  1.00  0.00    -0.352 N 
ATOM      4  O   UNL A   1      35.087  29.178  27.960  1.00  0.00    -0.269 OA
ATOM      5  C   UNL A   1      34.090  29.333  27.263  1.00  0.00     0.251 C 
ATOM      6  H   UNL A   1      33.524  31.034  28.159  1.00  0.00     0.163 HD
BRANCH   5   7
ATOM      7  C   UNL A   1      33.812  28.392  26.161  1.00  0.00     0.039 A 
ATOM      8  C   UNL A   1      33.539  27.051  26.434  1.00  0.00     0.014 A 
ATOM      9  C   UNL A   1      33.820  28.859  24.846  1.00  0.00     0.014 A 
ATOM     10  C   UNL A   1      33.367  26.154  25.383  1.00  0.00     0.004 A 
ATOM     11  C   UNL A   1      33.650  27.956  23.792  1.00  0.00     0.004 A 
ATOM     12  C   UNL A   1      33.450  26.592  24.052  1.00  0.00    -0.046 A 
BRANCH  12  13
ATOM     13  C   UNL A   1      33.319  25.599  22.919  1.00  0.00     0.060 C 
BRANCH  13  14
ATOM     14  C   UNL A   1      31.878  25.166  22.584  1.00  0.00     0.151 C 
ATOM     15  S   UNL A   1      31.003  24.411  23.978  1.00  0.00    -0.050 SA
ATOM     16  C   UNL A   1      31.077  26.410  22.254  1.00  0.00     0.248 C 
ATOM     17  C   UNL A   1      30.098  25.868  24.322  1.00  0.00     0.293 C 
ATOM     18  N   UNL A   1      30.222  26.769  23.287  1.00  0.00    -0.240 N 
ATOM     19  O   UNL A   1      31.298  27.047  21.225  1.00  0.00    -0.273 OA
ATOM     20  O   UNL A   1      29.446  25.961  25.347  1.00  0.00    -0.261 OA
BRANCH  18  21
ATOM     21  C   UNL A   1      29.521  28.012  23.293  1.00  0.00     0.053 A 
ATOM     22  C   UNL A   1      30.187  29.219  23.551  1.00  0.00     0.027 A 
ATOM     23  C   UNL A   1      28.138  28.059  23.055  1.00  0.00     0.027 A 
ATOM     24  C   UNL A   1      29.493  30.434  23.565  1.00  0.00     0.002 A 
ATOM     25  C   UNL A   1      27.439  29.269  23.099  1.00  0.00     0.002 A 
ATOM     26  C   UNL A   1      28.119  30.457  23.350  1.00  0.00     0.000 A 
ENDBRANCH  18  21
ENDBRANCH  13  14
ENDBRANCH  12  13
ENDBRANCH   5   7
ENDBRANCH   2   3
ENDBRANCH   1   2
BRANCH   1  27
ATOM     27  C   UNL A   1      32.799  33.017  26.882  1.00  0.00     0.118 C 
BRANCH  27  28
ATOM     28  N   UNL A   1      32.563  34.234  27.646  1.00  0.00    -0.352 N 
ATOM     29  C   UNL A   1      33.135  34.677  28.815  1.00  0.00     0.251 C 
ATOM     30  H   UNL A   1      31.883  34.836  27.263  1.00  0.00     0.163 HD
ATOM     31  O   UNL A   1      32.648  35.650  29.386  1.00  0.00    -0.269 OA
BRANCH  29  32
ATOM     32  C   UNL A   1      34.301  33.976  29.397  1.00  0.00     0.039 A 
ATOM     33  C   UNL A   1      35.586  34.399  29.048  1.00  0.00     0.014 A 
ATOM     34  C   UNL A   1      34.138  32.902  30.273  1.00  0.00     0.014 A 
ATOM     35  C   UNL A   1      36.700  33.794  29.636  1.00  0.00     0.010 A 
ATOM     36  C   UNL A   1      35.242  32.366  30.931  1.00  0.00     0.010 A 
ATOM     37  C   UNL A   1      36.537  32.804  30.618  1.00  0.00    -0.014 A 
BRANCH  37  38
ATOM     38  C   UNL A   1      37.706  32.211  31.323  1.00  0.00     0.031 A 
ATOM     39  C   UNL A   1      38.462  31.065  30.706  1.00  0.00     0.074 A 
ATOM     40  C   UNL A   1      38.050  32.666  32.546  1.00  0.00     0.049 A 
ATOM     41  N   UNL A   1      39.455  30.368  31.196  1.00  0.00    -0.248 NA
ATOM     42  C   UNL A   1      38.021  30.628  29.372  1.00  0.00     0.031 C 
ATOM     43  C   UNL A   1      37.373  33.747  33.265  1.00  0.00     0.029 A 
ATOM     44  N   UNL A   1      39.047  32.273  33.403  1.00  0.00    -0.354 N 
ATOM     45  C   UNL A   1      39.751  29.404  30.237  1.00  0.00     0.074 A 
ATOM     46  C   UNL A   1      38.783  29.565  29.172  1.00  0.00     0.031 C 
ATOM     47  C   UNL A   1      37.996  33.954  34.436  1.00  0.00     0.029 A 
ATOM     48  C   UNL A   1      39.077  32.985  34.581  1.00  0.00     0.049 A 
ATOM     49  H   UNL A   1      39.683  31.551  33.194  1.00  0.00     0.167 HD
ATOM     50  C   UNL A   1      40.751  28.488  30.234  1.00  0.00     0.034 A 
ATOM     51  C   UNL A   1      39.873  32.862  35.662  1.00  0.00     0.034 A 
ATOM     52  C   UNL A   1      41.709  28.344  31.304  1.00  0.00     0.049 A 
ATOM     53  C   UNL A   1      40.946  31.801  35.658  1.00  0.00     0.074 A 
ATOM     54  C   UNL A   1      42.790  27.484  31.381  1.00  0.00     0.029 A 
ATOM     55  N   UNL A   1      41.694  29.068  32.490  1.00  0.00    -0.354 N 
ATOM     56  N   UNL A   1      41.244  30.930  34.722  1.00  0.00    -0.248 NA
ATOM     57  C   UNL A   1      41.794  31.714  36.854  1.00  0.00     0.031 C 
ATOM     58  C   UNL A   1      43.376  27.627  32.643  1.00  0.00     0.029 A 
ATOM     59  C   UNL A   1      42.723  28.645  33.320  1.00  0.00     0.049 A 
ATOM     60  H   UNL A   1      41.049  29.778  32.709  1.00  0.00     0.167 HD
ATOM     61  C   UNL A   1      42.336  30.213  35.205  1.00  0.00     0.074 A 
ATOM     62  C   UNL A   1      42.652  30.767  36.505  1.00  0.00     0.031 C 
ATOM     63  C   UNL A   1      43.020  29.193  34.624  1.00  0.00     0.034 A 
BRANCH  50  64
ATOM     64  C   UNL A   1      40.835  27.555  29.047  1.00  0.00     0.023 A 
ATOM     65  C   UNL A   1      41.786  27.739  28.027  1.00  0.00     0.031 A 
ATOM     66  C   UNL A   1      39.932  26.484  28.915  1.00  0.00     0.131 A 
ATOM     67  C   UNL A   1      41.757  26.925  26.885  1.00  0.00     0.055 A 
ATOM     68  C   UNL A   1      39.968  25.620  27.819  1.00  0.00     0.041 A 
ATOM     69  F   UNL A   1      38.987  26.268  29.843  1.00  0.00    -0.206 F 
ATOM     70  C   UNL A   1      40.873  25.849  26.786  1.00  0.00     0.022 A 
BRANCH  67  71
ATOM     71  S   UNL A   1      42.776  27.398  25.460  1.00  0.00     0.124 S 
ATOM     72  O   UNL A   1      44.048  27.724  26.104  1.00  0.00    -0.237 OA
ATOM     73  O   UNL A   1      42.762  26.189  24.646  1.00  0.00    -0.237 OA
ATOM     74  O   UNL A   1      42.064  28.542  24.895  1.00  0.00    -0.744 OA
ENDBRANCH  67  71
ENDBRANCH  50  64
BRANCH  51  75
ATOM     75  C   UNL A   1      39.684  33.750  36.846  1.00  0.00     0.023 A 
ATOM     76  C   UNL A   1      39.090  33.267  38.023  1.00  0.00     0.031 A 
ATOM     77  C   UNL A   1      40.057  35.105  36.805  1.00  0.00     0.131 A 
ATOM     78  C   UNL A   1      38.842  34.143  39.092  1.00  0.00     0.055 A 
ATOM     79  C   UNL A   1      39.863  35.958  37.892  1.00  0.00     0.041 A 
ATOM     80  F   UNL A   1      40.630  35.619  35.704  1.00  0.00    -0.206 F 
ATOM     81  C   UNL A   1      39.239  35.481  39.040  1.00  0.00     0.022 A 
BRANCH  78  82
ATOM     82  S   UNL A   1      37.903  33.530  40.518  1.00  0.00     0.124 S 
ATOM     83  O   UNL A   1      36.736  32.941  39.873  1.00  0.00    -0.237 OA
ATOM     84  O   UNL A   1      38.847  32.593  41.120  1.00  0.00    -0.237 OA
ATOM     85  O   UNL A   1      37.644  34.737  41.299  1.00  0.00    -0.744 OA
ENDBRANCH  78  82
ENDBRANCH  51  75
BRANCH  63  86
ATOM     86  C   UNL A   1      44.207  28.641  35.378  1.00  0.00     0.023 A 
ATOM     87  C   UNL A   1      44.081  27.571  36.281  1.00  0.00     0.031 A 
ATOM     88  C   UNL A   1      45.484  29.204  35.196  1.00  0.00     0.131 A 
ATOM     89  C   UNL A   1      45.198  27.139  37.013  1.00  0.00     0.055 A 
ATOM     90  C   UNL A   1      46.604  28.722  35.873  1.00  0.00     0.041 A 
ATOM     91  F   UNL A   1      45.664  30.232  34.351  1.00  0.00    -0.206 F 
ATOM     92  C   UNL A   1      46.462  27.693  36.799  1.00  0.00     0.022 A 
BRANCH  89  93
ATOM     93  S   UNL A   1      44.956  25.912  38.326  1.00  0.00     0.124 S 
ATOM     94  O   UNL A   1      46.331  25.556  38.664  1.00  0.00    -0.237 OA
ATOM     95  O   UNL A   1      44.229  26.674  39.337  1.00  0.00    -0.237 OA
ATOM     96  O   UNL A   1      44.185  24.856  37.674  1.00  0.00    -0.744 OA
ENDBRANCH  89  93
ENDBRANCH  63  86
ENDBRANCH  37  38
ENDBRANCH  29  32
ENDBRANCH  27  28
ENDBRANCH   1  27
TORSDOF 16
ENDMDL
MODEL 2
REMARK VINA RESULT:     -12.4      6.128     11.856
REMARK SMILES O=C(NCCCNC(=O)c1ccc(-c2c3nc(c(-c4cc(S(=O)(=O)[O-])ccc4F)c4ccc([nH]4)c(-c4cc(S(=O)(=O)[O-])ccc4F)c4nc(c(-c5cc(S(=O)(=O)[O-])ccc5F)c5ccc2[nH]5)C=C4)C=C3)cc1)c1ccc(C[C@H]2SC(=O)N(c3ccccc3)C2=O)cc1
REMARK SMILES IDX 5 1 4 2 3 3 1 4 2 5 73 7 74 8 92 9 75 10 91 11 76 12 77 13
REMARK SMILES IDX 78 14 79 15 89 16 80 17 82 18 90 19 81 20 83 21 84 22 88 23
REMARK SMILES IDX 85 24 87 25 86 26 6 27 7 28 8 29 9 31 10 32 11 33 72 34
REMARK SMILES IDX 12 35 71 36 13 37 14 38 15 39 65 40 16 41 70 42 64 43 66 44
REMARK SMILES IDX 17 45 69 46 63 47 62 48 18 50 50 51 30 52 49 53 31 54 34 55
REMARK SMILES IDX 48 56 67 57 32 58 33 59 47 61 68 62 35 63 19 64 20 65 28 66
REMARK SMILES IDX 21 67 27 68 29 69 26 70 22 71 23 72 24 73 25 74 51 75 52 76
REMARK SMILES IDX 60 77 53 78 59 79 61 80 58 81 54 82 55 83 56 84 57 85 36 86
REMARK SMILES IDX 37 87 45 88 38 89 44 90 46 91 43 92 39 93 40 94 41 95 42 96
REMARK H PARENT 3 6 7 30 66 49 34 60
REMARK Flexibility Score: inf
ROOT
ATOM      1  C   UNL A   1      38.304  20.090  25.087  1.00  0.00     0.042 C 
ENDROOT
BRANCH   1   2
ATOM      2  C   UNL A   1      37.599  21.403  24.778  1.00  0.00     0.118 C 
BRANCH   2   3
ATOM      3  N   UNL A   1      38.197  22.536  25.473  1.00  0.00    -0.352 N 
ATOM      4  O   UNL A   1      38.271  24.614  26.362  1.00  0.00    -0.269 OA
ATOM      5  C   UNL A   1      37.598  23.679  25.941  1.00  0.00     0.251 C 
ATOM      6  H   UNL A   1      39.167  22.472  25.630  1.00  0.00     0.163 HD
BRANCH   5   7
ATOM      7  C   UNL A   1      36.125  23.783  25.926  1.00  0.00     0.039 A 
ATOM      8  C   UNL A   1      35.495  24.711  25.094  1.00  0.00     0.014 A 
ATOM      9  C   UNL A   1      35.372  22.944  26.747  1.00  0.00     0.014 A 
ATOM     10  C   UNL A   1      34.113  24.863  25.154  1.00  0.00     0.004 A 
ATOM     11  C   UNL A   1      33.985  23.100  26.807  1.00  0.00     0.004 A 
ATOM     12  C   UNL A   1      33.346  24.080  26.032  1.00  0.00    -0.046 A 
BRANCH  12  13
ATOM     13  C   UNL A   1      31.853  24.295  26.129  1.00  0.00     0.060 C 
BRANCH  13  14
ATOM     14  C   UNL A   1      31.014  23.597  25.042  1.00  0.00     0.151 C 
ATOM     15  S   UNL A   1      31.431  24.114  23.357  1.00  0.00    -0.050 SA
ATOM     16  C   UNL A   1      31.331  22.115  25.080  1.00  0.00     0.248 C 
ATOM     17  C   UNL A   1      32.370  22.672  23.045  1.00  0.00     0.293 C 
ATOM     18  N   UNL A   1      32.147  21.729  24.025  1.00  0.00    -0.240 N 
ATOM     19  O   UNL A   1      30.975  21.419  26.029  1.00  0.00    -0.273 OA
ATOM     20  O   UNL A   1      33.066  22.593  22.048  1.00  0.00    -0.261 OA
BRANCH  18  21
ATOM     21  C   UNL A   1      32.744  20.434  23.963  1.00  0.00     0.053 A 
ATOM     22  C   UNL A   1      32.154  19.399  23.224  1.00  0.00     0.027 A 
ATOM     23  C   UNL A   1      33.934  20.157  24.654  1.00  0.00     0.027 A 
ATOM     24  C   UNL A   1      32.737  18.129  23.173  1.00  0.00     0.002 A 
ATOM     25  C   UNL A   1      34.502  18.879  24.628  1.00  0.00     0.002 A 
ATOM     26  C   UNL A   1      33.905  17.867  23.884  1.00  0.00     0.000 A 
ENDBRANCH  18  21
ENDBRANCH  13  14
ENDBRANCH  12  13
ENDBRANCH   5   7
ENDBRANCH   2   3
ENDBRANCH   1   2
BRANCH   1  27
ATOM     27  C   UNL A   1      39.349  20.184  26.190  1.00  0.00     0.118 C 
BRANCH  27  28
ATOM     28  N   UNL A   1      40.396  19.180  26.064  1.00  0.00    -0.352 N 
ATOM     29  C   UNL A   1      41.764  19.318  26.039  1.00  0.00     0.251 C 
ATOM     30  H   UNL A   1      40.072  18.253  25.984  1.00  0.00     0.163 HD
ATOM     31  O   UNL A   1      42.455  18.349  25.734  1.00  0.00    -0.269 OA
BRANCH  29  32
ATOM     32  C   UNL A   1      42.396  20.621  26.341  1.00  0.00     0.039 A 
ATOM     33  C   UNL A   1      42.931  21.373  25.292  1.00  0.00     0.014 A 
ATOM     34  C   UNL A   1      42.478  21.101  27.650  1.00  0.00     0.014 A 
ATOM     35  C   UNL A   1      43.474  22.635  25.547  1.00  0.00     0.010 A 
ATOM     36  C   UNL A   1      42.929  22.397  27.890  1.00  0.00     0.010 A 
ATOM     37  C   UNL A   1      43.435  23.178  26.841  1.00  0.00    -0.014 A 
BRANCH  37  38
ATOM     38  C   UNL A   1      43.925  24.555  27.118  1.00  0.00     0.031 A 
ATOM     39  C   UNL A   1      42.979  25.607  27.632  1.00  0.00     0.074 A 
ATOM     40  C   UNL A   1      45.208  24.875  26.851  1.00  0.00     0.049 A 
ATOM     41  N   UNL A   1      43.196  26.877  27.862  1.00  0.00    -0.248 NA
ATOM     42  C   UNL A   1      41.596  25.177  27.895  1.00  0.00     0.031 C 
ATOM     43  C   UNL A   1      46.214  23.954  26.317  1.00  0.00     0.029 A 
ATOM     44  N   UNL A   1      45.885  26.061  26.985  1.00  0.00    -0.354 N 
ATOM     45  C   UNL A   1      41.978  27.400  28.285  1.00  0.00     0.074 A 
ATOM     46  C   UNL A   1      41.013  26.323  28.209  1.00  0.00     0.031 C 
ATOM     47  C   UNL A   1      47.385  24.600  26.202  1.00  0.00     0.029 A 
ATOM     48  C   UNL A   1      47.205  25.993  26.596  1.00  0.00     0.049 A 
ATOM     49  H   UNL A   1      45.467  26.884  27.328  1.00  0.00     0.167 HD
ATOM     50  C   UNL A   1      41.697  28.654  28.720  1.00  0.00     0.034 A 
ATOM     51  C   UNL A   1      48.156  26.946  26.548  1.00  0.00     0.034 A 
ATOM     52  C   UNL A   1      42.673  29.715  28.791  1.00  0.00     0.049 A 
ATOM     53  C   UNL A   1      47.807  28.346  26.987  1.00  0.00     0.074 A 
ATOM     54  C   UNL A   1      42.507  31.006  29.260  1.00  0.00     0.029 A 
ATOM     55  N   UNL A   1      43.992  29.614  28.369  1.00  0.00    -0.354 N 
ATOM     56  N   UNL A   1      46.662  28.812  27.430  1.00  0.00    -0.248 NA
ATOM     57  C   UNL A   1      48.881  29.345  26.924  1.00  0.00     0.031 C 
ATOM     58  C   UNL A   1      43.699  31.707  29.045  1.00  0.00     0.029 A 
ATOM     59  C   UNL A   1      44.640  30.830  28.529  1.00  0.00     0.049 A 
ATOM     60  H   UNL A   1      44.408  28.797  28.008  1.00  0.00     0.167 HD
ATOM     61  C   UNL A   1      46.890  30.153  27.732  1.00  0.00     0.074 A 
ATOM     62  C   UNL A   1      48.284  30.413  27.434  1.00  0.00     0.031 C 
ATOM     63  C   UNL A   1      46.027  31.084  28.215  1.00  0.00     0.034 A 
BRANCH  50  64
ATOM     64  C   UNL A   1      40.268  28.946  29.121  1.00  0.00     0.023 A 
ATOM     65  C   UNL A   1      39.871  28.978  30.470  1.00  0.00     0.031 A 
ATOM     66  C   UNL A   1      39.281  29.164  28.143  1.00  0.00     0.131 A 
ATOM     67  C   UNL A   1      38.517  29.135  30.800  1.00  0.00     0.055 A 
ATOM     68  C   UNL A   1      37.950  29.412  28.481  1.00  0.00     0.041 A 
ATOM     69  F   UNL A   1      39.592  29.124  26.838  1.00  0.00    -0.206 F 
ATOM     70  C   UNL A   1      37.557  29.380  29.816  1.00  0.00     0.022 A 
BRANCH  67  71
ATOM     71  S   UNL A   1      38.006  28.845  32.516  1.00  0.00     0.124 S 
ATOM     72  O   UNL A   1      38.983  29.644  33.253  1.00  0.00    -0.237 OA
ATOM     73  O   UNL A   1      36.636  29.341  32.526  1.00  0.00    -0.237 OA
ATOM     74  O   UNL A   1      38.150  27.399  32.677  1.00  0.00    -0.744 OA
ENDBRANCH  67  71
ENDBRANCH  50  64
BRANCH  51  75
ATOM     75  C   UNL A   1      49.527  26.622  26.052  1.00  0.00     0.023 A 
ATOM     76  C   UNL A   1      49.960  27.056  24.789  1.00  0.00     0.031 A 
ATOM     77  C   UNL A   1      50.409  25.839  26.817  1.00  0.00     0.131 A 
ATOM     78  C   UNL A   1      51.219  26.665  24.308  1.00  0.00     0.055 A 
ATOM     79  C   UNL A   1      51.684  25.503  26.359  1.00  0.00     0.041 A 
ATOM     80  F   UNL A   1      50.047  25.398  28.033  1.00  0.00    -0.206 F 
ATOM     81  C   UNL A   1      52.090  25.905  25.091  1.00  0.00     0.022 A 
BRANCH  78  82
ATOM     82  S   UNL A   1      51.665  27.084  22.600  1.00  0.00     0.124 S 
ATOM     83  O   UNL A   1      52.778  26.175  22.353  1.00  0.00    -0.237 OA
ATOM     84  O   UNL A   1      50.427  26.795  21.885  1.00  0.00    -0.237 OA
ATOM     85  O   UNL A   1      52.020  28.499  22.680  1.00  0.00    -0.744 OA
ENDBRANCH  78  82
ENDBRANCH  51  75
BRANCH  63  86
ATOM     86  C   UNL A   1      46.583  32.461  28.493  1.00  0.00     0.023 A 
ATOM     87  C   UNL A   1      46.684  33.438  27.488  1.00  0.00     0.031 A 
ATOM     88  C   UNL A   1      47.031  32.795  29.785  1.00  0.00     0.131 A 
ATOM     89  C   UNL A   1      47.272  34.679  27.776  1.00  0.00     0.055 A 
ATOM     90  C   UNL A   1      47.550  34.055  30.082  1.00  0.00     0.041 A 
ATOM     91  F   UNL A   1      46.966  31.899  30.783  1.00  0.00    -0.206 F 
ATOM     92  C   UNL A   1      47.687  35.001  29.071  1.00  0.00     0.022 A 
BRANCH  89  93
ATOM     93  S   UNL A   1      47.588  35.831  26.411  1.00  0.00     0.124 S 
ATOM     94  O   UNL A   1      46.303  36.511  26.285  1.00  0.00    -0.237 OA
ATOM     95  O   UNL A   1      48.688  36.638  26.930  1.00  0.00    -0.237 OA
ATOM     96  O   UNL A   1      47.937  34.954  25.294  1.00  0.00    -0.744 OA
ENDBRANCH  89  93
ENDBRANCH  63  86
ENDBRANCH  37  38
ENDBRANCH  29  32
ENDBRANCH  27  28
ENDBRANCH   1  27
TORSDOF 16
ENDMDL
MODEL 3
REMARK VINA RESULT:     -12.4      5.564     10.653
REMARK SMILES O=C(NCCCNC(=O)c1ccc(-c2c3nc(c(-c4cc(S(=O)(=O)[O-])ccc4F)c4ccc([nH]4)c(-c4cc(S(=O)(=O)[O-])ccc4F)c4nc(c(-c5cc(S(=O)(=O)[O-])ccc5F)c5ccc2[nH]5)C=C4)C=C3)cc1)c1ccc(C[C@H]2SC(=O)N(c3ccccc3)C2=O)cc1
REMARK SMILES IDX 5 1 4 2 3 3 1 4 2 5 73 7 74 8 92 9 75 10 91 11 76 12 77 13
REMARK SMILES IDX 78 14 79 15 89 16 80 17 82 18 90 19 81 20 83 21 84 22 88 23
REMARK SMILES IDX 85 24 87 25 86 26 6 27 7 28 8 29 9 31 10 32 11 33 72 34
REMARK SMILES IDX 12 35 71 36 13 37 14 38 15 39 65 40 16 41 70 42 64 43 66 44
REMARK SMILES IDX 17 45 69 46 63 47 62 48 18 50 50 51 30 52 49 53 31 54 34 55
REMARK SMILES IDX 48 56 67 57 32 58 33 59 47 61 68 62 35 63 19 64 20 65 28 66
REMARK SMILES IDX 21 67 27 68 29 69 26 70 22 71 23 72 24 73 25 74 51 75 52 76
REMARK SMILES IDX 60 77 53 78 59 79 61 80 58 81 54 82 55 83 56 84 57 85 36 86
REMARK SMILES IDX 37 87 45 88 38 89 44 90 46 91 43 92 39 93 40 94 41 95 42 96
REMARK H PARENT 3 6 7 30 66 49 34 60
REMARK Flexibility Score: inf
ROOT
ATOM      1  C   UNL A   1      36.038  21.152  24.677  1.00  0.00     0.042 C 
ENDROOT
BRANCH   1   2
ATOM      2  C   UNL A   1      34.958  21.004  25.740  1.00  0.00     0.118 C 
BRANCH   2   3
ATOM      3  N   UNL A   1      34.028  19.921  25.445  1.00  0.00    -0.352 N 
ATOM      4  O   UNL A   1      32.030  18.988  24.947  1.00  0.00    -0.269 OA
ATOM      5  C   UNL A   1      32.735  19.991  24.990  1.00  0.00     0.251 C 
ATOM      6  H   UNL A   1      34.377  19.013  25.593  1.00  0.00     0.163 HD
BRANCH   5   7
ATOM      7  C   UNL A   1      32.188  21.291  24.557  1.00  0.00     0.039 A 
ATOM      8  C   UNL A   1      32.410  21.750  23.258  1.00  0.00     0.014 A 
ATOM      9  C   UNL A   1      31.444  22.054  25.459  1.00  0.00     0.014 A 
ATOM     10  C   UNL A   1      31.967  23.017  22.888  1.00  0.00     0.004 A 
ATOM     11  C   UNL A   1      31.002  23.326  25.086  1.00  0.00     0.004 A 
ATOM     12  C   UNL A   1      31.284  23.830  23.807  1.00  0.00    -0.046 A 
BRANCH  12  13
ATOM     13  C   UNL A   1      30.859  25.225  23.412  1.00  0.00     0.060 C 
BRANCH  13  14
ATOM     14  C   UNL A   1      30.532  26.172  24.584  1.00  0.00     0.151 C 
ATOM     15  S   UNL A   1      31.978  27.040  25.243  1.00  0.00    -0.050 SA
ATOM     16  C   UNL A   1      29.626  27.271  24.063  1.00  0.00     0.248 C 
ATOM     17  C   UNL A   1      31.584  28.526  24.408  1.00  0.00     0.293 C 
ATOM     18  N   UNL A   1      30.303  28.472  23.904  1.00  0.00    -0.240 N 
ATOM     19  O   UNL A   1      28.469  27.026  23.725  1.00  0.00    -0.273 OA
ATOM     20  O   UNL A   1      32.388  29.442  24.367  1.00  0.00    -0.261 OA
BRANCH  18  21
ATOM     21  C   UNL A   1      29.716  29.591  23.238  1.00  0.00     0.053 A 
ATOM     22  C   UNL A   1      29.591  29.619  21.842  1.00  0.00     0.027 A 
ATOM     23  C   UNL A   1      29.261  30.702  23.965  1.00  0.00     0.027 A 
ATOM     24  C   UNL A   1      29.024  30.721  21.193  1.00  0.00     0.002 A 
ATOM     25  C   UNL A   1      28.722  31.816  23.315  1.00  0.00     0.002 A 
ATOM     26  C   UNL A   1      28.600  31.823  21.929  1.00  0.00     0.000 A 
ENDBRANCH  18  21
ENDBRANCH  13  14
ENDBRANCH  12  13
ENDBRANCH   5   7
ENDBRANCH   2   3
ENDBRANCH   1   2
BRANCH   1  27
ATOM     27  C   UNL A   1      37.347  21.734  25.192  1.00  0.00     0.118 C 
BRANCH  27  28
ATOM     28  N   UNL A   1      38.271  20.714  25.667  1.00  0.00    -0.352 N 
ATOM     29  C   UNL A   1      39.501  20.837  26.269  1.00  0.00     0.251 C 
ATOM     30  H   UNL A   1      37.965  19.787  25.536  1.00  0.00     0.163 HD
ATOM     31  O   UNL A   1      40.195  19.834  26.418  1.00  0.00    -0.269 OA
BRANCH  29  32
ATOM     32  C   UNL A   1      39.999  22.161  26.704  1.00  0.00     0.039 A 
ATOM     33  C   UNL A   1      41.004  22.220  27.673  1.00  0.00     0.014 A 
ATOM     34  C   UNL A   1      39.476  23.342  26.174  1.00  0.00     0.014 A 
ATOM     35  C   UNL A   1      41.534  23.456  28.050  1.00  0.00     0.010 A 
ATOM     36  C   UNL A   1      40.071  24.565  26.477  1.00  0.00     0.010 A 
ATOM     37  C   UNL A   1      41.105  24.636  27.422  1.00  0.00    -0.014 A 
BRANCH  37  38
ATOM     38  C   UNL A   1      41.720  25.953  27.743  1.00  0.00     0.031 A 
ATOM     39  C   UNL A   1      40.938  26.989  28.504  1.00  0.00     0.074 A 
ATOM     40  C   UNL A   1      42.961  26.238  27.296  1.00  0.00     0.049 A 
ATOM     41  N   UNL A   1      41.270  28.217  28.813  1.00  0.00    -0.248 NA
ATOM     42  C   UNL A   1      39.591  26.600  28.952  1.00  0.00     0.031 C 
ATOM     43  C   UNL A   1      43.806  25.331  26.517  1.00  0.00     0.029 A 
ATOM     44  N   UNL A   1      43.724  27.371  27.426  1.00  0.00    -0.354 N 
ATOM     45  C   UNL A   1      40.172  28.750  29.481  1.00  0.00     0.074 A 
ATOM     46  C   UNL A   1      39.141  27.733  29.467  1.00  0.00     0.031 C 
ATOM     47  C   UNL A   1      44.982  25.929  26.270  1.00  0.00     0.029 A 
ATOM     48  C   UNL A   1      44.957  27.281  26.818  1.00  0.00     0.049 A 
ATOM     49  H   UNL A   1      43.421  28.172  27.910  1.00  0.00     0.167 HD
ATOM     50  C   UNL A   1      40.044  29.964  30.073  1.00  0.00     0.034 A 
ATOM     51  C   UNL A   1      45.946  28.188  26.701  1.00  0.00     0.034 A 
ATOM     52  C   UNL A   1      41.085  30.964  30.080  1.00  0.00     0.049 A 
ATOM     53  C   UNL A   1      45.763  29.550  27.322  1.00  0.00     0.074 A 
ATOM     54  C   UNL A   1      41.080  32.206  30.691  1.00  0.00     0.029 A 
ATOM     55  N   UNL A   1      42.309  30.846  29.436  1.00  0.00    -0.354 N 
ATOM     56  N   UNL A   1      44.736  30.021  27.993  1.00  0.00    -0.248 NA
ATOM     57  C   UNL A   1      46.873  30.499  27.176  1.00  0.00     0.031 C 
ATOM     58  C   UNL A   1      42.263  32.869  30.347  1.00  0.00     0.029 A 
ATOM     59  C   UNL A   1      43.050  32.007  29.600  1.00  0.00     0.049 A 
ATOM     60  H   UNL A   1      42.609  30.052  28.935  1.00  0.00     0.167 HD
ATOM     61  C   UNL A   1      45.095  31.311  28.377  1.00  0.00     0.074 A 
ATOM     62  C   UNL A   1      46.436  31.534  27.877  1.00  0.00     0.031 C 
ATOM     63  C   UNL A   1      44.382  32.226  29.084  1.00  0.00     0.034 A 
BRANCH  50  64
ATOM     64  C   UNL A   1      38.721  30.280  30.733  1.00  0.00     0.023 A 
ATOM     65  C   UNL A   1      37.675  30.904  30.030  1.00  0.00     0.031 A 
ATOM     66  C   UNL A   1      38.511  29.983  32.092  1.00  0.00     0.131 A 
ATOM     67  C   UNL A   1      36.506  31.288  30.706  1.00  0.00     0.055 A 
ATOM     68  C   UNL A   1      37.309  30.284  32.736  1.00  0.00     0.041 A 
ATOM     69  F   UNL A   1      39.478  29.407  32.823  1.00  0.00    -0.206 F 
ATOM     70  C   UNL A   1      36.304  30.957  32.047  1.00  0.00     0.022 A 
BRANCH  67  71
ATOM     71  S   UNL A   1      35.331  32.373  29.849  1.00  0.00     0.124 S 
ATOM     72  O   UNL A   1      34.325  32.594  30.887  1.00  0.00    -0.237 OA
ATOM     73  O   UNL A   1      36.157  33.523  29.503  1.00  0.00    -0.237 OA
ATOM     74  O   UNL A   1      34.879  31.564  28.720  1.00  0.00    -0.744 OA
ENDBRANCH  67  71
ENDBRANCH  50  64
BRANCH  51  75
ATOM     75  C   UNL A   1      47.195  27.853  25.955  1.00  0.00     0.023 A 
ATOM     76  C   UNL A   1      47.275  28.027  24.564  1.00  0.00     0.031 A 
ATOM     77  C   UNL A   1      48.314  27.315  26.616  1.00  0.00     0.131 A 
ATOM     78  C   UNL A   1      48.428  27.622  23.873  1.00  0.00     0.055 A 
ATOM     79  C   UNL A   1      49.481  26.970  25.933  1.00  0.00     0.041 A 
ATOM     80  F   UNL A   1      48.293  27.128  27.946  1.00  0.00    -0.206 F 
ATOM     81  C   UNL A   1      49.537  27.110  24.550  1.00  0.00     0.022 A 
BRANCH  78  82
ATOM     82  S   UNL A   1      48.421  27.686  22.060  1.00  0.00     0.124 S 
ATOM     83  O   UNL A   1      48.647  26.288  21.714  1.00  0.00    -0.237 OA
ATOM     84  O   UNL A   1      47.088  28.211  21.782  1.00  0.00    -0.237 OA
ATOM     85  O   UNL A   1      49.523  28.594  21.748  1.00  0.00    -0.744 OA
ENDBRANCH  78  82
ENDBRANCH  51  75
BRANCH  63  86
ATOM     86  C   UNL A   1      45.062  33.539  29.394  1.00  0.00     0.023 A 
ATOM     87  C   UNL A   1      44.958  34.650  28.538  1.00  0.00     0.031 A 
ATOM     88  C   UNL A   1      45.837  33.676  30.561  1.00  0.00     0.131 A 
ATOM     89  C   UNL A   1      45.665  35.827  28.831  1.00  0.00     0.055 A 
ATOM     90  C   UNL A   1      46.480  34.871  30.882  1.00  0.00     0.041 A 
ATOM     91  F   UNL A   1      45.978  32.647  31.412  1.00  0.00    -0.206 F 
ATOM     92  C   UNL A   1      46.408  35.951  30.008  1.00  0.00     0.022 A 
BRANCH  89  93
ATOM     93  S   UNL A   1      45.688  37.158  27.599  1.00  0.00     0.124 S 
ATOM     94  O   UNL A   1      44.286  37.559  27.561  1.00  0.00    -0.237 OA
ATOM     95  O   UNL A   1      46.610  38.120  28.195  1.00  0.00    -0.237 OA
ATOM     96  O   UNL A   1      46.177  36.499  26.389  1.00  0.00    -0.744 OA
ENDBRANCH  89  93
ENDBRANCH  63  86
ENDBRANCH  37  38
ENDBRANCH  29  32
ENDBRANCH  27  28
ENDBRANCH   1  27
TORSDOF 16
ENDMDL
