MODEL 1
REMARK VINA RESULT:      -8.9      0.000      0.000
REMARK SMILES O=C(CCCN1C(=O)/C(=C/c2ccccc2Cl)SC1=S)Nc1cccc(C(=O)NCCCNC(=O)c2ccc(-c3c4nc(c(-c5cc(S(=O)(=O)[O-])ccc5F)c5ccc([nH]5)c(-c5cc(S(=O)(=O)[O-])ccc5F)c5nc(c(-c6cc(S(=O)(=O)[O-])ccc6F)c6ccc3[nH]6)C=C5)C=C4)cc2)c1
REMARK SMILES IDX 27 1 28 2 29 3 26 5 22 6 23 7 99 8 24 9 25 10 21 11 1 12
REMARK SMILES IDX 2 13 3 15 4 16 5 17 6 18 7 19 19 20 8 21 9 22 18 23 20 24
REMARK SMILES IDX 10 25 11 26 12 27 16 28 13 29 15 30 17 31 14 32 30 33 31 34
REMARK SMILES IDX 32 35 33 36 34 37 35 39 36 40 37 41 98 42 38 43 97 44 39 45
REMARK SMILES IDX 40 46 41 47 91 48 42 49 96 50 90 51 92 52 43 53 95 54 89 55
REMARK SMILES IDX 88 56 44 58 76 59 56 60 75 61 57 62 60 63 74 64 93 65 58 66
REMARK SMILES IDX 59 67 73 69 94 70 61 71 45 72 46 73 54 74 47 75 53 76 55 77
REMARK SMILES IDX 52 78 48 79 49 80 50 81 51 82 77 83 78 84 86 85 79 86 85 87
REMARK SMILES IDX 87 88 84 89 80 90 81 91 82 92 83 93 62 94 63 95 71 96 64 97
REMARK SMILES IDX 70 98 72 99 69 100 65 101 66 102 67 103 68 104
REMARK H PARENT 29 4 21 14 33 38 92 57 60 68
REMARK Flexibility Score: inf
ROOT
ATOM      1  C   UNL A   1      35.442  34.957  32.522  1.00  0.00     0.251 C 
ATOM      2  O   UNL A   1      34.970  36.034  32.882  1.00  0.00    -0.269 OA
ATOM      3  N   UNL A   1      34.731  34.180  31.630  1.00  0.00    -0.352 N 
ATOM      4  H   UNL A   1      33.877  34.578  31.345  1.00  0.00     0.163 HD
ENDROOT
BRANCH   1   5
ATOM      5  C   UNL A   1      36.711  34.485  33.133  1.00  0.00     0.041 A 
ATOM      6  C   UNL A   1      39.084  34.187  32.921  1.00  0.00     0.041 A 
ATOM      7  C   UNL A   1      39.029  33.130  33.835  1.00  0.00     0.026 A 
ATOM      8  C   UNL A   1      37.950  34.958  32.704  1.00  0.00     0.040 A 
ATOM      9  C   UNL A   1      37.829  32.812  34.471  1.00  0.00     0.003 A 
ATOM     10  C   UNL A   1      36.658  33.458  34.081  1.00  0.00     0.014 A 
BRANCH   6  11
ATOM     11  N   UNL A   1      40.236  34.299  32.114  1.00  0.00    -0.326 N 
ATOM     12  O   UNL A   1      39.529  33.342  30.118  1.00  0.00    -0.275 OA
ATOM     13  C   UNL A   1      40.410  33.799  30.840  1.00  0.00     0.224 C 
ATOM     14  H   UNL A   1      40.996  34.788  32.502  1.00  0.00     0.169 HD
BRANCH  13  15
ATOM     15  C   UNL A   1      41.850  33.803  30.361  1.00  0.00     0.102 C 
BRANCH  15  16
ATOM     16  C   UNL A   1      42.369  32.438  29.909  1.00  0.00     0.032 C 
BRANCH  16  17
ATOM     17  C   UNL A   1      43.516  31.841  30.738  1.00  0.00     0.128 C 
BRANCH  17  18
ATOM     18  N   UNL A   1      44.532  31.162  29.931  1.00  0.00    -0.293 N 
ATOM     19  C   UNL A   1      44.391  29.808  29.666  1.00  0.00     0.266 C 
ATOM     20  C   UNL A   1      45.644  31.781  29.395  1.00  0.00     0.148 C 
ATOM     21  O   UNL A   1      43.452  29.115  30.043  1.00  0.00    -0.268 OA
ATOM     22  C   UNL A   1      45.527  29.316  28.843  1.00  0.00     0.081 C 
ATOM     23  S   UNL A   1      46.528  30.643  28.395  1.00  0.00    -0.054 SA
ATOM     24  S   UNL A   1      46.149  33.354  29.611  1.00  0.00    -0.052 S 
ATOM     25  C   UNL A   1      45.715  28.021  28.545  1.00  0.00     0.031 C 
BRANCH  25  26
ATOM     26  C   UNL A   1      46.864  27.506  27.776  1.00  0.00    -0.006 A 
ATOM     27  C   UNL A   1      47.965  27.006  28.488  1.00  0.00     0.010 A 
ATOM     28  C   UNL A   1      46.893  27.460  26.369  1.00  0.00     0.048 A 
ATOM     29  C   UNL A   1      49.045  26.429  27.814  1.00  0.00     0.001 A 
ATOM     30  C   UNL A   1      47.966  26.862  25.701  1.00  0.00     0.021 A 
ATOM     31  Cl  UNL A   1      45.633  28.151  25.401  1.00  0.00    -0.084 Cl
ATOM     32  C   UNL A   1      49.038  26.341  26.424  1.00  0.00     0.002 A 
ENDBRANCH  25  26
ENDBRANCH  17  18
ENDBRANCH  16  17
ENDBRANCH  15  16
ENDBRANCH  13  15
ENDBRANCH   6  11
ENDBRANCH   1   5
BRANCH   3  33
ATOM     33  C   UNL A   1      35.011  32.878  31.028  1.00  0.00     0.118 C 
BRANCH  33  34
ATOM     34  C   UNL A   1      35.926  32.923  29.816  1.00  0.00     0.042 C 
BRANCH  34  35
ATOM     35  C   UNL A   1      35.243  33.283  28.510  1.00  0.00     0.118 C 
BRANCH  35  36
ATOM     36  N   UNL A   1      34.374  32.227  28.011  1.00  0.00    -0.352 N 
ATOM     37  C   UNL A   1      34.603  30.884  27.822  1.00  0.00     0.251 C 
ATOM     38  H   UNL A   1      33.468  32.526  27.767  1.00  0.00     0.163 HD
ATOM     39  O   UNL A   1      33.769  30.220  27.212  1.00  0.00    -0.269 OA
BRANCH  37  40
ATOM     40  C   UNL A   1      35.844  30.241  28.314  1.00  0.00     0.039 A 
ATOM     41  C   UNL A   1      37.003  30.323  27.537  1.00  0.00     0.014 A 
ATOM     42  C   UNL A   1      35.872  29.536  29.518  1.00  0.00     0.014 A 
ATOM     43  C   UNL A   1      38.195  29.757  28.001  1.00  0.00     0.010 A 
ATOM     44  C   UNL A   1      37.082  29.081  30.034  1.00  0.00     0.010 A 
ATOM     45  C   UNL A   1      38.255  29.166  29.273  1.00  0.00    -0.014 A 
BRANCH  45  46
ATOM     46  C   UNL A   1      39.521  28.595  29.807  1.00  0.00     0.031 A 
ATOM     47  C   UNL A   1      40.156  29.191  31.037  1.00  0.00     0.074 A 
ATOM     48  C   UNL A   1      40.125  27.579  29.159  1.00  0.00     0.049 A 
ATOM     49  N   UNL A   1      41.286  28.883  31.622  1.00  0.00    -0.248 NA
ATOM     50  C   UNL A   1      39.441  30.309  31.674  1.00  0.00     0.031 C 
ATOM     51  C   UNL A   1      39.632  26.945  27.934  1.00  0.00     0.029 A 
ATOM     52  N   UNL A   1      41.284  26.898  29.437  1.00  0.00    -0.354 N 
ATOM     53  C   UNL A   1      41.421  29.774  32.681  1.00  0.00     0.074 A 
ATOM     54  C   UNL A   1      40.301  30.687  32.607  1.00  0.00     0.031 C 
ATOM     55  C   UNL A   1      40.457  25.944  27.592  1.00  0.00     0.029 A 
ATOM     56  C   UNL A   1      41.567  25.894  28.538  1.00  0.00     0.049 A 
ATOM     57  H   UNL A   1      41.860  27.108  30.207  1.00  0.00     0.167 HD
ATOM     58  C   UNL A   1      42.372  29.811  33.648  1.00  0.00     0.034 A 
ATOM     59  C   UNL A   1      42.605  25.037  28.480  1.00  0.00     0.034 A 
ATOM     60  C   UNL A   1      43.476  28.883  33.715  1.00  0.00     0.049 A 
ATOM     61  C   UNL A   1      43.666  25.111  29.550  1.00  0.00     0.074 A 
ATOM     62  C   UNL A   1      44.472  28.796  34.670  1.00  0.00     0.029 A 
ATOM     63  N   UNL A   1      43.731  27.883  32.784  1.00  0.00    -0.354 N 
ATOM     64  N   UNL A   1      43.754  25.931  30.573  1.00  0.00    -0.248 NA
ATOM     65  C   UNL A   1      44.759  24.135  29.466  1.00  0.00     0.031 C 
ATOM     66  C   UNL A   1      45.370  27.799  34.277  1.00  0.00     0.029 A 
ATOM     67  C   UNL A   1      44.887  27.197  33.126  1.00  0.00     0.049 A 
ATOM     68  H   UNL A   1      43.172  27.690  31.997  1.00  0.00     0.167 HD
ATOM     69  C   UNL A   1      44.893  25.541  31.275  1.00  0.00     0.074 A 
ATOM     70  C   UNL A   1      45.444  24.404  30.567  1.00  0.00     0.031 C 
ATOM     71  C   UNL A   1      45.431  26.070  32.404  1.00  0.00     0.034 A 
BRANCH  58  72
ATOM     72  C   UNL A   1      42.263  30.901  34.691  1.00  0.00     0.023 A 
ATOM     73  C   UNL A   1      42.585  32.238  34.397  1.00  0.00     0.031 A 
ATOM     74  C   UNL A   1      41.867  30.597  36.005  1.00  0.00     0.131 A 
ATOM     75  C   UNL A   1      42.592  33.200  35.419  1.00  0.00     0.055 A 
ATOM     76  C   UNL A   1      41.785  31.578  36.996  1.00  0.00     0.041 A 
ATOM     77  F   UNL A   1      41.569  29.336  36.356  1.00  0.00    -0.206 F 
ATOM     78  C   UNL A   1      42.166  32.885  36.710  1.00  0.00     0.022 A 
BRANCH  75  79
ATOM     79  S   UNL A   1      43.323  34.824  35.072  1.00  0.00     0.124 S 
ATOM     80  O   UNL A   1      42.671  35.177  33.814  1.00  0.00    -0.237 OA
ATOM     81  O   UNL A   1      42.926  35.603  36.240  1.00  0.00    -0.237 OA
ATOM     82  O   UNL A   1      44.753  34.540  34.967  1.00  0.00    -0.744 OA
ENDBRANCH  75  79
ENDBRANCH  58  72
BRANCH  59  83
ATOM     83  C   UNL A   1      42.697  24.030  27.382  1.00  0.00     0.023 A 
ATOM     84  C   UNL A   1      42.047  22.789  27.482  1.00  0.00     0.031 A 
ATOM     85  C   UNL A   1      43.474  24.273  26.234  1.00  0.00     0.131 A 
ATOM     86  C   UNL A   1      42.227  21.820  26.485  1.00  0.00     0.055 A 
ATOM     87  C   UNL A   1      43.600  23.327  25.214  1.00  0.00     0.041 A 
ATOM     88  F   UNL A   1      44.115  25.443  26.080  1.00  0.00    -0.206 F 
ATOM     89  C   UNL A   1      42.987  22.085  25.344  1.00  0.00     0.022 A 
BRANCH  86  90
ATOM     90  S   UNL A   1      41.535  20.163  26.748  1.00  0.00     0.124 S 
ATOM     91  O   UNL A   1      40.216  20.476  27.286  1.00  0.00    -0.237 OA
ATOM     92  O   UNL A   1      41.562  19.607  25.399  1.00  0.00    -0.237 OA
ATOM     93  O   UNL A   1      42.467  19.552  27.692  1.00  0.00    -0.744 OA
ENDBRANCH  86  90
ENDBRANCH  59  83
BRANCH  71  94
ATOM     94  C   UNL A   1      46.653  25.385  32.968  1.00  0.00     0.023 A 
ATOM     95  C   UNL A   1      47.947  25.666  32.497  1.00  0.00     0.031 A 
ATOM     96  C   UNL A   1      46.516  24.417  33.980  1.00  0.00     0.131 A 
ATOM     97  C   UNL A   1      49.043  24.937  32.984  1.00  0.00     0.055 A 
ATOM     98  C   UNL A   1      47.618  23.749  34.515  1.00  0.00     0.041 A 
ATOM     99  F   UNL A   1      45.305  24.104  34.469  1.00  0.00    -0.206 F 
ATOM    100  C   UNL A   1      48.889  23.995  34.004  1.00  0.00     0.022 A 
BRANCH  97 101
ATOM    101  S   UNL A   1      50.654  25.149  32.179  1.00  0.00     0.124 S 
ATOM    102  O   UNL A   1      51.458  25.719  33.255  1.00  0.00    -0.237 OA
ATOM    103  O   UNL A   1      50.988  23.786  31.786  1.00  0.00    -0.237 OA
ATOM    104  O   UNL A   1      50.366  26.061  31.072  1.00  0.00    -0.744 OA
ENDBRANCH  97 101
ENDBRANCH  71  94
ENDBRANCH  45  46
ENDBRANCH  37  40
ENDBRANCH  35  36
ENDBRANCH  34  35
ENDBRANCH  33  34
ENDBRANCH   3  33
TORSDOF 19
ENDMDL
MODEL 2
REMARK VINA RESULT:      -8.6      4.979     11.241
REMARK SMILES O=C(CCCN1C(=O)/C(=C/c2ccccc2Cl)SC1=S)Nc1cccc(C(=O)NCCCNC(=O)c2ccc(-c3c4nc(c(-c5cc(S(=O)(=O)[O-])ccc5F)c5ccc([nH]5)c(-c5cc(S(=O)(=O)[O-])ccc5F)c5nc(c(-c6cc(S(=O)(=O)[O-])ccc6F)c6ccc3[nH]6)C=C5)C=C4)cc2)c1
REMARK SMILES IDX 27 1 28 2 29 3 26 5 22 6 23 7 99 8 24 9 25 10 21 11 1 12
REMARK SMILES IDX 2 13 3 15 4 16 5 17 6 18 7 19 19 20 8 21 9 22 18 23 20 24
REMARK SMILES IDX 10 25 11 26 12 27 16 28 13 29 15 30 17 31 14 32 30 33 31 34
REMARK SMILES IDX 32 35 33 36 34 37 35 39 36 40 37 41 98 42 38 43 97 44 39 45
REMARK SMILES IDX 40 46 41 47 91 48 42 49 96 50 90 51 92 52 43 53 95 54 89 55
REMARK SMILES IDX 88 56 44 58 76 59 56 60 75 61 57 62 60 63 74 64 93 65 58 66
REMARK SMILES IDX 59 67 73 69 94 70 61 71 45 72 46 73 54 74 47 75 53 76 55 77
REMARK SMILES IDX 52 78 48 79 49 80 50 81 51 82 77 83 78 84 86 85 79 86 85 87
REMARK SMILES IDX 87 88 84 89 80 90 81 91 82 92 83 93 62 94 63 95 71 96 64 97
REMARK SMILES IDX 70 98 72 99 69 100 65 101 66 102 67 103 68 104
REMARK H PARENT 29 4 21 14 33 38 92 57 60 68
REMARK Flexibility Score: inf
ROOT
ATOM      1  C   UNL A   1      38.782  27.434  29.766  1.00  0.00     0.251 C 
ATOM      2  O   UNL A   1      38.538  27.022  30.898  1.00  0.00    -0.269 OA
ATOM      3  N   UNL A   1      38.228  28.629  29.355  1.00  0.00    -0.352 N 
ATOM      4  H   UNL A   1      37.667  29.066  30.037  1.00  0.00     0.163 HD
ENDROOT
BRANCH   1   5
ATOM      5  C   UNL A   1      39.586  26.588  28.847  1.00  0.00     0.041 A 
ATOM      6  C   UNL A   1      39.717  24.610  27.493  1.00  0.00     0.041 A 
ATOM      7  C   UNL A   1      41.107  24.605  27.639  1.00  0.00     0.026 A 
ATOM      8  C   UNL A   1      38.987  25.694  27.963  1.00  0.00     0.040 A 
ATOM      9  C   UNL A   1      41.747  25.646  28.312  1.00  0.00     0.003 A 
ATOM     10  C   UNL A   1      40.981  26.612  28.961  1.00  0.00     0.014 A 
BRANCH   6  11
ATOM     11  N   UNL A   1      39.099  23.423  27.047  1.00  0.00    -0.326 N 
ATOM     12  O   UNL A   1      37.826  24.178  25.255  1.00  0.00    -0.275 OA
ATOM     13  C   UNL A   1      38.150  23.303  26.053  1.00  0.00     0.224 C 
ATOM     14  H   UNL A   1      39.374  22.591  27.493  1.00  0.00     0.169 HD
BRANCH  13  15
ATOM     15  C   UNL A   1      37.449  21.957  26.019  1.00  0.00     0.102 C 
BRANCH  15  16
ATOM     16  C   UNL A   1      36.836  21.598  24.666  1.00  0.00     0.032 C 
BRANCH  16  17
ATOM     17  C   UNL A   1      35.304  21.489  24.624  1.00  0.00     0.128 C 
BRANCH  17  18
ATOM     18  N   UNL A   1      34.618  22.739  24.957  1.00  0.00    -0.293 N 
ATOM     19  C   UNL A   1      34.609  23.772  24.032  1.00  0.00     0.266 C 
ATOM     20  C   UNL A   1      33.957  22.974  26.147  1.00  0.00     0.148 C 
ATOM     21  O   UNL A   1      35.124  23.720  22.920  1.00  0.00    -0.268 OA
ATOM     22  C   UNL A   1      33.870  24.947  24.568  1.00  0.00     0.081 C 
ATOM     23  S   UNL A   1      33.169  24.539  26.086  1.00  0.00    -0.054 SA
ATOM     24  S   UNL A   1      33.871  21.987  27.487  1.00  0.00    -0.052 S 
ATOM     25  C   UNL A   1      33.812  26.131  23.938  1.00  0.00     0.031 C 
BRANCH  25  26
ATOM     26  C   UNL A   1      33.131  27.323  24.477  1.00  0.00    -0.006 A 
ATOM     27  C   UNL A   1      33.864  28.183  25.309  1.00  0.00     0.010 A 
ATOM     28  C   UNL A   1      31.798  27.656  24.169  1.00  0.00     0.048 A 
ATOM     29  C   UNL A   1      33.297  29.371  25.780  1.00  0.00     0.001 A 
ATOM     30  C   UNL A   1      31.243  28.855  24.626  1.00  0.00     0.021 A 
ATOM     31  Cl  UNL A   1      30.779  26.603  23.244  1.00  0.00    -0.084 Cl
ATOM     32  C   UNL A   1      31.994  29.715  25.425  1.00  0.00     0.002 A 
ENDBRANCH  25  26
ENDBRANCH  17  18
ENDBRANCH  16  17
ENDBRANCH  15  16
ENDBRANCH  13  15
ENDBRANCH   6  11
ENDBRANCH   1   5
BRANCH   3  33
ATOM     33  C   UNL A   1      38.319  29.369  28.097  1.00  0.00     0.118 C 
BRANCH  33  34
ATOM     34  C   UNL A   1      37.017  30.005  27.641  1.00  0.00     0.042 C 
BRANCH  34  35
ATOM     35  C   UNL A   1      35.808  29.677  28.496  1.00  0.00     0.118 C 
BRANCH  35  36
ATOM     36  N   UNL A   1      35.114  30.861  28.981  1.00  0.00    -0.352 N 
ATOM     37  C   UNL A   1      35.303  31.617  30.114  1.00  0.00     0.251 C 
ATOM     38  H   UNL A   1      34.384  31.173  28.398  1.00  0.00     0.163 HD
ATOM     39  O   UNL A   1      34.469  32.471  30.404  1.00  0.00    -0.269 OA
BRANCH  37  40
ATOM     40  C   UNL A   1      36.474  31.398  30.994  1.00  0.00     0.039 A 
ATOM     41  C   UNL A   1      37.627  32.162  30.790  1.00  0.00     0.014 A 
ATOM     42  C   UNL A   1      36.461  30.430  31.999  1.00  0.00     0.014 A 
ATOM     43  C   UNL A   1      38.730  32.000  31.635  1.00  0.00     0.010 A 
ATOM     44  C   UNL A   1      37.509  30.355  32.912  1.00  0.00     0.010 A 
ATOM     45  C   UNL A   1      38.666  31.123  32.729  1.00  0.00    -0.014 A 
BRANCH  45  46
ATOM     46  C   UNL A   1      39.811  30.963  33.667  1.00  0.00     0.031 A 
ATOM     47  C   UNL A   1      40.901  29.968  33.361  1.00  0.00     0.074 A 
ATOM     48  C   UNL A   1      39.842  31.670  34.814  1.00  0.00     0.049 A 
ATOM     49  N   UNL A   1      41.945  29.633  34.076  1.00  0.00    -0.248 NA
ATOM     50  C   UNL A   1      40.782  29.225  32.096  1.00  0.00     0.031 C 
ATOM     51  C   UNL A   1      38.824  32.632  35.243  1.00  0.00     0.029 A 
ATOM     52  N   UNL A   1      40.765  31.694  35.830  1.00  0.00    -0.354 N 
ATOM     53  C   UNL A   1      42.594  28.635  33.356  1.00  0.00     0.074 A 
ATOM     54  C   UNL A   1      41.781  28.362  32.192  1.00  0.00     0.031 C 
ATOM     55  C   UNL A   1      39.199  33.180  36.409  1.00  0.00     0.029 A 
ATOM     56  C   UNL A   1      40.454  32.575  36.841  1.00  0.00     0.049 A 
ATOM     57  H   UNL A   1      41.573  31.131  35.836  1.00  0.00     0.167 HD
ATOM     58  C   UNL A   1      43.776  28.025  33.622  1.00  0.00     0.034 A 
ATOM     59  C   UNL A   1      41.103  32.857  37.988  1.00  0.00     0.034 A 
ATOM     60  C   UNL A   1      44.581  28.320  34.783  1.00  0.00     0.049 A 
ATOM     61  C   UNL A   1      42.402  32.147  38.278  1.00  0.00     0.074 A 
ATOM     62  C   UNL A   1      45.814  27.798  35.133  1.00  0.00     0.029 A 
ATOM     63  N   UNL A   1      44.231  29.215  35.787  1.00  0.00    -0.354 N 
ATOM     64  N   UNL A   1      43.026  31.238  37.563  1.00  0.00    -0.248 NA
ATOM     65  C   UNL A   1      43.092  32.512  39.521  1.00  0.00     0.031 C 
ATOM     66  C   UNL A   1      46.171  28.317  36.381  1.00  0.00     0.029 A 
ATOM     67  C   UNL A   1      45.208  29.235  36.770  1.00  0.00     0.049 A 
ATOM     68  H   UNL A   1      43.410  29.757  35.798  1.00  0.00     0.167 HD
ATOM     69  C   UNL A   1      44.203  30.953  38.254  1.00  0.00     0.074 A 
ATOM     70  C   UNL A   1      44.205  31.800  39.430  1.00  0.00     0.031 C 
ATOM     71  C   UNL A   1      45.193  30.078  37.944  1.00  0.00     0.034 A 
BRANCH  58  72
ATOM     72  C   UNL A   1      44.247  26.967  32.650  1.00  0.00     0.023 A 
ATOM     73  C   UNL A   1      44.811  27.305  31.406  1.00  0.00     0.031 A 
ATOM     74  C   UNL A   1      44.101  25.601  32.951  1.00  0.00     0.131 A 
ATOM     75  C   UNL A   1      45.122  26.299  30.479  1.00  0.00     0.055 A 
ATOM     76  C   UNL A   1      44.500  24.603  32.061  1.00  0.00     0.041 A 
ATOM     77  F   UNL A   1      43.548  25.212  34.112  1.00  0.00    -0.206 F 
ATOM     78  C   UNL A   1      44.998  24.949  30.809  1.00  0.00     0.022 A 
BRANCH  75  79
ATOM     79  S   UNL A   1      45.534  26.786  28.781  1.00  0.00     0.124 S 
ATOM     80  O   UNL A   1      45.322  25.535  28.057  1.00  0.00    -0.237 OA
ATOM     81  O   UNL A   1      44.571  27.849  28.516  1.00  0.00    -0.237 OA
ATOM     82  O   UNL A   1      46.928  27.215  28.876  1.00  0.00    -0.744 OA
ENDBRANCH  75  79
ENDBRANCH  58  72
BRANCH  59  83
ATOM     83  C   UNL A   1      40.549  33.858  38.947  1.00  0.00     0.023 A 
ATOM     84  C   UNL A   1      39.739  33.457  40.022  1.00  0.00     0.031 A 
ATOM     85  C   UNL A   1      40.783  35.235  38.779  1.00  0.00     0.131 A 
ATOM     86  C   UNL A   1      39.149  34.421  40.853  1.00  0.00     0.055 A 
ATOM     87  C   UNL A   1      40.243  36.187  39.646  1.00  0.00     0.041 A 
ATOM     88  F   UNL A   1      41.553  35.677  37.771  1.00  0.00    -0.206 F 
ATOM     89  C   UNL A   1      39.407  35.783  40.682  1.00  0.00     0.022 A 
BRANCH  86  90
ATOM     90  S   UNL A   1      37.953  33.876  42.104  1.00  0.00     0.124 S 
ATOM     91  O   UNL A   1      38.829  33.512  43.212  1.00  0.00    -0.237 OA
ATOM     92  O   UNL A   1      37.144  35.075  42.291  1.00  0.00    -0.237 OA
ATOM     93  O   UNL A   1      37.269  32.759  41.455  1.00  0.00    -0.744 OA
ENDBRANCH  86  90
ENDBRANCH  59  83
BRANCH  71  94
ATOM     94  C   UNL A   1      46.385  30.034  38.869  1.00  0.00     0.023 A 
ATOM     95  C   UNL A   1      46.495  29.079  39.895  1.00  0.00     0.031 A 
ATOM     96  C   UNL A   1      47.419  30.978  38.735  1.00  0.00     0.131 A 
ATOM     97  C   UNL A   1      47.575  29.135  40.790  1.00  0.00     0.055 A 
ATOM     98  C   UNL A   1      48.528  30.982  39.581  1.00  0.00     0.041 A 
ATOM     99  F   UNL A   1      47.369  31.917  37.776  1.00  0.00    -0.206 F 
ATOM    100  C   UNL A   1      48.602  30.067  40.628  1.00  0.00     0.022 A 
BRANCH  97 101
ATOM    101  S   UNL A   1      47.554  28.050  42.243  1.00  0.00     0.124 S 
ATOM    102  O   UNL A   1      48.296  28.839  43.221  1.00  0.00    -0.237 OA
ATOM    103  O   UNL A   1      46.126  27.897  42.499  1.00  0.00    -0.237 OA
ATOM    104  O   UNL A   1      48.234  26.841  41.779  1.00  0.00    -0.744 OA
ENDBRANCH  97 101
ENDBRANCH  71  94
ENDBRANCH  45  46
ENDBRANCH  37  40
ENDBRANCH  35  36
ENDBRANCH  34  35
ENDBRANCH  33  34
ENDBRANCH   3  33
TORSDOF 19
ENDMDL
MODEL 3
REMARK VINA RESULT:      -8.5      4.720      9.074
REMARK SMILES O=C(CCCN1C(=O)/C(=C/c2ccccc2Cl)SC1=S)Nc1cccc(C(=O)NCCCNC(=O)c2ccc(-c3c4nc(c(-c5cc(S(=O)(=O)[O-])ccc5F)c5ccc([nH]5)c(-c5cc(S(=O)(=O)[O-])ccc5F)c5nc(c(-c6cc(S(=O)(=O)[O-])ccc6F)c6ccc3[nH]6)C=C5)C=C4)cc2)c1
REMARK SMILES IDX 27 1 28 2 29 3 26 5 22 6 23 7 99 8 24 9 25 10 21 11 1 12
REMARK SMILES IDX 2 13 3 15 4 16 5 17 6 18 7 19 19 20 8 21 9 22 18 23 20 24
REMARK SMILES IDX 10 25 11 26 12 27 16 28 13 29 15 30 17 31 14 32 30 33 31 34
REMARK SMILES IDX 32 35 33 36 34 37 35 39 36 40 37 41 98 42 38 43 97 44 39 45
REMARK SMILES IDX 40 46 41 47 91 48 42 49 96 50 90 51 92 52 43 53 95 54 89 55
REMARK SMILES IDX 88 56 44 58 76 59 56 60 75 61 57 62 60 63 74 64 93 65 58 66
REMARK SMILES IDX 59 67 73 69 94 70 61 71 45 72 46 73 54 74 47 75 53 76 55 77
REMARK SMILES IDX 52 78 48 79 49 80 50 81 51 82 77 83 78 84 86 85 79 86 85 87
REMARK SMILES IDX 87 88 84 89 80 90 81 91 82 92 83 93 62 94 63 95 71 96 64 97
REMARK SMILES IDX 70 98 72 99 69 100 65 101 66 102 67 103 68 104
REMARK H PARENT 29 4 21 14 33 38 92 57 60 68
REMARK Flexibility Score: inf
ROOT
ATOM      1  C   UNL A   1      41.465  27.104  26.036  1.00  0.00     0.251 C 
ATOM      2  O   UNL A   1      42.226  27.371  25.109  1.00  0.00    -0.269 OA
ATOM      3  N   UNL A   1      40.731  28.120  26.613  1.00  0.00    -0.352 N 
ATOM      4  H   UNL A   1      40.885  29.005  26.209  1.00  0.00     0.163 HD
ENDROOT
BRANCH   1   5
ATOM      5  C   UNL A   1      41.433  25.716  26.567  1.00  0.00     0.041 A 
ATOM      6  C   UNL A   1      40.421  23.540  26.516  1.00  0.00     0.041 A 
ATOM      7  C   UNL A   1      40.824  23.325  27.837  1.00  0.00     0.026 A 
ATOM      8  C   UNL A   1      40.871  24.668  25.842  1.00  0.00     0.040 A 
ATOM      9  C   UNL A   1      41.614  24.269  28.493  1.00  0.00     0.003 A 
ATOM     10  C   UNL A   1      41.876  25.489  27.875  1.00  0.00     0.014 A 
BRANCH   6  11
ATOM     11  N   UNL A   1      39.417  22.701  25.990  1.00  0.00    -0.326 N 
ATOM     12  O   UNL A   1      37.516  24.022  26.203  1.00  0.00    -0.275 OA
ATOM     13  C   UNL A   1      38.059  22.948  25.958  1.00  0.00     0.224 C 
ATOM     14  H   UNL A   1      39.716  21.847  25.603  1.00  0.00     0.169 HD
BRANCH  13  15
ATOM     15  C   UNL A   1      37.213  21.734  25.623  1.00  0.00     0.102 C 
BRANCH  15  16
ATOM     16  C   UNL A   1      36.464  21.833  24.294  1.00  0.00     0.032 C 
BRANCH  16  17
ATOM     17  C   UNL A   1      34.931  21.809  24.376  1.00  0.00     0.128 C 
BRANCH  17  18
ATOM     18  N   UNL A   1      34.347  23.077  24.819  1.00  0.00    -0.293 N 
ATOM     19  C   UNL A   1      34.283  24.139  23.930  1.00  0.00     0.266 C 
ATOM     20  C   UNL A   1      33.836  23.302  26.082  1.00  0.00     0.148 C 
ATOM     21  O   UNL A   1      34.667  24.100  22.765  1.00  0.00    -0.268 OA
ATOM     22  C   UNL A   1      33.667  25.326  24.578  1.00  0.00     0.081 C 
ATOM     23  S   UNL A   1      33.121  24.901  26.154  1.00  0.00    -0.054 SA
ATOM     24  S   UNL A   1      33.855  22.276  27.396  1.00  0.00    -0.052 S 
ATOM     25  C   UNL A   1      33.595  26.532  23.992  1.00  0.00     0.031 C 
BRANCH  25  26
ATOM     26  C   UNL A   1      33.037  27.735  24.637  1.00  0.00    -0.006 A 
ATOM     27  C   UNL A   1      33.855  28.447  25.528  1.00  0.00     0.010 A 
ATOM     28  C   UNL A   1      31.741  28.220  24.376  1.00  0.00     0.048 A 
ATOM     29  C   UNL A   1      33.408  29.640  26.104  1.00  0.00     0.001 A 
ATOM     30  C   UNL A   1      31.308  29.425  24.938  1.00  0.00     0.021 A 
ATOM     31  Cl  UNL A   1      30.619  27.353  23.380  1.00  0.00    -0.084 Cl
ATOM     32  C   UNL A   1      32.144  30.138  25.796  1.00  0.00     0.002 A 
ENDBRANCH  25  26
ENDBRANCH  17  18
ENDBRANCH  16  17
ENDBRANCH  15  16
ENDBRANCH  13  15
ENDBRANCH   6  11
ENDBRANCH   1   5
BRANCH   3  33
ATOM     33  C   UNL A   1      39.767  28.128  27.712  1.00  0.00     0.118 C 
BRANCH  33  34
ATOM     34  C   UNL A   1      38.902  29.375  27.787  1.00  0.00     0.042 C 
BRANCH  34  35
ATOM     35  C   UNL A   1      37.874  29.377  28.902  1.00  0.00     0.118 C 
BRANCH  35  36
ATOM     36  N   UNL A   1      37.930  30.575  29.728  1.00  0.00    -0.352 N 
ATOM     37  C   UNL A   1      38.889  31.022  30.606  1.00  0.00     0.251 C 
ATOM     38  H   UNL A   1      37.147  31.166  29.642  1.00  0.00     0.163 HD
ATOM     39  O   UNL A   1      38.630  31.979  31.331  1.00  0.00    -0.269 OA
BRANCH  37  40
ATOM     40  C   UNL A   1      40.207  30.352  30.708  1.00  0.00     0.039 A 
ATOM     41  C   UNL A   1      41.345  31.022  30.248  1.00  0.00     0.014 A 
ATOM     42  C   UNL A   1      40.331  29.062  31.225  1.00  0.00     0.014 A 
ATOM     43  C   UNL A   1      42.603  30.425  30.371  1.00  0.00     0.010 A 
ATOM     44  C   UNL A   1      41.592  28.520  31.457  1.00  0.00     0.010 A 
ATOM     45  C   UNL A   1      42.743  29.184  31.014  1.00  0.00    -0.014 A 
BRANCH  45  46
ATOM     46  C   UNL A   1      44.076  28.547  31.194  1.00  0.00     0.031 A 
ATOM     47  C   UNL A   1      44.770  28.620  32.530  1.00  0.00     0.074 A 
ATOM     48  C   UNL A   1      44.683  27.952  30.148  1.00  0.00     0.049 A 
ATOM     49  N   UNL A   1      45.957  28.189  32.874  1.00  0.00    -0.248 NA
ATOM     50  C   UNL A   1      44.047  29.303  33.615  1.00  0.00     0.031 C 
ATOM     51  C   UNL A   1      44.131  27.855  28.794  1.00  0.00     0.029 A 
ATOM     52  N   UNL A   1      45.895  27.315  30.055  1.00  0.00    -0.354 N 
ATOM     53  C   UNL A   1      46.125  28.559  34.204  1.00  0.00     0.074 A 
ATOM     54  C   UNL A   1      44.955  29.323  34.578  1.00  0.00     0.031 C 
ATOM     55  C   UNL A   1      44.981  27.161  28.021  1.00  0.00     0.029 A 
ATOM     56  C   UNL A   1      46.161  26.810  28.802  1.00  0.00     0.049 A 
ATOM     57  H   UNL A   1      46.516  27.228  30.813  1.00  0.00     0.167 HD
ATOM     58  C   UNL A   1      47.144  28.263  35.049  1.00  0.00     0.034 A 
ATOM     59  C   UNL A   1      47.237  26.145  28.337  1.00  0.00     0.034 A 
ATOM     60  C   UNL A   1      48.299  27.488  34.663  1.00  0.00     0.049 A 
ATOM     61  C   UNL A   1      48.372  25.848  29.286  1.00  0.00     0.074 A 
ATOM     62  C   UNL A   1      49.370  27.089  35.443  1.00  0.00     0.029 A 
ATOM     63  N   UNL A   1      48.535  26.997  33.384  1.00  0.00    -0.354 N 
ATOM     64  N   UNL A   1      48.494  26.166  30.555  1.00  0.00    -0.248 NA
ATOM     65  C   UNL A   1      49.507  25.091  28.743  1.00  0.00     0.031 C 
ATOM     66  C   UNL A   1      50.287  26.427  34.622  1.00  0.00     0.029 A 
ATOM     67  C   UNL A   1      49.750  26.328  33.348  1.00  0.00     0.049 A 
ATOM     68  H   UNL A   1      47.929  27.107  32.617  1.00  0.00     0.167 HD
ATOM     69  C   UNL A   1      49.703  25.612  30.970  1.00  0.00     0.074 A 
ATOM     70  C   UNL A   1      50.259  24.928  29.821  1.00  0.00     0.031 C 
ATOM     71  C   UNL A   1      50.297  25.658  32.190  1.00  0.00     0.034 A 
BRANCH  58  72
ATOM     72  C   UNL A   1      47.057  28.800  36.460  1.00  0.00     0.023 A 
ATOM     73  C   UNL A   1      46.546  28.024  37.516  1.00  0.00     0.031 A 
ATOM     74  C   UNL A   1      47.458  30.116  36.751  1.00  0.00     0.131 A 
ATOM     75  C   UNL A   1      46.365  28.596  38.784  1.00  0.00     0.055 A 
ATOM     76  C   UNL A   1      47.363  30.649  38.038  1.00  0.00     0.041 A 
ATOM     77  F   UNL A   1      47.933  30.916  35.783  1.00  0.00    -0.206 F 
ATOM     78  C   UNL A   1      46.797  29.894  39.061  1.00  0.00     0.022 A 
BRANCH  75  79
ATOM     79  S   UNL A   1      45.407  27.674  40.019  1.00  0.00     0.124 S 
ATOM     80  O   UNL A   1      44.963  28.747  40.906  1.00  0.00    -0.237 OA
ATOM     81  O   UNL A   1      44.370  27.045  39.208  1.00  0.00    -0.237 OA
ATOM     82  O   UNL A   1      46.387  26.760  40.600  1.00  0.00    -0.744 OA
ENDBRANCH  75  79
ENDBRANCH  58  72
BRANCH  59  83
ATOM     83  C   UNL A   1      47.299  25.705  26.911  1.00  0.00     0.023 A 
ATOM     84  C   UNL A   1      47.843  26.537  25.921  1.00  0.00     0.031 A 
ATOM     85  C   UNL A   1      46.773  24.463  26.510  1.00  0.00     0.131 A 
ATOM     86  C   UNL A   1      47.802  26.146  24.575  1.00  0.00     0.055 A 
ATOM     87  C   UNL A   1      46.790  24.051  25.175  1.00  0.00     0.041 A 
ATOM     88  F   UNL A   1      46.244  23.622  27.413  1.00  0.00    -0.206 F 
ATOM     89  C   UNL A   1      47.293  24.902  24.196  1.00  0.00     0.022 A 
BRANCH  86  90
ATOM     90  S   UNL A   1      48.331  27.332  23.307  1.00  0.00     0.124 S 
ATOM     91  O   UNL A   1      47.126  28.135  23.133  1.00  0.00    -0.237 OA
ATOM     92  O   UNL A   1      49.454  27.993  23.964  1.00  0.00    -0.237 OA
ATOM     93  O   UNL A   1      48.686  26.481  22.173  1.00  0.00    -0.744 OA
ENDBRANCH  86  90
ENDBRANCH  59  83
BRANCH  71  94
ATOM     94  C   UNL A   1      51.594  24.902  32.352  1.00  0.00     0.023 A 
ATOM     95  C   UNL A   1      51.628  23.502  32.477  1.00  0.00     0.031 A 
ATOM     96  C   UNL A   1      52.816  25.597  32.404  1.00  0.00     0.131 A 
ATOM     97  C   UNL A   1      52.847  22.850  32.720  1.00  0.00     0.055 A 
ATOM     98  C   UNL A   1      54.034  24.937  32.570  1.00  0.00     0.041 A 
ATOM     99  F   UNL A   1      52.847  26.935  32.293  1.00  0.00    -0.206 F 
ATOM    100  C   UNL A   1      54.052  23.556  32.747  1.00  0.00     0.022 A 
BRANCH  97 101
ATOM    101  S   UNL A   1      52.820  21.082  33.123  1.00  0.00     0.124 S 
ATOM    102  O   UNL A   1      51.410  20.753  32.948  1.00  0.00    -0.237 OA
ATOM    103  O   UNL A   1      53.733  20.523  32.133  1.00  0.00    -0.237 OA
ATOM    104  O   UNL A   1      53.300  21.039  34.504  1.00  0.00    -0.744 OA
ENDBRANCH  97 101
ENDBRANCH  71  94
ENDBRANCH  45  46
ENDBRANCH  37  40
ENDBRANCH  35  36
ENDBRANCH  34  35
ENDBRANCH  33  34
ENDBRANCH   3  33
TORSDOF 19
ENDMDL
