MODEL 1
REMARK VINA RESULT:     -13.5      0.000      0.000
REMARK SMILES Cc1ccc2c(c1)OCCN2c1sc(C(=O)NCCCNC(=O)c2ccc(-c3c4nc(c(-c5cc(S(=O)(=O)[O-])ccc5F)c5ccc([nH]5)c(-c5cc(S(=O)(=O)[O-])ccc5F)c5nc(c(-c6cc(S(=O)(=O)[O-])ccc6F)c6ccc3[nH]6)C=C5)C=C4)cc2)cc1C
REMARK SMILES IDX 20 1 19 2 18 3 17 4 15 5 16 6 14 8 12 9 13 10 88 11 87 12
REMARK SMILES IDX 89 13 11 14 1 15 2 16 3 17 7 18 4 19 6 20 5 21 8 22 9 23
REMARK SMILES IDX 10 24 21 25 22 26 23 28 24 29 25 30 86 31 26 32 85 33 27 34
REMARK SMILES IDX 28 35 29 36 79 37 30 38 84 39 78 40 80 41 31 42 83 43 77 44
REMARK SMILES IDX 76 45 32 47 64 48 44 49 63 50 45 51 48 52 62 53 81 54 46 55
REMARK SMILES IDX 47 56 61 58 82 59 49 60 33 61 34 62 42 63 35 64 41 65 43 66
REMARK SMILES IDX 40 67 36 68 37 69 38 70 39 71 65 72 66 73 74 74 67 75 73 76
REMARK SMILES IDX 75 77 72 78 68 79 69 80 70 81 71 82 50 83 51 84 59 85 52 86
REMARK SMILES IDX 58 87 60 88 57 89 53 90 54 91 55 92 56 93
REMARK H PARENT 17 7 21 27 80 46 48 57
REMARK Flexibility Score: inf
ROOT
ATOM      1  C   UNL A   1      32.059  30.378  26.678  1.00  0.00     0.118 C 
ENDROOT
BRANCH   1   2
ATOM      2  C   UNL A   1      31.502  29.926  25.331  1.00  0.00     0.042 C 
BRANCH   2   3
ATOM      3  C   UNL A   1      31.610  28.420  25.113  1.00  0.00     0.118 C 
BRANCH   3   4
ATOM      4  N   UNL A   1      31.331  28.065  23.733  1.00  0.00    -0.351 N 
ATOM      5  C   UNL A   1      31.315  26.872  23.055  1.00  0.00     0.261 C 
ATOM      6  O   UNL A   1      30.968  26.956  21.872  1.00  0.00    -0.268 OA
ATOM      7  H   UNL A   1      31.108  28.839  23.167  1.00  0.00     0.163 HD
BRANCH   5   8
ATOM      8  C   UNL A   1      31.587  25.581  23.670  1.00  0.00     0.094 A 
ATOM      9  C   UNL A   1      32.574  23.510  24.625  1.00  0.00     0.099 A 
ATOM     10  S   UNL A   1      32.856  24.524  23.262  1.00  0.00    -0.112 S 
ATOM     11  C   UNL A   1      31.330  23.785  25.178  1.00  0.00    -0.015 A 
ATOM     12  C   UNL A   1      30.775  24.981  24.615  1.00  0.00     0.031 A 
ATOM     13  C   UNL A   1      30.655  23.033  26.275  1.00  0.00     0.047 C 
BRANCH   9  14
ATOM     14  N   UNL A   1      33.458  22.551  25.025  1.00  0.00    -0.327 N 
ATOM     15  C   UNL A   1      33.508  16.994  23.478  1.00  0.00     0.044 C 
ATOM     16  C   UNL A   1      33.480  18.434  23.896  1.00  0.00    -0.047 A 
ATOM     17  C   UNL A   1      32.421  19.263  23.523  1.00  0.00     0.006 A 
ATOM     18  C   UNL A   1      34.544  18.987  24.611  1.00  0.00     0.052 A 
ATOM     19  C   UNL A   1      32.416  20.618  23.880  1.00  0.00     0.030 A 
ATOM     20  C   UNL A   1      34.535  20.339  24.971  1.00  0.00     0.143 A 
ATOM     21  C   UNL A   1      33.454  21.185  24.637  1.00  0.00     0.085 A 
ATOM     22  O   UNL A   1      35.651  20.765  25.659  1.00  0.00    -0.490 OA
ATOM     23  C   UNL A   1      35.775  22.191  25.664  1.00  0.00     0.251 C 
ATOM     24  C   UNL A   1      34.462  22.865  26.042  1.00  0.00     0.165 C 
ENDBRANCH   9  14
ENDBRANCH   5   8
ENDBRANCH   3   4
ENDBRANCH   2   3
ENDBRANCH   1   2
BRANCH   1  25
ATOM     25  N   UNL A   1      32.015  31.826  26.845  1.00  0.00    -0.352 N 
ATOM     26  C   UNL A   1      32.896  32.664  27.488  1.00  0.00     0.251 C 
ATOM     27  H   UNL A   1      31.238  32.272  26.437  1.00  0.00     0.163 HD
ATOM     28  O   UNL A   1      32.586  33.838  27.678  1.00  0.00    -0.269 OA
BRANCH  26  29
ATOM     29  C   UNL A   1      34.195  32.146  27.973  1.00  0.00     0.039 A 
ATOM     30  C   UNL A   1      34.349  30.795  28.287  1.00  0.00     0.014 A 
ATOM     31  C   UNL A   1      35.269  33.027  28.123  1.00  0.00     0.014 A 
ATOM     32  C   UNL A   1      35.512  30.362  28.915  1.00  0.00     0.010 A 
ATOM     33  C   UNL A   1      36.470  32.570  28.674  1.00  0.00     0.010 A 
ATOM     34  C   UNL A   1      36.583  31.245  29.124  1.00  0.00    -0.014 A 
BRANCH  34  35
ATOM     35  C   UNL A   1      37.808  30.756  29.809  1.00  0.00     0.031 A 
ATOM     36  C   UNL A   1      38.083  31.104  31.247  1.00  0.00     0.074 A 
ATOM     37  C   UNL A   1      38.654  29.949  29.141  1.00  0.00     0.049 A 
ATOM     38  N   UNL A   1      39.063  30.705  32.016  1.00  0.00    -0.248 NA
ATOM     39  C   UNL A   1      37.142  32.022  31.907  1.00  0.00     0.031 C 
ATOM     40  C   UNL A   1      38.492  29.554  27.742  1.00  0.00     0.029 A 
ATOM     41  N   UNL A   1      39.792  29.298  29.543  1.00  0.00    -0.354 N 
ATOM     42  C   UNL A   1      38.873  31.337  33.239  1.00  0.00     0.074 A 
ATOM     43  C   UNL A   1      37.701  32.173  33.100  1.00  0.00     0.031 C 
ATOM     44  C   UNL A   1      39.456  28.682  27.420  1.00  0.00     0.029 A 
ATOM     45  C   UNL A   1      40.346  28.505  28.564  1.00  0.00     0.049 A 
ATOM     46  H   UNL A   1      40.175  29.387  30.445  1.00  0.00     0.167 HD
ATOM     47  C   UNL A   1      39.602  31.219  34.375  1.00  0.00     0.034 A 
ATOM     48  C   UNL A   1      41.447  27.725  28.579  1.00  0.00     0.034 A 
ATOM     49  C   UNL A   1      40.749  30.359  34.505  1.00  0.00     0.049 A 
ATOM     50  C   UNL A   1      42.247  27.615  29.849  1.00  0.00     0.074 A 
ATOM     51  C   UNL A   1      41.511  30.120  35.635  1.00  0.00     0.029 A 
ATOM     52  N   UNL A   1      41.305  29.602  33.483  1.00  0.00    -0.354 N 
ATOM     53  N   UNL A   1      42.011  28.164  31.018  1.00  0.00    -0.248 NA
ATOM     54  C   UNL A   1      43.457  26.784  29.810  1.00  0.00     0.031 C 
ATOM     55  C   UNL A   1      42.564  29.274  35.282  1.00  0.00     0.029 A 
ATOM     56  C   UNL A   1      42.423  28.926  33.947  1.00  0.00     0.049 A 
ATOM     57  H   UNL A   1      40.958  29.553  32.562  1.00  0.00     0.167 HD
ATOM     58  C   UNL A   1      43.038  27.740  31.855  1.00  0.00     0.074 A 
ATOM     59  C   UNL A   1      43.880  26.864  31.066  1.00  0.00     0.031 C 
ATOM     60  C   UNL A   1      43.262  28.055  33.157  1.00  0.00     0.034 A 
BRANCH  47  61
ATOM     61  C   UNL A   1      39.193  32.028  35.581  1.00  0.00     0.023 A 
ATOM     62  C   UNL A   1      38.462  31.419  36.619  1.00  0.00     0.031 A 
ATOM     63  C   UNL A   1      39.425  33.413  35.656  1.00  0.00     0.131 A 
ATOM     64  C   UNL A   1      37.971  32.196  37.676  1.00  0.00     0.055 A 
ATOM     65  C   UNL A   1      38.964  34.177  36.730  1.00  0.00     0.041 A 
ATOM     66  F   UNL A   1      40.113  34.042  34.690  1.00  0.00    -0.206 F 
ATOM     67  C   UNL A   1      38.225  33.570  37.741  1.00  0.00     0.022 A 
BRANCH  64  68
ATOM     68  S   UNL A   1      36.933  31.470  38.973  1.00  0.00     0.124 S 
ATOM     69  O   UNL A   1      36.710  30.122  38.457  1.00  0.00    -0.237 OA
ATOM     70  O   UNL A   1      37.801  31.553  40.144  1.00  0.00    -0.237 OA
ATOM     71  O   UNL A   1      35.754  32.328  39.003  1.00  0.00    -0.744 OA
ENDBRANCH  64  68
ENDBRANCH  47  61
BRANCH  48  72
ATOM     72  C   UNL A   1      41.791  26.956  27.348  1.00  0.00     0.023 A 
ATOM     73  C   UNL A   1      41.561  25.569  27.278  1.00  0.00     0.031 A 
ATOM     74  C   UNL A   1      42.496  27.564  26.296  1.00  0.00     0.131 A 
ATOM     75  C   UNL A   1      42.119  24.823  26.233  1.00  0.00     0.055 A 
ATOM     76  C   UNL A   1      42.982  26.827  25.215  1.00  0.00     0.041 A 
ATOM     77  F   UNL A   1      42.748  28.882  26.325  1.00  0.00    -0.206 F 
ATOM     78  C   UNL A   1      42.814  25.445  25.191  1.00  0.00     0.022 A 
BRANCH  75  79
ATOM     79  S   UNL A   1      42.096  23.009  26.274  1.00  0.00     0.124 S 
ATOM     80  O   UNL A   1      40.672  22.724  26.419  1.00  0.00    -0.237 OA
ATOM     81  O   UNL A   1      42.677  22.678  24.976  1.00  0.00    -0.237 OA
ATOM     82  O   UNL A   1      42.925  22.679  27.428  1.00  0.00    -0.744 OA
ENDBRANCH  75  79
ENDBRANCH  48  72
BRANCH  60  83
ATOM     83  C   UNL A   1      44.477  27.475  33.841  1.00  0.00     0.023 A 
ATOM     84  C   UNL A   1      44.362  26.296  34.604  1.00  0.00     0.031 A 
ATOM     85  C   UNL A   1      45.698  28.171  33.870  1.00  0.00     0.131 A 
ATOM     86  C   UNL A   1      45.434  25.876  35.401  1.00  0.00     0.055 A 
ATOM     87  C   UNL A   1      46.778  27.720  34.629  1.00  0.00     0.041 A 
ATOM     88  F   UNL A   1      45.853  29.303  33.166  1.00  0.00    -0.206 F 
ATOM     89  C   UNL A   1      46.644  26.577  35.412  1.00  0.00     0.022 A 
BRANCH  86  90
ATOM     90  S   UNL A   1      45.267  24.459  36.522  1.00  0.00     0.124 S 
ATOM     91  O   UNL A   1      46.662  24.142  36.819  1.00  0.00    -0.237 OA
ATOM     92  O   UNL A   1      44.508  25.031  37.631  1.00  0.00    -0.237 OA
ATOM     93  O   UNL A   1      44.559  23.461  35.727  1.00  0.00    -0.744 OA
ENDBRANCH  86  90
ENDBRANCH  60  83
ENDBRANCH  34  35
ENDBRANCH  26  29
ENDBRANCH   1  25
TORSDOF 14
ENDMDL
MODEL 2
REMARK VINA RESULT:     -13.4      1.466      1.747
REMARK SMILES Cc1ccc2c(c1)OCCN2c1sc(C(=O)NCCCNC(=O)c2ccc(-c3c4nc(c(-c5cc(S(=O)(=O)[O-])ccc5F)c5ccc([nH]5)c(-c5cc(S(=O)(=O)[O-])ccc5F)c5nc(c(-c6cc(S(=O)(=O)[O-])ccc6F)c6ccc3[nH]6)C=C5)C=C4)cc2)cc1C
REMARK SMILES IDX 20 1 19 2 18 3 17 4 15 5 16 6 14 8 12 9 13 10 88 11 87 12
REMARK SMILES IDX 89 13 11 14 1 15 2 16 3 17 7 18 4 19 6 20 5 21 8 22 9 23
REMARK SMILES IDX 10 24 21 25 22 26 23 28 24 29 25 30 86 31 26 32 85 33 27 34
REMARK SMILES IDX 28 35 29 36 79 37 30 38 84 39 78 40 80 41 31 42 83 43 77 44
REMARK SMILES IDX 76 45 32 47 64 48 44 49 63 50 45 51 48 52 62 53 81 54 46 55
REMARK SMILES IDX 47 56 61 58 82 59 49 60 33 61 34 62 42 63 35 64 41 65 43 66
REMARK SMILES IDX 40 67 36 68 37 69 38 70 39 71 65 72 66 73 74 74 67 75 73 76
REMARK SMILES IDX 75 77 72 78 68 79 69 80 70 81 71 82 50 83 51 84 59 85 52 86
REMARK SMILES IDX 58 87 60 88 57 89 53 90 54 91 55 92 56 93
REMARK H PARENT 17 7 21 27 80 46 48 57
REMARK Flexibility Score: inf
ROOT
ATOM      1  C   UNL A   1      31.832  30.849  26.730  1.00  0.00     0.118 C 
ENDROOT
BRANCH   1   2
ATOM      2  C   UNL A   1      31.427  30.404  25.327  1.00  0.00     0.042 C 
BRANCH   2   3
ATOM      3  C   UNL A   1      31.827  28.965  25.018  1.00  0.00     0.118 C 
BRANCH   3   4
ATOM      4  N   UNL A   1      31.334  28.548  23.717  1.00  0.00    -0.351 N 
ATOM      5  C   UNL A   1      31.163  27.322  23.125  1.00  0.00     0.261 C 
ATOM      6  O   UNL A   1      30.653  27.359  22.001  1.00  0.00    -0.268 OA
ATOM      7  H   UNL A   1      31.068  29.301  23.140  1.00  0.00     0.163 HD
BRANCH   5   8
ATOM      8  C   UNL A   1      31.460  26.055  23.777  1.00  0.00     0.094 A 
ATOM      9  C   UNL A   1      32.487  24.043  24.812  1.00  0.00     0.099 A 
ATOM     10  S   UNL A   1      32.786  25.043  23.443  1.00  0.00    -0.112 S 
ATOM     11  C   UNL A   1      31.211  24.277  25.307  1.00  0.00    -0.015 A 
ATOM     12  C   UNL A   1      30.633  25.439  24.699  1.00  0.00     0.031 A 
ATOM     13  C   UNL A   1      30.521  23.518  26.390  1.00  0.00     0.047 C 
BRANCH   9  14
ATOM     14  N   UNL A   1      33.391  23.128  25.268  1.00  0.00    -0.327 N 
ATOM     15  C   UNL A   1      33.697  17.539  23.873  1.00  0.00     0.044 C 
ATOM     16  C   UNL A   1      33.602  18.987  24.251  1.00  0.00    -0.047 A 
ATOM     17  C   UNL A   1      32.527  19.766  23.820  1.00  0.00     0.006 A 
ATOM     18  C   UNL A   1      34.620  19.597  24.987  1.00  0.00     0.052 A 
ATOM     19  C   UNL A   1      32.460  21.129  24.141  1.00  0.00     0.030 A 
ATOM     20  C   UNL A   1      34.549  20.958  25.309  1.00  0.00     0.143 A 
ATOM     21  C   UNL A   1      33.450  21.754  24.916  1.00  0.00     0.085 A 
ATOM     22  O   UNL A   1      35.624  21.442  26.023  1.00  0.00    -0.490 OA
ATOM     23  C   UNL A   1      35.696  22.871  25.994  1.00  0.00     0.251 C 
ATOM     24  C   UNL A   1      34.347  23.506  26.309  1.00  0.00     0.165 C 
ENDBRANCH   9  14
ENDBRANCH   5   8
ENDBRANCH   3   4
ENDBRANCH   2   3
ENDBRANCH   1   2
BRANCH   1  25
ATOM     25  N   UNL A   1      31.854  32.300  26.874  1.00  0.00    -0.352 N 
ATOM     26  C   UNL A   1      32.771  33.107  27.505  1.00  0.00     0.251 C 
ATOM     27  H   UNL A   1      31.098  32.774  26.456  1.00  0.00     0.163 HD
ATOM     28  O   UNL A   1      32.514  34.297  27.675  1.00  0.00    -0.269 OA
BRANCH  26  29
ATOM     29  C   UNL A   1      34.043  32.539  28.001  1.00  0.00     0.039 A 
ATOM     30  C   UNL A   1      34.124  31.198  28.378  1.00  0.00     0.014 A 
ATOM     31  C   UNL A   1      35.168  33.363  28.099  1.00  0.00     0.014 A 
ATOM     32  C   UNL A   1      35.268  30.729  29.015  1.00  0.00     0.010 A 
ATOM     33  C   UNL A   1      36.348  32.864  28.660  1.00  0.00     0.010 A 
ATOM     34  C   UNL A   1      36.391  31.559  29.172  1.00  0.00    -0.014 A 
BRANCH  34  35
ATOM     35  C   UNL A   1      37.594  31.033  29.868  1.00  0.00     0.031 A 
ATOM     36  C   UNL A   1      37.886  31.402  31.297  1.00  0.00     0.074 A 
ATOM     37  C   UNL A   1      38.403  30.174  29.219  1.00  0.00     0.049 A 
ATOM     38  N   UNL A   1      38.849  30.979  32.074  1.00  0.00    -0.248 NA
ATOM     39  C   UNL A   1      36.987  32.376  31.936  1.00  0.00     0.031 C 
ATOM     40  C   UNL A   1      38.222  29.753  27.830  1.00  0.00     0.029 A 
ATOM     41  N   UNL A   1      39.512  29.483  29.636  1.00  0.00    -0.354 N 
ATOM     42  C   UNL A   1      38.689  31.648  33.282  1.00  0.00     0.074 A 
ATOM     43  C   UNL A   1      37.554  32.532  33.124  1.00  0.00     0.031 C 
ATOM     44  C   UNL A   1      39.146  28.832  27.528  1.00  0.00     0.029 A 
ATOM     45  C   UNL A   1      40.029  28.644  28.676  1.00  0.00     0.049 A 
ATOM     46  H   UNL A   1      39.900  29.577  30.536  1.00  0.00     0.167 HD
ATOM     47  C   UNL A   1      39.413  31.526  34.421  1.00  0.00     0.034 A 
ATOM     48  C   UNL A   1      41.095  27.817  28.709  1.00  0.00     0.034 A 
ATOM     49  C   UNL A   1      40.522  30.619  34.570  1.00  0.00     0.049 A 
ATOM     50  C   UNL A   1      41.891  27.702  29.981  1.00  0.00     0.074 A 
ATOM     51  C   UNL A   1      41.274  30.375  35.706  1.00  0.00     0.029 A 
ATOM     52  N   UNL A   1      41.043  29.815  33.567  1.00  0.00    -0.354 N 
ATOM     53  N   UNL A   1      41.681  28.289  31.137  1.00  0.00    -0.248 NA
ATOM     54  C   UNL A   1      43.064  26.818  29.961  1.00  0.00     0.031 C 
ATOM     55  C   UNL A   1      42.289  29.475  35.372  1.00  0.00     0.029 A 
ATOM     56  C   UNL A   1      42.130  29.102  34.046  1.00  0.00     0.049 A 
ATOM     57  H   UNL A   1      40.692  29.759  32.648  1.00  0.00     0.167 HD
ATOM     58  C   UNL A   1      42.690  27.840  31.983  1.00  0.00     0.074 A 
ATOM     59  C   UNL A   1      43.492  26.910  31.215  1.00  0.00     0.031 C 
ATOM     60  C   UNL A   1      42.930  28.176  33.277  1.00  0.00     0.034 A 
BRANCH  47  61
ATOM     61  C   UNL A   1      39.042  32.380  35.608  1.00  0.00     0.023 A 
ATOM     62  C   UNL A   1      39.552  33.688  35.717  1.00  0.00     0.031 A 
ATOM     63  C   UNL A   1      38.283  31.871  36.677  1.00  0.00     0.131 A 
ATOM     64  C   UNL A   1      39.315  34.435  36.878  1.00  0.00     0.055 A 
ATOM     65  C   UNL A   1      38.020  32.633  37.817  1.00  0.00     0.041 A 
ATOM     66  F   UNL A   1      37.778  30.628  36.624  1.00  0.00    -0.206 F 
ATOM     67  C   UNL A   1      38.545  33.917  37.925  1.00  0.00     0.022 A 
BRANCH  64  68
ATOM     68  S   UNL A   1      40.045  36.079  37.104  1.00  0.00     0.124 S 
ATOM     69  O   UNL A   1      41.432  35.747  37.421  1.00  0.00    -0.237 OA
ATOM     70  O   UNL A   1      39.835  36.691  35.795  1.00  0.00    -0.237 OA
ATOM     71  O   UNL A   1      39.278  36.658  38.200  1.00  0.00    -0.744 OA
ENDBRANCH  64  68
ENDBRANCH  47  61
BRANCH  48  72
ATOM     72  C   UNL A   1      41.403  27.004  27.497  1.00  0.00     0.023 A 
ATOM     73  C   UNL A   1      41.127  25.624  27.466  1.00  0.00     0.031 A 
ATOM     74  C   UNL A   1      42.119  27.560  26.424  1.00  0.00     0.131 A 
ATOM     75  C   UNL A   1      41.651  24.832  26.438  1.00  0.00     0.055 A 
ATOM     76  C   UNL A   1      42.572  26.779  25.360  1.00  0.00     0.041 A 
ATOM     77  F   UNL A   1      42.415  28.869  26.415  1.00  0.00    -0.206 F 
ATOM     78  C   UNL A   1      42.357  25.403  25.374  1.00  0.00     0.022 A 
BRANCH  75  79
ATOM     79  S   UNL A   1      41.568  23.022  26.527  1.00  0.00     0.124 S 
ATOM     80  O   UNL A   1      42.239  22.747  27.794  1.00  0.00    -0.237 OA
ATOM     81  O   UNL A   1      40.126  22.792  26.514  1.00  0.00    -0.237 OA
ATOM     82  O   UNL A   1      42.278  22.584  25.330  1.00  0.00    -0.744 OA
ENDBRANCH  75  79
ENDBRANCH  48  72
BRANCH  60  83
ATOM     83  C   UNL A   1      44.119  27.560  33.974  1.00  0.00     0.023 A 
ATOM     84  C   UNL A   1      43.974  26.350  34.682  1.00  0.00     0.031 A 
ATOM     85  C   UNL A   1      45.342  28.246  34.072  1.00  0.00     0.131 A 
ATOM     86  C   UNL A   1      45.017  25.890  35.494  1.00  0.00     0.055 A 
ATOM     87  C   UNL A   1      46.395  27.758  34.846  1.00  0.00     0.041 A 
ATOM     88  F   UNL A   1      45.525  29.407  33.423  1.00  0.00    -0.206 F 
ATOM     89  C   UNL A   1      46.230  26.583  35.574  1.00  0.00     0.022 A 
BRANCH  86  90
ATOM     90  S   UNL A   1      44.808  24.428  36.548  1.00  0.00     0.124 S 
ATOM     91  O   UNL A   1      43.790  23.673  35.820  1.00  0.00    -0.237 OA
ATOM     92  O   UNL A   1      46.147  23.843  36.533  1.00  0.00    -0.237 OA
ATOM     93  O   UNL A   1      44.378  24.975  37.830  1.00  0.00    -0.744 OA
ENDBRANCH  86  90
ENDBRANCH  60  83
ENDBRANCH  34  35
ENDBRANCH  26  29
ENDBRANCH   1  25
TORSDOF 14
ENDMDL
MODEL 3
REMARK VINA RESULT:     -13.3      4.972     10.617
REMARK SMILES Cc1ccc2c(c1)OCCN2c1sc(C(=O)NCCCNC(=O)c2ccc(-c3c4nc(c(-c5cc(S(=O)(=O)[O-])ccc5F)c5ccc([nH]5)c(-c5cc(S(=O)(=O)[O-])ccc5F)c5nc(c(-c6cc(S(=O)(=O)[O-])ccc6F)c6ccc3[nH]6)C=C5)C=C4)cc2)cc1C
REMARK SMILES IDX 20 1 19 2 18 3 17 4 15 5 16 6 14 8 12 9 13 10 88 11 87 12
REMARK SMILES IDX 89 13 11 14 1 15 2 16 3 17 7 18 4 19 6 20 5 21 8 22 9 23
REMARK SMILES IDX 10 24 21 25 22 26 23 28 24 29 25 30 86 31 26 32 85 33 27 34
REMARK SMILES IDX 28 35 29 36 79 37 30 38 84 39 78 40 80 41 31 42 83 43 77 44
REMARK SMILES IDX 76 45 32 47 64 48 44 49 63 50 45 51 48 52 62 53 81 54 46 55
REMARK SMILES IDX 47 56 61 58 82 59 49 60 33 61 34 62 42 63 35 64 41 65 43 66
REMARK SMILES IDX 40 67 36 68 37 69 38 70 39 71 65 72 66 73 74 74 67 75 73 76
REMARK SMILES IDX 75 77 72 78 68 79 69 80 70 81 71 82 50 83 51 84 59 85 52 86
REMARK SMILES IDX 58 87 60 88 57 89 53 90 54 91 55 92 56 93
REMARK H PARENT 17 7 21 27 80 46 48 57
REMARK Flexibility Score: inf
ROOT
ATOM      1  C   UNL A   1      37.497  21.606  24.935  1.00  0.00     0.118 C 
ENDROOT
BRANCH   1   2
ATOM      2  C   UNL A   1      36.058  21.127  24.766  1.00  0.00     0.042 C 
BRANCH   2   3
ATOM      3  C   UNL A   1      35.160  21.506  25.938  1.00  0.00     0.118 C 
BRANCH   3   4
ATOM      4  N   UNL A   1      33.832  20.936  25.792  1.00  0.00    -0.351 N 
ATOM      5  C   UNL A   1      32.660  21.409  25.257  1.00  0.00     0.261 C 
ATOM      6  O   UNL A   1      31.728  20.597  25.259  1.00  0.00    -0.268 OA
ATOM      7  H   UNL A   1      33.757  20.022  26.151  1.00  0.00     0.163 HD
BRANCH   5   8
ATOM      8  C   UNL A   1      32.515  22.721  24.644  1.00  0.00     0.094 A 
ATOM      9  C   UNL A   1      32.414  25.141  24.092  1.00  0.00     0.099 A 
ATOM     10  S   UNL A   1      31.978  24.136  25.420  1.00  0.00    -0.112 S 
ATOM     11  C   UNL A   1      32.645  24.369  22.961  1.00  0.00    -0.015 A 
ATOM     12  C   UNL A   1      32.698  22.976  23.297  1.00  0.00     0.031 A 
ATOM     13  C   UNL A   1      32.902  24.866  21.579  1.00  0.00     0.047 C 
BRANCH   9  14
ATOM     14  N   UNL A   1      32.457  26.502  24.181  1.00  0.00    -0.327 N 
ATOM     15  C   UNL A   1      28.156  30.199  23.128  1.00  0.00     0.044 C 
ATOM     16  C   UNL A   1      29.278  29.238  23.379  1.00  0.00    -0.047 A 
ATOM     17  C   UNL A   1      29.128  27.879  23.099  1.00  0.00     0.006 A 
ATOM     18  C   UNL A   1      30.471  29.675  23.960  1.00  0.00     0.052 A 
ATOM     19  C   UNL A   1      30.164  26.976  23.373  1.00  0.00     0.030 A 
ATOM     20  C   UNL A   1      31.506  28.771  24.228  1.00  0.00     0.143 A 
ATOM     21  C   UNL A   1      31.388  27.398  23.915  1.00  0.00     0.085 A 
ATOM     22  O   UNL A   1      32.623  29.325  24.817  1.00  0.00    -0.490 OA
ATOM     23  C   UNL A   1      33.470  28.337  25.412  1.00  0.00     0.251 C 
ATOM     24  C   UNL A   1      33.726  27.174  24.461  1.00  0.00     0.165 C 
ENDBRANCH   9  14
ENDBRANCH   5   8
ENDBRANCH   3   4
ENDBRANCH   2   3
ENDBRANCH   1   2
BRANCH   1  25
ATOM     25  N   UNL A   1      38.376  20.567  25.461  1.00  0.00    -0.352 N 
ATOM     26  C   UNL A   1      39.542  20.683  26.180  1.00  0.00     0.251 C 
ATOM     27  H   UNL A   1      38.091  19.643  25.272  1.00  0.00     0.163 HD
ATOM     28  O   UNL A   1      40.236  19.686  26.373  1.00  0.00    -0.269 OA
BRANCH  26  29
ATOM     29  C   UNL A   1      39.972  22.003  26.691  1.00  0.00     0.039 A 
ATOM     30  C   UNL A   1      39.418  23.178  26.180  1.00  0.00     0.014 A 
ATOM     31  C   UNL A   1      40.948  22.065  27.688  1.00  0.00     0.014 A 
ATOM     32  C   UNL A   1      39.964  24.407  26.534  1.00  0.00     0.010 A 
ATOM     33  C   UNL A   1      41.435  23.307  28.108  1.00  0.00     0.010 A 
ATOM     34  C   UNL A   1      40.984  24.487  27.496  1.00  0.00    -0.014 A 
BRANCH  34  35
ATOM     35  C   UNL A   1      41.555  25.813  27.844  1.00  0.00     0.031 A 
ATOM     36  C   UNL A   1      42.916  26.225  27.351  1.00  0.00     0.074 A 
ATOM     37  C   UNL A   1      40.817  26.674  28.572  1.00  0.00     0.049 A 
ATOM     38  N   UNL A   1      43.532  27.369  27.502  1.00  0.00    -0.248 NA
ATOM     39  C   UNL A   1      43.688  25.225  26.597  1.00  0.00     0.031 C 
ATOM     40  C   UNL A   1      39.490  26.378  29.110  1.00  0.00     0.029 A 
ATOM     41  N   UNL A   1      41.054  27.968  28.960  1.00  0.00    -0.354 N 
ATOM     42  C   UNL A   1      44.770  27.222  26.885  1.00  0.00     0.074 A 
ATOM     43  C   UNL A   1      44.829  25.865  26.387  1.00  0.00     0.031 C 
ATOM     44  C   UNL A   1      39.004  27.475  29.705  1.00  0.00     0.029 A 
ATOM     45  C   UNL A   1      40.009  28.534  29.652  1.00  0.00     0.049 A 
ATOM     46  H   UNL A   1      41.892  28.446  28.762  1.00  0.00     0.167 HD
ATOM     47  C   UNL A   1      45.757  28.138  26.738  1.00  0.00     0.034 A 
ATOM     48  C   UNL A   1      39.870  29.764  30.189  1.00  0.00     0.034 A 
ATOM     49  C   UNL A   1      45.668  29.494  27.215  1.00  0.00     0.049 A 
ATOM     50  C   UNL A   1      40.982  30.764  30.021  1.00  0.00     0.074 A 
ATOM     51  C   UNL A   1      46.588  30.515  27.054  1.00  0.00     0.029 A 
ATOM     52  N   UNL A   1      44.613  30.021  27.946  1.00  0.00    -0.354 N 
ATOM     53  N   UNL A   1      42.115  30.630  29.371  1.00  0.00    -0.248 NA
ATOM     54  C   UNL A   1      40.804  32.078  30.652  1.00  0.00     0.031 C 
ATOM     55  C   UNL A   1      46.121  31.637  27.742  1.00  0.00     0.029 A 
ATOM     56  C   UNL A   1      44.876  31.341  28.276  1.00  0.00     0.049 A 
ATOM     57  H   UNL A   1      43.797  29.529  28.196  1.00  0.00     0.167 HD
ATOM     58  C   UNL A   1      42.782  31.844  29.509  1.00  0.00     0.074 A 
ATOM     59  C   UNL A   1      41.911  32.709  30.279  1.00  0.00     0.031 C 
ATOM     60  C   UNL A   1      44.006  32.202  29.045  1.00  0.00     0.034 A 
BRANCH  47  61
ATOM     61  C   UNL A   1      47.024  27.726  26.030  1.00  0.00     0.023 A 
ATOM     62  C   UNL A   1      47.152  27.933  24.643  1.00  0.00     0.031 A 
ATOM     63  C   UNL A   1      48.051  27.034  26.696  1.00  0.00     0.131 A 
ATOM     64  C   UNL A   1      48.270  27.435  23.963  1.00  0.00     0.055 A 
ATOM     65  C   UNL A   1      49.182  26.572  26.020  1.00  0.00     0.041 A 
ATOM     66  F   UNL A   1      47.976  26.808  28.017  1.00  0.00    -0.206 F 
ATOM     67  C   UNL A   1      49.289  26.763  24.645  1.00  0.00     0.022 A 
BRANCH  64  68
ATOM     68  S   UNL A   1      48.419  27.583  22.162  1.00  0.00     0.124 S 
ATOM     69  O   UNL A   1      49.588  28.449  22.030  1.00  0.00    -0.237 OA
ATOM     70  O   UNL A   1      48.623  26.196  21.755  1.00  0.00    -0.237 OA
ATOM     71  O   UNL A   1      47.153  28.180  21.752  1.00  0.00    -0.744 OA
ENDBRANCH  64  68
ENDBRANCH  47  61
BRANCH  48  72
ATOM     72  C   UNL A   1      38.590  30.100  30.877  1.00  0.00     0.023 A 
ATOM     73  C   UNL A   1      37.563  30.780  30.194  1.00  0.00     0.031 A 
ATOM     74  C   UNL A   1      38.441  29.891  32.257  1.00  0.00     0.131 A 
ATOM     75  C   UNL A   1      36.485  31.313  30.911  1.00  0.00     0.055 A 
ATOM     76  C   UNL A   1      37.325  30.355  32.955  1.00  0.00     0.041 A 
ATOM     77  F   UNL A   1      39.399  29.257  32.951  1.00  0.00    -0.206 F 
ATOM     78  C   UNL A   1      36.350  31.091  32.286  1.00  0.00     0.022 A 
BRANCH  75  79
ATOM     79  S   UNL A   1      35.310  32.442  30.115  1.00  0.00     0.124 S 
ATOM     80  O   UNL A   1      36.164  33.569  29.753  1.00  0.00    -0.237 OA
ATOM     81  O   UNL A   1      34.830  31.630  29.000  1.00  0.00    -0.237 OA
ATOM     82  O   UNL A   1      34.325  32.708  31.158  1.00  0.00    -0.744 OA
ENDBRANCH  75  79
ENDBRANCH  48  72
BRANCH  60  83
ATOM     83  C   UNL A   1      44.519  33.588  29.354  1.00  0.00     0.023 A 
ATOM     84  C   UNL A   1      44.280  34.646  28.456  1.00  0.00     0.031 A 
ATOM     85  C   UNL A   1      45.374  33.820  30.446  1.00  0.00     0.131 A 
ATOM     86  C   UNL A   1      44.927  35.874  28.640  1.00  0.00     0.055 A 
ATOM     87  C   UNL A   1      45.978  35.061  30.650  1.00  0.00     0.041 A 
ATOM     88  F   UNL A   1      45.639  32.841  31.324  1.00  0.00    -0.206 F 
ATOM     89  C   UNL A   1      45.768  36.091  29.736  1.00  0.00     0.022 A 
BRANCH  86  90
ATOM     90  S   UNL A   1      44.774  37.205  27.416  1.00  0.00     0.124 S 
ATOM     91  O   UNL A   1      45.933  36.963  26.559  1.00  0.00    -0.237 OA
ATOM     92  O   UNL A   1      43.478  36.916  26.806  1.00  0.00    -0.237 OA
ATOM     93  O   UNL A   1      44.834  38.426  28.212  1.00  0.00    -0.744 OA
ENDBRANCH  86  90
ENDBRANCH  60  83
ENDBRANCH  34  35
ENDBRANCH  26  29
ENDBRANCH   1  25
TORSDOF 14
ENDMDL
