MODEL 1
REMARK VINA RESULT:     -12.3      0.000      0.000
REMARK SMILES CC[C@@H]1CCC[C@@](Cc2cccc(O)c2)(C(=O)NCCCNC(=O)c2ccc(-c3c4nc(c(-c5cc(S(=O)(=O)[O-])ccc5F)c5ccc([nH]5)c(-c5cc(S(=O)(=O)[O-])ccc5F)c5nc(c(-c6cc(S(=O)(=O)[O-])ccc6F)c6ccc3[nH]6)C=C5)C=C4)cc2)C1
REMARK SMILES IDX 20 1 19 2 18 3 16 4 17 5 7 7 3 8 4 9 88 10 5 11 6 12 2 13
REMARK SMILES IDX 1 14 8 15 9 16 10 17 15 18 11 19 13 20 12 21 14 22 21 24
REMARK SMILES IDX 22 25 23 26 24 28 25 29 26 30 87 31 27 32 86 33 28 34 29 35
REMARK SMILES IDX 30 36 80 37 31 38 85 39 79 40 81 41 32 42 84 43 78 44 77 45
REMARK SMILES IDX 33 47 65 48 45 49 64 50 46 51 49 52 63 53 82 54 47 55 48 56
REMARK SMILES IDX 62 58 83 59 50 60 34 61 35 62 43 63 36 64 42 65 44 66 41 67
REMARK SMILES IDX 37 68 38 69 39 70 40 71 66 72 67 73 75 74 68 75 74 76 76 77
REMARK SMILES IDX 73 78 69 79 70 80 71 81 72 82 51 83 52 84 60 85 53 86 59 87
REMARK SMILES IDX 61 88 58 89 54 90 55 91 56 92 57 93
REMARK H PARENT 18 6 14 23 22 27 81 46 49 57
REMARK Flexibility Score: inf
ROOT
ATOM      1  C   UNL A   1      31.025  31.561  25.873  1.00  0.00     0.042 C 
ENDROOT
BRANCH   1   2
ATOM      2  C   UNL A   1      31.120  30.137  25.376  1.00  0.00     0.117 C 
BRANCH   2   3
ATOM      3  N   UNL A   1      32.417  29.761  24.856  1.00  0.00    -0.356 N 
ATOM      4  C   UNL A   1      32.754  28.773  23.987  1.00  0.00     0.226 C 
ATOM      5  O   UNL A   1      33.808  28.958  23.364  1.00  0.00    -0.274 OA
ATOM      6  H   UNL A   1      33.170  30.305  25.183  1.00  0.00     0.163 HD
BRANCH   4   7
ATOM      7  C   UNL A   1      31.900  27.496  23.752  1.00  0.00     0.053 C 
ATOM      8  C   UNL A   1      33.782  25.938  24.706  1.00  0.00    -0.010 C 
ATOM      9  C   UNL A   1      32.922  25.669  25.949  1.00  0.00     0.003 C 
ATOM     10  C   UNL A   1      32.908  26.314  23.488  1.00  0.00     0.020 C 
ATOM     11  C   UNL A   1      31.911  26.776  26.206  1.00  0.00     0.001 C 
ATOM     12  C   UNL A   1      31.057  27.041  24.966  1.00  0.00     0.017 C 
BRANCH   8  13
ATOM     13  C   UNL A   1      34.664  24.704  24.426  1.00  0.00     0.000 C 
ATOM     14  C   UNL A   1      34.049  23.720  23.442  1.00  0.00     0.004 C 
ENDBRANCH   8  13
BRANCH   7  15
ATOM     15  C   UNL A   1      31.069  27.634  22.429  1.00  0.00     0.052 C 
BRANCH  15  16
ATOM     16  C   UNL A   1      29.873  28.559  22.398  1.00  0.00    -0.043 A 
ATOM     17  C   UNL A   1      30.017  29.899  22.004  1.00  0.00     0.004 A 
ATOM     18  C   UNL A   1      28.609  28.113  22.814  1.00  0.00     0.049 A 
ATOM     19  C   UNL A   1      28.943  30.791  22.103  1.00  0.00     0.004 A 
ATOM     20  C   UNL A   1      27.552  29.014  22.927  1.00  0.00     0.115 A 
ATOM     21  C   UNL A   1      27.710  30.353  22.588  1.00  0.00     0.046 A 
BRANCH  20  22
ATOM     22  O   UNL A   1      26.372  28.543  23.421  1.00  0.00    -0.508 OA
ATOM     23  H   UNL A   1      25.801  29.115  23.897  1.00  0.00     0.293 HD
ENDBRANCH  20  22
ENDBRANCH  15  16
ENDBRANCH   7  15
ENDBRANCH   4   7
ENDBRANCH   2   3
ENDBRANCH   1   2
BRANCH   1  24
ATOM     24  C   UNL A   1      32.150  31.923  26.829  1.00  0.00     0.118 C 
BRANCH  24  25
ATOM     25  N   UNL A   1      32.146  33.339  27.207  1.00  0.00    -0.352 N 
ATOM     26  C   UNL A   1      32.981  34.053  28.035  1.00  0.00     0.251 C 
ATOM     27  H   UNL A   1      31.424  33.869  26.799  1.00  0.00     0.163 HD
ATOM     28  O   UNL A   1      32.659  35.184  28.391  1.00  0.00    -0.269 OA
BRANCH  26  29
ATOM     29  C   UNL A   1      34.238  33.444  28.513  1.00  0.00     0.039 A 
ATOM     30  C   UNL A   1      35.413  34.199  28.530  1.00  0.00     0.014 A 
ATOM     31  C   UNL A   1      34.244  32.130  28.977  1.00  0.00     0.014 A 
ATOM     32  C   UNL A   1      36.564  33.666  29.117  1.00  0.00     0.010 A 
ATOM     33  C   UNL A   1      35.342  31.656  29.677  1.00  0.00     0.010 A 
ATOM     34  C   UNL A   1      36.520  32.414  29.750  1.00  0.00    -0.014 A 
BRANCH  34  35
ATOM     35  C   UNL A   1      37.682  31.850  30.482  1.00  0.00     0.031 A 
ATOM     36  C   UNL A   1      38.539  30.805  29.817  1.00  0.00     0.074 A 
ATOM     37  C   UNL A   1      37.893  32.188  31.770  1.00  0.00     0.049 A 
ATOM     38  N   UNL A   1      39.481  30.055  30.327  1.00  0.00    -0.248 NA
ATOM     39  C   UNL A   1      38.254  30.526  28.400  1.00  0.00     0.031 C 
ATOM     40  C   UNL A   1      37.089  33.141  32.541  1.00  0.00     0.029 A 
ATOM     41  N   UNL A   1      38.836  31.754  32.667  1.00  0.00    -0.354 N 
ATOM     42  C   UNL A   1      39.871  29.194  29.307  1.00  0.00     0.074 A 
ATOM     43  C   UNL A   1      39.008  29.463  28.177  1.00  0.00     0.031 C 
ATOM     44  C   UNL A   1      37.595  33.244  33.781  1.00  0.00     0.029 A 
ATOM     45  C   UNL A   1      38.721  32.327  33.913  1.00  0.00     0.049 A 
ATOM     46  H   UNL A   1      39.531  31.095  32.440  1.00  0.00     0.167 HD
ATOM     47  C   UNL A   1      40.874  28.283  29.302  1.00  0.00     0.034 A 
ATOM     48  C   UNL A   1      39.436  32.126  35.037  1.00  0.00     0.034 A 
ATOM     49  C   UNL A   1      41.751  28.064  30.426  1.00  0.00     0.049 A 
ATOM     50  C   UNL A   1      40.567  31.128  35.003  1.00  0.00     0.074 A 
ATOM     51  C   UNL A   1      42.845  27.224  30.517  1.00  0.00     0.029 A 
ATOM     52  N   UNL A   1      41.633  28.700  31.656  1.00  0.00    -0.354 N 
ATOM     53  N   UNL A   1      40.953  30.353  34.015  1.00  0.00    -0.248 NA
ATOM     54  C   UNL A   1      41.362  30.988  36.228  1.00  0.00     0.031 C 
ATOM     55  C   UNL A   1      43.355  27.310  31.817  1.00  0.00     0.029 A 
ATOM     56  C   UNL A   1      42.624  28.257  32.516  1.00  0.00     0.049 A 
ATOM     57  H   UNL A   1      40.946  29.368  31.883  1.00  0.00     0.167 HD
ATOM     58  C   UNL A   1      42.060  29.657  34.492  1.00  0.00     0.074 A 
ATOM     59  C   UNL A   1      42.283  30.114  35.850  1.00  0.00     0.031 C 
ATOM     60  C   UNL A   1      42.827  28.728  33.866  1.00  0.00     0.034 A 
BRANCH  47  61
ATOM     61  C   UNL A   1      41.061  27.459  28.049  1.00  0.00     0.023 A 
ATOM     62  C   UNL A   1      40.669  26.110  27.986  1.00  0.00     0.031 A 
ATOM     63  C   UNL A   1      41.682  28.013  26.915  1.00  0.00     0.131 A 
ATOM     64  C   UNL A   1      40.987  25.338  26.859  1.00  0.00     0.055 A 
ATOM     65  C   UNL A   1      41.912  27.262  25.760  1.00  0.00     0.041 A 
ATOM     66  F   UNL A   1      42.097  29.290  26.917  1.00  0.00    -0.206 F 
ATOM     67  C   UNL A   1      41.581  25.911  25.734  1.00  0.00     0.022 A 
BRANCH  64  68
ATOM     68  S   UNL A   1      40.758  23.540  26.954  1.00  0.00     0.124 S 
ATOM     69  O   UNL A   1      39.315  23.417  26.761  1.00  0.00    -0.237 OA
ATOM     70  O   UNL A   1      41.592  23.058  25.860  1.00  0.00    -0.237 OA
ATOM     71  O   UNL A   1      41.231  23.205  28.296  1.00  0.00    -0.744 OA
ENDBRANCH  64  68
ENDBRANCH  47  61
BRANCH  48  72
ATOM     72  C   UNL A   1      39.118  32.880  36.283  1.00  0.00     0.023 A 
ATOM     73  C   UNL A   1      39.632  34.170  36.493  1.00  0.00     0.031 A 
ATOM     74  C   UNL A   1      38.324  32.314  37.295  1.00  0.00     0.131 A 
ATOM     75  C   UNL A   1      39.386  34.833  37.705  1.00  0.00     0.055 A 
ATOM     76  C   UNL A   1      38.040  32.999  38.480  1.00  0.00     0.041 A 
ATOM     77  F   UNL A   1      37.799  31.088  37.142  1.00  0.00    -0.206 F 
ATOM     78  C   UNL A   1      38.584  34.261  38.695  1.00  0.00     0.022 A 
BRANCH  75  79
ATOM     79  S   UNL A   1      40.200  36.427  38.001  1.00  0.00     0.124 S 
ATOM     80  O   UNL A   1      41.374  36.024  38.767  1.00  0.00    -0.237 OA
ATOM     81  O   UNL A   1      40.448  36.896  36.643  1.00  0.00    -0.237 OA
ATOM     82  O   UNL A   1      39.199  37.186  38.748  1.00  0.00    -0.744 OA
ENDBRANCH  75  79
ENDBRANCH  48  72
BRANCH  60  83
ATOM     83  C   UNL A   1      44.010  28.192  34.630  1.00  0.00     0.023 A 
ATOM     84  C   UNL A   1      43.915  27.040  35.431  1.00  0.00     0.031 A 
ATOM     85  C   UNL A   1      45.251  28.849  34.555  1.00  0.00     0.131 A 
ATOM     86  C   UNL A   1      45.030  26.610  36.166  1.00  0.00     0.055 A 
ATOM     87  C   UNL A   1      46.370  28.383  35.243  1.00  0.00     0.041 A 
ATOM     88  F   UNL A   1      45.394  29.954  33.806  1.00  0.00    -0.206 F 
ATOM     89  C   UNL A   1      46.261  27.264  36.064  1.00  0.00     0.022 A 
BRANCH  86  90
ATOM     90  S   UNL A   1      44.827  25.230  37.324  1.00  0.00     0.124 S 
ATOM     91  O   UNL A   1      46.106  25.235  38.028  1.00  0.00    -0.237 OA
ATOM     92  O   UNL A   1      43.667  25.646  38.106  1.00  0.00    -0.237 OA
ATOM     93  O   UNL A   1      44.604  24.079  36.451  1.00  0.00    -0.744 OA
ENDBRANCH  86  90
ENDBRANCH  60  83
ENDBRANCH  34  35
ENDBRANCH  26  29
ENDBRANCH  24  25
ENDBRANCH   1  24
TORSDOF 17
ENDMDL
MODEL 2
REMARK VINA RESULT:     -12.3      1.756      7.795
REMARK SMILES CC[C@@H]1CCC[C@@](Cc2cccc(O)c2)(C(=O)NCCCNC(=O)c2ccc(-c3c4nc(c(-c5cc(S(=O)(=O)[O-])ccc5F)c5ccc([nH]5)c(-c5cc(S(=O)(=O)[O-])ccc5F)c5nc(c(-c6cc(S(=O)(=O)[O-])ccc6F)c6ccc3[nH]6)C=C5)C=C4)cc2)C1
REMARK SMILES IDX 20 1 19 2 18 3 16 4 17 5 7 7 3 8 4 9 88 10 5 11 6 12 2 13
REMARK SMILES IDX 1 14 8 15 9 16 10 17 15 18 11 19 13 20 12 21 14 22 21 24
REMARK SMILES IDX 22 25 23 26 24 28 25 29 26 30 87 31 27 32 86 33 28 34 29 35
REMARK SMILES IDX 30 36 80 37 31 38 85 39 79 40 81 41 32 42 84 43 78 44 77 45
REMARK SMILES IDX 33 47 65 48 45 49 64 50 46 51 49 52 63 53 82 54 47 55 48 56
REMARK SMILES IDX 62 58 83 59 50 60 34 61 35 62 43 63 36 64 42 65 44 66 41 67
REMARK SMILES IDX 37 68 38 69 39 70 40 71 66 72 67 73 75 74 68 75 74 76 76 77
REMARK SMILES IDX 73 78 69 79 70 80 71 81 72 82 51 83 52 84 60 85 53 86 59 87
REMARK SMILES IDX 61 88 58 89 54 90 55 91 56 92 57 93
REMARK H PARENT 18 6 14 23 22 27 81 46 49 57
REMARK Flexibility Score: inf
ROOT
ATOM      1  C   UNL A   1      31.266  31.388  26.095  1.00  0.00     0.042 C 
ENDROOT
BRANCH   1   2
ATOM      2  C   UNL A   1      31.276  30.067  25.364  1.00  0.00     0.117 C 
BRANCH   2   3
ATOM      3  N   UNL A   1      32.567  29.668  24.847  1.00  0.00    -0.356 N 
ATOM      4  C   UNL A   1      32.896  28.638  24.024  1.00  0.00     0.226 C 
ATOM      5  O   UNL A   1      33.941  28.793  23.380  1.00  0.00    -0.274 OA
ATOM      6  H   UNL A   1      33.322  30.229  25.137  1.00  0.00     0.163 HD
BRANCH   4   7
ATOM      7  C   UNL A   1      32.042  27.350  23.864  1.00  0.00     0.053 C 
ATOM      8  C   UNL A   1      33.993  25.826  24.734  1.00  0.00    -0.010 C 
ATOM      9  C   UNL A   1      33.209  25.574  26.030  1.00  0.00     0.003 C 
ATOM     10  C   UNL A   1      33.044  26.171  23.563  1.00  0.00     0.020 C 
ATOM     11  C   UNL A   1      32.204  26.676  26.326  1.00  0.00     0.001 C 
ATOM     12  C   UNL A   1      31.277  26.910  25.134  1.00  0.00     0.017 C 
BRANCH   8  13
ATOM     13  C   UNL A   1      34.869  24.595  24.425  1.00  0.00     0.000 C 
ATOM     14  C   UNL A   1      34.274  23.664  23.378  1.00  0.00     0.004 C 
ENDBRANCH   8  13
BRANCH   7  15
ATOM     15  C   UNL A   1      31.134  27.455  22.590  1.00  0.00     0.052 C 
BRANCH  15  16
ATOM     16  C   UNL A   1      29.981  28.433  22.580  1.00  0.00    -0.043 A 
ATOM     17  C   UNL A   1      28.734  28.073  23.118  1.00  0.00     0.004 A 
ATOM     18  C   UNL A   1      30.116  29.696  21.984  1.00  0.00     0.049 A 
ATOM     19  C   UNL A   1      27.629  28.923  22.989  1.00  0.00     0.004 A 
ATOM     20  C   UNL A   1      29.005  30.526  21.844  1.00  0.00     0.115 A 
ATOM     21  C   UNL A   1      27.758  30.145  22.329  1.00  0.00     0.046 A 
BRANCH  20  22
ATOM     22  O   UNL A   1      29.176  31.703  21.178  1.00  0.00    -0.508 OA
ATOM     23  H   UNL A   1      28.455  32.094  20.722  1.00  0.00     0.293 HD
ENDBRANCH  20  22
ENDBRANCH  15  16
ENDBRANCH   7  15
ENDBRANCH   4   7
ENDBRANCH   2   3
ENDBRANCH   1   2
BRANCH   1  24
ATOM     24  C   UNL A   1      32.511  31.595  26.944  1.00  0.00     0.118 C 
BRANCH  24  25
ATOM     25  N   UNL A   1      32.774  33.007  27.239  1.00  0.00    -0.352 N 
ATOM     26  C   UNL A   1      33.785  33.604  27.955  1.00  0.00     0.251 C 
ATOM     27  H   UNL A   1      32.117  33.633  26.859  1.00  0.00     0.163 HD
ATOM     28  O   UNL A   1      33.686  34.788  28.270  1.00  0.00    -0.269 OA
BRANCH  26  29
ATOM     29  C   UNL A   1      34.961  32.813  28.365  1.00  0.00     0.039 A 
ATOM     30  C   UNL A   1      36.234  33.386  28.320  1.00  0.00     0.014 A 
ATOM     31  C   UNL A   1      34.798  31.509  28.829  1.00  0.00     0.014 A 
ATOM     32  C   UNL A   1      37.323  32.684  28.845  1.00  0.00     0.010 A 
ATOM     33  C   UNL A   1      35.849  30.873  29.470  1.00  0.00     0.010 A 
ATOM     34  C   UNL A   1      37.127  31.448  29.480  1.00  0.00    -0.014 A 
BRANCH  34  35
ATOM     35  C   UNL A   1      38.231  30.713  30.150  1.00  0.00     0.031 A 
ATOM     36  C   UNL A   1      38.572  31.036  31.581  1.00  0.00     0.074 A 
ATOM     37  C   UNL A   1      38.990  29.852  29.444  1.00  0.00     0.049 A 
ATOM     38  N   UNL A   1      39.597  30.654  32.298  1.00  0.00    -0.248 NA
ATOM     39  C   UNL A   1      37.667  31.963  32.279  1.00  0.00     0.031 C 
ATOM     40  C   UNL A   1      38.796  29.507  28.033  1.00  0.00     0.029 A 
ATOM     41  N   UNL A   1      40.092  29.121  29.810  1.00  0.00    -0.354 N 
ATOM     42  C   UNL A   1      39.479  31.322  33.512  1.00  0.00     0.074 A 
ATOM     43  C   UNL A   1      38.328  32.192  33.402  1.00  0.00     0.031 C 
ATOM     44  C   UNL A   1      39.723  28.608  27.665  1.00  0.00     0.029 A 
ATOM     45  C   UNL A   1      40.611  28.353  28.793  1.00  0.00     0.049 A 
ATOM     46  H   UNL A   1      40.474  29.143  30.718  1.00  0.00     0.167 HD
ATOM     47  C   UNL A   1      40.242  31.201  34.625  1.00  0.00     0.034 A 
ATOM     48  C   UNL A   1      41.689  27.545  28.771  1.00  0.00     0.034 A 
ATOM     49  C   UNL A   1      41.358  30.294  34.726  1.00  0.00     0.049 A 
ATOM     50  C   UNL A   1      42.508  27.402  30.029  1.00  0.00     0.074 A 
ATOM     51  C   UNL A   1      42.160  30.029  35.820  1.00  0.00     0.029 A 
ATOM     52  N   UNL A   1      41.824  29.495  33.688  1.00  0.00    -0.354 N 
ATOM     53  N   UNL A   1      42.357  28.007  31.186  1.00  0.00    -0.248 NA
ATOM     54  C   UNL A   1      43.634  26.461  29.982  1.00  0.00     0.031 C 
ATOM     55  C   UNL A   1      43.144  29.114  35.430  1.00  0.00     0.029 A 
ATOM     56  C   UNL A   1      42.913  28.752  34.112  1.00  0.00     0.049 A 
ATOM     57  H   UNL A   1      41.437  29.463  32.783  1.00  0.00     0.167 HD
ATOM     58  C   UNL A   1      43.350  27.492  32.014  1.00  0.00     0.074 A 
ATOM     59  C   UNL A   1      44.084  26.521  31.226  1.00  0.00     0.031 C 
ATOM     60  C   UNL A   1      43.629  27.789  33.309  1.00  0.00     0.034 A 
BRANCH  47  61
ATOM     61  C   UNL A   1      39.894  32.077  35.806  1.00  0.00     0.023 A 
ATOM     62  C   UNL A   1      38.990  31.655  36.798  1.00  0.00     0.031 A 
ATOM     63  C   UNL A   1      40.433  33.371  35.921  1.00  0.00     0.131 A 
ATOM     64  C   UNL A   1      38.581  32.546  37.801  1.00  0.00     0.055 A 
ATOM     65  C   UNL A   1      40.092  34.221  36.975  1.00  0.00     0.041 A 
ATOM     66  F   UNL A   1      41.286  33.840  34.997  1.00  0.00    -0.206 F 
ATOM     67  C   UNL A   1      39.146  33.817  37.913  1.00  0.00     0.022 A 
BRANCH  64  68
ATOM     68  S   UNL A   1      37.181  32.074  38.855  1.00  0.00     0.124 S 
ATOM     69  O   UNL A   1      37.031  30.658  38.526  1.00  0.00    -0.237 OA
ATOM     70  O   UNL A   1      37.680  32.368  40.193  1.00  0.00    -0.237 OA
ATOM     71  O   UNL A   1      36.096  32.934  38.389  1.00  0.00    -0.744 OA
ENDBRANCH  64  68
ENDBRANCH  47  61
BRANCH  48  72
ATOM     72  C   UNL A   1      42.055  26.804  27.530  1.00  0.00     0.023 A 
ATOM     73  C   UNL A   1      41.825  25.423  27.424  1.00  0.00     0.031 A 
ATOM     74  C   UNL A   1      42.668  27.455  26.446  1.00  0.00     0.131 A 
ATOM     75  C   UNL A   1      42.248  24.728  26.280  1.00  0.00     0.055 A 
ATOM     76  C   UNL A   1      43.041  26.769  25.288  1.00  0.00     0.041 A 
ATOM     77  F   UNL A   1      42.902  28.777  26.491  1.00  0.00    -0.206 F 
ATOM     78  C   UNL A   1      42.843  25.394  25.207  1.00  0.00     0.022 A 
BRANCH  75  79
ATOM     79  S   UNL A   1      42.079  22.923  26.251  1.00  0.00     0.124 S 
ATOM     80  O   UNL A   1      40.637  22.756  26.401  1.00  0.00    -0.237 OA
ATOM     81  O   UNL A   1      42.631  22.588  24.943  1.00  0.00    -0.237 OA
ATOM     82  O   UNL A   1      42.879  22.488  27.393  1.00  0.00    -0.744 OA
ENDBRANCH  75  79
ENDBRANCH  48  72
BRANCH  60  83
ATOM     83  C   UNL A   1      44.740  27.011  33.964  1.00  0.00     0.023 A 
ATOM     84  C   UNL A   1      44.494  25.823  34.675  1.00  0.00     0.031 A 
ATOM     85  C   UNL A   1      46.066  27.470  33.877  1.00  0.00     0.131 A 
ATOM     86  C   UNL A   1      45.553  25.162  35.314  1.00  0.00     0.055 A 
ATOM     87  C   UNL A   1      47.123  26.777  34.466  1.00  0.00     0.041 A 
ATOM     88  F   UNL A   1      46.355  28.599  33.211  1.00  0.00    -0.206 F 
ATOM     89  C   UNL A   1      46.868  25.622  35.200  1.00  0.00     0.022 A 
BRANCH  86  90
ATOM     90  S   UNL A   1      45.178  23.736  36.368  1.00  0.00     0.124 S 
ATOM     91  O   UNL A   1      44.642  24.376  37.566  1.00  0.00    -0.237 OA
ATOM     92  O   UNL A   1      44.218  22.992  35.559  1.00  0.00    -0.237 OA
ATOM     93  O   UNL A   1      46.476  23.086  36.541  1.00  0.00    -0.744 OA
ENDBRANCH  86  90
ENDBRANCH  60  83
ENDBRANCH  34  35
ENDBRANCH  26  29
ENDBRANCH  24  25
ENDBRANCH   1  24
TORSDOF 17
ENDMDL
MODEL 3
REMARK VINA RESULT:     -12.2      1.947      2.307
REMARK SMILES CC[C@@H]1CCC[C@@](Cc2cccc(O)c2)(C(=O)NCCCNC(=O)c2ccc(-c3c4nc(c(-c5cc(S(=O)(=O)[O-])ccc5F)c5ccc([nH]5)c(-c5cc(S(=O)(=O)[O-])ccc5F)c5nc(c(-c6cc(S(=O)(=O)[O-])ccc6F)c6ccc3[nH]6)C=C5)C=C4)cc2)C1
REMARK SMILES IDX 20 1 19 2 18 3 16 4 17 5 7 7 3 8 4 9 88 10 5 11 6 12 2 13
REMARK SMILES IDX 1 14 8 15 9 16 10 17 15 18 11 19 13 20 12 21 14 22 21 24
REMARK SMILES IDX 22 25 23 26 24 28 25 29 26 30 87 31 27 32 86 33 28 34 29 35
REMARK SMILES IDX 30 36 80 37 31 38 85 39 79 40 81 41 32 42 84 43 78 44 77 45
REMARK SMILES IDX 33 47 65 48 45 49 64 50 46 51 49 52 63 53 82 54 47 55 48 56
REMARK SMILES IDX 62 58 83 59 50 60 34 61 35 62 43 63 36 64 42 65 44 66 41 67
REMARK SMILES IDX 37 68 38 69 39 70 40 71 66 72 67 73 75 74 68 75 74 76 76 77
REMARK SMILES IDX 73 78 69 79 70 80 71 81 72 82 51 83 52 84 60 85 53 86 59 87
REMARK SMILES IDX 61 88 58 89 54 90 55 91 56 92 57 93
REMARK H PARENT 18 6 14 23 22 27 81 46 49 57
REMARK Flexibility Score: inf
ROOT
ATOM      1  C   UNL A   1      31.047  31.538  25.975  1.00  0.00     0.042 C 
ENDROOT
BRANCH   1   2
ATOM      2  C   UNL A   1      31.137  30.131  25.431  1.00  0.00     0.117 C 
BRANCH   2   3
ATOM      3  N   UNL A   1      32.432  29.766  24.903  1.00  0.00    -0.356 N 
ATOM      4  C   UNL A   1      32.779  28.753  24.066  1.00  0.00     0.226 C 
ATOM      5  O   UNL A   1      33.817  28.938  23.418  1.00  0.00    -0.274 OA
ATOM      6  H   UNL A   1      33.178  30.339  25.196  1.00  0.00     0.163 HD
BRANCH   4   7
ATOM      7  C   UNL A   1      31.951  27.449  23.894  1.00  0.00     0.053 C 
ATOM      8  C   UNL A   1      33.922  25.960  24.776  1.00  0.00    -0.010 C 
ATOM      9  C   UNL A   1      33.133  25.689  26.064  1.00  0.00     0.003 C 
ATOM     10  C   UNL A   1      32.977  26.291  23.598  1.00  0.00     0.020 C 
ATOM     11  C   UNL A   1      32.105  26.770  26.355  1.00  0.00     0.001 C 
ATOM     12  C   UNL A   1      31.183  26.991  25.156  1.00  0.00     0.017 C 
BRANCH   8  13
ATOM     13  C   UNL A   1      34.824  24.747  24.470  1.00  0.00     0.000 C 
ATOM     14  C   UNL A   1      34.314  23.872  23.335  1.00  0.00     0.004 C 
ENDBRANCH   8  13
BRANCH   7  15
ATOM     15  C   UNL A   1      31.051  27.542  22.613  1.00  0.00     0.052 C 
BRANCH  15  16
ATOM     16  C   UNL A   1      29.910  28.533  22.578  1.00  0.00    -0.043 A 
ATOM     17  C   UNL A   1      28.652  28.192  23.102  1.00  0.00     0.004 A 
ATOM     18  C   UNL A   1      30.067  29.788  21.972  1.00  0.00     0.049 A 
ATOM     19  C   UNL A   1      27.558  29.052  22.949  1.00  0.00     0.004 A 
ATOM     20  C   UNL A   1      28.968  30.629  21.809  1.00  0.00     0.115 A 
ATOM     21  C   UNL A   1      27.710  30.267  22.280  1.00  0.00     0.046 A 
BRANCH  20  22
ATOM     22  O   UNL A   1      29.161  31.798  21.135  1.00  0.00    -0.508 OA
ATOM     23  H   UNL A   1      28.424  32.317  20.874  1.00  0.00     0.293 HD
ENDBRANCH  20  22
ENDBRANCH  15  16
ENDBRANCH   7  15
ENDBRANCH   4   7
ENDBRANCH   2   3
ENDBRANCH   1   2
BRANCH   1  24
ATOM     24  C   UNL A   1      32.240  31.906  26.842  1.00  0.00     0.118 C 
BRANCH  24  25
ATOM     25  N   UNL A   1      32.235  33.312  27.256  1.00  0.00    -0.352 N 
ATOM     26  C   UNL A   1      33.071  34.007  28.098  1.00  0.00     0.251 C 
ATOM     27  H   UNL A   1      31.510  33.851  26.865  1.00  0.00     0.163 HD
ATOM     28  O   UNL A   1      32.748  35.128  28.485  1.00  0.00    -0.269 OA
BRANCH  26  29
ATOM     29  C   UNL A   1      34.332  33.389  28.555  1.00  0.00     0.039 A 
ATOM     30  C   UNL A   1      35.513  34.134  28.544  1.00  0.00     0.014 A 
ATOM     31  C   UNL A   1      34.336  32.078  29.027  1.00  0.00     0.014 A 
ATOM     32  C   UNL A   1      36.671  33.594  29.112  1.00  0.00     0.010 A 
ATOM     33  C   UNL A   1      35.443  31.599  29.708  1.00  0.00     0.010 A 
ATOM     34  C   UNL A   1      36.628  32.347  29.753  1.00  0.00    -0.014 A 
BRANCH  34  35
ATOM     35  C   UNL A   1      37.800  31.777  30.466  1.00  0.00     0.031 A 
ATOM     36  C   UNL A   1      38.643  30.731  29.784  1.00  0.00     0.074 A 
ATOM     37  C   UNL A   1      38.031  32.109  31.752  1.00  0.00     0.049 A 
ATOM     38  N   UNL A   1      39.591  29.976  30.278  1.00  0.00    -0.248 NA
ATOM     39  C   UNL A   1      38.336  30.458  28.371  1.00  0.00     0.031 C 
ATOM     40  C   UNL A   1      37.242  33.062  32.538  1.00  0.00     0.029 A 
ATOM     41  N   UNL A   1      38.986  31.669  32.633  1.00  0.00    -0.354 N 
ATOM     42  C   UNL A   1      39.962  29.117  29.249  1.00  0.00     0.074 A 
ATOM     43  C   UNL A   1      39.083  29.393  28.133  1.00  0.00     0.031 C 
ATOM     44  C   UNL A   1      37.766  33.159  33.771  1.00  0.00     0.029 A 
ATOM     45  C   UNL A   1      38.891  32.238  33.883  1.00  0.00     0.049 A 
ATOM     46  H   UNL A   1      39.676  31.009  32.393  1.00  0.00     0.167 HD
ATOM     47  C   UNL A   1      40.963  28.203  29.226  1.00  0.00     0.034 A 
ATOM     48  C   UNL A   1      39.622  32.030  34.995  1.00  0.00     0.034 A 
ATOM     49  C   UNL A   1      41.855  27.978  30.335  1.00  0.00     0.049 A 
ATOM     50  C   UNL A   1      40.749  31.030  34.940  1.00  0.00     0.074 A 
ATOM     51  C   UNL A   1      42.948  27.134  30.407  1.00  0.00     0.029 A 
ATOM     52  N   UNL A   1      41.758  28.610  31.570  1.00  0.00    -0.354 N 
ATOM     53  N   UNL A   1      41.119  30.256  33.945  1.00  0.00    -0.248 NA
ATOM     54  C   UNL A   1      41.563  30.882  36.153  1.00  0.00     0.031 C 
ATOM     55  C   UNL A   1      43.478  27.214  31.700  1.00  0.00     0.029 A 
ATOM     56  C   UNL A   1      42.760  28.161  32.413  1.00  0.00     0.049 A 
ATOM     57  H   UNL A   1      41.076  29.279  31.809  1.00  0.00     0.167 HD
ATOM     58  C   UNL A   1      42.231  29.556  34.403  1.00  0.00     0.074 A 
ATOM     59  C   UNL A   1      42.475  30.007  35.758  1.00  0.00     0.031 C 
ATOM     60  C   UNL A   1      42.985  28.627  33.762  1.00  0.00     0.034 A 
BRANCH  47  61
ATOM     61  C   UNL A   1      41.128  27.384  27.967  1.00  0.00     0.023 A 
ATOM     62  C   UNL A   1      40.757  26.028  27.914  1.00  0.00     0.031 A 
ATOM     63  C   UNL A   1      41.708  27.948  26.817  1.00  0.00     0.131 A 
ATOM     64  C   UNL A   1      41.056  25.262  26.778  1.00  0.00     0.055 A 
ATOM     65  C   UNL A   1      41.917  27.202  25.655  1.00  0.00     0.041 A 
ATOM     66  F   UNL A   1      42.101  29.232  26.809  1.00  0.00    -0.206 F 
ATOM     67  C   UNL A   1      41.608  25.845  25.637  1.00  0.00     0.022 A 
BRANCH  64  68
ATOM     68  S   UNL A   1      40.860  23.460  26.877  1.00  0.00     0.124 S 
ATOM     69  O   UNL A   1      41.758  23.009  25.817  1.00  0.00    -0.237 OA
ATOM     70  O   UNL A   1      41.287  23.171  28.241  1.00  0.00    -0.237 OA
ATOM     71  O   UNL A   1      39.438  23.255  26.609  1.00  0.00    -0.744 OA
ENDBRANCH  64  68
ENDBRANCH  47  61
BRANCH  48  72
ATOM     72  C   UNL A   1      39.326  32.781  36.249  1.00  0.00     0.023 A 
ATOM     73  C   UNL A   1      38.476  32.240  37.227  1.00  0.00     0.031 A 
ATOM     74  C   UNL A   1      39.861  34.061  36.475  1.00  0.00     0.131 A 
ATOM     75  C   UNL A   1      38.147  32.994  38.364  1.00  0.00     0.055 A 
ATOM     76  C   UNL A   1      39.570  34.787  37.633  1.00  0.00     0.041 A 
ATOM     77  F   UNL A   1      40.687  34.621  35.577  1.00  0.00    -0.206 F 
ATOM     78  C   UNL A   1      38.697  34.259  38.579  1.00  0.00     0.022 A 
BRANCH  75  79
ATOM     79  S   UNL A   1      36.920  32.326  39.521  1.00  0.00     0.124 S 
ATOM     80  O   UNL A   1      35.667  32.682  38.865  1.00  0.00    -0.237 OA
ATOM     81  O   UNL A   1      37.259  30.907  39.534  1.00  0.00    -0.237 OA
ATOM     82  O   UNL A   1      37.199  33.043  40.764  1.00  0.00    -0.744 OA
ENDBRANCH  75  79
ENDBRANCH  48  72
BRANCH  60  83
ATOM     83  C   UNL A   1      44.178  28.084  34.506  1.00  0.00     0.023 A 
ATOM     84  C   UNL A   1      45.438  28.702  34.436  1.00  0.00     0.031 A 
ATOM     85  C   UNL A   1      44.047  26.927  35.294  1.00  0.00     0.131 A 
ATOM     86  C   UNL A   1      46.532  28.129  35.103  1.00  0.00     0.055 A 
ATOM     87  C   UNL A   1      45.125  26.395  36.000  1.00  0.00     0.041 A 
ATOM     88  F   UNL A   1      42.866  26.298  35.392  1.00  0.00    -0.206 F 
ATOM     89  C   UNL A   1      46.380  26.990  35.898  1.00  0.00     0.022 A 
BRANCH  86  90
ATOM     90  S   UNL A   1      48.177  28.848  34.850  1.00  0.00     0.124 S 
ATOM     91  O   UNL A   1      48.937  27.700  34.364  1.00  0.00    -0.237 OA
ATOM     92  O   UNL A   1      47.913  29.898  33.872  1.00  0.00    -0.237 OA
ATOM     93  O   UNL A   1      48.553  29.322  36.181  1.00  0.00    -0.744 OA
ENDBRANCH  86  90
ENDBRANCH  60  83
ENDBRANCH  34  35
ENDBRANCH  26  29
ENDBRANCH  24  25
ENDBRANCH   1  24
TORSDOF 17
ENDMDL
