MODEL 1
REMARK VINA RESULT:     -11.5      0.000      0.000
REMARK SMILES CCCC1CN(c2cc(C(=O)NCCCNC(=O)c3ccc(-c4c5nc(c(-c6cc(S(=O)(=O)[O-])ccc6F)c6ccc([nH]6)c(-c6cc(S(=O)(=O)[O-])ccc6F)c6nc(c(-c7cc(S(=O)(=O)[O-])ccc7F)c7ccc4[nH]7)C=C6)C=C5)cc3)ccc2F)C1
REMARK SMILES IDX 14 1 13 2 12 3 10 4 11 5 9 7 7 8 8 9 84 10 83 11 85 12 82 13
REMARK SMILES IDX 6 14 4 15 5 16 86 17 3 18 2 19 1 20 15 21 16 22 17 23 18 25
REMARK SMILES IDX 19 26 20 27 81 28 21 29 80 30 22 31 23 32 24 33 74 34 25 35
REMARK SMILES IDX 79 36 73 37 75 38 26 39 78 40 72 41 71 42 27 44 59 45 39 46
REMARK SMILES IDX 58 47 40 48 43 49 57 50 76 51 41 52 42 53 56 55 77 56 44 57
REMARK SMILES IDX 28 58 29 59 37 60 30 61 36 62 38 63 35 64 31 65 32 66 33 67
REMARK SMILES IDX 34 68 60 69 61 70 69 71 62 72 68 73 70 74 67 75 63 76 64 77
REMARK SMILES IDX 65 78 66 79 45 80 46 81 54 82 47 83 53 84 55 85 52 86 48 87
REMARK SMILES IDX 49 88 50 89 51 90
REMARK H PARENT 12 6 16 24 75 43 43 54
REMARK Flexibility Score: inf
ROOT
ATOM      1  C   UNL A   1      34.552  22.346  26.904  1.00  0.00     0.042 C 
ENDROOT
BRANCH   1   2
ATOM      2  C   UNL A   1      33.315  21.741  26.239  1.00  0.00     0.118 C 
BRANCH   2   3
ATOM      3  N   UNL A   1      32.103  22.140  26.933  1.00  0.00    -0.352 N 
ATOM      4  C   UNL A   1      31.186  23.136  26.729  1.00  0.00     0.251 C 
ATOM      5  O   UNL A   1      30.226  23.177  27.501  1.00  0.00    -0.269 OA
ATOM      6  H   UNL A   1      31.896  21.574  27.712  1.00  0.00     0.163 HD
BRANCH   4   7
ATOM      7  C   UNL A   1      31.254  24.128  25.617  1.00  0.00     0.042 A 
ATOM      8  C   UNL A   1      31.786  26.452  25.009  1.00  0.00     0.074 A 
ATOM      9  C   UNL A   1      31.688  25.423  25.960  1.00  0.00     0.042 A 
ATOM     10  C   UNL A   1      31.419  26.159  23.692  1.00  0.00     0.146 A 
ATOM     11  C   UNL A   1      31.029  24.873  23.323  1.00  0.00     0.042 A 
ATOM     12  F   UNL A   1      31.502  27.090  22.729  1.00  0.00    -0.205 F 
ATOM     13  C   UNL A   1      30.974  23.853  24.278  1.00  0.00     0.017 A 
BRANCH   8  14
ATOM     14  N   UNL A   1      32.291  27.704  25.426  1.00  0.00    -0.368 N 
ATOM     15  C   UNL A   1      33.742  28.340  26.765  1.00  0.00     0.028 C 
ATOM     16  C   UNL A   1      32.216  28.149  26.795  1.00  0.00     0.122 C 
ATOM     17  C   UNL A   1      33.596  28.270  25.235  1.00  0.00     0.122 C 
BRANCH  15  18
ATOM     18  C   UNL A   1      34.261  29.636  27.377  1.00  0.00     0.007 C 
BRANCH  18  19
ATOM     19  C   UNL A   1      35.583  29.427  28.117  1.00  0.00    -0.003 C 
ATOM     20  C   UNL A   1      36.783  30.028  27.403  1.00  0.00     0.004 C 
ENDBRANCH  18  19
ENDBRANCH  15  18
ENDBRANCH   8  14
ENDBRANCH   4   7
ENDBRANCH   2   3
ENDBRANCH   1   2
BRANCH   1  21
ATOM     21  C   UNL A   1      35.690  22.632  25.921  1.00  0.00     0.118 C 
BRANCH  21  22
ATOM     22  N   UNL A   1      36.619  21.514  25.829  1.00  0.00    -0.352 N 
ATOM     23  C   UNL A   1      37.992  21.497  25.854  1.00  0.00     0.251 C 
ATOM     24  H   UNL A   1      36.196  20.630  25.734  1.00  0.00     0.163 HD
ATOM     25  O   UNL A   1      38.579  20.475  25.512  1.00  0.00    -0.269 OA
BRANCH  23  26
ATOM     26  C   UNL A   1      38.762  22.690  26.278  1.00  0.00     0.039 A 
ATOM     27  C   UNL A   1      39.923  22.505  27.035  1.00  0.00     0.014 A 
ATOM     28  C   UNL A   1      38.318  23.983  25.988  1.00  0.00     0.014 A 
ATOM     29  C   UNL A   1      40.667  23.613  27.451  1.00  0.00     0.010 A 
ATOM     30  C   UNL A   1      39.092  25.085  26.352  1.00  0.00     0.010 A 
ATOM     31  C   UNL A   1      40.275  24.911  27.087  1.00  0.00    -0.014 A 
BRANCH  31  32
ATOM     32  C   UNL A   1      41.090  26.097  27.465  1.00  0.00     0.031 A 
ATOM     33  C   UNL A   1      40.513  27.160  28.361  1.00  0.00     0.074 A 
ATOM     34  C   UNL A   1      42.335  26.236  26.965  1.00  0.00     0.049 A 
ATOM     35  N   UNL A   1      41.030  28.308  28.717  1.00  0.00    -0.248 NA
ATOM     36  C   UNL A   1      39.171  26.910  28.912  1.00  0.00     0.031 C 
ATOM     37  C   UNL A   1      43.000  25.279  26.077  1.00  0.00     0.029 A 
ATOM     38  N   UNL A   1      43.264  27.233  27.129  1.00  0.00    -0.354 N 
ATOM     39  C   UNL A   1      40.077  28.920  29.524  1.00  0.00     0.074 A 
ATOM     40  C   UNL A   1      38.934  28.036  29.570  1.00  0.00     0.031 C 
ATOM     41  C   UNL A   1      44.237  25.721  25.799  1.00  0.00     0.029 A 
ATOM     42  C   UNL A   1      44.438  27.015  26.446  1.00  0.00     0.049 A 
ATOM     43  H   UNL A   1      43.105  28.031  27.684  1.00  0.00     0.167 HD
ATOM     44  C   UNL A   1      40.159  30.102  30.180  1.00  0.00     0.034 A 
ATOM     45  C   UNL A   1      45.548  27.773  26.340  1.00  0.00     0.034 A 
ATOM     46  C   UNL A   1      41.314  30.964  30.151  1.00  0.00     0.049 A 
ATOM     47  C   UNL A   1      45.599  29.098  27.054  1.00  0.00     0.074 A 
ATOM     48  C   UNL A   1      41.507  32.164  30.813  1.00  0.00     0.029 A 
ATOM     49  N   UNL A   1      42.473  30.715  29.430  1.00  0.00    -0.354 N 
ATOM     50  N   UNL A   1      44.683  29.664  27.804  1.00  0.00    -0.248 NA
ATOM     51  C   UNL A   1      46.830  29.887  26.908  1.00  0.00     0.031 C 
ATOM     52  C   UNL A   1      42.759  32.667  30.452  1.00  0.00     0.029 A 
ATOM     53  C   UNL A   1      43.376  31.750  29.616  1.00  0.00     0.049 A 
ATOM     54  H   UNL A   1      42.632  29.922  28.870  1.00  0.00     0.167 HD
ATOM     55  C   UNL A   1      45.237  30.864  28.238  1.00  0.00     0.074 A 
ATOM     56  C   UNL A   1      46.567  30.940  27.672  1.00  0.00     0.031 C 
ATOM     57  C   UNL A   1      44.694  31.813  29.039  1.00  0.00     0.034 A 
BRANCH  44  58
ATOM     58  C   UNL A   1      38.966  30.546  30.984  1.00  0.00     0.023 A 
ATOM     59  C   UNL A   1      38.002  31.413  30.445  1.00  0.00     0.031 A 
ATOM     60  C   UNL A   1      38.765  30.054  32.286  1.00  0.00     0.131 A 
ATOM     61  C   UNL A   1      36.893  31.788  31.217  1.00  0.00     0.055 A 
ATOM     62  C   UNL A   1      37.630  30.386  33.028  1.00  0.00     0.041 A 
ATOM     63  F   UNL A   1      39.665  29.234  32.852  1.00  0.00    -0.206 F 
ATOM     64  C   UNL A   1      36.688  31.260  32.495  1.00  0.00     0.022 A 
BRANCH  61  65
ATOM     65  S   UNL A   1      35.741  33.018  30.548  1.00  0.00     0.124 S 
ATOM     66  O   UNL A   1      36.100  34.205  31.320  1.00  0.00    -0.237 OA
ATOM     67  O   UNL A   1      36.091  33.047  29.133  1.00  0.00    -0.237 OA
ATOM     68  O   UNL A   1      34.427  32.457  30.852  1.00  0.00    -0.744 OA
ENDBRANCH  61  65
ENDBRANCH  44  58
BRANCH  45  69
ATOM     69  C   UNL A   1      46.696  27.309  25.513  1.00  0.00     0.023 A 
ATOM     70  C   UNL A   1      46.887  27.794  24.209  1.00  0.00     0.031 A 
ATOM     71  C   UNL A   1      47.611  26.363  26.008  1.00  0.00     0.131 A 
ATOM     72  C   UNL A   1      47.951  27.309  23.433  1.00  0.00     0.055 A 
ATOM     73  C   UNL A   1      48.692  25.914  25.248  1.00  0.00     0.041 A 
ATOM     74  F   UNL A   1      47.475  25.874  27.251  1.00  0.00    -0.206 F 
ATOM     75  C   UNL A   1      48.861  26.382  23.948  1.00  0.00     0.022 A 
BRANCH  72  76
ATOM     76  S   UNL A   1      48.105  27.874  21.717  1.00  0.00     0.124 S 
ATOM     77  O   UNL A   1      46.789  28.454  21.478  1.00  0.00    -0.237 OA
ATOM     78  O   UNL A   1      49.216  28.816  21.806  1.00  0.00    -0.237 OA
ATOM     79  O   UNL A   1      48.392  26.646  20.979  1.00  0.00    -0.744 OA
ENDBRANCH  72  76
ENDBRANCH  45  69
BRANCH  57  80
ATOM     80  C   UNL A   1      45.551  33.002  29.382  1.00  0.00     0.023 A 
ATOM     81  C   UNL A   1      45.523  34.174  28.610  1.00  0.00     0.031 A 
ATOM     82  C   UNL A   1      46.364  32.975  30.529  1.00  0.00     0.131 A 
ATOM     83  C   UNL A   1      46.318  35.269  28.982  1.00  0.00     0.055 A 
ATOM     84  C   UNL A   1      47.119  34.082  30.918  1.00  0.00     0.041 A 
ATOM     85  F   UNL A   1      46.420  31.877  31.300  1.00  0.00    -0.206 F 
ATOM     86  C   UNL A   1      47.101  35.236  30.139  1.00  0.00     0.022 A 
BRANCH  83  87
ATOM     87  S   UNL A   1      46.335  36.736  27.915  1.00  0.00     0.124 S 
ATOM     88  O   UNL A   1      45.749  37.750  28.787  1.00  0.00    -0.237 OA
ATOM     89  O   UNL A   1      47.754  36.895  27.617  1.00  0.00    -0.237 OA
ATOM     90  O   UNL A   1      45.505  36.342  26.778  1.00  0.00    -0.744 OA
ENDBRANCH  83  87
ENDBRANCH  57  80
ENDBRANCH  31  32
ENDBRANCH  23  26
ENDBRANCH  21  22
ENDBRANCH   1  21
TORSDOF 16
ENDMDL
MODEL 2
REMARK VINA RESULT:     -11.4      5.226     10.294
REMARK SMILES CCCC1CN(c2cc(C(=O)NCCCNC(=O)c3ccc(-c4c5nc(c(-c6cc(S(=O)(=O)[O-])ccc6F)c6ccc([nH]6)c(-c6cc(S(=O)(=O)[O-])ccc6F)c6nc(c(-c7cc(S(=O)(=O)[O-])ccc7F)c7ccc4[nH]7)C=C6)C=C5)cc3)ccc2F)C1
REMARK SMILES IDX 14 1 13 2 12 3 10 4 11 5 9 7 7 8 8 9 84 10 83 11 85 12 82 13
REMARK SMILES IDX 6 14 4 15 5 16 86 17 3 18 2 19 1 20 15 21 16 22 17 23 18 25
REMARK SMILES IDX 19 26 20 27 81 28 21 29 80 30 22 31 23 32 24 33 74 34 25 35
REMARK SMILES IDX 79 36 73 37 75 38 26 39 78 40 72 41 71 42 27 44 59 45 39 46
REMARK SMILES IDX 58 47 40 48 43 49 57 50 76 51 41 52 42 53 56 55 77 56 44 57
REMARK SMILES IDX 28 58 29 59 37 60 30 61 36 62 38 63 35 64 31 65 32 66 33 67
REMARK SMILES IDX 34 68 60 69 61 70 69 71 62 72 68 73 70 74 67 75 63 76 64 77
REMARK SMILES IDX 65 78 66 79 45 80 46 81 54 82 47 83 53 84 55 85 52 86 48 87
REMARK SMILES IDX 49 88 50 89 51 90
REMARK H PARENT 12 6 16 24 75 43 43 54
REMARK Flexibility Score: inf
ROOT
ATOM      1  C   UNL A   1      33.310  28.961  23.294  1.00  0.00     0.042 C 
ENDROOT
BRANCH   1   2
ATOM      2  C   UNL A   1      32.135  28.073  22.881  1.00  0.00     0.118 C 
BRANCH   2   3
ATOM      3  N   UNL A   1      32.523  27.153  21.826  1.00  0.00    -0.352 N 
ATOM      4  C   UNL A   1      33.042  25.887  21.825  1.00  0.00     0.251 C 
ATOM      5  O   UNL A   1      33.227  25.361  20.726  1.00  0.00    -0.269 OA
ATOM      6  H   UNL A   1      32.380  27.517  20.921  1.00  0.00     0.163 HD
BRANCH   4   7
ATOM      7  C   UNL A   1      33.346  25.102  23.056  1.00  0.00     0.042 A 
ATOM      8  C   UNL A   1      32.908  23.016  24.286  1.00  0.00     0.074 A 
ATOM      9  C   UNL A   1      32.715  23.848  23.170  1.00  0.00     0.042 A 
ATOM     10  C   UNL A   1      33.743  23.478  25.307  1.00  0.00     0.146 A 
ATOM     11  C   UNL A   1      34.411  24.696  25.194  1.00  0.00     0.042 A 
ATOM     12  F   UNL A   1      33.984  22.730  26.394  1.00  0.00    -0.205 F 
ATOM     13  C   UNL A   1      34.235  25.493  24.058  1.00  0.00     0.017 A 
BRANCH   8  14
ATOM     14  N   UNL A   1      32.287  21.747  24.290  1.00  0.00    -0.368 N 
ATOM     15  C   UNL A   1      32.945  19.780  24.313  1.00  0.00     0.028 C 
ATOM     16  C   UNL A   1      32.494  20.783  23.238  1.00  0.00     0.122 C 
ATOM     17  C   UNL A   1      32.277  20.740  25.312  1.00  0.00     0.122 C 
BRANCH  15  18
ATOM     18  C   UNL A   1      32.379  18.371  24.185  1.00  0.00     0.007 C 
BRANCH  18  19
ATOM     19  C   UNL A   1      33.467  17.305  24.328  1.00  0.00    -0.003 C 
ATOM     20  C   UNL A   1      34.077  16.874  23.004  1.00  0.00     0.004 C 
ENDBRANCH  18  19
ENDBRANCH  15  18
ENDBRANCH   8  14
ENDBRANCH   4   7
ENDBRANCH   2   3
ENDBRANCH   1   2
BRANCH   1  21
ATOM     21  C   UNL A   1      33.488  29.065  24.811  1.00  0.00     0.118 C 
BRANCH  21  22
ATOM     22  N   UNL A   1      32.787  30.217  25.360  1.00  0.00    -0.352 N 
ATOM     23  C   UNL A   1      32.979  30.893  26.539  1.00  0.00     0.251 C 
ATOM     24  H   UNL A   1      32.059  30.568  24.796  1.00  0.00     0.163 HD
ATOM     25  O   UNL A   1      32.117  31.679  26.921  1.00  0.00    -0.269 OA
BRANCH  23  26
ATOM     26  C   UNL A   1      34.199  30.679  27.351  1.00  0.00     0.039 A 
ATOM     27  C   UNL A   1      34.385  29.439  27.970  1.00  0.00     0.014 A 
ATOM     28  C   UNL A   1      35.128  31.704  27.554  1.00  0.00     0.014 A 
ATOM     29  C   UNL A   1      35.526  29.211  28.745  1.00  0.00     0.010 A 
ATOM     30  C   UNL A   1      36.294  31.457  28.277  1.00  0.00     0.010 A 
ATOM     31  C   UNL A   1      36.506  30.207  28.880  1.00  0.00    -0.014 A 
BRANCH  31  32
ATOM     32  C   UNL A   1      37.758  29.960  29.645  1.00  0.00     0.031 A 
ATOM     33  C   UNL A   1      38.831  29.072  29.075  1.00  0.00     0.074 A 
ATOM     34  C   UNL A   1      37.907  30.501  30.870  1.00  0.00     0.049 A 
ATOM     35  N   UNL A   1      39.941  28.659  29.632  1.00  0.00    -0.248 NA
ATOM     36  C   UNL A   1      38.622  28.565  27.709  1.00  0.00     0.031 C 
ATOM     37  C   UNL A   1      36.931  31.369  31.535  1.00  0.00     0.029 A 
ATOM     38  N   UNL A   1      38.932  30.403  31.778  1.00  0.00    -0.354 N 
ATOM     39  C   UNL A   1      40.557  27.840  28.692  1.00  0.00     0.074 A 
ATOM     40  C   UNL A   1      39.677  27.779  27.547  1.00  0.00     0.031 C 
ATOM     41  C   UNL A   1      37.417  31.746  32.728  1.00  0.00     0.029 A 
ATOM     42  C   UNL A   1      38.714  31.110  32.939  1.00  0.00     0.049 A 
ATOM     43  H   UNL A   1      39.747  29.876  31.615  1.00  0.00     0.167 HD
ATOM     44  C   UNL A   1      41.754  27.212  28.774  1.00  0.00     0.034 A 
ATOM     45  C   UNL A   1      39.465  31.224  34.053  1.00  0.00     0.034 A 
ATOM     46  C   UNL A   1      42.638  27.301  29.909  1.00  0.00     0.049 A 
ATOM     47  C   UNL A   1      40.777  30.490  34.129  1.00  0.00     0.074 A 
ATOM     48  C   UNL A   1      43.888  26.731  30.070  1.00  0.00     0.029 A 
ATOM     49  N   UNL A   1      42.369  28.009  31.071  1.00  0.00    -0.354 N 
ATOM     50  N   UNL A   1      41.337  29.711  33.233  1.00  0.00    -0.248 NA
ATOM     51  C   UNL A   1      41.559  30.647  35.362  1.00  0.00     0.031 C 
ATOM     52  C   UNL A   1      44.354  27.051  31.349  1.00  0.00     0.029 A 
ATOM     53  C   UNL A   1      43.423  27.874  31.961  1.00  0.00     0.049 A 
ATOM     54  H   UNL A   1      41.552  28.532  31.240  1.00  0.00     0.167 HD
ATOM     55  C   UNL A   1      42.546  29.305  33.787  1.00  0.00     0.074 A 
ATOM     56  C   UNL A   1      42.640  29.928  35.091  1.00  0.00     0.031 C 
ATOM     57  C   UNL A   1      43.497  28.495  33.259  1.00  0.00     0.034 A 
BRANCH  44  58
ATOM     58  C   UNL A   1      42.185  26.363  27.608  1.00  0.00     0.023 A 
ATOM     59  C   UNL A   1      41.856  25.000  27.533  1.00  0.00     0.031 A 
ATOM     60  C   UNL A   1      42.889  26.937  26.534  1.00  0.00     0.131 A 
ATOM     61  C   UNL A   1      42.257  24.246  26.421  1.00  0.00     0.055 A 
ATOM     62  C   UNL A   1      43.235  26.195  25.404  1.00  0.00     0.041 A 
ATOM     63  F   UNL A   1      43.240  28.232  26.564  1.00  0.00    -0.206 F 
ATOM     64  C   UNL A   1      42.922  24.840  25.345  1.00  0.00     0.022 A 
BRANCH  61  65
ATOM     65  S   UNL A   1      41.943  22.461  26.419  1.00  0.00     0.124 S 
ATOM     66  O   UNL A   1      42.731  22.026  25.268  1.00  0.00    -0.237 OA
ATOM     67  O   UNL A   1      42.439  22.047  27.726  1.00  0.00    -0.237 OA
ATOM     68  O   UNL A   1      40.495  22.368  26.246  1.00  0.00    -0.744 OA
ENDBRANCH  61  65
ENDBRANCH  44  58
BRANCH  45  69
ATOM     69  C   UNL A   1      38.990  32.054  35.195  1.00  0.00     0.023 A 
ATOM     70  C   UNL A   1      38.410  31.456  36.326  1.00  0.00     0.031 A 
ATOM     71  C   UNL A   1      39.093  33.456  35.166  1.00  0.00     0.131 A 
ATOM     72  C   UNL A   1      37.929  32.262  37.370  1.00  0.00     0.055 A 
ATOM     73  C   UNL A   1      38.651  34.249  36.225  1.00  0.00     0.041 A 
ATOM     74  F   UNL A   1      39.646  34.073  34.110  1.00  0.00    -0.206 F 
ATOM     75  C   UNL A   1      38.057  33.652  37.333  1.00  0.00     0.022 A 
BRANCH  72  76
ATOM     76  S   UNL A   1      37.088  31.465  38.766  1.00  0.00     0.124 S 
ATOM     77  O   UNL A   1      36.917  30.105  38.271  1.00  0.00    -0.237 OA
ATOM     78  O   UNL A   1      38.056  31.641  39.844  1.00  0.00    -0.237 OA
ATOM     79  O   UNL A   1      35.857  32.239  38.908  1.00  0.00    -0.744 OA
ENDBRANCH  72  76
ENDBRANCH  45  69
BRANCH  57  80
ATOM     80  C   UNL A   1      44.740  28.262  34.075  1.00  0.00     0.023 A 
ATOM     81  C   UNL A   1      44.853  27.164  34.942  1.00  0.00     0.031 A 
ATOM     82  C   UNL A   1      45.842  29.124  33.939  1.00  0.00     0.131 A 
ATOM     83  C   UNL A   1      46.040  26.969  35.664  1.00  0.00     0.055 A 
ATOM     84  C   UNL A   1      47.036  28.901  34.626  1.00  0.00     0.041 A 
ATOM     85  F   UNL A   1      45.782  30.184  33.117  1.00  0.00    -0.206 F 
ATOM     86  C   UNL A   1      47.136  27.820  35.498  1.00  0.00     0.022 A 
BRANCH  83  87
ATOM     87  S   UNL A   1      46.125  25.598  36.848  1.00  0.00     0.124 S 
ATOM     88  O   UNL A   1      47.243  24.819  36.327  1.00  0.00    -0.237 OA
ATOM     89  O   UNL A   1      46.363  26.285  38.113  1.00  0.00    -0.237 OA
ATOM     90  O   UNL A   1      44.815  24.960  36.729  1.00  0.00    -0.744 OA
ENDBRANCH  83  87
ENDBRANCH  57  80
ENDBRANCH  31  32
ENDBRANCH  23  26
ENDBRANCH  21  22
ENDBRANCH   1  21
TORSDOF 16
ENDMDL
MODEL 3
REMARK VINA RESULT:     -11.3      5.772     10.944
REMARK SMILES CCCC1CN(c2cc(C(=O)NCCCNC(=O)c3ccc(-c4c5nc(c(-c6cc(S(=O)(=O)[O-])ccc6F)c6ccc([nH]6)c(-c6cc(S(=O)(=O)[O-])ccc6F)c6nc(c(-c7cc(S(=O)(=O)[O-])ccc7F)c7ccc4[nH]7)C=C6)C=C5)cc3)ccc2F)C1
REMARK SMILES IDX 14 1 13 2 12 3 10 4 11 5 9 7 7 8 8 9 84 10 83 11 85 12 82 13
REMARK SMILES IDX 6 14 4 15 5 16 86 17 3 18 2 19 1 20 15 21 16 22 17 23 18 25
REMARK SMILES IDX 19 26 20 27 81 28 21 29 80 30 22 31 23 32 24 33 74 34 25 35
REMARK SMILES IDX 79 36 73 37 75 38 26 39 78 40 72 41 71 42 27 44 59 45 39 46
REMARK SMILES IDX 58 47 40 48 43 49 57 50 76 51 41 52 42 53 56 55 77 56 44 57
REMARK SMILES IDX 28 58 29 59 37 60 30 61 36 62 38 63 35 64 31 65 32 66 33 67
REMARK SMILES IDX 34 68 60 69 61 70 69 71 62 72 68 73 70 74 67 75 63 76 64 77
REMARK SMILES IDX 65 78 66 79 45 80 46 81 54 82 47 83 53 84 55 85 52 86 48 87
REMARK SMILES IDX 49 88 50 89 51 90
REMARK H PARENT 12 6 16 24 75 43 43 54
REMARK Flexibility Score: inf
ROOT
ATOM      1  C   UNL A   1      31.396  32.369  26.895  1.00  0.00     0.042 C 
ENDROOT
BRANCH   1   2
ATOM      2  C   UNL A   1      31.540  31.061  26.116  1.00  0.00     0.118 C 
BRANCH   2   3
ATOM      3  N   UNL A   1      32.425  30.139  26.806  1.00  0.00    -0.352 N 
ATOM      4  C   UNL A   1      32.541  28.775  26.817  1.00  0.00     0.251 C 
ATOM      5  O   UNL A   1      33.446  28.297  27.502  1.00  0.00    -0.269 OA
ATOM      6  H   UNL A   1      33.080  30.590  27.387  1.00  0.00     0.163 HD
BRANCH   4   7
ATOM      7  C   UNL A   1      31.680  27.853  26.021  1.00  0.00     0.042 A 
ATOM      8  C   UNL A   1      30.244  27.633  24.034  1.00  0.00     0.074 A 
ATOM      9  C   UNL A   1      31.086  28.393  24.864  1.00  0.00     0.042 A 
ATOM     10  C   UNL A   1      29.991  26.308  24.401  1.00  0.00     0.146 A 
ATOM     11  C   UNL A   1      30.603  25.742  25.518  1.00  0.00     0.042 A 
ATOM     12  F   UNL A   1      29.209  25.520  23.648  1.00  0.00    -0.205 F 
ATOM     13  C   UNL A   1      31.466  26.504  26.310  1.00  0.00     0.017 A 
BRANCH   8  14
ATOM     14  N   UNL A   1      29.743  28.235  22.858  1.00  0.00    -0.368 N 
ATOM     15  C   UNL A   1      28.992  30.103  22.359  1.00  0.00     0.028 C 
ATOM     16  C   UNL A   1      28.397  28.744  22.766  1.00  0.00     0.122 C 
ATOM     17  C   UNL A   1      30.284  29.315  22.084  1.00  0.00     0.122 C 
BRANCH  15  18
ATOM     18  C   UNL A   1      28.314  30.799  21.185  1.00  0.00     0.007 C 
BRANCH  18  19
ATOM     19  C   UNL A   1      27.921  32.237  21.526  1.00  0.00    -0.003 C 
ATOM     20  C   UNL A   1      28.832  32.891  22.553  1.00  0.00     0.004 C 
ENDBRANCH  18  19
ENDBRANCH  15  18
ENDBRANCH   8  14
ENDBRANCH   4   7
ENDBRANCH   2   3
ENDBRANCH   1   2
BRANCH   1  21
ATOM     21  C   UNL A   1      32.737  33.023  27.237  1.00  0.00     0.118 C 
BRANCH  21  22
ATOM     22  N   UNL A   1      32.567  34.386  27.722  1.00  0.00    -0.352 N 
ATOM     23  C   UNL A   1      33.149  35.028  28.786  1.00  0.00     0.251 C 
ATOM     24  H   UNL A   1      31.934  34.935  27.203  1.00  0.00     0.163 HD
ATOM     25  O   UNL A   1      32.678  36.096  29.166  1.00  0.00    -0.269 OA
BRANCH  23  26
ATOM     26  C   UNL A   1      34.322  34.445  29.479  1.00  0.00     0.039 A 
ATOM     27  C   UNL A   1      34.116  33.733  30.665  1.00  0.00     0.014 A 
ATOM     28  C   UNL A   1      35.621  34.645  29.005  1.00  0.00     0.014 A 
ATOM     29  C   UNL A   1      35.205  33.176  31.341  1.00  0.00     0.010 A 
ATOM     30  C   UNL A   1      36.700  34.039  29.646  1.00  0.00     0.010 A 
ATOM     31  C   UNL A   1      36.504  33.297  30.822  1.00  0.00    -0.014 A 
BRANCH  31  32
ATOM     32  C   UNL A   1      37.666  32.655  31.492  1.00  0.00     0.031 A 
ATOM     33  C   UNL A   1      38.372  31.497  30.840  1.00  0.00     0.074 A 
ATOM     34  C   UNL A   1      38.057  33.089  32.707  1.00  0.00     0.049 A 
ATOM     35  N   UNL A   1      39.335  30.747  31.312  1.00  0.00    -0.248 NA
ATOM     36  C   UNL A   1      37.925  31.118  29.490  1.00  0.00     0.031 C 
ATOM     37  C   UNL A   1      37.444  34.195  33.446  1.00  0.00     0.029 A 
ATOM     38  N   UNL A   1      39.060  32.655  33.537  1.00  0.00    -0.354 N 
ATOM     39  C   UNL A   1      39.603  29.805  30.325  1.00  0.00     0.074 A 
ATOM     40  C   UNL A   1      38.672  30.051  29.246  1.00  0.00     0.031 C 
ATOM     41  C   UNL A   1      38.102  34.371  34.604  1.00  0.00     0.029 A 
ATOM     42  C   UNL A   1      39.150  33.361  34.715  1.00  0.00     0.049 A 
ATOM     43  H   UNL A   1      39.661  31.908  33.312  1.00  0.00     0.167 HD
ATOM     44  C   UNL A   1      40.551  28.837  30.315  1.00  0.00     0.034 A 
ATOM     45  C   UNL A   1      39.973  33.207  35.772  1.00  0.00     0.034 A 
ATOM     46  C   UNL A   1      41.493  28.618  31.383  1.00  0.00     0.049 A 
ATOM     47  C   UNL A   1      40.996  32.103  35.748  1.00  0.00     0.074 A 
ATOM     48  C   UNL A   1      42.514  27.687  31.449  1.00  0.00     0.029 A 
ATOM     49  N   UNL A   1      41.535  29.341  32.566  1.00  0.00    -0.354 N 
ATOM     50  N   UNL A   1      41.226  31.215  34.808  1.00  0.00    -0.248 NA
ATOM     51  C   UNL A   1      41.869  31.976  36.922  1.00  0.00     0.031 C 
ATOM     52  C   UNL A   1      43.140  27.811  32.692  1.00  0.00     0.029 A 
ATOM     53  C   UNL A   1      42.552  28.863  33.376  1.00  0.00     0.049 A 
ATOM     54  H   UNL A   1      40.932  30.084  32.797  1.00  0.00     0.167 HD
ATOM     55  C   UNL A   1      42.285  30.441  35.270  1.00  0.00     0.074 A 
ATOM     56  C   UNL A   1      42.654  30.967  36.568  1.00  0.00     0.031 C 
ATOM     57  C   UNL A   1      42.902  29.393  34.669  1.00  0.00     0.034 A 
BRANCH  44  58
ATOM     58  C   UNL A   1      40.619  27.931  29.115  1.00  0.00     0.023 A 
ATOM     59  C   UNL A   1      41.526  28.166  28.070  1.00  0.00     0.031 A 
ATOM     60  C   UNL A   1      39.802  26.788  29.042  1.00  0.00     0.131 A 
ATOM     61  C   UNL A   1      41.575  27.287  26.978  1.00  0.00     0.055 A 
ATOM     62  C   UNL A   1      39.896  25.886  27.981  1.00  0.00     0.041 A 
ATOM     63  F   UNL A   1      38.908  26.526  30.009  1.00  0.00    -0.206 F 
ATOM     64  C   UNL A   1      40.784  26.135  26.939  1.00  0.00     0.022 A 
BRANCH  61  65
ATOM     65  S   UNL A   1      42.654  27.694  25.579  1.00  0.00     0.124 S 
ATOM     66  O   UNL A   1      42.008  28.893  25.050  1.00  0.00    -0.237 OA
ATOM     67  O   UNL A   1      43.947  27.897  26.221  1.00  0.00    -0.237 OA
ATOM     68  O   UNL A   1      42.564  26.514  24.723  1.00  0.00    -0.744 OA
ENDBRANCH  61  65
ENDBRANCH  44  58
BRANCH  45  69
ATOM     69  C   UNL A   1      39.855  34.109  36.951  1.00  0.00     0.023 A 
ATOM     70  C   UNL A   1      39.233  33.672  38.132  1.00  0.00     0.031 A 
ATOM     71  C   UNL A   1      40.347  35.425  36.909  1.00  0.00     0.131 A 
ATOM     72  C   UNL A   1      39.094  34.556  39.215  1.00  0.00     0.055 A 
ATOM     73  C   UNL A   1      40.244  36.286  38.003  1.00  0.00     0.041 A 
ATOM     74  F   UNL A   1      40.956  35.887  35.806  1.00  0.00    -0.206 F 
ATOM     75  C   UNL A   1      39.606  35.854  39.162  1.00  0.00     0.022 A 
BRANCH  72  76
ATOM     76  S   UNL A   1      38.190  33.995  40.684  1.00  0.00     0.124 S 
ATOM     77  O   UNL A   1      37.928  35.255  41.369  1.00  0.00    -0.237 OA
ATOM     78  O   UNL A   1      37.033  33.331  40.093  1.00  0.00    -0.237 OA
ATOM     79  O   UNL A   1      39.141  33.107  41.348  1.00  0.00    -0.744 OA
ENDBRANCH  72  76
ENDBRANCH  45  69
BRANCH  57  80
ATOM     80  C   UNL A   1      44.064  28.766  35.391  1.00  0.00     0.023 A 
ATOM     81  C   UNL A   1      43.878  27.729  36.318  1.00  0.00     0.031 A 
ATOM     82  C   UNL A   1      45.376  29.180  35.104  1.00  0.00     0.131 A 
ATOM     83  C   UNL A   1      44.992  27.154  36.949  1.00  0.00     0.055 A 
ATOM     84  C   UNL A   1      46.482  28.575  35.701  1.00  0.00     0.041 A 
ATOM     85  F   UNL A   1      45.603  30.166  34.220  1.00  0.00    -0.206 F 
ATOM     86  C   UNL A   1      46.292  27.558  36.633  1.00  0.00     0.022 A 
BRANCH  83  87
ATOM     87  S   UNL A   1      44.718  25.881  38.212  1.00  0.00     0.124 S 
ATOM     88  O   UNL A   1      43.859  24.936  37.506  1.00  0.00    -0.237 OA
ATOM     89  O   UNL A   1      46.072  25.421  38.497  1.00  0.00    -0.237 OA
ATOM     90  O   UNL A   1      44.072  26.613  39.301  1.00  0.00    -0.744 OA
ENDBRANCH  83  87
ENDBRANCH  57  80
ENDBRANCH  31  32
ENDBRANCH  23  26
ENDBRANCH  21  22
ENDBRANCH   1  21
TORSDOF 16
ENDMDL
