MODEL 1
REMARK VINA RESULT:     -12.6      0.000      0.000
REMARK SMILES COc1ccc(C(F)(F)F)cc1-c1cccnc1C(=O)NCCCNC(=O)c1ccc(-c2c3nc(c(-c4cc(S(=O)(=O)[O-])ccc4F)c4ccc([nH]4)c(-c4cc(S(=O)(=O)[O-])ccc4F)c4nc(c(-c5cc(S(=O)(=O)[O-])ccc5F)c5ccc2[nH]5)C=C4)C=C3)cc1
REMARK SMILES IDX 23 1 22 2 21 3 19 4 20 5 18 7 13 8 14 9 15 10 17 11 16 12
REMARK SMILES IDX 12 13 3 14 4 15 5 16 11 17 6 18 2 19 1 20 7 21 8 22 9 23
REMARK SMILES IDX 10 24 24 25 25 26 26 27 27 29 28 30 29 31 90 32 30 33 89 34
REMARK SMILES IDX 31 35 32 36 33 37 83 38 34 39 88 40 82 41 84 42 35 43 87 44
REMARK SMILES IDX 81 45 80 46 36 48 68 49 48 50 67 51 49 52 52 53 66 54 85 55
REMARK SMILES IDX 50 56 51 57 65 59 86 60 53 61 37 62 38 63 46 64 39 65 45 66
REMARK SMILES IDX 47 67 44 68 40 69 41 70 42 71 43 72 69 73 70 74 78 75 71 76
REMARK SMILES IDX 77 77 79 78 76 79 72 80 73 81 74 82 75 83 54 84 55 85 63 86
REMARK SMILES IDX 56 87 62 88 64 89 61 90 57 91 58 92 59 93 60 94
REMARK H PARENT 21 6 25 28 84 47 52 58
REMARK Flexibility Score: inf
ROOT
ATOM      1  C   UNL A   1      31.950  28.830  27.142  1.00  0.00     0.042 C 
ENDROOT
BRANCH   1   2
ATOM      2  C   UNL A   1      31.867  27.397  26.661  1.00  0.00     0.118 C 
BRANCH   2   3
ATOM      3  N   UNL A   1      30.653  26.665  26.878  1.00  0.00    -0.351 N 
ATOM      4  C   UNL A   1      30.207  25.511  26.257  1.00  0.00     0.270 C 
ATOM      5  O   UNL A   1      29.227  24.969  26.783  1.00  0.00    -0.267 OA
ATOM      6  H   UNL A   1      30.053  27.035  27.566  1.00  0.00     0.163 HD
BRANCH   4   7
ATOM      7  C   UNL A   1      30.759  24.911  24.967  1.00  0.00     0.136 A 
ATOM      8  C   UNL A   1      31.087  25.565  23.759  1.00  0.00     0.017 A 
ATOM      9  C   UNL A   1      31.708  24.783  22.760  1.00  0.00     0.013 A 
ATOM     10  C   UNL A   1      31.964  23.432  22.949  1.00  0.00     0.021 A 
ATOM     11  N   UNL A   1      31.012  23.573  25.146  1.00  0.00    -0.250 NA
ATOM     12  C   UNL A   1      31.595  22.875  24.152  1.00  0.00     0.112 A 
BRANCH   8  13
ATOM     13  C   UNL A   1      30.814  26.970  23.424  1.00  0.00     0.027 A 
ATOM     14  C   UNL A   1      31.838  27.848  22.991  1.00  0.00     0.126 A 
ATOM     15  C   UNL A   1      31.534  29.138  22.548  1.00  0.00     0.048 A 
ATOM     16  C   UNL A   1      30.209  29.578  22.524  1.00  0.00     0.017 A 
ATOM     17  C   UNL A   1      29.497  27.466  23.478  1.00  0.00     0.025 A 
ATOM     18  C   UNL A   1      29.180  28.757  23.008  1.00  0.00     0.056 A 
BRANCH  14  19
ATOM     19  O   UNL A   1      33.174  27.530  23.061  1.00  0.00    -0.496 OA
ATOM     20  C   UNL A   1      34.053  28.652  22.953  1.00  0.00     0.278 C 
ENDBRANCH  14  19
BRANCH  18  21
ATOM     21  C   UNL A   1      27.734  29.180  22.898  1.00  0.00     0.416 C 
ATOM     22  F   UNL A   1      27.435  30.305  23.599  1.00  0.00    -0.166 F 
ATOM     23  F   UNL A   1      27.375  29.407  21.603  1.00  0.00    -0.166 F 
ATOM     24  F   UNL A   1      26.877  28.222  23.353  1.00  0.00    -0.166 F 
ENDBRANCH  18  21
ENDBRANCH   8  13
ENDBRANCH   4   7
ENDBRANCH   2   3
ENDBRANCH   1   2
BRANCH   1  25
ATOM     25  C   UNL A   1      32.421  29.830  26.091  1.00  0.00     0.118 C 
BRANCH  25  26
ATOM     26  N   UNL A   1      32.321  31.235  26.488  1.00  0.00    -0.352 N 
ATOM     27  C   UNL A   1      33.112  32.089  27.231  1.00  0.00     0.251 C 
ATOM     28  H   UNL A   1      31.506  31.669  26.148  1.00  0.00     0.163 HD
ATOM     29  O   UNL A   1      32.662  33.191  27.508  1.00  0.00    -0.269 OA
BRANCH  27  30
ATOM     30  C   UNL A   1      34.447  31.698  27.754  1.00  0.00     0.039 A 
ATOM     31  C   UNL A   1      35.423  32.691  27.923  1.00  0.00     0.014 A 
ATOM     32  C   UNL A   1      34.779  30.383  28.055  1.00  0.00     0.014 A 
ATOM     33  C   UNL A   1      36.662  32.377  28.499  1.00  0.00     0.010 A 
ATOM     34  C   UNL A   1      35.943  30.096  28.759  1.00  0.00     0.010 A 
ATOM     35  C   UNL A   1      36.905  31.088  28.991  1.00  0.00    -0.014 A 
BRANCH  35  36
ATOM     36  C   UNL A   1      38.145  30.728  29.734  1.00  0.00     0.031 A 
ATOM     37  C   UNL A   1      39.139  29.774  29.117  1.00  0.00     0.074 A 
ATOM     38  C   UNL A   1      38.315  31.151  31.004  1.00  0.00     0.049 A 
ATOM     39  N   UNL A   1      40.157  29.162  29.665  1.00  0.00    -0.248 NA
ATOM     40  C   UNL A   1      38.917  29.416  27.708  1.00  0.00     0.031 C 
ATOM     41  C   UNL A   1      37.402  32.035  31.734  1.00  0.00     0.029 A 
ATOM     42  N   UNL A   1      39.306  30.882  31.915  1.00  0.00    -0.354 N 
ATOM     43  C   UNL A   1      40.660  28.310  28.685  1.00  0.00     0.074 A 
ATOM     44  C   UNL A   1      39.790  28.438  27.536  1.00  0.00     0.031 C 
ATOM     45  C   UNL A   1      37.893  32.261  32.962  1.00  0.00     0.029 A 
ATOM     46  C   UNL A   1      39.119  31.492  33.135  1.00  0.00     0.049 A 
ATOM     47  H   UNL A   1      40.079  30.307  31.714  1.00  0.00     0.167 HD
ATOM     48  C   UNL A   1      41.760  27.517  28.730  1.00  0.00     0.034 A 
ATOM     49  C   UNL A   1      39.842  31.424  34.270  1.00  0.00     0.034 A 
ATOM     50  C   UNL A   1      42.645  27.451  29.867  1.00  0.00     0.049 A 
ATOM     51  C   UNL A   1      41.074  30.556  34.291  1.00  0.00     0.074 A 
ATOM     52  C   UNL A   1      43.832  26.751  29.999  1.00  0.00     0.029 A 
ATOM     53  N   UNL A   1      42.441  28.117  31.071  1.00  0.00    -0.354 N 
ATOM     54  N   UNL A   1      41.558  29.788  33.343  1.00  0.00    -0.248 NA
ATOM     55  C   UNL A   1      41.859  30.553  35.531  1.00  0.00     0.031 C 
ATOM     56  C   UNL A   1      44.313  26.944  31.299  1.00  0.00     0.029 A 
ATOM     57  C   UNL A   1      43.467  27.824  31.956  1.00  0.00     0.049 A 
ATOM     58  H   UNL A   1      41.679  28.709  31.266  1.00  0.00     0.167 HD
ATOM     59  C   UNL A   1      42.725  29.234  33.863  1.00  0.00     0.074 A 
ATOM     60  C   UNL A   1      42.875  29.770  35.201  1.00  0.00     0.031 C 
ATOM     61  C   UNL A   1      43.595  28.365  33.289  1.00  0.00     0.034 A 
BRANCH  48  62
ATOM     62  C   UNL A   1      42.048  26.652  27.522  1.00  0.00     0.023 A 
ATOM     63  C   UNL A   1      41.634  25.310  27.455  1.00  0.00     0.031 A 
ATOM     64  C   UNL A   1      42.784  27.163  26.438  1.00  0.00     0.131 A 
ATOM     65  C   UNL A   1      42.043  24.501  26.384  1.00  0.00     0.055 A 
ATOM     66  C   UNL A   1      43.105  26.378  25.327  1.00  0.00     0.041 A 
ATOM     67  F   UNL A   1      43.224  28.432  26.446  1.00  0.00    -0.206 F 
ATOM     68  C   UNL A   1      42.752  25.032  25.306  1.00  0.00     0.022 A 
BRANCH  65  69
ATOM     69  S   UNL A   1      41.779  22.711  26.506  1.00  0.00     0.124 S 
ATOM     70  O   UNL A   1      42.372  22.241  25.256  1.00  0.00    -0.237 OA
ATOM     71  O   UNL A   1      42.502  22.368  27.725  1.00  0.00    -0.237 OA
ATOM     72  O   UNL A   1      40.325  22.583  26.584  1.00  0.00    -0.744 OA
ENDBRANCH  65  69
ENDBRANCH  48  62
BRANCH  49  73
ATOM     73  C   UNL A   1      39.432  32.198  35.479  1.00  0.00     0.023 A 
ATOM     74  C   UNL A   1      38.672  31.594  36.493  1.00  0.00     0.031 A 
ATOM     75  C   UNL A   1      39.767  33.555  35.626  1.00  0.00     0.131 A 
ATOM     76  C   UNL A   1      38.233  32.355  37.587  1.00  0.00     0.055 A 
ATOM     77  C   UNL A   1      39.372  34.295  36.743  1.00  0.00     0.041 A 
ATOM     78  F   UNL A   1      40.500  34.180  34.692  1.00  0.00    -0.206 F 
ATOM     79  C   UNL A   1      38.589  33.698  37.726  1.00  0.00     0.022 A 
BRANCH  76  80
ATOM     80  S   UNL A   1      37.119  31.580  38.791  1.00  0.00     0.124 S 
ATOM     81  O   UNL A   1      35.952  32.451  38.720  1.00  0.00    -0.237 OA
ATOM     82  O   UNL A   1      36.956  30.241  38.234  1.00  0.00    -0.237 OA
ATOM     83  O   UNL A   1      37.873  31.644  40.042  1.00  0.00    -0.744 OA
ENDBRANCH  76  80
ENDBRANCH  49  73
BRANCH  61  84
ATOM     84  C   UNL A   1      44.813  27.986  34.094  1.00  0.00     0.023 A 
ATOM     85  C   UNL A   1      44.822  26.861  34.936  1.00  0.00     0.031 A 
ATOM     86  C   UNL A   1      45.976  28.772  34.025  1.00  0.00     0.131 A 
ATOM     87  C   UNL A   1      45.953  26.584  35.716  1.00  0.00     0.055 A 
ATOM     88  C   UNL A   1      47.121  28.456  34.757  1.00  0.00     0.041 A 
ATOM     89  F   UNL A   1      46.020  29.860  33.239  1.00  0.00    -0.206 F 
ATOM     90  C   UNL A   1      47.109  27.364  35.620  1.00  0.00     0.022 A 
BRANCH  87  91
ATOM     91  S   UNL A   1      45.862  25.243  36.934  1.00  0.00     0.124 S 
ATOM     92  O   UNL A   1      44.484  24.787  36.780  1.00  0.00    -0.237 OA
ATOM     93  O   UNL A   1      46.893  24.323  36.464  1.00  0.00    -0.237 OA
ATOM     94  O   UNL A   1      46.156  25.909  38.202  1.00  0.00    -0.744 OA
ENDBRANCH  87  91
ENDBRANCH  61  84
ENDBRANCH  35  36
ENDBRANCH  27  30
ENDBRANCH  25  26
ENDBRANCH   1  25
TORSDOF 16
ENDMDL
MODEL 2
REMARK VINA RESULT:     -12.5      2.477      3.627
REMARK SMILES COc1ccc(C(F)(F)F)cc1-c1cccnc1C(=O)NCCCNC(=O)c1ccc(-c2c3nc(c(-c4cc(S(=O)(=O)[O-])ccc4F)c4ccc([nH]4)c(-c4cc(S(=O)(=O)[O-])ccc4F)c4nc(c(-c5cc(S(=O)(=O)[O-])ccc5F)c5ccc2[nH]5)C=C4)C=C3)cc1
REMARK SMILES IDX 23 1 22 2 21 3 19 4 20 5 18 7 13 8 14 9 15 10 17 11 16 12
REMARK SMILES IDX 12 13 3 14 4 15 5 16 11 17 6 18 2 19 1 20 7 21 8 22 9 23
REMARK SMILES IDX 10 24 24 25 25 26 26 27 27 29 28 30 29 31 90 32 30 33 89 34
REMARK SMILES IDX 31 35 32 36 33 37 83 38 34 39 88 40 82 41 84 42 35 43 87 44
REMARK SMILES IDX 81 45 80 46 36 48 68 49 48 50 67 51 49 52 52 53 66 54 85 55
REMARK SMILES IDX 50 56 51 57 65 59 86 60 53 61 37 62 38 63 46 64 39 65 45 66
REMARK SMILES IDX 47 67 44 68 40 69 41 70 42 71 43 72 69 73 70 74 78 75 71 76
REMARK SMILES IDX 77 77 79 78 76 79 72 80 73 81 74 82 75 83 54 84 55 85 63 86
REMARK SMILES IDX 56 87 62 88 64 89 61 90 57 91 58 92 59 93 60 94
REMARK H PARENT 21 6 25 28 84 47 52 58
REMARK Flexibility Score: inf
ROOT
ATOM      1  C   UNL A   1      31.670  31.191  26.555  1.00  0.00     0.042 C 
ENDROOT
BRANCH   1   2
ATOM      2  C   UNL A   1      31.871  29.711  26.309  1.00  0.00     0.118 C 
BRANCH   2   3
ATOM      3  N   UNL A   1      32.560  29.296  25.121  1.00  0.00    -0.351 N 
ATOM      4  C   UNL A   1      32.047  29.016  23.867  1.00  0.00     0.270 C 
ATOM      5  O   UNL A   1      32.885  28.888  22.966  1.00  0.00    -0.267 OA
ATOM      6  H   UNL A   1      33.536  29.197  25.211  1.00  0.00     0.163 HD
BRANCH   4   7
ATOM      7  C   UNL A   1      30.578  28.780  23.527  1.00  0.00     0.136 A 
ATOM      8  C   UNL A   1      29.860  27.564  23.512  1.00  0.00     0.017 A 
ATOM      9  C   UNL A   1      28.468  27.650  23.287  1.00  0.00     0.013 A 
ATOM     10  C   UNL A   1      27.841  28.868  23.070  1.00  0.00     0.021 A 
ATOM     11  N   UNL A   1      29.951  29.982  23.308  1.00  0.00    -0.250 NA
ATOM     12  C   UNL A   1      28.623  30.000  23.085  1.00  0.00     0.112 A 
BRANCH   8  13
ATOM     13  C   UNL A   1      30.422  26.215  23.672  1.00  0.00     0.027 A 
ATOM     14  C   UNL A   1      31.256  25.631  22.686  1.00  0.00     0.126 A 
ATOM     15  C   UNL A   1      31.888  24.406  22.918  1.00  0.00     0.048 A 
ATOM     16  C   UNL A   1      31.706  23.742  24.132  1.00  0.00     0.017 A 
ATOM     17  C   UNL A   1      30.180  25.484  24.850  1.00  0.00     0.025 A 
ATOM     18  C   UNL A   1      30.835  24.261  25.101  1.00  0.00     0.056 A 
BRANCH  14  19
ATOM     19  O   UNL A   1      31.423  26.172  21.432  1.00  0.00    -0.496 OA
ATOM     20  C   UNL A   1      32.627  25.771  20.774  1.00  0.00     0.278 C 
ENDBRANCH  14  19
BRANCH  18  21
ATOM     21  C   UNL A   1      30.704  23.605  26.456  1.00  0.00     0.416 C 
ATOM     22  F   UNL A   1      31.649  23.994  27.350  1.00  0.00    -0.166 F 
ATOM     23  F   UNL A   1      29.489  23.860  27.021  1.00  0.00    -0.166 F 
ATOM     24  F   UNL A   1      30.796  22.246  26.387  1.00  0.00    -0.166 F 
ENDBRANCH  18  21
ENDBRANCH   8  13
ENDBRANCH   4   7
ENDBRANCH   2   3
ENDBRANCH   1   2
BRANCH   1  25
ATOM     25  C   UNL A   1      32.900  31.922  27.083  1.00  0.00     0.118 C 
BRANCH  25  26
ATOM     26  N   UNL A   1      32.674  33.320  27.453  1.00  0.00    -0.352 N 
ATOM     27  C   UNL A   1      33.229  34.177  28.384  1.00  0.00     0.251 C 
ATOM     28  H   UNL A   1      31.967  33.747  26.917  1.00  0.00     0.163 HD
ATOM     29  O   UNL A   1      32.702  35.268  28.544  1.00  0.00    -0.269 OA
BRANCH  27  30
ATOM     30  C   UNL A   1      34.390  33.799  29.232  1.00  0.00     0.039 A 
ATOM     31  C   UNL A   1      34.206  32.843  30.242  1.00  0.00     0.014 A 
ATOM     32  C   UNL A   1      35.644  34.377  29.085  1.00  0.00     0.014 A 
ATOM     33  C   UNL A   1      35.296  32.395  31.001  1.00  0.00     0.010 A 
ATOM     34  C   UNL A   1      36.748  33.831  29.731  1.00  0.00     0.010 A 
ATOM     35  C   UNL A   1      36.592  32.832  30.701  1.00  0.00    -0.014 A 
BRANCH  35  36
ATOM     36  C   UNL A   1      37.804  32.292  31.378  1.00  0.00     0.031 A 
ATOM     37  C   UNL A   1      38.605  31.196  30.718  1.00  0.00     0.074 A 
ATOM     38  C   UNL A   1      38.109  32.690  32.630  1.00  0.00     0.049 A 
ATOM     39  N   UNL A   1      39.550  30.439  31.216  1.00  0.00    -0.248 NA
ATOM     40  C   UNL A   1      38.251  30.870  29.329  1.00  0.00     0.031 C 
ATOM     41  C   UNL A   1      37.383  33.705  33.399  1.00  0.00     0.029 A 
ATOM     42  N   UNL A   1      39.099  32.278  33.488  1.00  0.00    -0.354 N 
ATOM     43  C   UNL A   1      39.861  29.517  30.221  1.00  0.00     0.074 A 
ATOM     44  C   UNL A   1      38.955  29.770  29.121  1.00  0.00     0.031 C 
ATOM     45  C   UNL A   1      37.973  33.860  34.595  1.00  0.00     0.029 A 
ATOM     46  C   UNL A   1      39.077  32.914  34.709  1.00  0.00     0.049 A 
ATOM     47  H   UNL A   1      39.764  31.592  33.251  1.00  0.00     0.167 HD
ATOM     48  C   UNL A   1      40.829  28.566  30.213  1.00  0.00     0.034 A 
ATOM     49  C   UNL A   1      39.845  32.743  35.802  1.00  0.00     0.034 A 
ATOM     50  C   UNL A   1      41.758  28.372  31.300  1.00  0.00     0.049 A 
ATOM     51  C   UNL A   1      40.932  31.698  35.764  1.00  0.00     0.074 A 
ATOM     52  C   UNL A   1      42.831  27.501  31.374  1.00  0.00     0.029 A 
ATOM     53  N   UNL A   1      41.727  29.066  32.504  1.00  0.00    -0.354 N 
ATOM     54  N   UNL A   1      41.239  30.861  34.801  1.00  0.00    -0.248 NA
ATOM     55  C   UNL A   1      41.777  31.581  36.958  1.00  0.00     0.031 C 
ATOM     56  C   UNL A   1      43.410  27.625  32.642  1.00  0.00     0.029 A 
ATOM     57  C   UNL A   1      42.746  28.626  33.334  1.00  0.00     0.049 A 
ATOM     58  H   UNL A   1      41.076  29.768  32.734  1.00  0.00     0.167 HD
ATOM     59  C   UNL A   1      42.337  30.139  35.261  1.00  0.00     0.074 A 
ATOM     60  C   UNL A   1      42.643  30.652  36.582  1.00  0.00     0.031 C 
ATOM     61  C   UNL A   1      43.031  29.146  34.650  1.00  0.00     0.034 A 
BRANCH  48  62
ATOM     62  C   UNL A   1      40.913  27.662  29.002  1.00  0.00     0.023 A 
ATOM     63  C   UNL A   1      41.858  27.874  27.983  1.00  0.00     0.031 A 
ATOM     64  C   UNL A   1      40.007  26.598  28.843  1.00  0.00     0.131 A 
ATOM     65  C   UNL A   1      41.811  27.105  26.811  1.00  0.00     0.055 A 
ATOM     66  C   UNL A   1      40.029  25.773  27.715  1.00  0.00     0.041 A 
ATOM     67  F   UNL A   1      39.069  26.352  29.772  1.00  0.00    -0.206 F 
ATOM     68  C   UNL A   1      40.921  26.037  26.681  1.00  0.00     0.022 A 
BRANCH  65  69
ATOM     69  S   UNL A   1      42.816  27.630  25.394  1.00  0.00     0.124 S 
ATOM     70  O   UNL A   1      42.946  26.380  24.649  1.00  0.00    -0.237 OA
ATOM     71  O   UNL A   1      41.982  28.656  24.780  1.00  0.00    -0.237 OA
ATOM     72  O   UNL A   1      44.050  28.112  26.009  1.00  0.00    -0.744 OA
ENDBRANCH  65  69
ENDBRANCH  48  62
BRANCH  49  73
ATOM     73  C   UNL A   1      39.627  33.575  37.021  1.00  0.00     0.023 A 
ATOM     74  C   UNL A   1      39.061  33.017  38.178  1.00  0.00     0.031 A 
ATOM     75  C   UNL A   1      39.955  34.942  37.042  1.00  0.00     0.131 A 
ATOM     76  C   UNL A   1      38.795  33.829  39.291  1.00  0.00     0.055 A 
ATOM     77  C   UNL A   1      39.736  35.736  38.170  1.00  0.00     0.041 A 
ATOM     78  F   UNL A   1      40.507  35.525  35.967  1.00  0.00    -0.206 F 
ATOM     79  C   UNL A   1      39.141  35.183  39.300  1.00  0.00     0.022 A 
BRANCH  76  80
ATOM     80  S   UNL A   1      37.915  33.106  40.702  1.00  0.00     0.124 S 
ATOM     81  O   UNL A   1      38.309  33.999  41.786  1.00  0.00    -0.237 OA
ATOM     82  O   UNL A   1      36.524  33.196  40.270  1.00  0.00    -0.237 OA
ATOM     83  O   UNL A   1      38.455  31.751  40.781  1.00  0.00    -0.744 OA
ENDBRANCH  76  80
ENDBRANCH  49  73
BRANCH  61  84
ATOM     84  C   UNL A   1      44.223  28.591  35.390  1.00  0.00     0.023 A 
ATOM     85  C   UNL A   1      44.089  27.567  36.343  1.00  0.00     0.031 A 
ATOM     86  C   UNL A   1      45.507  29.105  35.144  1.00  0.00     0.131 A 
ATOM     87  C   UNL A   1      45.213  27.127  37.055  1.00  0.00     0.055 A 
ATOM     88  C   UNL A   1      46.632  28.620  35.812  1.00  0.00     0.041 A 
ATOM     89  F   UNL A   1      45.690  30.087  34.246  1.00  0.00    -0.206 F 
ATOM     90  C   UNL A   1      46.487  27.634  36.784  1.00  0.00     0.022 A 
BRANCH  87  91
ATOM     91  S   UNL A   1      44.976  25.946  38.411  1.00  0.00     0.124 S 
ATOM     92  O   UNL A   1      46.292  25.941  39.042  1.00  0.00    -0.237 OA
ATOM     93  O   UNL A   1      43.903  26.565  39.181  1.00  0.00    -0.237 OA
ATOM     94  O   UNL A   1      44.613  24.706  37.728  1.00  0.00    -0.744 OA
ENDBRANCH  87  91
ENDBRANCH  61  84
ENDBRANCH  35  36
ENDBRANCH  27  30
ENDBRANCH  25  26
ENDBRANCH   1  25
TORSDOF 16
ENDMDL
MODEL 3
REMARK VINA RESULT:     -12.4      5.046      9.792
REMARK SMILES COc1ccc(C(F)(F)F)cc1-c1cccnc1C(=O)NCCCNC(=O)c1ccc(-c2c3nc(c(-c4cc(S(=O)(=O)[O-])ccc4F)c4ccc([nH]4)c(-c4cc(S(=O)(=O)[O-])ccc4F)c4nc(c(-c5cc(S(=O)(=O)[O-])ccc5F)c5ccc2[nH]5)C=C4)C=C3)cc1
REMARK SMILES IDX 23 1 22 2 21 3 19 4 20 5 18 7 13 8 14 9 15 10 17 11 16 12
REMARK SMILES IDX 12 13 3 14 4 15 5 16 11 17 6 18 2 19 1 20 7 21 8 22 9 23
REMARK SMILES IDX 10 24 24 25 25 26 26 27 27 29 28 30 29 31 90 32 30 33 89 34
REMARK SMILES IDX 31 35 32 36 33 37 83 38 34 39 88 40 82 41 84 42 35 43 87 44
REMARK SMILES IDX 81 45 80 46 36 48 68 49 48 50 67 51 49 52 52 53 66 54 85 55
REMARK SMILES IDX 50 56 51 57 65 59 86 60 53 61 37 62 38 63 46 64 39 65 45 66
REMARK SMILES IDX 47 67 44 68 40 69 41 70 42 71 43 72 69 73 70 74 78 75 71 76
REMARK SMILES IDX 77 77 79 78 76 79 72 80 73 81 74 82 75 83 54 84 55 85 63 86
REMARK SMILES IDX 56 87 62 88 64 89 61 90 57 91 58 92 59 93 60 94
REMARK H PARENT 21 6 25 28 84 47 52 58
REMARK Flexibility Score: inf
ROOT
ATOM      1  C   UNL A   1      35.695  22.660  24.092  1.00  0.00     0.042 C 
ENDROOT
BRANCH   1   2
ATOM      2  C   UNL A   1      35.059  24.030  24.186  1.00  0.00     0.118 C 
BRANCH   2   3
ATOM      3  N   UNL A   1      34.139  24.436  23.164  1.00  0.00    -0.351 N 
ATOM      4  C   UNL A   1      32.810  24.804  23.282  1.00  0.00     0.270 C 
ATOM      5  O   UNL A   1      32.308  25.315  22.273  1.00  0.00    -0.267 OA
ATOM      6  H   UNL A   1      34.504  24.457  22.249  1.00  0.00     0.163 HD
BRANCH   4   7
ATOM      7  C   UNL A   1      31.913  24.565  24.494  1.00  0.00     0.136 A 
ATOM      8  C   UNL A   1      31.124  25.496  25.204  1.00  0.00     0.017 A 
ATOM      9  C   UNL A   1      30.282  24.977  26.213  1.00  0.00     0.013 A 
ATOM     10  C   UNL A   1      30.249  23.621  26.506  1.00  0.00     0.021 A 
ATOM     11  N   UNL A   1      31.878  23.225  24.791  1.00  0.00    -0.250 NA
ATOM     12  C   UNL A   1      31.065  22.790  25.773  1.00  0.00     0.112 A 
BRANCH   8  13
ATOM     13  C   UNL A   1      31.118  26.954  25.023  1.00  0.00     0.027 A 
ATOM     14  C   UNL A   1      32.093  27.787  25.627  1.00  0.00     0.126 A 
ATOM     15  C   UNL A   1      32.149  29.152  25.333  1.00  0.00     0.048 A 
ATOM     16  C   UNL A   1      31.241  29.714  24.433  1.00  0.00     0.017 A 
ATOM     17  C   UNL A   1      30.156  27.559  24.191  1.00  0.00     0.025 A 
ATOM     18  C   UNL A   1      30.223  28.930  23.870  1.00  0.00     0.056 A 
BRANCH  14  19
ATOM     19  O   UNL A   1      32.969  27.338  26.587  1.00  0.00    -0.496 OA
ATOM     20  C   UNL A   1      34.060  28.222  26.850  1.00  0.00     0.278 C 
ENDBRANCH  14  19
BRANCH  18  21
ATOM     21  C   UNL A   1      29.296  29.500  22.822  1.00  0.00     0.416 C 
ATOM     22  F   UNL A   1      28.559  30.556  23.254  1.00  0.00    -0.166 F 
ATOM     23  F   UNL A   1      29.981  29.914  21.718  1.00  0.00    -0.166 F 
ATOM     24  F   UNL A   1      28.396  28.580  22.369  1.00  0.00    -0.166 F 
ENDBRANCH  18  21
ENDBRANCH   8  13
ENDBRANCH   4   7
ENDBRANCH   2   3
ENDBRANCH   1   2
BRANCH   1  25
ATOM     25  C   UNL A   1      36.001  22.005  25.435  1.00  0.00     0.118 C 
BRANCH  25  26
ATOM     26  N   UNL A   1      37.102  21.040  25.413  1.00  0.00    -0.352 N 
ATOM     27  C   UNL A   1      38.448  21.101  25.717  1.00  0.00     0.251 C 
ATOM     28  H   UNL A   1      36.818  20.146  25.115  1.00  0.00     0.163 HD
ATOM     29  O   UNL A   1      39.140  20.131  25.445  1.00  0.00    -0.269 OA
BRANCH  27  30
ATOM     30  C   UNL A   1      39.088  22.311  26.296  1.00  0.00     0.039 A 
ATOM     31  C   UNL A   1      40.253  22.157  27.062  1.00  0.00     0.014 A 
ATOM     32  C   UNL A   1      38.564  23.587  26.133  1.00  0.00     0.014 A 
ATOM     33  C   UNL A   1      40.936  23.281  27.547  1.00  0.00     0.010 A 
ATOM     34  C   UNL A   1      39.314  24.704  26.484  1.00  0.00     0.010 A 
ATOM     35  C   UNL A   1      40.512  24.569  27.198  1.00  0.00    -0.014 A 
BRANCH  35  36
ATOM     36  C   UNL A   1      41.271  25.797  27.567  1.00  0.00     0.031 A 
ATOM     37  C   UNL A   1      40.606  26.869  28.396  1.00  0.00     0.074 A 
ATOM     38  C   UNL A   1      42.501  26.006  27.055  1.00  0.00     0.049 A 
ATOM     39  N   UNL A   1      40.997  28.093  28.643  1.00  0.00    -0.248 NA
ATOM     40  C   UNL A   1      39.296  26.534  28.973  1.00  0.00     0.031 C 
ATOM     41  C   UNL A   1      43.234  25.071  26.197  1.00  0.00     0.029 A 
ATOM     42  N   UNL A   1      43.349  27.080  27.164  1.00  0.00    -0.354 N 
ATOM     43  C   UNL A   1      39.958  28.686  29.355  1.00  0.00     0.074 A 
ATOM     44  C   UNL A   1      38.897  27.707  29.437  1.00  0.00     0.031 C 
ATOM     45  C   UNL A   1      44.431  25.596  25.890  1.00  0.00     0.029 A 
ATOM     46  C   UNL A   1      44.530  26.929  26.471  1.00  0.00     0.049 A 
ATOM     47  H   UNL A   1      43.134  27.884  27.690  1.00  0.00     0.167 HD
ATOM     48  C   UNL A   1      39.906  29.923  29.913  1.00  0.00     0.034 A 
ATOM     49  C   UNL A   1      45.565  27.776  26.306  1.00  0.00     0.034 A 
ATOM     50  C   UNL A   1      41.000  30.861  29.867  1.00  0.00     0.049 A 
ATOM     51  C   UNL A   1      45.497  29.135  26.954  1.00  0.00     0.074 A 
ATOM     52  C   UNL A   1      41.097  32.106  30.464  1.00  0.00     0.029 A 
ATOM     53  N   UNL A   1      42.196  30.653  29.188  1.00  0.00    -0.354 N 
ATOM     54  N   UNL A   1      44.524  29.666  27.657  1.00  0.00    -0.248 NA
ATOM     55  C   UNL A   1      46.668  30.004  26.790  1.00  0.00     0.031 C 
ATOM     56  C   UNL A   1      42.322  32.675  30.096  1.00  0.00     0.029 A 
ATOM     57  C   UNL A   1      43.023  31.756  29.332  1.00  0.00     0.049 A 
ATOM     58  H   UNL A   1      42.421  29.841  28.679  1.00  0.00     0.167 HD
ATOM     59  C   UNL A   1      44.981  30.922  28.049  1.00  0.00     0.074 A 
ATOM     60  C   UNL A   1      46.321  31.058  27.514  1.00  0.00     0.031 C 
ATOM     61  C   UNL A   1      44.354  31.874  28.785  1.00  0.00     0.034 A 
BRANCH  48  62
ATOM     62  C   UNL A   1      38.618  30.326  30.598  1.00  0.00     0.023 A 
ATOM     63  C   UNL A   1      37.556  30.919  29.893  1.00  0.00     0.031 A 
ATOM     64  C   UNL A   1      38.466  30.155  31.986  1.00  0.00     0.131 A 
ATOM     65  C   UNL A   1      36.439  31.409  30.585  1.00  0.00     0.055 A 
ATOM     66  C   UNL A   1      37.308  30.558  32.657  1.00  0.00     0.041 A 
ATOM     67  F   UNL A   1      39.448  29.611  32.722  1.00  0.00    -0.206 F 
ATOM     68  C   UNL A   1      36.294  31.208  31.959  1.00  0.00     0.022 A 
BRANCH  65  69
ATOM     69  S   UNL A   1      35.263  32.460  29.690  1.00  0.00     0.124 S 
ATOM     70  O   UNL A   1      34.366  32.877  30.766  1.00  0.00    -0.237 OA
ATOM     71  O   UNL A   1      36.124  33.499  29.138  1.00  0.00    -0.237 OA
ATOM     72  O   UNL A   1      34.669  31.554  28.710  1.00  0.00    -0.744 OA
ENDBRANCH  65  69
ENDBRANCH  48  62
BRANCH  49  73
ATOM     73  C   UNL A   1      46.755  27.371  25.502  1.00  0.00     0.023 A 
ATOM     74  C   UNL A   1      46.923  27.832  24.187  1.00  0.00     0.031 A 
ATOM     75  C   UNL A   1      47.727  26.499  26.024  1.00  0.00     0.131 A 
ATOM     76  C   UNL A   1      48.009  27.384  23.421  1.00  0.00     0.055 A 
ATOM     77  C   UNL A   1      48.835  26.096  25.274  1.00  0.00     0.041 A 
ATOM     78  F   UNL A   1      47.621  26.034  27.278  1.00  0.00    -0.206 F 
ATOM     79  C   UNL A   1      48.974  26.530  23.959  1.00  0.00     0.022 A 
BRANCH  76  80
ATOM     80  S   UNL A   1      48.101  27.874  21.677  1.00  0.00     0.124 S 
ATOM     81  O   UNL A   1      48.277  26.587  21.015  1.00  0.00    -0.237 OA
ATOM     82  O   UNL A   1      46.811  28.527  21.478  1.00  0.00    -0.237 OA
ATOM     83  O   UNL A   1      49.260  28.763  21.634  1.00  0.00    -0.744 OA
ENDBRANCH  76  80
ENDBRANCH  49  73
BRANCH  61  84
ATOM     84  C   UNL A   1      45.140  33.124  29.095  1.00  0.00     0.023 A 
ATOM     85  C   UNL A   1      45.088  34.255  28.263  1.00  0.00     0.031 A 
ATOM     86  C   UNL A   1      45.961  33.176  30.234  1.00  0.00     0.131 A 
ATOM     87  C   UNL A   1      45.885  35.371  28.552  1.00  0.00     0.055 A 
ATOM     88  C   UNL A   1      46.705  34.313  30.551  1.00  0.00     0.041 A 
ATOM     89  F   UNL A   1      46.050  32.122  31.061  1.00  0.00    -0.206 F 
ATOM     90  C   UNL A   1      46.681  35.415  29.700  1.00  0.00     0.022 A 
BRANCH  87  91
ATOM     91  S   UNL A   1      45.943  36.733  27.356  1.00  0.00     0.124 S 
ATOM     92  O   UNL A   1      46.736  37.729  28.069  1.00  0.00    -0.237 OA
ATOM     93  O   UNL A   1      46.587  36.110  26.204  1.00  0.00    -0.237 OA
ATOM     94  O   UNL A   1      44.536  37.082  27.165  1.00  0.00    -0.744 OA
ENDBRANCH  87  91
ENDBRANCH  61  84
ENDBRANCH  35  36
ENDBRANCH  27  30
ENDBRANCH  25  26
ENDBRANCH   1  25
TORSDOF 16
ENDMDL
