MODEL 1
REMARK VINA RESULT:     -11.5      0.000      0.000
REMARK SMILES CC(C)(C)c1ccccc1[C@@H]1C[NH2+]C[C@@H]1C(=O)NCCCNC(=O)c1ccc(-c2c3nc(c(-c4cc(S(=O)(=O)[O-])ccc4F)c4ccc([nH]4)c(-c4cc(S(=O)(=O)[O-])ccc4F)c4nc(c(-c5cc(S(=O)(=O)[O-])ccc5F)c5ccc2[nH]5)C=C4)C=C3)cc1
REMARK SMILES IDX 20 1 19 2 18 3 16 4 17 5 15 7 11 8 12 9 13 10 14 11 10 14
REMARK SMILES IDX 5 15 6 16 7 17 9 18 8 19 2 20 1 21 3 22 4 23 21 24 22 25
REMARK SMILES IDX 23 26 24 28 25 29 26 30 87 31 27 32 86 33 28 34 29 35 30 36
REMARK SMILES IDX 80 37 31 38 85 39 79 40 81 41 32 42 84 43 78 44 77 45 33 47
REMARK SMILES IDX 65 48 45 49 64 50 46 51 49 52 63 53 82 54 47 55 48 56 62 58
REMARK SMILES IDX 83 59 50 60 34 61 35 62 43 63 36 64 42 65 44 66 41 67 37 68
REMARK SMILES IDX 38 69 39 70 40 71 66 72 67 73 75 74 68 75 74 76 76 77 73 78
REMARK SMILES IDX 69 79 70 80 71 81 72 82 51 83 52 84 60 85 53 86 59 87 61 88
REMARK SMILES IDX 58 89 54 90 55 91 56 92 57 93
REMARK H PARENT 18 6 13 12 13 13 22 27 81 46 49 57
REMARK Flexibility Score: inf
ROOT
ATOM      1  C   UNL A   1      33.404  27.768  26.138  1.00  0.00     0.042 C 
ENDROOT
BRANCH   1   2
ATOM      2  C   UNL A   1      33.783  26.528  25.340  1.00  0.00     0.117 C 
BRANCH   2   3
ATOM      3  N   UNL A   1      33.298  25.337  26.006  1.00  0.00    -0.356 N 
ATOM      4  C   UNL A   1      32.470  24.342  25.627  1.00  0.00     0.229 C 
ATOM      5  O   UNL A   1      32.054  23.648  26.559  1.00  0.00    -0.275 OA
ATOM      6  H   UNL A   1      33.643  25.231  26.921  1.00  0.00     0.163 HD
BRANCH   4   7
ATOM      7  C   UNL A   1      31.973  24.135  24.204  1.00  0.00     0.146 C 
ATOM      8  C   UNL A   1      32.951  23.368  23.277  1.00  0.00     0.093 C 
ATOM      9  C   UNL A   1      32.961  24.102  21.936  1.00  0.00     0.269 C 
ATOM     10  N   UNL A   1      31.734  24.915  21.936  1.00  0.00    -0.345 N 
ATOM     11  C   UNL A   1      31.526  25.307  23.342  1.00  0.00     0.274 C 
ATOM     12  H   UNL A   1      30.942  24.368  21.597  1.00  0.00     0.346 HD
ATOM     13  H   UNL A   1      31.816  25.727  21.323  1.00  0.00     0.346 HD
BRANCH   8  14
ATOM     14  C   UNL A   1      34.274  22.802  23.791  1.00  0.00    -0.035 A 
ATOM     15  C   UNL A   1      34.570  21.565  24.440  1.00  0.00    -0.039 A 
ATOM     16  C   UNL A   1      35.958  21.316  24.696  1.00  0.00     0.004 A 
ATOM     17  C   UNL A   1      36.996  22.180  24.349  1.00  0.00     0.000 A 
ATOM     18  C   UNL A   1      35.369  23.674  23.477  1.00  0.00     0.004 A 
ATOM     19  C   UNL A   1      36.699  23.375  23.744  1.00  0.00     0.000 A 
BRANCH  15  20
ATOM     20  C   UNL A   1      33.616  20.461  25.000  1.00  0.00    -0.013 C 
ATOM     21  C   UNL A   1      34.129  19.019  24.671  1.00  0.00     0.016 C 
ATOM     22  C   UNL A   1      32.156  20.397  24.539  1.00  0.00     0.016 C 
ATOM     23  C   UNL A   1      33.610  20.628  26.538  1.00  0.00     0.016 C 
ENDBRANCH  15  20
ENDBRANCH   8  14
ENDBRANCH   4   7
ENDBRANCH   2   3
ENDBRANCH   1   2
BRANCH   1  24
ATOM     24  C   UNL A   1      34.354  28.941  25.926  1.00  0.00     0.118 C 
BRANCH  24  25
ATOM     25  N   UNL A   1      33.857  30.177  26.508  1.00  0.00    -0.352 N 
ATOM     26  C   UNL A   1      34.334  30.876  27.594  1.00  0.00     0.251 C 
ATOM     27  H   UNL A   1      33.069  30.568  26.065  1.00  0.00     0.163 HD
ATOM     28  O   UNL A   1      33.678  31.797  28.062  1.00  0.00    -0.269 OA
BRANCH  26  29
ATOM     29  C   UNL A   1      35.622  30.478  28.210  1.00  0.00     0.039 A 
ATOM     30  C   UNL A   1      35.607  29.696  29.367  1.00  0.00     0.014 A 
ATOM     31  C   UNL A   1      36.840  30.850  27.633  1.00  0.00     0.014 A 
ATOM     32  C   UNL A   1      36.811  29.226  29.899  1.00  0.00     0.010 A 
ATOM     33  C   UNL A   1      38.028  30.299  28.106  1.00  0.00     0.010 A 
ATOM     34  C   UNL A   1      38.029  29.485  29.249  1.00  0.00    -0.014 A 
BRANCH  34  35
ATOM     35  C   UNL A   1      39.313  28.926  29.757  1.00  0.00     0.031 A 
ATOM     36  C   UNL A   1      39.996  29.564  30.937  1.00  0.00     0.074 A 
ATOM     37  C   UNL A   1      39.887  27.882  29.126  1.00  0.00     0.049 A 
ATOM     38  N   UNL A   1      41.146  29.267  31.489  1.00  0.00    -0.248 NA
ATOM     39  C   UNL A   1      39.312  30.707  31.560  1.00  0.00     0.031 C 
ATOM     40  C   UNL A   1      39.345  27.204  27.947  1.00  0.00     0.029 A 
ATOM     41  N   UNL A   1      41.056  27.209  29.384  1.00  0.00    -0.354 N 
ATOM     42  C   UNL A   1      41.327  30.193  32.511  1.00  0.00     0.074 A 
ATOM     43  C   UNL A   1      40.203  31.103  32.454  1.00  0.00     0.031 C 
ATOM     44  C   UNL A   1      40.160  26.193  27.606  1.00  0.00     0.029 A 
ATOM     45  C   UNL A   1      41.309  26.179  28.505  1.00  0.00     0.049 A 
ATOM     46  H   UNL A   1      41.657  27.440  30.128  1.00  0.00     0.167 HD
ATOM     47  C   UNL A   1      42.323  30.262  33.430  1.00  0.00     0.034 A 
ATOM     48  C   UNL A   1      42.353  25.329  28.425  1.00  0.00     0.034 A 
ATOM     49  C   UNL A   1      43.430  29.339  33.480  1.00  0.00     0.049 A 
ATOM     50  C   UNL A   1      43.464  25.443  29.440  1.00  0.00     0.074 A 
ATOM     51  C   UNL A   1      44.466  29.286  34.397  1.00  0.00     0.029 A 
ATOM     52  N   UNL A   1      43.654  28.313  32.571  1.00  0.00    -0.354 N 
ATOM     53  N   UNL A   1      43.593  26.293  30.432  1.00  0.00    -0.248 NA
ATOM     54  C   UNL A   1      44.563  24.475  29.329  1.00  0.00     0.031 C 
ATOM     55  C   UNL A   1      45.354  28.281  33.999  1.00  0.00     0.029 A 
ATOM     56  C   UNL A   1      44.828  27.644  32.887  1.00  0.00     0.049 A 
ATOM     57  H   UNL A   1      43.067  28.093  31.812  1.00  0.00     0.167 HD
ATOM     58  C   UNL A   1      44.769  25.937  31.087  1.00  0.00     0.074 A 
ATOM     59  C   UNL A   1      45.302  24.787  30.383  1.00  0.00     0.031 C 
ATOM     60  C   UNL A   1      45.354  26.503  32.174  1.00  0.00     0.034 A 
BRANCH  47  61
ATOM     61  C   UNL A   1      42.264  31.388  34.437  1.00  0.00     0.023 A 
ATOM     62  C   UNL A   1      41.316  31.402  35.477  1.00  0.00     0.031 A 
ATOM     63  C   UNL A   1      43.149  32.476  34.344  1.00  0.00     0.131 A 
ATOM     64  C   UNL A   1      41.222  32.514  36.326  1.00  0.00     0.055 A 
ATOM     65  C   UNL A   1      43.110  33.539  35.248  1.00  0.00     0.041 A 
ATOM     66  F   UNL A   1      44.062  32.532  33.361  1.00  0.00    -0.206 F 
ATOM     67  C   UNL A   1      42.131  33.571  36.238  1.00  0.00     0.022 A 
BRANCH  64  68
ATOM     68  S   UNL A   1      39.800  32.631  37.446  1.00  0.00     0.124 S 
ATOM     69  O   UNL A   1      39.245  33.933  37.083  1.00  0.00    -0.237 OA
ATOM     70  O   UNL A   1      39.004  31.469  37.066  1.00  0.00    -0.237 OA
ATOM     71  O   UNL A   1      40.403  32.568  38.776  1.00  0.00    -0.744 OA
ENDBRANCH  64  68
ENDBRANCH  47  61
BRANCH  48  72
ATOM     72  C   UNL A   1      42.410  24.298  27.346  1.00  0.00     0.023 A 
ATOM     73  C   UNL A   1      41.633  23.131  27.417  1.00  0.00     0.031 A 
ATOM     74  C   UNL A   1      43.282  24.442  26.252  1.00  0.00     0.131 A 
ATOM     75  C   UNL A   1      41.780  22.132  26.441  1.00  0.00     0.055 A 
ATOM     76  C   UNL A   1      43.379  23.473  25.252  1.00  0.00     0.041 A 
ATOM     77  F   UNL A   1      44.046  25.539  26.131  1.00  0.00    -0.206 F 
ATOM     78  C   UNL A   1      42.636  22.302  25.351  1.00  0.00     0.022 A 
BRANCH  75  79
ATOM     79  S   UNL A   1      40.902  20.560  26.670  1.00  0.00     0.124 S 
ATOM     80  O   UNL A   1      41.717  19.648  25.876  1.00  0.00    -0.237 OA
ATOM     81  O   UNL A   1      40.966  20.385  28.117  1.00  0.00    -0.237 OA
ATOM     82  O   UNL A   1      39.570  20.834  26.136  1.00  0.00    -0.744 OA
ENDBRANCH  75  79
ENDBRANCH  48  72
BRANCH  60  83
ATOM     83  C   UNL A   1      46.609  25.849  32.701  1.00  0.00     0.023 A 
ATOM     84  C   UNL A   1      47.875  26.117  32.153  1.00  0.00     0.031 A 
ATOM     85  C   UNL A   1      46.530  24.933  33.766  1.00  0.00     0.131 A 
ATOM     86  C   UNL A   1      49.003  25.430  32.632  1.00  0.00     0.055 A 
ATOM     87  C   UNL A   1      47.664  24.306  34.284  1.00  0.00     0.041 A 
ATOM     88  F   UNL A   1      45.347  24.635  34.327  1.00  0.00    -0.206 F 
ATOM     89  C   UNL A   1      48.908  24.542  33.706  1.00  0.00     0.022 A 
BRANCH  86  90
ATOM     90  S   UNL A   1      50.582  25.637  31.763  1.00  0.00     0.124 S 
ATOM     91  O   UNL A   1      51.322  26.498  32.679  1.00  0.00    -0.237 OA
ATOM     92  O   UNL A   1      51.060  24.263  31.652  1.00  0.00    -0.237 OA
ATOM     93  O   UNL A   1      50.198  26.262  30.498  1.00  0.00    -0.744 OA
ENDBRANCH  86  90
ENDBRANCH  60  83
ENDBRANCH  34  35
ENDBRANCH  26  29
ENDBRANCH  24  25
ENDBRANCH   1  24
TORSDOF 15
ENDMDL
MODEL 2
REMARK VINA RESULT:     -11.5      1.592      1.915
REMARK SMILES CC(C)(C)c1ccccc1[C@@H]1C[NH2+]C[C@@H]1C(=O)NCCCNC(=O)c1ccc(-c2c3nc(c(-c4cc(S(=O)(=O)[O-])ccc4F)c4ccc([nH]4)c(-c4cc(S(=O)(=O)[O-])ccc4F)c4nc(c(-c5cc(S(=O)(=O)[O-])ccc5F)c5ccc2[nH]5)C=C4)C=C3)cc1
REMARK SMILES IDX 20 1 19 2 18 3 16 4 17 5 15 7 11 8 12 9 13 10 14 11 10 14
REMARK SMILES IDX 5 15 6 16 7 17 9 18 8 19 2 20 1 21 3 22 4 23 21 24 22 25
REMARK SMILES IDX 23 26 24 28 25 29 26 30 87 31 27 32 86 33 28 34 29 35 30 36
REMARK SMILES IDX 80 37 31 38 85 39 79 40 81 41 32 42 84 43 78 44 77 45 33 47
REMARK SMILES IDX 65 48 45 49 64 50 46 51 49 52 63 53 82 54 47 55 48 56 62 58
REMARK SMILES IDX 83 59 50 60 34 61 35 62 43 63 36 64 42 65 44 66 41 67 37 68
REMARK SMILES IDX 38 69 39 70 40 71 66 72 67 73 75 74 68 75 74 76 76 77 73 78
REMARK SMILES IDX 69 79 70 80 71 81 72 82 51 83 52 84 60 85 53 86 59 87 61 88
REMARK SMILES IDX 58 89 54 90 55 91 56 92 57 93
REMARK H PARENT 18 6 13 12 13 13 22 27 81 46 49 57
REMARK Flexibility Score: inf
ROOT
ATOM      1  C   UNL A   1      33.495  27.834  26.874  1.00  0.00     0.042 C 
ENDROOT
BRANCH   1   2
ATOM      2  C   UNL A   1      32.012  27.651  26.584  1.00  0.00     0.117 C 
BRANCH   2   3
ATOM      3  N   UNL A   1      31.635  26.263  26.754  1.00  0.00    -0.356 N 
ATOM      4  C   UNL A   1      31.229  25.307  25.895  1.00  0.00     0.229 C 
ATOM      5  O   UNL A   1      30.714  24.325  26.438  1.00  0.00    -0.275 OA
ATOM      6  H   UNL A   1      31.687  25.954  27.687  1.00  0.00     0.163 HD
BRANCH   4   7
ATOM      7  C   UNL A   1      31.272  25.441  24.380  1.00  0.00     0.146 C 
ATOM      8  C   UNL A   1      32.506  24.792  23.703  1.00  0.00     0.093 C 
ATOM      9  C   UNL A   1      33.006  25.779  22.648  1.00  0.00     0.269 C 
ATOM     10  N   UNL A   1      31.871  26.686  22.405  1.00  0.00    -0.345 N 
ATOM     11  C   UNL A   1      31.179  26.801  23.702  1.00  0.00     0.274 C 
ATOM     12  H   UNL A   1      31.246  26.295  21.700  1.00  0.00     0.346 HD
ATOM     13  H   UNL A   1      32.179  27.594  22.056  1.00  0.00     0.346 HD
BRANCH   8  14
ATOM     14  C   UNL A   1      33.549  24.014  24.503  1.00  0.00    -0.035 A 
ATOM     15  C   UNL A   1      33.708  22.609  24.711  1.00  0.00    -0.039 A 
ATOM     16  C   UNL A   1      34.875  22.220  25.445  1.00  0.00     0.004 A 
ATOM     17  C   UNL A   1      35.833  23.105  25.939  1.00  0.00     0.000 A 
ATOM     18  C   UNL A   1      34.543  24.890  25.052  1.00  0.00     0.004 A 
ATOM     19  C   UNL A   1      35.660  24.453  25.751  1.00  0.00     0.000 A 
BRANCH  15  20
ATOM     20  C   UNL A   1      32.768  21.417  24.340  1.00  0.00    -0.013 C 
ATOM     21  C   UNL A   1      33.491  20.036  24.471  1.00  0.00     0.016 C 
ATOM     22  C   UNL A   1      32.153  21.328  22.939  1.00  0.00     0.016 C 
ATOM     23  C   UNL A   1      31.603  21.447  25.356  1.00  0.00     0.016 C 
ENDBRANCH  15  20
ENDBRANCH   8  14
ENDBRANCH   4   7
ENDBRANCH   2   3
ENDBRANCH   1   2
BRANCH   1  24
ATOM     24  C   UNL A   1      34.142  28.946  26.057  1.00  0.00     0.118 C 
BRANCH  24  25
ATOM     25  N   UNL A   1      33.741  30.271  26.498  1.00  0.00    -0.352 N 
ATOM     26  C   UNL A   1      34.277  31.050  27.499  1.00  0.00     0.251 C 
ATOM     27  H   UNL A   1      32.979  30.667  26.016  1.00  0.00     0.163 HD
ATOM     28  O   UNL A   1      33.694  32.063  27.862  1.00  0.00    -0.269 OA
BRANCH  26  29
ATOM     29  C   UNL A   1      35.539  30.631  28.154  1.00  0.00     0.039 A 
ATOM     30  C   UNL A   1      35.476  29.822  29.290  1.00  0.00     0.014 A 
ATOM     31  C   UNL A   1      36.780  31.009  27.632  1.00  0.00     0.014 A 
ATOM     32  C   UNL A   1      36.657  29.333  29.855  1.00  0.00     0.010 A 
ATOM     33  C   UNL A   1      37.946  30.441  28.136  1.00  0.00     0.010 A 
ATOM     34  C   UNL A   1      37.900  29.600  29.258  1.00  0.00    -0.014 A 
BRANCH  34  35
ATOM     35  C   UNL A   1      39.161  29.023  29.801  1.00  0.00     0.031 A 
ATOM     36  C   UNL A   1      39.804  29.630  31.020  1.00  0.00     0.074 A 
ATOM     37  C   UNL A   1      39.753  27.990  29.169  1.00  0.00     0.049 A 
ATOM     38  N   UNL A   1      40.931  29.314  31.607  1.00  0.00    -0.248 NA
ATOM     39  C   UNL A   1      39.103  30.763  31.642  1.00  0.00     0.031 C 
ATOM     40  C   UNL A   1      39.252  27.341  27.955  1.00  0.00     0.029 A 
ATOM     41  N   UNL A   1      40.909  27.303  29.455  1.00  0.00    -0.354 N 
ATOM     42  C   UNL A   1      41.078  30.216  32.656  1.00  0.00     0.074 A 
ATOM     43  C   UNL A   1      39.962  31.134  32.578  1.00  0.00     0.031 C 
ATOM     44  C   UNL A   1      40.074  26.333  27.622  1.00  0.00     0.029 A 
ATOM     45  C   UNL A   1      41.189  26.292  28.563  1.00  0.00     0.049 A 
ATOM     46  H   UNL A   1      41.482  27.515  30.225  1.00  0.00     0.167 HD
ATOM     47  C   UNL A   1      42.039  30.258  33.613  1.00  0.00     0.034 A 
ATOM     48  C   UNL A   1      42.230  25.437  28.503  1.00  0.00     0.034 A 
ATOM     49  C   UNL A   1      43.139  29.327  33.683  1.00  0.00     0.049 A 
ATOM     50  C   UNL A   1      43.303  25.522  29.560  1.00  0.00     0.074 A 
ATOM     51  C   UNL A   1      44.140  29.247  34.636  1.00  0.00     0.029 A 
ATOM     52  N   UNL A   1      43.392  28.320  32.760  1.00  0.00    -0.354 N 
ATOM     53  N   UNL A   1      43.399  26.349  30.575  1.00  0.00    -0.248 NA
ATOM     54  C   UNL A   1      44.400  24.550  29.469  1.00  0.00     0.031 C 
ATOM     55  C   UNL A   1      45.036  28.246  34.249  1.00  0.00     0.029 A 
ATOM     56  C   UNL A   1      44.549  27.638  33.104  1.00  0.00     0.049 A 
ATOM     57  H   UNL A   1      42.831  28.121  31.975  1.00  0.00     0.167 HD
ATOM     58  C   UNL A   1      44.549  25.971  31.265  1.00  0.00     0.074 A 
ATOM     59  C   UNL A   1      45.101  24.834  30.556  1.00  0.00     0.031 C 
ATOM     60  C   UNL A   1      45.095  26.509  32.385  1.00  0.00     0.034 A 
BRANCH  47  61
ATOM     61  C   UNL A   1      41.949  31.361  34.642  1.00  0.00     0.023 A 
ATOM     62  C   UNL A   1      40.949  31.370  35.632  1.00  0.00     0.031 A 
ATOM     63  C   UNL A   1      42.857  32.435  34.620  1.00  0.00     0.131 A 
ATOM     64  C   UNL A   1      40.832  32.464  36.502  1.00  0.00     0.055 A 
ATOM     65  C   UNL A   1      42.790  33.477  35.546  1.00  0.00     0.041 A 
ATOM     66  F   UNL A   1      43.820  32.496  33.686  1.00  0.00    -0.206 F 
ATOM     67  C   UNL A   1      41.762  33.505  36.484  1.00  0.00     0.022 A 
BRANCH  64  68
ATOM     68  S   UNL A   1      39.356  32.582  37.550  1.00  0.00     0.124 S 
ATOM     69  O   UNL A   1      38.559  31.459  37.065  1.00  0.00    -0.237 OA
ATOM     70  O   UNL A   1      39.911  32.439  38.891  1.00  0.00    -0.237 OA
ATOM     71  O   UNL A   1      38.816  33.903  37.235  1.00  0.00    -0.744 OA
ENDBRANCH  64  68
ENDBRANCH  47  61
BRANCH  48  72
ATOM     72  C   UNL A   1      42.322  24.430  27.404  1.00  0.00     0.023 A 
ATOM     73  C   UNL A   1      41.521  23.278  27.408  1.00  0.00     0.031 A 
ATOM     74  C   UNL A   1      43.250  24.582  26.358  1.00  0.00     0.131 A 
ATOM     75  C   UNL A   1      41.697  22.299  26.417  1.00  0.00     0.055 A 
ATOM     76  C   UNL A   1      43.379  23.634  25.341  1.00  0.00     0.041 A 
ATOM     77  F   UNL A   1      44.040  25.666  26.302  1.00  0.00    -0.206 F 
ATOM     78  C   UNL A   1      42.610  22.476  25.376  1.00  0.00     0.022 A 
BRANCH  75  79
ATOM     79  S   UNL A   1      40.780  20.740  26.564  1.00  0.00     0.124 S 
ATOM     80  O   UNL A   1      40.779  20.531  28.007  1.00  0.00    -0.237 OA
ATOM     81  O   UNL A   1      39.496  21.086  25.963  1.00  0.00    -0.237 OA
ATOM     82  O   UNL A   1      41.590  19.796  25.797  1.00  0.00    -0.744 OA
ENDBRANCH  75  79
ENDBRANCH  48  72
BRANCH  60  83
ATOM     83  C   UNL A   1      46.326  25.836  32.945  1.00  0.00     0.023 A 
ATOM     84  C   UNL A   1      46.242  24.731  33.810  1.00  0.00     0.031 A 
ATOM     85  C   UNL A   1      47.604  26.317  32.610  1.00  0.00     0.131 A 
ATOM     86  C   UNL A   1      47.413  24.184  34.359  1.00  0.00     0.055 A 
ATOM     87  C   UNL A   1      48.768  25.725  33.105  1.00  0.00     0.041 A 
ATOM     88  F   UNL A   1      47.747  27.372  31.791  1.00  0.00    -0.206 F 
ATOM     89  C   UNL A   1      48.674  24.661  33.997  1.00  0.00     0.022 A 
BRANCH  86  90
ATOM     90  S   UNL A   1      47.259  22.904  35.636  1.00  0.00     0.124 S 
ATOM     91  O   UNL A   1      46.940  21.721  34.843  1.00  0.00    -0.237 OA
ATOM     92  O   UNL A   1      48.580  22.920  36.255  1.00  0.00    -0.237 OA
ATOM     93  O   UNL A   1      46.173  23.393  36.483  1.00  0.00    -0.744 OA
ENDBRANCH  86  90
ENDBRANCH  60  83
ENDBRANCH  34  35
ENDBRANCH  26  29
ENDBRANCH  24  25
ENDBRANCH   1  24
TORSDOF 15
ENDMDL
MODEL 3
REMARK VINA RESULT:     -11.4      2.212      3.009
REMARK SMILES CC(C)(C)c1ccccc1[C@@H]1C[NH2+]C[C@@H]1C(=O)NCCCNC(=O)c1ccc(-c2c3nc(c(-c4cc(S(=O)(=O)[O-])ccc4F)c4ccc([nH]4)c(-c4cc(S(=O)(=O)[O-])ccc4F)c4nc(c(-c5cc(S(=O)(=O)[O-])ccc5F)c5ccc2[nH]5)C=C4)C=C3)cc1
REMARK SMILES IDX 20 1 19 2 18 3 16 4 17 5 15 7 11 8 12 9 13 10 14 11 10 14
REMARK SMILES IDX 5 15 6 16 7 17 9 18 8 19 2 20 1 21 3 22 4 23 21 24 22 25
REMARK SMILES IDX 23 26 24 28 25 29 26 30 87 31 27 32 86 33 28 34 29 35 30 36
REMARK SMILES IDX 80 37 31 38 85 39 79 40 81 41 32 42 84 43 78 44 77 45 33 47
REMARK SMILES IDX 65 48 45 49 64 50 46 51 49 52 63 53 82 54 47 55 48 56 62 58
REMARK SMILES IDX 83 59 50 60 34 61 35 62 43 63 36 64 42 65 44 66 41 67 37 68
REMARK SMILES IDX 38 69 39 70 40 71 66 72 67 73 75 74 68 75 74 76 76 77 73 78
REMARK SMILES IDX 69 79 70 80 71 81 72 82 51 83 52 84 60 85 53 86 59 87 61 88
REMARK SMILES IDX 58 89 54 90 55 91 56 92 57 93
REMARK H PARENT 18 6 13 12 13 13 22 27 81 46 49 57
REMARK Flexibility Score: inf
ROOT
ATOM      1  C   UNL A   1      32.084  29.110  27.278  1.00  0.00     0.042 C 
ENDROOT
BRANCH   1   2
ATOM      2  C   UNL A   1      31.787  27.741  26.683  1.00  0.00     0.117 C 
BRANCH   2   3
ATOM      3  N   UNL A   1      33.019  27.085  26.296  1.00  0.00    -0.356 N 
ATOM      4  C   UNL A   1      33.454  26.551  25.137  1.00  0.00     0.229 C 
ATOM      5  O   UNL A   1      34.439  25.818  25.257  1.00  0.00    -0.275 OA
ATOM      6  H   UNL A   1      33.673  27.016  27.028  1.00  0.00     0.163 HD
BRANCH   4   7
ATOM      7  C   UNL A   1      32.747  26.714  23.799  1.00  0.00     0.146 C 
ATOM      8  C   UNL A   1      31.739  25.589  23.452  1.00  0.00     0.093 C 
ATOM      9  C   UNL A   1      31.959  25.232  21.983  1.00  0.00     0.269 C 
ATOM     10  N   UNL A   1      32.680  26.382  21.413  1.00  0.00    -0.345 N 
ATOM     11  C   UNL A   1      33.530  26.890  22.506  1.00  0.00     0.274 C 
ATOM     12  H   UNL A   1      32.023  27.100  21.109  1.00  0.00     0.346 HD
ATOM     13  H   UNL A   1      33.230  26.118  20.595  1.00  0.00     0.346 HD
BRANCH   8  14
ATOM     14  C   UNL A   1      31.433  24.452  24.426  1.00  0.00    -0.035 A 
ATOM     15  C   UNL A   1      32.046  23.173  24.589  1.00  0.00    -0.039 A 
ATOM     16  C   UNL A   1      31.561  22.388  25.685  1.00  0.00     0.004 A 
ATOM     17  C   UNL A   1      30.568  22.797  26.575  1.00  0.00     0.000 A 
ATOM     18  C   UNL A   1      30.396  24.822  25.346  1.00  0.00     0.004 A 
ATOM     19  C   UNL A   1      29.972  24.020  26.398  1.00  0.00     0.000 A 
BRANCH  15  20
ATOM     20  C   UNL A   1      33.112  22.441  23.711  1.00  0.00    -0.013 C 
ATOM     21  C   UNL A   1      33.755  21.226  24.459  1.00  0.00     0.016 C 
ATOM     22  C   UNL A   1      34.344  23.198  23.203  1.00  0.00     0.016 C 
ATOM     23  C   UNL A   1      32.360  21.898  22.473  1.00  0.00     0.016 C 
ENDBRANCH  15  20
ENDBRANCH   8  14
ENDBRANCH   4   7
ENDBRANCH   2   3
ENDBRANCH   1   2
BRANCH   1  24
ATOM     24  C   UNL A   1      32.954  29.986  26.384  1.00  0.00     0.118 C 
BRANCH  24  25
ATOM     25  N   UNL A   1      32.890  31.392  26.745  1.00  0.00    -0.352 N 
ATOM     26  C   UNL A   1      33.734  32.118  27.555  1.00  0.00     0.251 C 
ATOM     27  H   UNL A   1      32.138  31.896  26.357  1.00  0.00     0.163 HD
ATOM     28  O   UNL A   1      33.422  33.249  27.902  1.00  0.00    -0.269 OA
BRANCH  26  29
ATOM     29  C   UNL A   1      34.996  31.504  28.031  1.00  0.00     0.039 A 
ATOM     30  C   UNL A   1      36.162  32.274  28.042  1.00  0.00     0.014 A 
ATOM     31  C   UNL A   1      35.025  30.186  28.493  1.00  0.00     0.014 A 
ATOM     32  C   UNL A   1      37.335  31.744  28.586  1.00  0.00     0.010 A 
ATOM     33  C   UNL A   1      36.166  29.696  29.124  1.00  0.00     0.010 A 
ATOM     34  C   UNL A   1      37.337  30.467  29.172  1.00  0.00    -0.014 A 
BRANCH  34  35
ATOM     35  C   UNL A   1      38.557  29.917  29.826  1.00  0.00     0.031 A 
ATOM     36  C   UNL A   1      38.958  30.396  31.196  1.00  0.00     0.074 A 
ATOM     37  C   UNL A   1      39.331  29.031  29.168  1.00  0.00     0.049 A 
ATOM     38  N   UNL A   1      40.015  30.089  31.905  1.00  0.00    -0.248 NA
ATOM     39  C   UNL A   1      38.070  31.375  31.841  1.00  0.00     0.031 C 
ATOM     40  C   UNL A   1      39.072  28.521  27.818  1.00  0.00     0.029 A 
ATOM     41  N   UNL A   1      40.494  28.401  29.539  1.00  0.00    -0.354 N 
ATOM     42  C   UNL A   1      39.924  30.844  33.070  1.00  0.00     0.074 A 
ATOM     43  C   UNL A   1      38.747  31.676  32.937  1.00  0.00     0.031 C 
ATOM     44  C   UNL A   1      40.027  27.635  27.492  1.00  0.00     0.029 A 
ATOM     45  C   UNL A   1      40.995  27.549  28.581  1.00  0.00     0.049 A 
ATOM     46  H   UNL A   1      40.929  28.547  30.409  1.00  0.00     0.167 HD
ATOM     47  C   UNL A   1      40.730  30.826  34.161  1.00  0.00     0.034 A 
ATOM     48  C   UNL A   1      42.111  26.793  28.575  1.00  0.00     0.034 A 
ATOM     49  C   UNL A   1      41.893  29.981  34.282  1.00  0.00     0.049 A 
ATOM     50  C   UNL A   1      43.009  26.811  29.787  1.00  0.00     0.074 A 
ATOM     51  C   UNL A   1      42.750  29.846  35.361  1.00  0.00     0.029 A 
ATOM     52  N   UNL A   1      42.370  29.135  33.289  1.00  0.00    -0.354 N 
ATOM     53  N   UNL A   1      42.880  27.494  30.901  1.00  0.00    -0.248 NA
ATOM     54  C   UNL A   1      44.197  25.949  29.744  1.00  0.00     0.031 C 
ATOM     55  C   UNL A   1      43.785  28.980  34.993  1.00  0.00     0.029 A 
ATOM     56  C   UNL A   1      43.527  28.502  33.719  1.00  0.00     0.049 A 
ATOM     57  H   UNL A   1      41.950  29.005  32.409  1.00  0.00     0.167 HD
ATOM     58  C   UNL A   1      43.950  27.112  31.707  1.00  0.00     0.074 A 
ATOM     59  C   UNL A   1      44.705  26.131  30.954  1.00  0.00     0.031 C 
ATOM     60  C   UNL A   1      44.276  27.529  32.957  1.00  0.00     0.034 A 
BRANCH  47  61
ATOM     61  C   UNL A   1      40.387  31.765  35.295  1.00  0.00     0.023 A 
ATOM     62  C   UNL A   1      39.425  31.433  36.267  1.00  0.00     0.031 A 
ATOM     63  C   UNL A   1      41.010  33.022  35.394  1.00  0.00     0.131 A 
ATOM     64  C   UNL A   1      39.057  32.372  37.241  1.00  0.00     0.055 A 
ATOM     65  C   UNL A   1      40.704  33.918  36.420  1.00  0.00     0.041 A 
ATOM     66  F   UNL A   1      41.920  33.407  34.486  1.00  0.00    -0.206 F 
ATOM     67  C   UNL A   1      39.710  33.602  37.342  1.00  0.00     0.022 A 
BRANCH  64  68
ATOM     68  S   UNL A   1      37.608  32.025  38.275  1.00  0.00     0.124 S 
ATOM     69  O   UNL A   1      38.147  32.231  39.617  1.00  0.00    -0.237 OA
ATOM     70  O   UNL A   1      36.647  33.022  37.814  1.00  0.00    -0.237 OA
ATOM     71  O   UNL A   1      37.277  30.640  37.949  1.00  0.00    -0.744 OA
ENDBRANCH  64  68
ENDBRANCH  47  61
BRANCH  48  72
ATOM     72  C   UNL A   1      42.456  25.959  27.385  1.00  0.00     0.023 A 
ATOM     73  C   UNL A   1      42.071  24.611  27.308  1.00  0.00     0.031 A 
ATOM     74  C   UNL A   1      43.220  26.485  26.328  1.00  0.00     0.131 A 
ATOM     75  C   UNL A   1      42.493  23.823  26.226  1.00  0.00     0.055 A 
ATOM     76  C   UNL A   1      43.586  25.712  25.224  1.00  0.00     0.041 A 
ATOM     77  F   UNL A   1      43.613  27.769  26.346  1.00  0.00    -0.206 F 
ATOM     78  C   UNL A   1      43.235  24.368  25.176  1.00  0.00     0.022 A 
BRANCH  75  79
ATOM     79  S   UNL A   1      42.138  22.043  26.258  1.00  0.00     0.124 S 
ATOM     80  O   UNL A   1      40.694  22.025  26.059  1.00  0.00    -0.237 OA
ATOM     81  O   UNL A   1      42.947  21.553  25.147  1.00  0.00    -0.237 OA
ATOM     82  O   UNL A   1      42.591  21.631  27.585  1.00  0.00    -0.744 OA
ENDBRANCH  75  79
ENDBRANCH  48  72
BRANCH  60  83
ATOM     83  C   UNL A   1      45.474  26.880  33.610  1.00  0.00     0.023 A 
ATOM     84  C   UNL A   1      45.351  25.743  34.427  1.00  0.00     0.031 A 
ATOM     85  C   UNL A   1      46.758  27.419  33.416  1.00  0.00     0.131 A 
ATOM     86  C   UNL A   1      46.485  25.219  35.068  1.00  0.00     0.055 A 
ATOM     87  C   UNL A   1      47.892  26.851  34.000  1.00  0.00     0.041 A 
ATOM     88  F   UNL A   1      46.936  28.506  32.649  1.00  0.00    -0.206 F 
ATOM     89  C   UNL A   1      47.756  25.753  34.844  1.00  0.00     0.022 A 
BRANCH  86  90
ATOM     90  S   UNL A   1      46.261  23.889  36.282  1.00  0.00     0.124 S 
ATOM     91  O   UNL A   1      44.807  23.792  36.361  1.00  0.00    -0.237 OA
ATOM     92  O   UNL A   1      46.942  22.767  35.647  1.00  0.00    -0.237 OA
ATOM     93  O   UNL A   1      46.912  24.409  37.484  1.00  0.00    -0.744 OA
ENDBRANCH  86  90
ENDBRANCH  60  83
ENDBRANCH  34  35
ENDBRANCH  26  29
ENDBRANCH  24  25
ENDBRANCH   1  24
TORSDOF 15
ENDMDL
