MODEL 1
REMARK VINA RESULT:     -10.8      0.000      0.000
REMARK SMILES CC1(C)C(CNC(=O)[C@H]2C[C@H]2C(=O)NCCCNC(=O)c2ccc(-c3c4nc(c(-c5cc(S(=O)(=O)[O-])ccc5F)c5ccc([nH]5)c(-c5cc(S(=O)(=O)[O-])ccc5F)c5nc(c(-c6cc(S(=O)(=O)[O-])ccc6F)c6ccc3[nH]6)C=C5)C=C4)cc2)C1(C)C
REMARK SMILES IDX 16 1 15 2 14 3 12 4 13 5 11 7 9 8 10 9 7 10 6 11 8 13 5 14
REMARK SMILES IDX 4 15 1 16 2 17 3 18 84 19 85 20 86 21 17 22 18 23 19 24
REMARK SMILES IDX 20 26 21 27 22 28 83 29 23 30 82 31 24 32 25 33 26 34 76 35
REMARK SMILES IDX 27 36 81 37 75 38 77 39 28 40 80 41 74 42 73 43 29 45 61 46
REMARK SMILES IDX 41 47 60 48 42 49 45 50 59 51 78 52 43 53 44 54 58 56 79 57
REMARK SMILES IDX 46 58 30 59 31 60 39 61 32 62 38 63 40 64 37 65 33 66 34 67
REMARK SMILES IDX 35 68 36 69 62 70 63 71 71 72 64 73 70 74 72 75 69 76 65 77
REMARK SMILES IDX 66 78 67 79 68 80 47 81 48 82 56 83 49 84 55 85 57 86 54 87
REMARK SMILES IDX 50 88 51 89 52 90 53 91
REMARK H PARENT 14 6 6 12 18 25 77 44 45 55
REMARK Flexibility Score: inf
ROOT
ATOM      1  C   UNL A   1      34.681  34.597  27.805  1.00  0.00     0.042 C 
ENDROOT
BRANCH   1   2
ATOM      2  C   UNL A   1      33.390  34.857  28.576  1.00  0.00     0.117 C 
BRANCH   2   3
ATOM      3  N   UNL A   1      33.392  36.132  29.265  1.00  0.00    -0.356 N 
ATOM      4  C   UNL A   1      32.884  36.581  30.451  1.00  0.00     0.223 C 
ATOM      5  O   UNL A   1      32.998  37.786  30.682  1.00  0.00    -0.275 OA
ATOM      6  H   UNL A   1      33.868  36.835  28.766  1.00  0.00     0.163 HD
BRANCH   4   7
ATOM      7  C   UNL A   1      32.302  35.742  31.531  1.00  0.00     0.091 C 
ATOM      8  C   UNL A   1      32.877  35.619  32.931  1.00  0.00     0.091 C 
ATOM      9  C   UNL A   1      31.480  36.156  32.709  1.00  0.00     0.028 C 
BRANCH   8  10
ATOM     10  C   UNL A   1      34.027  36.443  33.366  1.00  0.00     0.223 C 
ATOM     11  N   UNL A   1      35.282  35.906  33.321  1.00  0.00    -0.356 N 
ATOM     12  H   UNL A   1      36.007  36.498  33.627  1.00  0.00     0.163 HD
ATOM     13  O   UNL A   1      33.868  37.614  33.692  1.00  0.00    -0.275 OA
BRANCH  11  14
ATOM     14  C   UNL A   1      35.695  34.592  32.887  1.00  0.00     0.120 C 
BRANCH  14  15
ATOM     15  C   UNL A   1      37.129  34.618  32.458  1.00  0.00     0.021 C 
ATOM     16  C   UNL A   1      39.617  34.241  33.156  1.00  0.00     0.012 C 
ATOM     17  C   UNL A   1      38.225  33.667  32.952  1.00  0.00    -0.025 C 
ATOM     18  C   UNL A   1      37.916  32.581  33.958  1.00  0.00     0.012 C 
ATOM     19  C   UNL A   1      37.688  33.568  31.506  1.00  0.00    -0.025 C 
ATOM     20  C   UNL A   1      38.528  34.084  30.355  1.00  0.00     0.012 C 
ATOM     21  C   UNL A   1      36.837  32.389  31.087  1.00  0.00     0.012 C 
ENDBRANCH  14  15
ENDBRANCH  11  14
ENDBRANCH   8  10
ENDBRANCH   4   7
ENDBRANCH   2   3
ENDBRANCH   1   2
BRANCH   1  22
ATOM     22  C   UNL A   1      35.293  33.221  28.024  1.00  0.00     0.118 C 
BRANCH  22  23
ATOM     23  N   UNL A   1      34.387  32.138  27.674  1.00  0.00    -0.352 N 
ATOM     24  C   UNL A   1      34.601  30.783  27.590  1.00  0.00     0.251 C 
ATOM     25  H   UNL A   1      33.469  32.422  27.461  1.00  0.00     0.163 HD
ATOM     26  O   UNL A   1      33.735  30.079  27.072  1.00  0.00    -0.269 OA
BRANCH  24  27
ATOM     27  C   UNL A   1      35.859  30.168  28.081  1.00  0.00     0.039 A 
ATOM     28  C   UNL A   1      37.007  30.263  27.286  1.00  0.00     0.014 A 
ATOM     29  C   UNL A   1      35.917  29.469  29.288  1.00  0.00     0.014 A 
ATOM     30  C   UNL A   1      38.215  29.720  27.735  1.00  0.00     0.010 A 
ATOM     31  C   UNL A   1      37.142  29.016  29.779  1.00  0.00     0.010 A 
ATOM     32  C   UNL A   1      38.306  29.126  29.005  1.00  0.00    -0.014 A 
BRANCH  32  33
ATOM     33  C   UNL A   1      39.603  28.610  29.522  1.00  0.00     0.031 A 
ATOM     34  C   UNL A   1      40.292  29.293  30.676  1.00  0.00     0.074 A 
ATOM     35  C   UNL A   1      40.184  27.549  28.925  1.00  0.00     0.049 A 
ATOM     36  N   UNL A   1      41.437  29.008  31.245  1.00  0.00    -0.248 NA
ATOM     37  C   UNL A   1      39.619  30.469  31.245  1.00  0.00     0.031 C 
ATOM     38  C   UNL A   1      39.644  26.830  27.770  1.00  0.00     0.029 A 
ATOM     39  N   UNL A   1      41.355  26.888  29.206  1.00  0.00    -0.354 N 
ATOM     40  C   UNL A   1      41.626  29.974  32.228  1.00  0.00     0.074 A 
ATOM     41  C   UNL A   1      40.511  30.890  32.131  1.00  0.00     0.031 C 
ATOM     42  C   UNL A   1      40.458  25.806  27.467  1.00  0.00     0.029 A 
ATOM     43  C   UNL A   1      41.603  25.822  28.371  1.00  0.00     0.049 A 
ATOM     44  H   UNL A   1      41.960  27.151  29.936  1.00  0.00     0.167 HD
ATOM     45  C   UNL A   1      42.623  30.075  33.144  1.00  0.00     0.034 A 
ATOM     46  C   UNL A   1      42.638  24.959  28.331  1.00  0.00     0.034 A 
ATOM     47  C   UNL A   1      43.725  29.145  33.236  1.00  0.00     0.049 A 
ATOM     48  C   UNL A   1      43.742  25.100  29.350  1.00  0.00     0.074 A 
ATOM     49  C   UNL A   1      44.757  29.122  34.157  1.00  0.00     0.029 A 
ATOM     50  N   UNL A   1      43.945  28.082  32.370  1.00  0.00    -0.354 N 
ATOM     51  N   UNL A   1      43.873  25.985  30.312  1.00  0.00    -0.248 NA
ATOM     52  C   UNL A   1      44.826  24.113  29.286  1.00  0.00     0.031 C 
ATOM     53  C   UNL A   1      45.639  28.094  33.805  1.00  0.00     0.029 A 
ATOM     54  C   UNL A   1      45.113  27.417  32.716  1.00  0.00     0.049 A 
ATOM     55  H   UNL A   1      43.358  27.834  31.619  1.00  0.00     0.167 HD
ATOM     56  C   UNL A   1      45.040  25.637  30.988  1.00  0.00     0.074 A 
ATOM     57  C   UNL A   1      45.557  24.451  30.338  1.00  0.00     0.031 C 
ATOM     58  C   UNL A   1      45.630  26.243  32.052  1.00  0.00     0.034 A 
BRANCH  45  59
ATOM     59  C   UNL A   1      42.576  31.247  34.099  1.00  0.00     0.023 A 
ATOM     60  C   UNL A   1      41.696  31.276  35.195  1.00  0.00     0.031 A 
ATOM     61  C   UNL A   1      43.406  32.365  33.896  1.00  0.00     0.131 A 
ATOM     62  C   UNL A   1      41.610  32.425  35.997  1.00  0.00     0.055 A 
ATOM     63  C   UNL A   1      43.376  33.470  34.749  1.00  0.00     0.041 A 
ATOM     64  F   UNL A   1      44.253  32.408  32.855  1.00  0.00    -0.206 F 
ATOM     65  C   UNL A   1      42.463  33.512  35.798  1.00  0.00     0.022 A 
BRANCH  62  66
ATOM     66  S   UNL A   1      40.262  32.538  37.207  1.00  0.00     0.124 S 
ATOM     67  O   UNL A   1      40.990  32.441  38.470  1.00  0.00    -0.237 OA
ATOM     68  O   UNL A   1      39.676  33.839  36.906  1.00  0.00    -0.237 OA
ATOM     69  O   UNL A   1      39.421  31.386  36.890  1.00  0.00    -0.744 OA
ENDBRANCH  62  66
ENDBRANCH  45  59
BRANCH  46  70
ATOM     70  C   UNL A   1      42.691  23.884  27.298  1.00  0.00     0.023 A 
ATOM     71  C   UNL A   1      41.809  22.791  27.344  1.00  0.00     0.031 A 
ATOM     72  C   UNL A   1      43.658  23.905  26.278  1.00  0.00     0.131 A 
ATOM     73  C   UNL A   1      41.947  21.740  26.423  1.00  0.00     0.055 A 
ATOM     74  C   UNL A   1      43.754  22.886  25.328  1.00  0.00     0.041 A 
ATOM     75  F   UNL A   1      44.524  24.927  26.183  1.00  0.00    -0.206 F 
ATOM     76  C   UNL A   1      42.904  21.787  25.407  1.00  0.00     0.022 A 
BRANCH  73  77
ATOM     77  S   UNL A   1      40.915  20.262  26.630  1.00  0.00     0.124 S 
ATOM     78  O   UNL A   1      41.005  20.035  28.067  1.00  0.00    -0.237 OA
ATOM     79  O   UNL A   1      39.623  20.723  26.132  1.00  0.00    -0.237 OA
ATOM     80  O   UNL A   1      41.580  19.264  25.796  1.00  0.00    -0.744 OA
ENDBRANCH  73  77
ENDBRANCH  46  70
BRANCH  58  81
ATOM     81  C   UNL A   1      46.880  25.592  32.601  1.00  0.00     0.023 A 
ATOM     82  C   UNL A   1      46.832  24.662  33.654  1.00  0.00     0.031 A 
ATOM     83  C   UNL A   1      48.143  25.940  32.088  1.00  0.00     0.131 A 
ATOM     84  C   UNL A   1      48.023  24.177  34.215  1.00  0.00     0.055 A 
ATOM     85  C   UNL A   1      49.321  25.395  32.599  1.00  0.00     0.041 A 
ATOM     86  F   UNL A   1      48.254  26.826  31.084  1.00  0.00    -0.206 F 
ATOM     87  C   UNL A   1      49.266  24.523  33.683  1.00  0.00     0.022 A 
BRANCH  84  88
ATOM     88  S   UNL A   1      47.930  23.193  35.737  1.00  0.00     0.124 S 
ATOM     89  O   UNL A   1      48.537  24.091  36.715  1.00  0.00    -0.237 OA
ATOM     90  O   UNL A   1      46.494  22.975  35.879  1.00  0.00    -0.237 OA
ATOM     91  O   UNL A   1      48.712  22.000  35.422  1.00  0.00    -0.744 OA
ENDBRANCH  84  88
ENDBRANCH  58  81
ENDBRANCH  32  33
ENDBRANCH  24  27
ENDBRANCH  22  23
ENDBRANCH   1  22
TORSDOF 16
ENDMDL
MODEL 2
REMARK VINA RESULT:     -10.8      6.680     11.327
REMARK SMILES CC1(C)C(CNC(=O)[C@H]2C[C@H]2C(=O)NCCCNC(=O)c2ccc(-c3c4nc(c(-c5cc(S(=O)(=O)[O-])ccc5F)c5ccc([nH]5)c(-c5cc(S(=O)(=O)[O-])ccc5F)c5nc(c(-c6cc(S(=O)(=O)[O-])ccc6F)c6ccc3[nH]6)C=C5)C=C4)cc2)C1(C)C
REMARK SMILES IDX 16 1 15 2 14 3 12 4 13 5 11 7 9 8 10 9 7 10 6 11 8 13 5 14
REMARK SMILES IDX 4 15 1 16 2 17 3 18 84 19 85 20 86 21 17 22 18 23 19 24
REMARK SMILES IDX 20 26 21 27 22 28 83 29 23 30 82 31 24 32 25 33 26 34 76 35
REMARK SMILES IDX 27 36 81 37 75 38 77 39 28 40 80 41 74 42 73 43 29 45 61 46
REMARK SMILES IDX 41 47 60 48 42 49 45 50 59 51 78 52 43 53 44 54 58 56 79 57
REMARK SMILES IDX 46 58 30 59 31 60 39 61 32 62 38 63 40 64 37 65 33 66 34 67
REMARK SMILES IDX 35 68 36 69 62 70 63 71 71 72 64 73 70 74 72 75 69 76 65 77
REMARK SMILES IDX 66 78 67 79 68 80 47 81 48 82 56 83 49 84 55 85 57 86 54 87
REMARK SMILES IDX 50 88 51 89 52 90 53 91
REMARK H PARENT 14 6 6 12 18 25 77 44 45 55
REMARK Flexibility Score: inf
ROOT
ATOM      1  C   UNL A   1      38.259  19.844  25.033  1.00  0.00     0.042 C 
ENDROOT
BRANCH   1   2
ATOM      2  C   UNL A   1      37.407  21.033  24.599  1.00  0.00     0.117 C 
BRANCH   2   3
ATOM      3  N   UNL A   1      37.526  22.168  25.493  1.00  0.00    -0.356 N 
ATOM      4  C   UNL A   1      36.776  23.284  25.727  1.00  0.00     0.223 C 
ATOM      5  O   UNL A   1      37.241  24.108  26.517  1.00  0.00    -0.275 OA
ATOM      6  H   UNL A   1      38.329  22.123  26.060  1.00  0.00     0.163 HD
BRANCH   4   7
ATOM      7  C   UNL A   1      35.412  23.552  25.202  1.00  0.00     0.091 C 
ATOM      8  C   UNL A   1      34.195  22.691  25.488  1.00  0.00     0.091 C 
ATOM      9  C   UNL A   1      34.230  24.145  25.902  1.00  0.00     0.028 C 
BRANCH   8  10
ATOM     10  C   UNL A   1      34.260  21.553  26.433  1.00  0.00     0.223 C 
ATOM     11  N   UNL A   1      34.143  20.281  25.949  1.00  0.00    -0.356 N 
ATOM     12  H   UNL A   1      34.189  19.566  26.624  1.00  0.00     0.163 HD
ATOM     13  O   UNL A   1      34.492  21.742  27.621  1.00  0.00    -0.275 OA
BRANCH  11  14
ATOM     14  C   UNL A   1      33.960  19.839  24.587  1.00  0.00     0.120 C 
BRANCH  14  15
ATOM     15  C   UNL A   1      34.348  18.399  24.456  1.00  0.00     0.021 C 
ATOM     16  C   UNL A   1      34.339  16.034  25.562  1.00  0.00     0.012 C 
ATOM     17  C   UNL A   1      33.553  17.208  25.004  1.00  0.00    -0.025 C 
ATOM     18  C   UNL A   1      32.256  17.419  25.753  1.00  0.00     0.012 C 
ATOM     19  C   UNL A   1      33.630  17.472  23.483  1.00  0.00    -0.025 C 
ATOM     20  C   UNL A   1      34.510  16.599  22.612  1.00  0.00     0.012 C 
ATOM     21  C   UNL A   1      32.408  17.956  22.731  1.00  0.00     0.012 C 
ENDBRANCH  14  15
ENDBRANCH  11  14
ENDBRANCH   8  10
ENDBRANCH   4   7
ENDBRANCH   2   3
ENDBRANCH   1   2
BRANCH   1  22
ATOM     22  C   UNL A   1      39.346  20.169  26.047  1.00  0.00     0.118 C 
BRANCH  22  23
ATOM     23  N   UNL A   1      40.439  19.208  26.031  1.00  0.00    -0.352 N 
ATOM     24  C   UNL A   1      41.800  19.399  26.069  1.00  0.00     0.251 C 
ATOM     25  H   UNL A   1      40.158  18.266  25.982  1.00  0.00     0.163 HD
ATOM     26  O   UNL A   1      42.538  18.443  25.835  1.00  0.00    -0.269 OA
BRANCH  24  27
ATOM     27  C   UNL A   1      42.385  20.733  26.355  1.00  0.00     0.039 A 
ATOM     28  C   UNL A   1      42.727  21.560  25.281  1.00  0.00     0.014 A 
ATOM     29  C   UNL A   1      42.636  21.164  27.660  1.00  0.00     0.014 A 
ATOM     30  C   UNL A   1      43.252  22.834  25.518  1.00  0.00     0.010 A 
ATOM     31  C   UNL A   1      43.066  22.470  27.897  1.00  0.00     0.010 A 
ATOM     32  C   UNL A   1      43.389  23.319  26.829  1.00  0.00    -0.014 A 
BRANCH  32  33
ATOM     33  C   UNL A   1      43.879  24.701  27.091  1.00  0.00     0.031 A 
ATOM     34  C   UNL A   1      42.946  25.753  27.635  1.00  0.00     0.074 A 
ATOM     35  C   UNL A   1      45.157  25.022  26.800  1.00  0.00     0.049 A 
ATOM     36  N   UNL A   1      43.181  27.014  27.900  1.00  0.00    -0.248 NA
ATOM     37  C   UNL A   1      41.557  25.339  27.885  1.00  0.00     0.031 C 
ATOM     38  C   UNL A   1      46.146  24.108  26.225  1.00  0.00     0.029 A 
ATOM     39  N   UNL A   1      45.845  26.201  26.949  1.00  0.00    -0.354 N 
ATOM     40  C   UNL A   1      41.971  27.544  28.335  1.00  0.00     0.074 A 
ATOM     41  C   UNL A   1      40.991  26.485  28.233  1.00  0.00     0.031 C 
ATOM     42  C   UNL A   1      47.321  24.748  26.107  1.00  0.00     0.029 A 
ATOM     43  C   UNL A   1      47.160  26.129  26.550  1.00  0.00     0.049 A 
ATOM     44  H   UNL A   1      45.435  27.022  27.307  1.00  0.00     0.167 HD
ATOM     45  C   UNL A   1      41.705  28.792  28.800  1.00  0.00     0.034 A 
ATOM     46  C   UNL A   1      48.127  27.069  26.535  1.00  0.00     0.034 A 
ATOM     47  C   UNL A   1      42.697  29.837  28.906  1.00  0.00     0.049 A 
ATOM     48  C   UNL A   1      47.804  28.452  27.044  1.00  0.00     0.074 A 
ATOM     49  C   UNL A   1      42.550  31.116  29.413  1.00  0.00     0.029 A 
ATOM     50  N   UNL A   1      44.018  29.728  28.488  1.00  0.00    -0.354 N 
ATOM     51  N   UNL A   1      46.668  28.919  27.509  1.00  0.00    -0.248 NA
ATOM     52  C   UNL A   1      48.901  29.427  27.040  1.00  0.00     0.031 C 
ATOM     53  C   UNL A   1      43.756  31.802  29.233  1.00  0.00     0.029 A 
ATOM     54  C   UNL A   1      44.686  30.927  28.696  1.00  0.00     0.049 A 
ATOM     55  H   UNL A   1      44.422  28.919  28.101  1.00  0.00     0.167 HD
ATOM     56  C   UNL A   1      46.926  30.236  27.884  1.00  0.00     0.074 A 
ATOM     57  C   UNL A   1      48.329  30.475  27.614  1.00  0.00     0.031 C 
ATOM     58  C   UNL A   1      46.081  31.162  28.408  1.00  0.00     0.034 A 
BRANCH  45  59
ATOM     59  C   UNL A   1      40.280  29.097  29.203  1.00  0.00     0.023 A 
ATOM     60  C   UNL A   1      39.875  29.105  30.549  1.00  0.00     0.031 A 
ATOM     61  C   UNL A   1      39.304  29.359  28.224  1.00  0.00     0.131 A 
ATOM     62  C   UNL A   1      38.521  29.290  30.875  1.00  0.00     0.055 A 
ATOM     63  C   UNL A   1      37.975  29.628  28.560  1.00  0.00     0.041 A 
ATOM     64  F   UNL A   1      39.622  29.345  26.920  1.00  0.00    -0.206 F 
ATOM     65  C   UNL A   1      37.574  29.579  29.891  1.00  0.00     0.022 A 
BRANCH  62  66
ATOM     66  S   UNL A   1      37.994  28.996  32.586  1.00  0.00     0.124 S 
ATOM     67  O   UNL A   1      36.647  29.562  32.582  1.00  0.00    -0.237 OA
ATOM     68  O   UNL A   1      38.077  27.545  32.698  1.00  0.00    -0.237 OA
ATOM     69  O   UNL A   1      38.972  29.740  33.377  1.00  0.00    -0.744 OA
ENDBRANCH  62  66
ENDBRANCH  45  59
BRANCH  46  70
ATOM     70  C   UNL A   1      49.492  26.747  26.026  1.00  0.00     0.023 A 
ATOM     71  C   UNL A   1      49.903  27.156  24.746  1.00  0.00     0.031 A 
ATOM     72  C   UNL A   1      50.390  25.981  26.791  1.00  0.00     0.131 A 
ATOM     73  C   UNL A   1      51.152  26.751  24.249  1.00  0.00     0.055 A 
ATOM     74  C   UNL A   1      51.654  25.631  26.314  1.00  0.00     0.041 A 
ATOM     75  F   UNL A   1      50.051  25.568  28.023  1.00  0.00    -0.206 F 
ATOM     76  C   UNL A   1      52.036  26.004  25.030  1.00  0.00     0.022 A 
BRANCH  73  77
ATOM     77  S   UNL A   1      51.568  27.139  22.525  1.00  0.00     0.124 S 
ATOM     78  O   UNL A   1      50.292  26.917  21.854  1.00  0.00    -0.237 OA
ATOM     79  O   UNL A   1      52.009  28.526  22.625  1.00  0.00    -0.237 OA
ATOM     80  O   UNL A   1      52.619  26.175  22.206  1.00  0.00    -0.744 OA
ENDBRANCH  73  77
ENDBRANCH  46  70
BRANCH  58  81
ATOM     81  C   UNL A   1      46.678  32.505  28.763  1.00  0.00     0.023 A 
ATOM     82  C   UNL A   1      46.670  33.584  27.862  1.00  0.00     0.031 A 
ATOM     83  C   UNL A   1      47.301  32.695  30.010  1.00  0.00     0.131 A 
ATOM     84  C   UNL A   1      47.344  34.772  28.184  1.00  0.00     0.055 A 
ATOM     85  C   UNL A   1      47.903  33.905  30.356  1.00  0.00     0.041 A 
ATOM     86  F   UNL A   1      47.344  31.701  30.913  1.00  0.00    -0.206 F 
ATOM     87  C   UNL A   1      47.944  34.946  29.433  1.00  0.00     0.022 A 
BRANCH  84  88
ATOM     88  S   UNL A   1      47.541  36.036  26.898  1.00  0.00     0.124 S 
ATOM     89  O   UNL A   1      48.189  35.282  25.829  1.00  0.00    -0.237 OA
ATOM     90  O   UNL A   1      46.162  36.441  26.645  1.00  0.00    -0.237 OA
ATOM     91  O   UNL A   1      48.378  37.049  27.538  1.00  0.00    -0.744 OA
ENDBRANCH  84  88
ENDBRANCH  58  81
ENDBRANCH  32  33
ENDBRANCH  24  27
ENDBRANCH  22  23
ENDBRANCH   1  22
TORSDOF 16
ENDMDL
MODEL 3
REMARK VINA RESULT:     -10.7      2.971      6.010
REMARK SMILES CC1(C)C(CNC(=O)[C@H]2C[C@H]2C(=O)NCCCNC(=O)c2ccc(-c3c4nc(c(-c5cc(S(=O)(=O)[O-])ccc5F)c5ccc([nH]5)c(-c5cc(S(=O)(=O)[O-])ccc5F)c5nc(c(-c6cc(S(=O)(=O)[O-])ccc6F)c6ccc3[nH]6)C=C5)C=C4)cc2)C1(C)C
REMARK SMILES IDX 16 1 15 2 14 3 12 4 13 5 11 7 9 8 10 9 7 10 6 11 8 13 5 14
REMARK SMILES IDX 4 15 1 16 2 17 3 18 84 19 85 20 86 21 17 22 18 23 19 24
REMARK SMILES IDX 20 26 21 27 22 28 83 29 23 30 82 31 24 32 25 33 26 34 76 35
REMARK SMILES IDX 27 36 81 37 75 38 77 39 28 40 80 41 74 42 73 43 29 45 61 46
REMARK SMILES IDX 41 47 60 48 42 49 45 50 59 51 78 52 43 53 44 54 58 56 79 57
REMARK SMILES IDX 46 58 30 59 31 60 39 61 32 62 38 63 40 64 37 65 33 66 34 67
REMARK SMILES IDX 35 68 36 69 62 70 63 71 71 72 64 73 70 74 72 75 69 76 65 77
REMARK SMILES IDX 66 78 67 79 68 80 47 81 48 82 56 83 49 84 55 85 57 86 54 87
REMARK SMILES IDX 50 88 51 89 52 90 53 91
REMARK H PARENT 14 6 6 12 18 25 77 44 45 55
REMARK Flexibility Score: inf
ROOT
ATOM      1  C   UNL A   1      31.767  28.796  27.120  1.00  0.00     0.042 C 
ENDROOT
BRANCH   1   2
ATOM      2  C   UNL A   1      31.466  27.633  26.179  1.00  0.00     0.117 C 
BRANCH   2   3
ATOM      3  N   UNL A   1      31.092  28.068  24.847  1.00  0.00    -0.356 N 
ATOM      4  C   UNL A   1      31.785  28.475  23.743  1.00  0.00     0.223 C 
ATOM      5  O   UNL A   1      31.118  28.872  22.786  1.00  0.00    -0.275 OA
ATOM      6  H   UNL A   1      30.118  28.069  24.707  1.00  0.00     0.163 HD
BRANCH   4   7
ATOM      7  C   UNL A   1      33.255  28.388  23.547  1.00  0.00     0.091 C 
ATOM      8  C   UNL A   1      33.973  27.202  22.929  1.00  0.00     0.091 C 
ATOM      9  C   UNL A   1      34.054  28.573  22.297  1.00  0.00     0.028 C 
BRANCH   8  10
ATOM     10  C   UNL A   1      33.224  26.062  22.354  1.00  0.00     0.223 C 
ATOM     11  N   UNL A   1      33.024  24.947  23.118  1.00  0.00    -0.356 N 
ATOM     12  H   UNL A   1      32.523  24.219  22.682  1.00  0.00     0.163 HD
ATOM     13  O   UNL A   1      32.724  26.143  21.238  1.00  0.00    -0.275 OA
BRANCH  11  14
ATOM     14  C   UNL A   1      33.443  24.686  24.475  1.00  0.00     0.120 C 
BRANCH  14  15
ATOM     15  C   UNL A   1      34.897  24.325  24.504  1.00  0.00     0.021 C 
ATOM     16  C   UNL A   1      37.019  23.959  25.980  1.00  0.00     0.012 C 
ATOM     17  C   UNL A   1      35.600  23.549  25.623  1.00  0.00    -0.025 C 
ATOM     18  C   UNL A   1      34.835  23.069  26.836  1.00  0.00     0.012 C 
ATOM     19  C   UNL A   1      35.362  22.899  24.241  1.00  0.00    -0.025 C 
ATOM     20  C   UNL A   1      36.519  22.737  23.276  1.00  0.00     0.012 C 
ATOM     21  C   UNL A   1      34.350  21.783  24.087  1.00  0.00     0.012 C 
ENDBRANCH  14  15
ENDBRANCH  11  14
ENDBRANCH   8  10
ENDBRANCH   4   7
ENDBRANCH   2   3
ENDBRANCH   1   2
BRANCH   1  22
ATOM     22  C   UNL A   1      33.211  29.276  27.107  1.00  0.00     0.118 C 
BRANCH  22  23
ATOM     23  N   UNL A   1      33.334  30.702  27.370  1.00  0.00    -0.352 N 
ATOM     24  C   UNL A   1      34.297  31.407  28.051  1.00  0.00     0.251 C 
ATOM     25  H   UNL A   1      32.606  31.253  27.000  1.00  0.00     0.163 HD
ATOM     26  O   UNL A   1      34.084  32.587  28.324  1.00  0.00    -0.269 OA
BRANCH  24  27
ATOM     27  C   UNL A   1      35.563  30.765  28.484  1.00  0.00     0.039 A 
ATOM     28  C   UNL A   1      36.749  31.109  27.827  1.00  0.00     0.014 A 
ATOM     29  C   UNL A   1      35.594  29.803  29.496  1.00  0.00     0.014 A 
ATOM     30  C   UNL A   1      37.962  30.544  28.232  1.00  0.00     0.010 A 
ATOM     31  C   UNL A   1      36.815  29.316  29.964  1.00  0.00     0.010 A 
ATOM     32  C   UNL A   1      38.014  29.671  29.332  1.00  0.00    -0.014 A 
BRANCH  32  33
ATOM     33  C   UNL A   1      39.310  29.120  29.816  1.00  0.00     0.031 A 
ATOM     34  C   UNL A   1      40.010  29.740  30.999  1.00  0.00     0.074 A 
ATOM     35  C   UNL A   1      39.880  28.085  29.165  1.00  0.00     0.049 A 
ATOM     36  N   UNL A   1      41.155  29.418  31.548  1.00  0.00    -0.248 NA
ATOM     37  C   UNL A   1      39.349  30.892  31.629  1.00  0.00     0.031 C 
ATOM     38  C   UNL A   1      39.328  27.428  27.978  1.00  0.00     0.029 A 
ATOM     39  N   UNL A   1      41.047  27.402  29.407  1.00  0.00    -0.354 N 
ATOM     40  C   UNL A   1      41.356  30.333  32.576  1.00  0.00     0.074 A 
ATOM     41  C   UNL A   1      40.248  31.262  32.529  1.00  0.00     0.031 C 
ATOM     42  C   UNL A   1      40.133  26.414  27.621  1.00  0.00     0.029 A 
ATOM     43  C   UNL A   1      41.283  26.377  28.519  1.00  0.00     0.049 A 
ATOM     44  H   UNL A   1      41.657  27.625  30.146  1.00  0.00     0.167 HD
ATOM     45  C   UNL A   1      42.359  30.381  33.490  1.00  0.00     0.034 A 
ATOM     46  C   UNL A   1      42.311  25.509  28.431  1.00  0.00     0.034 A 
ATOM     47  C   UNL A   1      43.454  29.440  33.531  1.00  0.00     0.049 A 
ATOM     48  C   UNL A   1      43.420  25.591  29.450  1.00  0.00     0.074 A 
ATOM     49  C   UNL A   1      44.490  29.364  34.445  1.00  0.00     0.029 A 
ATOM     50  N   UNL A   1      43.661  28.419  32.612  1.00  0.00    -0.354 N 
ATOM     51  N   UNL A   1      43.563  26.427  30.454  1.00  0.00    -0.248 NA
ATOM     52  C   UNL A   1      44.496  24.600  29.333  1.00  0.00     0.031 C 
ATOM     53  C   UNL A   1      45.362  28.348  34.037  1.00  0.00     0.029 A 
ATOM     54  C   UNL A   1      44.826  27.729  32.919  1.00  0.00     0.049 A 
ATOM     55  H   UNL A   1      43.069  28.213  31.853  1.00  0.00     0.167 HD
ATOM     56  C   UNL A   1      44.731  26.037  31.106  1.00  0.00     0.074 A 
ATOM     57  C   UNL A   1      45.235  24.880  30.396  1.00  0.00     0.031 C 
ATOM     58  C   UNL A   1      45.331  26.585  32.196  1.00  0.00     0.034 A 
BRANCH  45  59
ATOM     59  C   UNL A   1      42.326  31.505  34.502  1.00  0.00     0.023 A 
ATOM     60  C   UNL A   1      41.414  31.513  35.572  1.00  0.00     0.031 A 
ATOM     61  C   UNL A   1      43.202  32.599  34.380  1.00  0.00     0.131 A 
ATOM     62  C   UNL A   1      41.345  32.624  36.429  1.00  0.00     0.055 A 
ATOM     63  C   UNL A   1      43.187  33.662  35.288  1.00  0.00     0.041 A 
ATOM     64  F   UNL A   1      44.081  32.662  33.368  1.00  0.00    -0.206 F 
ATOM     65  C   UNL A   1      42.244  33.685  36.310  1.00  0.00     0.022 A 
BRANCH  62  66
ATOM     66  S   UNL A   1      39.966  32.728  37.603  1.00  0.00     0.124 S 
ATOM     67  O   UNL A   1      39.425  34.053  37.307  1.00  0.00    -0.237 OA
ATOM     68  O   UNL A   1      39.133  31.596  37.214  1.00  0.00    -0.237 OA
ATOM     69  O   UNL A   1      40.616  32.606  38.906  1.00  0.00    -0.744 OA
ENDBRANCH  62  66
ENDBRANCH  45  59
BRANCH  46  70
ATOM     70  C   UNL A   1      42.351  24.485  27.347  1.00  0.00     0.023 A 
ATOM     71  C   UNL A   1      41.575  23.316  27.425  1.00  0.00     0.031 A 
ATOM     72  C   UNL A   1      43.203  24.635  26.239  1.00  0.00     0.131 A 
ATOM     73  C   UNL A   1      41.708  22.320  26.445  1.00  0.00     0.055 A 
ATOM     74  C   UNL A   1      43.288  23.668  25.236  1.00  0.00     0.041 A 
ATOM     75  F   UNL A   1      43.963  25.735  26.111  1.00  0.00    -0.206 F 
ATOM     76  C   UNL A   1      42.548  22.495  25.343  1.00  0.00     0.022 A 
BRANCH  73  77
ATOM     77  S   UNL A   1      40.833  20.748  26.679  1.00  0.00     0.124 S 
ATOM     78  O   UNL A   1      39.518  21.055  26.129  1.00  0.00    -0.237 OA
ATOM     79  O   UNL A   1      41.655  19.826  25.902  1.00  0.00    -0.237 OA
ATOM     80  O   UNL A   1      40.876  20.548  28.126  1.00  0.00    -0.744 OA
ENDBRANCH  73  77
ENDBRANCH  46  70
BRANCH  58  81
ATOM     81  C   UNL A   1      46.578  25.898  32.705  1.00  0.00     0.023 A 
ATOM     82  C   UNL A   1      46.518  24.836  33.624  1.00  0.00     0.031 A 
ATOM     83  C   UNL A   1      47.848  26.343  32.295  1.00  0.00     0.131 A 
ATOM     84  C   UNL A   1      47.701  24.311  34.166  1.00  0.00     0.055 A 
ATOM     85  C   UNL A   1      49.021  25.764  32.779  1.00  0.00     0.041 A 
ATOM     86  F   UNL A   1      47.970  27.356  31.422  1.00  0.00    -0.206 F 
ATOM     87  C   UNL A   1      48.953  24.755  33.735  1.00  0.00     0.022 A 
BRANCH  84  88
ATOM     88  S   UNL A   1      47.580  23.133  35.540  1.00  0.00     0.124 S 
ATOM     89  O   UNL A   1      48.932  23.170  36.090  1.00  0.00    -0.237 OA
ATOM     90  O   UNL A   1      46.539  23.729  36.371  1.00  0.00    -0.237 OA
ATOM     91  O   UNL A   1      47.211  21.879  34.886  1.00  0.00    -0.744 OA
ENDBRANCH  84  88
ENDBRANCH  58  81
ENDBRANCH  32  33
ENDBRANCH  24  27
ENDBRANCH  22  23
ENDBRANCH   1  22
TORSDOF 16
ENDMDL
