MODEL 1
REMARK VINA RESULT:     -11.2      0.000      0.000
REMARK SMILES CC[C@](C)(Nc1cccc(Br)c1)C(=O)NCCCNC(=O)c1ccc(-c2c3nc(c(-c4cc(S(=O)(=O)[O-])ccc4F)c4ccc([nH]4)c(-c4cc(S(=O)(=O)[O-])ccc4F)c4nc(c(-c5cc(S(=O)(=O)[O-])ccc5F)c5ccc2[nH]5)C=C4)C=C3)cc1
REMARK SMILES IDX 17 1 16 2 15 3 13 4 14 5 3 7 4 8 2 9 1 10 5 11 6 13 7 14
REMARK SMILES IDX 12 15 8 16 10 17 9 18 11 19 18 20 19 21 20 22 21 24 22 25
REMARK SMILES IDX 23 26 84 27 24 28 83 29 25 30 26 31 27 32 77 33 28 34 82 35
REMARK SMILES IDX 76 36 78 37 29 38 81 39 75 40 74 41 30 43 62 44 42 45 61 46
REMARK SMILES IDX 43 47 46 48 60 49 79 50 44 51 45 52 59 54 80 55 47 56 31 57
REMARK SMILES IDX 32 58 40 59 33 60 39 61 41 62 38 63 34 64 35 65 36 66 37 67
REMARK SMILES IDX 63 68 64 69 72 70 65 71 71 72 73 73 70 74 66 75 67 76 68 77
REMARK SMILES IDX 69 78 48 79 49 80 57 81 50 82 56 83 58 84 55 85 51 86 52 87
REMARK SMILES IDX 53 88 54 89
REMARK H PARENT 15 6 5 12 19 23 78 42 46 53
REMARK Flexibility Score: inf
ROOT
ATOM      1  C   UNL A   1      31.715  28.232  25.976  1.00  0.00     0.042 C 
ENDROOT
BRANCH   1   2
ATOM      2  C   UNL A   1      32.273  26.876  26.393  1.00  0.00     0.117 C 
BRANCH   2   3
ATOM      3  N   UNL A   1      31.280  25.902  26.817  1.00  0.00    -0.354 N 
ATOM      4  C   UNL A   1      31.095  24.583  26.509  1.00  0.00     0.245 C 
ATOM      5  O   UNL A   1      30.169  24.019  27.105  1.00  0.00    -0.272 OA
ATOM      6  H   UNL A   1      30.613  26.261  27.446  1.00  0.00     0.163 HD
BRANCH   4   7
ATOM      7  C   UNL A   1      31.997  23.815  25.494  1.00  0.00     0.113 C 
ATOM      8  C   UNL A   1      31.276  23.752  24.128  1.00  0.00     0.045 C 
BRANCH   7   9
ATOM      9  C   UNL A   1      32.262  22.382  26.081  1.00  0.00     0.035 C 
ATOM     10  C   UNL A   1      31.993  21.177  25.189  1.00  0.00     0.007 C 
ENDBRANCH   7   9
BRANCH   7  11
ATOM     11  N   UNL A   1      33.314  24.455  25.230  1.00  0.00    -0.371 N 
ATOM     12  H   UNL A   1      33.331  25.432  25.355  1.00  0.00     0.161 HD
BRANCH  11  13
ATOM     13  C   UNL A   1      34.523  23.898  24.837  1.00  0.00     0.036 A 
ATOM     14  C   UNL A   1      34.749  23.220  23.635  1.00  0.00     0.026 A 
ATOM     15  C   UNL A   1      35.645  24.108  25.657  1.00  0.00     0.041 A 
ATOM     16  C   UNL A   1      36.041  22.868  23.214  1.00  0.00     0.003 A 
ATOM     17  C   UNL A   1      36.929  23.710  25.265  1.00  0.00     0.020 A 
ATOM     18  C   UNL A   1      37.138  23.120  24.027  1.00  0.00     0.016 A 
ATOM     19  Br  UNL A   1      38.394  23.986  26.428  1.00  0.00    -0.051 Br
ENDBRANCH  11  13
ENDBRANCH   7  11
ENDBRANCH   4   7
ENDBRANCH   2   3
ENDBRANCH   1   2
BRANCH   1  20
ATOM     20  C   UNL A   1      32.759  29.290  25.640  1.00  0.00     0.118 C 
BRANCH  20  21
ATOM     21  N   UNL A   1      32.336  30.630  26.019  1.00  0.00    -0.352 N 
ATOM     22  C   UNL A   1      32.868  31.476  26.963  1.00  0.00     0.251 C 
ATOM     23  H   UNL A   1      31.558  30.980  25.529  1.00  0.00     0.163 HD
ATOM     24  O   UNL A   1      32.251  32.488  27.281  1.00  0.00    -0.269 OA
BRANCH  22  25
ATOM     25  C   UNL A   1      34.161  31.156  27.614  1.00  0.00     0.039 A 
ATOM     26  C   UNL A   1      35.089  32.183  27.814  1.00  0.00     0.014 A 
ATOM     27  C   UNL A   1      34.470  29.851  28.006  1.00  0.00     0.014 A 
ATOM     28  C   UNL A   1      36.296  31.913  28.467  1.00  0.00     0.010 A 
ATOM     29  C   UNL A   1      35.647  29.597  28.712  1.00  0.00     0.010 A 
ATOM     30  C   UNL A   1      36.573  30.625  28.953  1.00  0.00    -0.014 A 
BRANCH  30  31
ATOM     31  C   UNL A   1      37.820  30.331  29.712  1.00  0.00     0.031 A 
ATOM     32  C   UNL A   1      38.860  29.413  29.131  1.00  0.00     0.074 A 
ATOM     33  C   UNL A   1      37.991  30.840  30.949  1.00  0.00     0.049 A 
ATOM     34  N   UNL A   1      39.954  28.947  29.677  1.00  0.00    -0.248 NA
ATOM     35  C   UNL A   1      38.624  28.939  27.759  1.00  0.00     0.031 C 
ATOM     36  C   UNL A   1      37.053  31.734  31.631  1.00  0.00     0.029 A 
ATOM     37  N   UNL A   1      39.004  30.667  31.861  1.00  0.00    -0.354 N 
ATOM     38  C   UNL A   1      40.532  28.116  28.723  1.00  0.00     0.074 A 
ATOM     39  C   UNL A   1      39.637  28.103  27.585  1.00  0.00     0.031 C 
ATOM     40  C   UNL A   1      37.541  32.041  32.844  1.00  0.00     0.029 A 
ATOM     41  C   UNL A   1      38.795  31.323  33.053  1.00  0.00     0.049 A 
ATOM     42  H   UNL A   1      39.806  30.126  31.679  1.00  0.00     0.167 HD
ATOM     43  C   UNL A   1      41.707  27.440  28.785  1.00  0.00     0.034 A 
ATOM     44  C   UNL A   1      39.514  31.326  34.195  1.00  0.00     0.034 A 
ATOM     45  C   UNL A   1      42.592  27.465  29.925  1.00  0.00     0.049 A 
ATOM     46  C   UNL A   1      40.787  30.518  34.264  1.00  0.00     0.074 A 
ATOM     47  C   UNL A   1      43.823  26.850  30.073  1.00  0.00     0.029 A 
ATOM     48  N   UNL A   1      42.337  28.130  31.119  1.00  0.00    -0.354 N 
ATOM     49  N   UNL A   1      41.335  29.760  33.341  1.00  0.00    -0.248 NA
ATOM     50  C   UNL A   1      41.543  30.570  35.522  1.00  0.00     0.031 C 
ATOM     51  C   UNL A   1      44.276  27.077  31.376  1.00  0.00     0.029 A 
ATOM     52  C   UNL A   1      43.372  27.910  32.015  1.00  0.00     0.049 A 
ATOM     53  H   UNL A   1      41.540  28.677  31.300  1.00  0.00     0.167 HD
ATOM     54  C   UNL A   1      42.519  29.282  33.897  1.00  0.00     0.074 A 
ATOM     55  C   UNL A   1      42.607  29.837  35.231  1.00  0.00     0.031 C 
ATOM     56  C   UNL A   1      43.454  28.468  33.345  1.00  0.00     0.034 A 
BRANCH  43  57
ATOM     57  C   UNL A   1      42.084  26.587  27.595  1.00  0.00     0.023 A 
ATOM     58  C   UNL A   1      41.917  25.192  27.602  1.00  0.00     0.031 A 
ATOM     59  C   UNL A   1      42.633  27.178  26.442  1.00  0.00     0.131 A 
ATOM     60  C   UNL A   1      42.362  24.428  26.513  1.00  0.00     0.055 A 
ATOM     61  C   UNL A   1      42.994  26.420  25.327  1.00  0.00     0.041 A 
ATOM     62  F   UNL A   1      42.837  28.503  26.383  1.00  0.00    -0.206 F 
ATOM     63  C   UNL A   1      42.875  25.034  25.365  1.00  0.00     0.022 A 
BRANCH  60  64
ATOM     64  S   UNL A   1      42.399  22.622  26.681  1.00  0.00     0.124 S 
ATOM     65  O   UNL A   1      41.491  22.412  27.807  1.00  0.00    -0.237 OA
ATOM     66  O   UNL A   1      41.917  22.175  25.379  1.00  0.00    -0.237 OA
ATOM     67  O   UNL A   1      43.804  22.332  26.961  1.00  0.00    -0.744 OA
ENDBRANCH  60  64
ENDBRANCH  43  57
BRANCH  44  68
ATOM     68  C   UNL A   1      39.042  32.098  35.383  1.00  0.00     0.023 A 
ATOM     69  C   UNL A   1      38.431  31.453  36.470  1.00  0.00     0.031 A 
ATOM     70  C   UNL A   1      39.153  33.499  35.426  1.00  0.00     0.131 A 
ATOM     71  C   UNL A   1      37.910  32.211  37.531  1.00  0.00     0.055 A 
ATOM     72  C   UNL A   1      38.687  34.244  36.510  1.00  0.00     0.041 A 
ATOM     73  F   UNL A   1      39.728  34.167  34.413  1.00  0.00    -0.206 F 
ATOM     74  C   UNL A   1      38.048  33.600  37.566  1.00  0.00     0.022 A 
BRANCH  71  75
ATOM     75  S   UNL A   1      36.965  31.360  38.823  1.00  0.00     0.124 S 
ATOM     76  O   UNL A   1      37.846  31.502  39.976  1.00  0.00    -0.237 OA
ATOM     77  O   UNL A   1      35.731  32.140  38.858  1.00  0.00    -0.237 OA
ATOM     78  O   UNL A   1      36.827  30.001  38.306  1.00  0.00    -0.744 OA
ENDBRANCH  71  75
ENDBRANCH  44  68
BRANCH  56  79
ATOM     79  C   UNL A   1      44.695  28.181  34.157  1.00  0.00     0.023 A 
ATOM     80  C   UNL A   1      44.796  27.066  35.006  1.00  0.00     0.031 A 
ATOM     81  C   UNL A   1      45.808  29.037  34.056  1.00  0.00     0.131 A 
ATOM     82  C   UNL A   1      45.968  26.857  35.748  1.00  0.00     0.055 A 
ATOM     83  C   UNL A   1      46.991  28.793  34.753  1.00  0.00     0.041 A 
ATOM     84  F   UNL A   1      45.766  30.120  33.262  1.00  0.00    -0.206 F 
ATOM     85  C   UNL A   1      47.073  27.702  35.613  1.00  0.00     0.022 A 
BRANCH  82  86
ATOM     86  S   UNL A   1      46.014  25.499  36.951  1.00  0.00     0.124 S 
ATOM     87  O   UNL A   1      45.981  24.325  36.084  1.00  0.00    -0.237 OA
ATOM     88  O   UNL A   1      47.271  25.740  37.649  1.00  0.00    -0.237 OA
ATOM     89  O   UNL A   1      44.811  25.709  37.754  1.00  0.00    -0.744 OA
ENDBRANCH  82  86
ENDBRANCH  56  79
ENDBRANCH  30  31
ENDBRANCH  22  25
ENDBRANCH  20  21
ENDBRANCH   1  20
TORSDOF 16
ENDMDL
MODEL 2
REMARK VINA RESULT:     -11.1      2.548      8.408
REMARK SMILES CC[C@](C)(Nc1cccc(Br)c1)C(=O)NCCCNC(=O)c1ccc(-c2c3nc(c(-c4cc(S(=O)(=O)[O-])ccc4F)c4ccc([nH]4)c(-c4cc(S(=O)(=O)[O-])ccc4F)c4nc(c(-c5cc(S(=O)(=O)[O-])ccc5F)c5ccc2[nH]5)C=C4)C=C3)cc1
REMARK SMILES IDX 17 1 16 2 15 3 13 4 14 5 3 7 4 8 2 9 1 10 5 11 6 13 7 14
REMARK SMILES IDX 12 15 8 16 10 17 9 18 11 19 18 20 19 21 20 22 21 24 22 25
REMARK SMILES IDX 23 26 84 27 24 28 83 29 25 30 26 31 27 32 77 33 28 34 82 35
REMARK SMILES IDX 76 36 78 37 29 38 81 39 75 40 74 41 30 43 62 44 42 45 61 46
REMARK SMILES IDX 43 47 46 48 60 49 79 50 44 51 45 52 59 54 80 55 47 56 31 57
REMARK SMILES IDX 32 58 40 59 33 60 39 61 41 62 38 63 34 64 35 65 36 66 37 67
REMARK SMILES IDX 63 68 64 69 72 70 65 71 71 72 73 73 70 74 66 75 67 76 68 77
REMARK SMILES IDX 69 78 48 79 49 80 57 81 50 82 56 83 58 84 55 85 51 86 52 87
REMARK SMILES IDX 53 88 54 89
REMARK H PARENT 15 6 5 12 19 23 78 42 46 53
REMARK Flexibility Score: inf
ROOT
ATOM      1  C   UNL A   1      31.510  32.199  26.739  1.00  0.00     0.042 C 
ENDROOT
BRANCH   1   2
ATOM      2  C   UNL A   1      31.551  30.818  26.093  1.00  0.00     0.117 C 
BRANCH   2   3
ATOM      3  N   UNL A   1      31.393  29.701  27.011  1.00  0.00    -0.354 N 
ATOM      4  C   UNL A   1      31.932  28.445  27.031  1.00  0.00     0.245 C 
ATOM      5  O   UNL A   1      31.630  27.750  28.009  1.00  0.00    -0.272 OA
ATOM      6  H   UNL A   1      30.781  29.884  27.760  1.00  0.00     0.163 HD
BRANCH   4   7
ATOM      7  C   UNL A   1      32.888  27.914  25.919  1.00  0.00     0.113 C 
ATOM      8  C   UNL A   1      33.211  26.429  26.201  1.00  0.00     0.045 C 
BRANCH   7   9
ATOM      9  C   UNL A   1      34.181  28.806  25.936  1.00  0.00     0.035 C 
ATOM     10  C   UNL A   1      34.752  29.222  27.285  1.00  0.00     0.007 C 
ENDBRANCH   7   9
BRANCH   7  11
ATOM     11  N   UNL A   1      32.319  27.953  24.545  1.00  0.00    -0.371 N 
ATOM     12  H   UNL A   1      32.961  28.192  23.838  1.00  0.00     0.161 HD
BRANCH  11  13
ATOM     13  C   UNL A   1      31.028  27.707  24.098  1.00  0.00     0.036 A 
ATOM     14  C   UNL A   1      30.295  26.541  24.344  1.00  0.00     0.026 A 
ATOM     15  C   UNL A   1      30.353  28.740  23.425  1.00  0.00     0.041 A 
ATOM     16  C   UNL A   1      28.928  26.448  24.040  1.00  0.00     0.003 A 
ATOM     17  C   UNL A   1      29.002  28.630  23.072  1.00  0.00     0.020 A 
ATOM     18  C   UNL A   1      28.275  27.498  23.409  1.00  0.00     0.016 A 
ATOM     19  Br  UNL A   1      28.159  30.040  22.136  1.00  0.00    -0.051 Br
ENDBRANCH  11  13
ENDBRANCH   7  11
ENDBRANCH   4   7
ENDBRANCH   2   3
ENDBRANCH   1   2
BRANCH   1  20
ATOM     20  C   UNL A   1      32.867  32.779  27.121  1.00  0.00     0.118 C 
BRANCH  20  21
ATOM     21  N   UNL A   1      32.763  34.124  27.665  1.00  0.00    -0.352 N 
ATOM     22  C   UNL A   1      33.425  34.685  28.733  1.00  0.00     0.251 C 
ATOM     23  H   UNL A   1      32.129  34.718  27.203  1.00  0.00     0.163 HD
ATOM     24  O   UNL A   1      33.057  35.773  29.165  1.00  0.00    -0.269 OA
BRANCH  22  25
ATOM     25  C   UNL A   1      34.553  33.970  29.375  1.00  0.00     0.039 A 
ATOM     26  C   UNL A   1      34.276  33.019  30.361  1.00  0.00     0.014 A 
ATOM     27  C   UNL A   1      35.878  34.248  29.027  1.00  0.00     0.014 A 
ATOM     28  C   UNL A   1      35.323  32.299  30.949  1.00  0.00     0.010 A 
ATOM     29  C   UNL A   1      36.914  33.486  29.569  1.00  0.00     0.010 A 
ATOM     30  C   UNL A   1      36.649  32.501  30.534  1.00  0.00    -0.014 A 
BRANCH  30  31
ATOM     31  C   UNL A   1      37.770  31.698  31.096  1.00  0.00     0.031 A 
ATOM     32  C   UNL A   1      38.300  31.998  32.471  1.00  0.00     0.074 A 
ATOM     33  C   UNL A   1      38.353  30.740  30.347  1.00  0.00     0.049 A 
ATOM     34  N   UNL A   1      39.335  31.492  33.091  1.00  0.00    -0.248 NA
ATOM     35  C   UNL A   1      37.581  33.023  33.243  1.00  0.00     0.031 C 
ATOM     36  C   UNL A   1      37.941  30.359  28.995  1.00  0.00     0.029 A 
ATOM     37  N   UNL A   1      39.425  29.922  30.608  1.00  0.00    -0.354 N 
ATOM     38  C   UNL A   1      39.400  32.141  34.319  1.00  0.00     0.074 A 
ATOM     39  C   UNL A   1      38.329  33.116  34.331  1.00  0.00     0.031 C 
ATOM     40  C   UNL A   1      38.741  29.375  28.552  1.00  0.00     0.029 A 
ATOM     41  C   UNL A   1      39.758  29.093  29.561  1.00  0.00     0.049 A 
ATOM     42  H   UNL A   1      39.910  29.927  31.465  1.00  0.00     0.167 HD
ATOM     43  C   UNL A   1      40.263  31.932  35.346  1.00  0.00     0.034 A 
ATOM     44  C   UNL A   1      40.780  28.224  29.416  1.00  0.00     0.034 A 
ATOM     45  C   UNL A   1      41.323  30.954  35.321  1.00  0.00     0.049 A 
ATOM     46  C   UNL A   1      41.764  28.051  30.548  1.00  0.00     0.074 A 
ATOM     47  C   UNL A   1      42.224  30.635  36.322  1.00  0.00     0.029 A 
ATOM     48  N   UNL A   1      41.637  30.143  34.236  1.00  0.00    -0.354 N 
ATOM     49  N   UNL A   1      41.794  28.653  31.715  1.00  0.00    -0.248 NA
ATOM     50  C   UNL A   1      42.848  27.079  30.347  1.00  0.00     0.031 C 
ATOM     51  C   UNL A   1      43.127  29.693  35.820  1.00  0.00     0.029 A 
ATOM     52  C   UNL A   1      42.736  29.354  34.535  1.00  0.00     0.049 A 
ATOM     53  H   UNL A   1      41.149  30.132  33.382  1.00  0.00     0.167 HD
ATOM     54  C   UNL A   1      42.873  28.100  32.400  1.00  0.00     0.074 A 
ATOM     55  C   UNL A   1      43.467  27.117  31.518  1.00  0.00     0.031 C 
ATOM     56  C   UNL A   1      43.323  28.373  33.651  1.00  0.00     0.034 A 
BRANCH  43  57
ATOM     57  C   UNL A   1      40.113  32.806  36.570  1.00  0.00     0.023 A 
ATOM     58  C   UNL A   1      39.289  32.438  37.646  1.00  0.00     0.031 A 
ATOM     59  C   UNL A   1      40.796  34.034  36.655  1.00  0.00     0.131 A 
ATOM     60  C   UNL A   1      39.107  33.318  38.724  1.00  0.00     0.055 A 
ATOM     61  C   UNL A   1      40.679  34.866  37.770  1.00  0.00     0.041 A 
ATOM     62  F   UNL A   1      41.581  34.450  35.650  1.00  0.00    -0.206 F 
ATOM     63  C   UNL A   1      39.817  34.517  38.806  1.00  0.00     0.022 A 
BRANCH  60  64
ATOM     64  S   UNL A   1      37.818  32.940  39.943  1.00  0.00     0.124 S 
ATOM     65  O   UNL A   1      37.868  34.121  40.800  1.00  0.00    -0.237 OA
ATOM     66  O   UNL A   1      36.628  32.803  39.111  1.00  0.00    -0.237 OA
ATOM     67  O   UNL A   1      38.289  31.705  40.567  1.00  0.00    -0.744 OA
ENDBRANCH  60  64
ENDBRANCH  43  57
BRANCH  44  68
ATOM     68  C   UNL A   1      40.950  27.463  28.143  1.00  0.00     0.023 A 
ATOM     69  C   UNL A   1      40.662  26.090  28.074  1.00  0.00     0.031 A 
ATOM     70  C   UNL A   1      41.448  28.090  26.987  1.00  0.00     0.131 A 
ATOM     71  C   UNL A   1      40.920  25.380  26.892  1.00  0.00     0.055 A 
ATOM     72  C   UNL A   1      41.647  27.391  25.795  1.00  0.00     0.041 A 
ATOM     73  F   UNL A   1      41.740  29.400  26.996  1.00  0.00    -0.206 F 
ATOM     74  C   UNL A   1      41.396  26.023  25.747  1.00  0.00     0.022 A 
BRANCH  71  75
ATOM     75  S   UNL A   1      40.714  23.578  26.899  1.00  0.00     0.124 S 
ATOM     76  O   UNL A   1      39.302  23.440  26.560  1.00  0.00    -0.237 OA
ATOM     77  O   UNL A   1      41.665  23.160  25.874  1.00  0.00    -0.237 OA
ATOM     78  O   UNL A   1      41.067  23.200  28.265  1.00  0.00    -0.744 OA
ENDBRANCH  71  75
ENDBRANCH  44  68
BRANCH  56  79
ATOM     79  C   UNL A   1      44.474  27.547  34.174  1.00  0.00     0.023 A 
ATOM     80  C   UNL A   1      44.281  26.312  34.818  1.00  0.00     0.031 A 
ATOM     81  C   UNL A   1      45.794  28.001  33.998  1.00  0.00     0.131 A 
ATOM     82  C   UNL A   1      45.387  25.595  35.297  1.00  0.00     0.055 A 
ATOM     83  C   UNL A   1      46.893  27.257  34.426  1.00  0.00     0.041 A 
ATOM     84  F   UNL A   1      46.037  29.175  33.393  1.00  0.00    -0.206 F 
ATOM     85  C   UNL A   1      46.693  26.049  35.088  1.00  0.00     0.022 A 
BRANCH  82  86
ATOM     86  S   UNL A   1      45.101  24.083  36.259  1.00  0.00     0.124 S 
ATOM     87  O   UNL A   1      44.001  23.462  35.528  1.00  0.00    -0.237 OA
ATOM     88  O   UNL A   1      46.389  23.405  36.168  1.00  0.00    -0.237 OA
ATOM     89  O   UNL A   1      44.757  24.582  37.590  1.00  0.00    -0.744 OA
ENDBRANCH  82  86
ENDBRANCH  56  79
ENDBRANCH  30  31
ENDBRANCH  22  25
ENDBRANCH  20  21
ENDBRANCH   1  20
TORSDOF 16
ENDMDL
MODEL 3
REMARK VINA RESULT:     -11.1      5.895     10.791
REMARK SMILES CC[C@](C)(Nc1cccc(Br)c1)C(=O)NCCCNC(=O)c1ccc(-c2c3nc(c(-c4cc(S(=O)(=O)[O-])ccc4F)c4ccc([nH]4)c(-c4cc(S(=O)(=O)[O-])ccc4F)c4nc(c(-c5cc(S(=O)(=O)[O-])ccc5F)c5ccc2[nH]5)C=C4)C=C3)cc1
REMARK SMILES IDX 17 1 16 2 15 3 13 4 14 5 3 7 4 8 2 9 1 10 5 11 6 13 7 14
REMARK SMILES IDX 12 15 8 16 10 17 9 18 11 19 18 20 19 21 20 22 21 24 22 25
REMARK SMILES IDX 23 26 84 27 24 28 83 29 25 30 26 31 27 32 77 33 28 34 82 35
REMARK SMILES IDX 76 36 78 37 29 38 81 39 75 40 74 41 30 43 62 44 42 45 61 46
REMARK SMILES IDX 43 47 46 48 60 49 79 50 44 51 45 52 59 54 80 55 47 56 31 57
REMARK SMILES IDX 32 58 40 59 33 60 39 61 41 62 38 63 34 64 35 65 36 66 37 67
REMARK SMILES IDX 63 68 64 69 72 70 65 71 71 72 73 73 70 74 66 75 67 76 68 77
REMARK SMILES IDX 69 78 48 79 49 80 57 81 50 82 56 83 58 84 55 85 51 86 52 87
REMARK SMILES IDX 53 88 54 89
REMARK H PARENT 15 6 5 12 19 23 78 42 46 53
REMARK Flexibility Score: inf
ROOT
ATOM      1  C   UNL A   1      37.616  20.586  25.033  1.00  0.00     0.042 C 
ENDROOT
BRANCH   1   2
ATOM      2  C   UNL A   1      36.411  21.498  25.232  1.00  0.00     0.117 C 
BRANCH   2   3
ATOM      3  N   UNL A   1      35.908  22.132  24.024  1.00  0.00    -0.354 N 
ATOM      4  C   UNL A   1      34.687  22.658  23.702  1.00  0.00     0.245 C 
ATOM      5  O   UNL A   1      34.612  23.188  22.586  1.00  0.00    -0.272 OA
ATOM      6  H   UNL A   1      36.572  22.195  23.301  1.00  0.00     0.163 HD
BRANCH   4   7
ATOM      7  C   UNL A   1      33.466  22.623  24.671  1.00  0.00     0.113 C 
ATOM      8  C   UNL A   1      32.220  23.156  23.927  1.00  0.00     0.045 C 
BRANCH   7   9
ATOM      9  C   UNL A   1      33.823  23.507  25.919  1.00  0.00     0.035 C 
ATOM     10  C   UNL A   1      33.820  25.021  25.755  1.00  0.00     0.007 C 
ENDBRANCH   7   9
BRANCH   7  11
ATOM     11  N   UNL A   1      33.100  21.265  25.156  1.00  0.00    -0.371 N 
ATOM     12  H   UNL A   1      32.914  21.208  26.121  1.00  0.00     0.161 HD
BRANCH  11  13
ATOM     13  C   UNL A   1      32.978  20.066  24.468  1.00  0.00     0.036 A 
ATOM     14  C   UNL A   1      32.252  19.881  23.288  1.00  0.00     0.026 A 
ATOM     15  C   UNL A   1      33.717  18.962  24.928  1.00  0.00     0.041 A 
ATOM     16  C   UNL A   1      32.344  18.697  22.539  1.00  0.00     0.003 A 
ATOM     17  C   UNL A   1      33.769  17.760  24.211  1.00  0.00     0.020 A 
ATOM     18  C   UNL A   1      33.111  17.634  22.997  1.00  0.00     0.016 A 
ATOM     19  Br  UNL A   1      34.751  16.298  24.899  1.00  0.00    -0.051 Br
ENDBRANCH  11  13
ENDBRANCH   7  11
ENDBRANCH   4   7
ENDBRANCH   2   3
ENDBRANCH   1   2
BRANCH   1  20
ATOM     20  C   UNL A   1      38.870  20.987  25.801  1.00  0.00     0.118 C 
BRANCH  20  21
ATOM     21  N   UNL A   1      39.829  19.898  25.907  1.00  0.00    -0.352 N 
ATOM     22  C   UNL A   1      41.191  19.953  26.090  1.00  0.00     0.251 C 
ATOM     23  H   UNL A   1      39.449  18.993  25.838  1.00  0.00     0.163 HD
ATOM     24  O   UNL A   1      41.859  18.932  25.953  1.00  0.00    -0.269 OA
BRANCH  22  25
ATOM     25  C   UNL A   1      41.852  21.238  26.421  1.00  0.00     0.039 A 
ATOM     26  C   UNL A   1      42.185  22.113  25.383  1.00  0.00     0.014 A 
ATOM     27  C   UNL A   1      42.164  21.572  27.742  1.00  0.00     0.014 A 
ATOM     28  C   UNL A   1      42.768  23.351  25.675  1.00  0.00     0.010 A 
ATOM     29  C   UNL A   1      42.688  22.832  28.036  1.00  0.00     0.010 A 
ATOM     30  C   UNL A   1      42.994  23.737  27.006  1.00  0.00    -0.014 A 
BRANCH  30  31
ATOM     31  C   UNL A   1      43.549  25.077  27.343  1.00  0.00     0.031 A 
ATOM     32  C   UNL A   1      42.657  26.140  27.926  1.00  0.00     0.074 A 
ATOM     33  C   UNL A   1      44.839  25.359  27.070  1.00  0.00     0.049 A 
ATOM     34  N   UNL A   1      42.921  27.395  28.182  1.00  0.00    -0.248 NA
ATOM     35  C   UNL A   1      41.278  25.739  28.240  1.00  0.00     0.031 C 
ATOM     36  C   UNL A   1      45.805  24.422  26.495  1.00  0.00     0.029 A 
ATOM     37  N   UNL A   1      45.557  26.521  27.223  1.00  0.00    -0.354 N 
ATOM     38  C   UNL A   1      41.740  27.940  28.677  1.00  0.00     0.074 A 
ATOM     39  C   UNL A   1      40.747  26.887  28.633  1.00  0.00     0.031 C 
ATOM     40  C   UNL A   1      46.989  25.039  26.358  1.00  0.00     0.029 A 
ATOM     41  C   UNL A   1      46.857  26.431  26.779  1.00  0.00     0.049 A 
ATOM     42  H   UNL A   1      45.178  27.341  27.616  1.00  0.00     0.167 HD
ATOM     43  C   UNL A   1      41.512  29.195  29.139  1.00  0.00     0.034 A 
ATOM     44  C   UNL A   1      47.825  27.367  26.692  1.00  0.00     0.034 A 
ATOM     45  C   UNL A   1      42.513  30.233  29.180  1.00  0.00     0.049 A 
ATOM     46  C   UNL A   1      47.531  28.774  27.155  1.00  0.00     0.074 A 
ATOM     47  C   UNL A   1      42.396  31.524  29.666  1.00  0.00     0.029 A 
ATOM     48  N   UNL A   1      43.814  30.107  28.707  1.00  0.00    -0.354 N 
ATOM     49  N   UNL A   1      46.416  29.264  27.647  1.00  0.00    -0.248 NA
ATOM     50  C   UNL A   1      48.624  29.750  27.058  1.00  0.00     0.031 C 
ATOM     51  C   UNL A   1      43.595  32.200  29.418  1.00  0.00     0.029 A 
ATOM     52  C   UNL A   1      44.494  31.306  28.859  1.00  0.00     0.049 A 
ATOM     53  H   UNL A   1      44.197  29.287  28.321  1.00  0.00     0.167 HD
ATOM     54  C   UNL A   1      46.691  30.595  27.956  1.00  0.00     0.074 A 
ATOM     55  C   UNL A   1      48.074  30.829  27.597  1.00  0.00     0.031 C 
ATOM     56  C   UNL A   1      45.875  31.532  28.500  1.00  0.00     0.034 A 
BRANCH  43  57
ATOM     57  C   UNL A   1      40.111  29.522  29.604  1.00  0.00     0.023 A 
ATOM     58  C   UNL A   1      39.781  29.590  30.968  1.00  0.00     0.031 A 
ATOM     59  C   UNL A   1      39.087  29.756  28.668  1.00  0.00     0.131 A 
ATOM     60  C   UNL A   1      38.451  29.808  31.357  1.00  0.00     0.055 A 
ATOM     61  C   UNL A   1      37.783  30.058  29.062  1.00  0.00     0.041 A 
ATOM     62  F   UNL A   1      39.335  29.685  27.351  1.00  0.00    -0.206 F 
ATOM     63  C   UNL A   1      37.455  30.070  30.415  1.00  0.00     0.022 A 
BRANCH  60  64
ATOM     64  S   UNL A   1      38.016  29.598  33.106  1.00  0.00     0.124 S 
ATOM     65  O   UNL A   1      39.334  29.559  33.735  1.00  0.00    -0.237 OA
ATOM     66  O   UNL A   1      37.213  30.785  33.375  1.00  0.00    -0.237 OA
ATOM     67  O   UNL A   1      37.286  28.332  33.127  1.00  0.00    -0.744 OA
ENDBRANCH  60  64
ENDBRANCH  43  57
BRANCH  44  68
ATOM     68  C   UNL A   1      49.161  27.022  26.122  1.00  0.00     0.023 A 
ATOM     69  C   UNL A   1      49.513  27.404  24.817  1.00  0.00     0.031 A 
ATOM     70  C   UNL A   1      50.087  26.262  26.859  1.00  0.00     0.131 A 
ATOM     71  C   UNL A   1      50.736  26.984  24.272  1.00  0.00     0.055 A 
ATOM     72  C   UNL A   1      51.328  25.898  26.333  1.00  0.00     0.041 A 
ATOM     73  F   UNL A   1      49.803  25.871  28.110  1.00  0.00    -0.206 F 
ATOM     74  C   UNL A   1      51.653  26.248  25.026  1.00  0.00     0.022 A 
BRANCH  71  75
ATOM     75  S   UNL A   1      51.074  27.337  22.525  1.00  0.00     0.124 S 
ATOM     76  O   UNL A   1      49.938  26.700  21.869  1.00  0.00    -0.237 OA
ATOM     77  O   UNL A   1      51.090  28.796  22.508  1.00  0.00    -0.237 OA
ATOM     78  O   UNL A   1      52.367  26.698  22.293  1.00  0.00    -0.744 OA
ENDBRANCH  71  75
ENDBRANCH  44  68
BRANCH  56  79
ATOM     79  C   UNL A   1      46.474  32.884  28.809  1.00  0.00     0.023 A 
ATOM     80  C   UNL A   1      46.434  33.950  27.894  1.00  0.00     0.031 A 
ATOM     81  C   UNL A   1      47.078  33.109  30.061  1.00  0.00     0.131 A 
ATOM     82  C   UNL A   1      47.020  35.180  28.230  1.00  0.00     0.055 A 
ATOM     83  C   UNL A   1      47.609  34.351  30.410  1.00  0.00     0.041 A 
ATOM     84  F   UNL A   1      47.148  32.125  30.972  1.00  0.00    -0.206 F 
ATOM     85  C   UNL A   1      47.590  35.393  29.488  1.00  0.00     0.022 A 
BRANCH  82  86
ATOM     86  S   UNL A   1      47.090  36.488  26.975  1.00  0.00     0.124 S 
ATOM     87  O   UNL A   1      46.477  35.836  25.822  1.00  0.00    -0.237 OA
ATOM     88  O   UNL A   1      46.312  37.556  27.591  1.00  0.00    -0.237 OA
ATOM     89  O   UNL A   1      48.520  36.763  26.843  1.00  0.00    -0.744 OA
ENDBRANCH  82  86
ENDBRANCH  56  79
ENDBRANCH  30  31
ENDBRANCH  22  25
ENDBRANCH  20  21
ENDBRANCH   1  20
TORSDOF 16
ENDMDL
