MODEL 1
REMARK VINA RESULT:     -10.5      0.000      0.000
REMARK SMILES CC1(c2ccc(C(=O)NCCCNC(=O)c3ccc(-c4c5nc(c(-c6cc(S(=O)(=O)[O-])ccc6F)c6ccc([nH]6)c(-c6cc(S(=O)(=O)[O-])ccc6F)c6nc(c(-c7cc(S(=O)(=O)[O-])ccc7F)c7ccc4[nH]7)C=C6)C=C5)cc3)cc2)CC1
REMARK SMILES IDX 12 1 11 2 10 3 9 4 7 5 8 6 6 8 3 9 4 10 80 11 5 12 79 13
REMARK SMILES IDX 2 14 1 15 81 16 82 17 13 18 14 19 15 21 16 22 17 23 78 24
REMARK SMILES IDX 18 25 77 26 19 27 20 28 21 29 71 30 22 31 76 32 70 33 72 34
REMARK SMILES IDX 23 35 75 36 69 37 68 38 24 40 56 41 36 42 55 43 37 44 40 45
REMARK SMILES IDX 54 46 73 47 38 48 39 49 53 51 74 52 41 53 25 54 26 55 34 56
REMARK SMILES IDX 27 57 33 58 35 59 32 60 28 61 29 62 30 63 31 64 57 65 58 66
REMARK SMILES IDX 66 67 59 68 65 69 67 70 64 71 60 72 61 73 62 74 63 75 42 76
REMARK SMILES IDX 43 77 51 78 44 79 50 80 52 81 49 82 45 83 46 84 47 85 48 86
REMARK H PARENT 9 7 13 20 72 39 40 50
REMARK Flexibility Score: inf
ROOT
ATOM      1  C   UNL A   1      34.389  33.315  28.270  1.00  0.00     0.118 C 
ENDROOT
BRANCH   1   2
ATOM      2  C   UNL A   1      33.414  34.318  28.880  1.00  0.00     0.042 C 
BRANCH   2   3
ATOM      3  C   UNL A   1      33.876  34.863  30.232  1.00  0.00     0.118 C 
BRANCH   3   4
ATOM      4  N   UNL A   1      34.132  33.801  31.186  1.00  0.00    -0.352 N 
ATOM      5  C   UNL A   1      35.291  33.276  31.694  1.00  0.00     0.251 C 
ATOM      6  O   UNL A   1      35.181  32.471  32.621  1.00  0.00    -0.269 OA
ATOM      7  H   UNL A   1      33.315  33.376  31.534  1.00  0.00     0.163 HD
BRANCH   5   8
ATOM      8  C   UNL A   1      36.655  33.607  31.185  1.00  0.00     0.039 A 
ATOM      9  C   UNL A   1      39.399  33.982  30.534  1.00  0.00    -0.042 A 
ATOM     10  C   UNL A   1      38.876  34.459  31.742  1.00  0.00     0.005 A 
ATOM     11  C   UNL A   1      38.501  33.403  29.627  1.00  0.00     0.005 A 
ATOM     12  C   UNL A   1      37.522  34.281  32.060  1.00  0.00     0.014 A 
ATOM     13  C   UNL A   1      37.165  33.181  29.961  1.00  0.00     0.014 A 
BRANCH   9  14
ATOM     14  C   UNL A   1      40.885  33.893  30.254  1.00  0.00    -0.007 C 
ATOM     15  C   UNL A   1      41.391  35.001  29.349  1.00  0.00     0.016 C 
ATOM     16  C   UNL A   1      41.601  32.561  30.176  1.00  0.00     0.012 C 
ATOM     17  C   UNL A   1      41.790  33.425  31.382  1.00  0.00     0.012 C 
ENDBRANCH   9  14
ENDBRANCH   5   8
ENDBRANCH   3   4
ENDBRANCH   2   3
ENDBRANCH   1   2
BRANCH   1  18
ATOM     18  N   UNL A   1      33.688  32.194  27.660  1.00  0.00    -0.352 N 
ATOM     19  C   UNL A   1      34.123  30.924  27.381  1.00  0.00     0.251 C 
ATOM     20  H   UNL A   1      32.755  32.378  27.406  1.00  0.00     0.163 HD
ATOM     21  O   UNL A   1      33.463  30.225  26.618  1.00  0.00    -0.269 OA
BRANCH  19  22
ATOM     22  C   UNL A   1      35.367  30.401  27.986  1.00  0.00     0.039 A 
ATOM     23  C   UNL A   1      36.558  30.495  27.262  1.00  0.00     0.014 A 
ATOM     24  C   UNL A   1      35.353  29.769  29.232  1.00  0.00     0.014 A 
ATOM     25  C   UNL A   1      37.741  29.991  27.804  1.00  0.00     0.010 A 
ATOM     26  C   UNL A   1      36.545  29.331  29.803  1.00  0.00     0.010 A 
ATOM     27  C   UNL A   1      37.749  29.427  29.089  1.00  0.00    -0.014 A 
BRANCH  27  28
ATOM     28  C   UNL A   1      39.001  28.913  29.697  1.00  0.00     0.031 A 
ATOM     29  C   UNL A   1      39.485  29.467  31.008  1.00  0.00     0.074 A 
ATOM     30  C   UNL A   1      39.728  27.991  29.039  1.00  0.00     0.049 A 
ATOM     31  N   UNL A   1      40.585  29.203  31.667  1.00  0.00    -0.248 NA
ATOM     32  C   UNL A   1      38.631  30.481  31.643  1.00  0.00     0.031 C 
ATOM     33  C   UNL A   1      39.370  27.400  27.748  1.00  0.00     0.029 A 
ATOM     34  N   UNL A   1      40.917  27.391  29.361  1.00  0.00    -0.354 N 
ATOM     35  C   UNL A   1      40.561  30.026  32.788  1.00  0.00     0.074 A 
ATOM     36  C   UNL A   1      39.374  30.849  32.675  1.00  0.00     0.031 C 
ATOM     37  C   UNL A   1      40.301  26.495  27.407  1.00  0.00     0.029 A 
ATOM     38  C   UNL A   1      41.345  26.478  28.427  1.00  0.00     0.049 A 
ATOM     39  H   UNL A   1      41.418  27.595  30.184  1.00  0.00     0.167 HD
ATOM     40  C   UNL A   1      41.432  30.071  33.829  1.00  0.00     0.034 A 
ATOM     41  C   UNL A   1      42.456  25.716  28.395  1.00  0.00     0.034 A 
ATOM     42  C   UNL A   1      42.611  29.241  33.918  1.00  0.00     0.049 A 
ATOM     43  C   UNL A   1      43.440  25.822  29.531  1.00  0.00     0.074 A 
ATOM     44  C   UNL A   1      43.541  29.165  34.940  1.00  0.00     0.029 A 
ATOM     45  N   UNL A   1      43.030  28.349  32.936  1.00  0.00    -0.354 N 
ATOM     46  N   UNL A   1      43.385  26.572  30.607  1.00  0.00    -0.248 NA
ATOM     47  C   UNL A   1      44.634  24.973  29.446  1.00  0.00     0.031 C 
ATOM     48  C   UNL A   1      44.555  28.285  34.546  1.00  0.00     0.029 A 
ATOM     49  C   UNL A   1      44.222  27.747  33.313  1.00  0.00     0.049 A 
ATOM     50  H   UNL A   1      42.549  28.170  32.096  1.00  0.00     0.167 HD
ATOM     51  C   UNL A   1      44.523  26.258  31.346  1.00  0.00     0.074 A 
ATOM     52  C   UNL A   1      45.237  25.244  30.594  1.00  0.00     0.031 C 
ATOM     53  C   UNL A   1      44.934  26.753  32.542  1.00  0.00     0.034 A 
BRANCH  40  54
ATOM     54  C   UNL A   1      41.146  31.078  34.922  1.00  0.00     0.023 A 
ATOM     55  C   UNL A   1      40.034  30.945  35.773  1.00  0.00     0.031 A 
ATOM     56  C   UNL A   1      41.949  32.223  35.070  1.00  0.00     0.131 A 
ATOM     57  C   UNL A   1      39.689  31.986  36.647  1.00  0.00     0.055 A 
ATOM     58  C   UNL A   1      41.657  33.209  36.016  1.00  0.00     0.041 A 
ATOM     59  F   UNL A   1      43.015  32.420  34.279  1.00  0.00    -0.206 F 
ATOM     60  C   UNL A   1      40.508  33.107  36.794  1.00  0.00     0.022 A 
BRANCH  57  61
ATOM     61  S   UNL A   1      38.055  31.943  37.436  1.00  0.00     0.124 S 
ATOM     62  O   UNL A   1      37.677  30.544  37.252  1.00  0.00    -0.237 OA
ATOM     63  O   UNL A   1      38.354  32.349  38.803  1.00  0.00    -0.237 OA
ATOM     64  O   UNL A   1      37.273  32.900  36.655  1.00  0.00    -0.744 OA
ENDBRANCH  57  61
ENDBRANCH  40  54
BRANCH  41  65
ATOM     65  C   UNL A   1      42.690  24.778  27.263  1.00  0.00     0.023 A 
ATOM     66  C   UNL A   1      42.157  23.480  27.291  1.00  0.00     0.031 A 
ATOM     67  C   UNL A   1      43.458  25.154  26.149  1.00  0.00     0.131 A 
ATOM     68  C   UNL A   1      42.429  22.590  26.242  1.00  0.00     0.055 A 
ATOM     69  C   UNL A   1      43.687  24.280  25.083  1.00  0.00     0.041 A 
ATOM     70  F   UNL A   1      43.983  26.387  26.070  1.00  0.00    -0.206 F 
ATOM     71  C   UNL A   1      43.179  22.986  25.131  1.00  0.00     0.022 A 
BRANCH  68  72
ATOM     72  S   UNL A   1      41.834  20.883  26.375  1.00  0.00     0.124 S 
ATOM     73  O   UNL A   1      42.651  20.205  25.376  1.00  0.00    -0.237 OA
ATOM     74  O   UNL A   1      42.129  20.567  27.769  1.00  0.00    -0.237 OA
ATOM     75  O   UNL A   1      40.413  20.992  26.052  1.00  0.00    -0.744 OA
ENDBRANCH  68  72
ENDBRANCH  41  65
BRANCH  53  76
ATOM     76  C   UNL A   1      46.196  26.165  33.125  1.00  0.00     0.023 A 
ATOM     77  C   UNL A   1      46.177  25.004  33.917  1.00  0.00     0.031 A 
ATOM     78  C   UNL A   1      47.436  26.790  32.897  1.00  0.00     0.131 A 
ATOM     79  C   UNL A   1      47.365  24.538  34.502  1.00  0.00     0.055 A 
ATOM     80  C   UNL A   1      48.623  26.285  33.429  1.00  0.00     0.041 A 
ATOM     81  F   UNL A   1      47.513  27.904  32.151  1.00  0.00    -0.206 F 
ATOM     82  C   UNL A   1      48.589  25.160  34.248  1.00  0.00     0.022 A 
BRANCH  79  83
ATOM     83  S   UNL A   1      47.274  23.160  35.679  1.00  0.00     0.124 S 
ATOM     84  O   UNL A   1      48.407  23.434  36.557  1.00  0.00    -0.237 OA
ATOM     85  O   UNL A   1      45.952  23.340  36.269  1.00  0.00    -0.237 OA
ATOM     86  O   UNL A   1      47.418  21.976  34.832  1.00  0.00    -0.744 OA
ENDBRANCH  79  83
ENDBRANCH  53  76
ENDBRANCH  27  28
ENDBRANCH  19  22
ENDBRANCH   1  18
TORSDOF 14
ENDMDL
MODEL 2
REMARK VINA RESULT:     -10.2      4.606     11.318
REMARK SMILES CC1(c2ccc(C(=O)NCCCNC(=O)c3ccc(-c4c5nc(c(-c6cc(S(=O)(=O)[O-])ccc6F)c6ccc([nH]6)c(-c6cc(S(=O)(=O)[O-])ccc6F)c6nc(c(-c7cc(S(=O)(=O)[O-])ccc7F)c7ccc4[nH]7)C=C6)C=C5)cc3)cc2)CC1
REMARK SMILES IDX 12 1 11 2 10 3 9 4 7 5 8 6 6 8 3 9 4 10 80 11 5 12 79 13
REMARK SMILES IDX 2 14 1 15 81 16 82 17 13 18 14 19 15 21 16 22 17 23 78 24
REMARK SMILES IDX 18 25 77 26 19 27 20 28 21 29 71 30 22 31 76 32 70 33 72 34
REMARK SMILES IDX 23 35 75 36 69 37 68 38 24 40 56 41 36 42 55 43 37 44 40 45
REMARK SMILES IDX 54 46 73 47 38 48 39 49 53 51 74 52 41 53 25 54 26 55 34 56
REMARK SMILES IDX 27 57 33 58 35 59 32 60 28 61 29 62 30 63 31 64 57 65 58 66
REMARK SMILES IDX 66 67 59 68 65 69 67 70 64 71 60 72 61 73 62 74 63 75 42 76
REMARK SMILES IDX 43 77 51 78 44 79 50 80 52 81 49 82 45 83 46 84 47 85 48 86
REMARK H PARENT 9 7 13 20 72 39 40 50
REMARK Flexibility Score: inf
ROOT
ATOM      1  C   UNL A   1      40.824  21.069  26.882  1.00  0.00     0.118 C 
ENDROOT
BRANCH   1   2
ATOM      2  C   UNL A   1      41.628  19.929  26.264  1.00  0.00     0.042 C 
BRANCH   2   3
ATOM      3  C   UNL A   1      43.037  20.345  25.838  1.00  0.00     0.118 C 
BRANCH   3   4
ATOM      4  N   UNL A   1      43.041  21.630  25.166  1.00  0.00    -0.352 N 
ATOM      5  C   UNL A   1      43.370  22.892  25.588  1.00  0.00     0.251 C 
ATOM      6  O   UNL A   1      43.423  23.774  24.728  1.00  0.00    -0.269 OA
ATOM      7  H   UNL A   1      42.752  21.587  24.226  1.00  0.00     0.163 HD
BRANCH   5   8
ATOM      8  C   UNL A   1      43.646  23.255  27.009  1.00  0.00     0.039 A 
ATOM      9  C   UNL A   1      44.302  24.329  29.561  1.00  0.00    -0.042 A 
ATOM     10  C   UNL A   1      45.297  24.091  28.605  1.00  0.00     0.005 A 
ATOM     11  C   UNL A   1      42.996  23.931  29.245  1.00  0.00     0.005 A 
ATOM     12  C   UNL A   1      44.975  23.555  27.350  1.00  0.00     0.014 A 
ATOM     13  C   UNL A   1      42.666  23.442  27.981  1.00  0.00     0.014 A 
BRANCH   9  14
ATOM     14  C   UNL A   1      44.536  25.153  30.811  1.00  0.00    -0.007 C 
ATOM     15  C   UNL A   1      44.528  24.326  32.083  1.00  0.00     0.016 C 
ATOM     16  C   UNL A   1      44.058  26.586  30.919  1.00  0.00     0.012 C 
ATOM     17  C   UNL A   1      45.515  26.312  30.720  1.00  0.00     0.012 C 
ENDBRANCH   9  14
ENDBRANCH   5   8
ENDBRANCH   3   4
ENDBRANCH   2   3
ENDBRANCH   1   2
BRANCH   1  18
ATOM     18  N   UNL A   1      39.561  21.268  26.187  1.00  0.00    -0.352 N 
ATOM     19  C   UNL A   1      38.743  22.368  26.132  1.00  0.00     0.251 C 
ATOM     20  H   UNL A   1      39.243  20.490  25.674  1.00  0.00     0.163 HD
ATOM     21  O   UNL A   1      37.596  22.235  25.718  1.00  0.00    -0.269 OA
BRANCH  19  22
ATOM     22  C   UNL A   1      39.231  23.694  26.568  1.00  0.00     0.039 A 
ATOM     23  C   UNL A   1      38.972  24.109  27.877  1.00  0.00     0.014 A 
ATOM     24  C   UNL A   1      39.888  24.549  25.679  1.00  0.00     0.014 A 
ATOM     25  C   UNL A   1      39.406  25.365  28.305  1.00  0.00     0.010 A 
ATOM     26  C   UNL A   1      40.383  25.771  26.127  1.00  0.00     0.010 A 
ATOM     27  C   UNL A   1      40.136  26.196  27.441  1.00  0.00    -0.014 A 
BRANCH  27  28
ATOM     28  C   UNL A   1      40.634  27.521  27.885  1.00  0.00     0.031 A 
ATOM     29  C   UNL A   1      42.091  27.863  27.753  1.00  0.00     0.074 A 
ATOM     30  C   UNL A   1      39.781  28.391  28.459  1.00  0.00     0.049 A 
ATOM     31  N   UNL A   1      42.733  28.935  28.143  1.00  0.00    -0.248 NA
ATOM     32  C   UNL A   1      42.946  26.844  27.126  1.00  0.00     0.031 C 
ATOM     33  C   UNL A   1      38.350  28.158  28.665  1.00  0.00     0.029 A 
ATOM     34  N   UNL A   1      39.992  29.642  28.978  1.00  0.00    -0.354 N 
ATOM     35  C   UNL A   1      44.068  28.715  27.821  1.00  0.00     0.074 A 
ATOM     36  C   UNL A   1      44.149  27.376  27.273  1.00  0.00     0.031 C 
ATOM     37  C   UNL A   1      37.806  29.246  29.231  1.00  0.00     0.029 A 
ATOM     38  C   UNL A   1      38.854  30.232  29.475  1.00  0.00     0.049 A 
ATOM     39  H   UNL A   1      40.875  30.077  28.993  1.00  0.00     0.167 HD
ATOM     40  C   UNL A   1      45.124  29.560  27.945  1.00  0.00     0.034 A 
ATOM     41  C   UNL A   1      38.678  31.430  30.065  1.00  0.00     0.034 A 
ATOM     42  C   UNL A   1      45.018  30.891  28.497  1.00  0.00     0.049 A 
ATOM     43  C   UNL A   1      39.871  32.332  30.246  1.00  0.00     0.074 A 
ATOM     44  C   UNL A   1      46.004  31.852  28.632  1.00  0.00     0.029 A 
ATOM     45  N   UNL A   1      43.854  31.443  29.020  1.00  0.00    -0.354 N 
ATOM     46  N   UNL A   1      41.121  32.130  29.898  1.00  0.00    -0.248 NA
ATOM     47  C   UNL A   1      39.626  33.624  30.896  1.00  0.00     0.031 C 
ATOM     48  C   UNL A   1      45.456  32.954  29.299  1.00  0.00     0.029 A 
ATOM     49  C   UNL A   1      44.107  32.716  29.511  1.00  0.00     0.049 A 
ATOM     50  H   UNL A   1      42.977  30.996  29.039  1.00  0.00     0.167 HD
ATOM     51  C   UNL A   1      41.806  33.289  30.256  1.00  0.00     0.074 A 
ATOM     52  C   UNL A   1      40.825  34.184  30.839  1.00  0.00     0.031 C 
ATOM     53  C   UNL A   1      43.122  33.590  30.108  1.00  0.00     0.034 A 
BRANCH  40  54
ATOM     54  C   UNL A   1      46.476  29.041  27.505  1.00  0.00     0.023 A 
ATOM     55  C   UNL A   1      46.755  28.771  26.152  1.00  0.00     0.031 A 
ATOM     56  C   UNL A   1      47.472  28.742  28.450  1.00  0.00     0.131 A 
ATOM     57  C   UNL A   1      47.945  28.117  25.798  1.00  0.00     0.055 A 
ATOM     58  C   UNL A   1      48.697  28.184  28.078  1.00  0.00     0.041 A 
ATOM     59  F   UNL A   1      47.263  28.959  29.758  1.00  0.00    -0.206 F 
ATOM     60  C   UNL A   1      48.930  27.844  26.748  1.00  0.00     0.022 A 
BRANCH  57  61
ATOM     61  S   UNL A   1      48.093  27.449  24.117  1.00  0.00     0.124 S 
ATOM     62  O   UNL A   1      49.419  27.925  23.727  1.00  0.00    -0.237 OA
ATOM     63  O   UNL A   1      47.968  26.014  24.335  1.00  0.00    -0.237 OA
ATOM     64  O   UNL A   1      46.982  28.074  23.402  1.00  0.00    -0.744 OA
ENDBRANCH  57  61
ENDBRANCH  40  54
BRANCH  41  65
ATOM     65  C   UNL A   1      37.323  31.855  30.511  1.00  0.00     0.023 A 
ATOM     66  C   UNL A   1      36.470  32.547  29.639  1.00  0.00     0.031 A 
ATOM     67  C   UNL A   1      36.867  31.592  31.814  1.00  0.00     0.131 A 
ATOM     68  C   UNL A   1      35.216  32.986  30.089  1.00  0.00     0.055 A 
ATOM     69  C   UNL A   1      35.598  31.989  32.244  1.00  0.00     0.041 A 
ATOM     70  F   UNL A   1      37.642  30.925  32.684  1.00  0.00    -0.206 F 
ATOM     71  C   UNL A   1      34.769  32.699  31.382  1.00  0.00     0.022 A 
BRANCH  68  72
ATOM     72  S   UNL A   1      34.196  33.990  28.976  1.00  0.00     0.124 S 
ATOM     73  O   UNL A   1      33.706  32.987  28.038  1.00  0.00    -0.237 OA
ATOM     74  O   UNL A   1      33.207  34.549  29.892  1.00  0.00    -0.237 OA
ATOM     75  O   UNL A   1      35.144  34.954  28.423  1.00  0.00    -0.744 OA
ENDBRANCH  68  72
ENDBRANCH  41  65
BRANCH  53  76
ATOM     76  C   UNL A   1      43.559  34.966  30.547  1.00  0.00     0.023 A 
ATOM     77  C   UNL A   1      43.441  36.086  29.705  1.00  0.00     0.031 A 
ATOM     78  C   UNL A   1      44.121  35.155  31.823  1.00  0.00     0.131 A 
ATOM     79  C   UNL A   1      43.932  37.332  30.127  1.00  0.00     0.055 A 
ATOM     80  C   UNL A   1      44.550  36.409  32.260  1.00  0.00     0.041 A 
ATOM     81  F   UNL A   1      44.262  34.120  32.667  1.00  0.00    -0.206 F 
ATOM     82  C   UNL A   1      44.468  37.504  31.404  1.00  0.00     0.022 A 
BRANCH  79  83
ATOM     83  S   UNL A   1      43.947  38.707  28.943  1.00  0.00     0.124 S 
ATOM     84  O   UNL A   1      44.238  39.848  29.806  1.00  0.00    -0.237 OA
ATOM     85  O   UNL A   1      45.010  38.316  28.023  1.00  0.00    -0.237 OA
ATOM     86  O   UNL A   1      42.600  38.686  28.376  1.00  0.00    -0.744 OA
ENDBRANCH  79  83
ENDBRANCH  53  76
ENDBRANCH  27  28
ENDBRANCH  19  22
ENDBRANCH   1  18
TORSDOF 14
ENDMDL
MODEL 3
REMARK VINA RESULT:     -10.2      4.473     11.082
REMARK SMILES CC1(c2ccc(C(=O)NCCCNC(=O)c3ccc(-c4c5nc(c(-c6cc(S(=O)(=O)[O-])ccc6F)c6ccc([nH]6)c(-c6cc(S(=O)(=O)[O-])ccc6F)c6nc(c(-c7cc(S(=O)(=O)[O-])ccc7F)c7ccc4[nH]7)C=C6)C=C5)cc3)cc2)CC1
REMARK SMILES IDX 12 1 11 2 10 3 9 4 7 5 8 6 6 8 3 9 4 10 80 11 5 12 79 13
REMARK SMILES IDX 2 14 1 15 81 16 82 17 13 18 14 19 15 21 16 22 17 23 78 24
REMARK SMILES IDX 18 25 77 26 19 27 20 28 21 29 71 30 22 31 76 32 70 33 72 34
REMARK SMILES IDX 23 35 75 36 69 37 68 38 24 40 56 41 36 42 55 43 37 44 40 45
REMARK SMILES IDX 54 46 73 47 38 48 39 49 53 51 74 52 41 53 25 54 26 55 34 56
REMARK SMILES IDX 27 57 33 58 35 59 32 60 28 61 29 62 30 63 31 64 57 65 58 66
REMARK SMILES IDX 66 67 59 68 65 69 67 70 64 71 60 72 61 73 62 74 63 75 42 76
REMARK SMILES IDX 43 77 51 78 44 79 50 80 52 81 49 82 45 83 46 84 47 85 48 86
REMARK H PARENT 9 7 13 20 72 39 40 50
REMARK Flexibility Score: inf
ROOT
ATOM      1  C   UNL A   1      40.858  21.140  26.938  1.00  0.00     0.118 C 
ENDROOT
BRANCH   1   2
ATOM      2  C   UNL A   1      41.643  19.987  26.319  1.00  0.00     0.042 C 
BRANCH   2   3
ATOM      3  C   UNL A   1      43.068  20.373  25.921  1.00  0.00     0.118 C 
BRANCH   3   4
ATOM      4  N   UNL A   1      43.110  21.647  25.229  1.00  0.00    -0.352 N 
ATOM      5  C   UNL A   1      43.463  22.908  25.636  1.00  0.00     0.251 C 
ATOM      6  O   UNL A   1      43.547  23.774  24.764  1.00  0.00    -0.269 OA
ATOM      7  H   UNL A   1      42.833  21.596  24.286  1.00  0.00     0.163 HD
BRANCH   5   8
ATOM      8  C   UNL A   1      43.728  23.287  27.056  1.00  0.00     0.039 A 
ATOM      9  C   UNL A   1      44.377  24.384  29.600  1.00  0.00    -0.042 A 
ATOM     10  C   UNL A   1      45.378  24.102  28.663  1.00  0.00     0.005 A 
ATOM     11  C   UNL A   1      43.064  24.017  29.271  1.00  0.00     0.005 A 
ATOM     12  C   UNL A   1      45.060  23.555  27.411  1.00  0.00     0.014 A 
ATOM     13  C   UNL A   1      42.739  23.517  28.009  1.00  0.00     0.014 A 
BRANCH   9  14
ATOM     14  C   UNL A   1      44.615  25.221  30.839  1.00  0.00    -0.007 C 
ATOM     15  C   UNL A   1      44.806  24.391  32.095  1.00  0.00     0.016 C 
ATOM     16  C   UNL A   1      43.987  26.588  31.008  1.00  0.00     0.012 C 
ATOM     17  C   UNL A   1      45.444  26.486  30.689  1.00  0.00     0.012 C 
ENDBRANCH   9  14
ENDBRANCH   5   8
ENDBRANCH   3   4
ENDBRANCH   2   3
ENDBRANCH   1   2
BRANCH   1  18
ATOM     18  N   UNL A   1      39.590  21.348  26.254  1.00  0.00    -0.352 N 
ATOM     19  C   UNL A   1      38.768  22.446  26.226  1.00  0.00     0.251 C 
ATOM     20  H   UNL A   1      39.271  20.579  25.729  1.00  0.00     0.163 HD
ATOM     21  O   UNL A   1      37.619  22.316  25.816  1.00  0.00    -0.269 OA
BRANCH  19  22
ATOM     22  C   UNL A   1      39.254  23.765  26.685  1.00  0.00     0.039 A 
ATOM     23  C   UNL A   1      39.928  24.586  25.778  1.00  0.00     0.014 A 
ATOM     24  C   UNL A   1      39.100  24.168  28.014  1.00  0.00     0.014 A 
ATOM     25  C   UNL A   1      40.414  25.827  26.193  1.00  0.00     0.010 A 
ATOM     26  C   UNL A   1      39.520  25.434  28.409  1.00  0.00     0.010 A 
ATOM     27  C   UNL A   1      40.191  26.272  27.506  1.00  0.00    -0.014 A 
BRANCH  27  28
ATOM     28  C   UNL A   1      40.671  27.601  27.960  1.00  0.00     0.031 A 
ATOM     29  C   UNL A   1      42.128  27.955  27.849  1.00  0.00     0.074 A 
ATOM     30  C   UNL A   1      39.804  28.461  28.525  1.00  0.00     0.049 A 
ATOM     31  N   UNL A   1      42.755  29.031  28.250  1.00  0.00    -0.248 NA
ATOM     32  C   UNL A   1      42.999  26.945  27.231  1.00  0.00     0.031 C 
ATOM     33  C   UNL A   1      38.372  28.216  28.711  1.00  0.00     0.029 A 
ATOM     34  N   UNL A   1      39.997  29.713  29.050  1.00  0.00    -0.354 N 
ATOM     35  C   UNL A   1      44.096  28.823  27.946  1.00  0.00     0.074 A 
ATOM     36  C   UNL A   1      44.195  27.486  27.396  1.00  0.00     0.031 C 
ATOM     37  C   UNL A   1      37.811  29.298  29.273  1.00  0.00     0.029 A 
ATOM     38  C   UNL A   1      38.847  30.291  29.533  1.00  0.00     0.049 A 
ATOM     39  H   UNL A   1      40.876  30.155  29.079  1.00  0.00     0.167 HD
ATOM     40  C   UNL A   1      45.143  29.677  28.086  1.00  0.00     0.034 A 
ATOM     41  C   UNL A   1      38.653  31.487  30.124  1.00  0.00     0.034 A 
ATOM     42  C   UNL A   1      45.018  31.005  28.641  1.00  0.00     0.049 A 
ATOM     43  C   UNL A   1      39.836  32.398  30.323  1.00  0.00     0.074 A 
ATOM     44  C   UNL A   1      45.994  31.975  28.792  1.00  0.00     0.029 A 
ATOM     45  N   UNL A   1      43.842  31.546  29.149  1.00  0.00    -0.354 N 
ATOM     46  N   UNL A   1      41.092  32.208  29.992  1.00  0.00    -0.248 NA
ATOM     47  C   UNL A   1      39.571  33.686  30.973  1.00  0.00     0.031 C 
ATOM     48  C   UNL A   1      45.427  33.070  29.454  1.00  0.00     0.029 A 
ATOM     49  C   UNL A   1      44.077  32.820  29.647  1.00  0.00     0.049 A 
ATOM     50  H   UNL A   1      42.969  31.091  29.156  1.00  0.00     0.167 HD
ATOM     51  C   UNL A   1      41.762  33.371  30.363  1.00  0.00     0.074 A 
ATOM     52  C   UNL A   1      40.766  34.257  30.934  1.00  0.00     0.031 C 
ATOM     53  C   UNL A   1      43.077  33.684  30.233  1.00  0.00     0.034 A 
BRANCH  40  54
ATOM     54  C   UNL A   1      46.505  29.171  27.664  1.00  0.00     0.023 A 
ATOM     55  C   UNL A   1      46.791  28.863  26.320  1.00  0.00     0.031 A 
ATOM     56  C   UNL A   1      47.506  28.922  28.618  1.00  0.00     0.131 A 
ATOM     57  C   UNL A   1      47.993  28.221  25.988  1.00  0.00     0.055 A 
ATOM     58  C   UNL A   1      48.742  28.376  28.264  1.00  0.00     0.041 A 
ATOM     59  F   UNL A   1      47.292  29.177  29.918  1.00  0.00    -0.206 F 
ATOM     60  C   UNL A   1      48.982  27.998  26.946  1.00  0.00     0.022 A 
BRANCH  57  61
ATOM     61  S   UNL A   1      48.155  27.503  24.329  1.00  0.00     0.124 S 
ATOM     62  O   UNL A   1      49.535  27.846  23.994  1.00  0.00    -0.237 OA
ATOM     63  O   UNL A   1      47.888  26.091  24.569  1.00  0.00    -0.237 OA
ATOM     64  O   UNL A   1      47.140  28.209  23.549  1.00  0.00    -0.744 OA
ENDBRANCH  57  61
ENDBRANCH  40  54
BRANCH  41  65
ATOM     65  C   UNL A   1      37.288  31.898  30.553  1.00  0.00     0.023 A 
ATOM     66  C   UNL A   1      36.437  32.577  29.667  1.00  0.00     0.031 A 
ATOM     67  C   UNL A   1      36.820  31.637  31.852  1.00  0.00     0.131 A 
ATOM     68  C   UNL A   1      35.173  33.004  30.102  1.00  0.00     0.055 A 
ATOM     69  C   UNL A   1      35.543  32.023  32.265  1.00  0.00     0.041 A 
ATOM     70  F   UNL A   1      37.593  30.984  32.734  1.00  0.00    -0.206 F 
ATOM     71  C   UNL A   1      34.715  32.719  31.390  1.00  0.00     0.022 A 
BRANCH  68  72
ATOM     72  S   UNL A   1      34.155  33.990  28.972  1.00  0.00     0.124 S 
ATOM     73  O   UNL A   1      33.660  32.973  28.053  1.00  0.00    -0.237 OA
ATOM     74  O   UNL A   1      33.171  34.570  29.879  1.00  0.00    -0.237 OA
ATOM     75  O   UNL A   1      35.106  34.941  28.399  1.00  0.00    -0.744 OA
ENDBRANCH  68  72
ENDBRANCH  41  65
BRANCH  53  76
ATOM     76  C   UNL A   1      43.497  35.063  30.682  1.00  0.00     0.023 A 
ATOM     77  C   UNL A   1      43.800  35.345  32.026  1.00  0.00     0.031 A 
ATOM     78  C   UNL A   1      43.575  36.115  29.751  1.00  0.00     0.131 A 
ATOM     79  C   UNL A   1      44.110  36.659  32.411  1.00  0.00     0.055 A 
ATOM     80  C   UNL A   1      43.945  37.405  30.130  1.00  0.00     0.041 A 
ATOM     81  F   UNL A   1      43.293  35.903  28.456  1.00  0.00    -0.206 F 
ATOM     82  C   UNL A   1      44.202  37.686  31.469  1.00  0.00     0.022 A 
BRANCH  79  83
ATOM     83  S   UNL A   1      44.297  37.027  34.177  1.00  0.00     0.124 S 
ATOM     84  O   UNL A   1      43.682  38.347  34.280  1.00  0.00    -0.237 OA
ATOM     85  O   UNL A   1      43.565  35.932  34.805  1.00  0.00    -0.237 OA
ATOM     86  O   UNL A   1      45.745  37.000  34.382  1.00  0.00    -0.744 OA
ENDBRANCH  79  83
ENDBRANCH  53  76
ENDBRANCH  27  28
ENDBRANCH  19  22
ENDBRANCH   1  18
TORSDOF 14
ENDMDL
