MODEL 1
REMARK VINA RESULT:     -12.6      0.000      0.000
REMARK SMILES CCCc1cc2c(cc1Cl)C=C(C(=O)NCCCNC(=O)c1ccc(-c3c4nc(c(-c5cc(S(=O)(=O)[O-])ccc5F)c5ccc([nH]5)c(-c5cc(S(=O)(=O)[O-])ccc5F)c5nc(c(-c6cc(S(=O)(=O)[O-])ccc6F)c6ccc3[nH]6)C=C5)C=C4)cc1)[C@@H](C(F)(F)F)O2
REMARK SMILES IDX 17 1 16 2 15 3 13 4 14 5 12 7 4 8 5 9 9 10 6 11 8 12 10 13
REMARK SMILES IDX 7 14 90 15 11 16 85 17 3 18 2 19 1 20 86 21 87 22 88 23
REMARK SMILES IDX 89 24 18 25 19 26 20 27 21 29 22 30 23 31 84 32 24 33 83 34
REMARK SMILES IDX 25 35 26 36 27 37 77 38 28 39 82 40 76 41 78 42 29 43 81 44
REMARK SMILES IDX 75 45 74 46 30 48 62 49 42 50 61 51 43 52 46 53 60 54 79 55
REMARK SMILES IDX 44 56 45 57 59 59 80 60 47 61 31 62 32 63 40 64 33 65 39 66
REMARK SMILES IDX 41 67 38 68 34 69 35 70 36 71 37 72 63 73 64 74 72 75 65 76
REMARK SMILES IDX 71 77 73 78 70 79 66 80 67 81 68 82 69 83 48 84 49 85 57 86
REMARK SMILES IDX 50 87 56 88 58 89 55 90 51 91 52 92 53 93 54 94
REMARK H PARENT 15 6 19 28 78 47 46 58
REMARK Flexibility Score: inf
ROOT
ATOM      1  C   UNL A   1      35.906  21.229  25.724  1.00  0.00     0.042 C 
ENDROOT
BRANCH   1   2
ATOM      2  C   UNL A   1      35.465  20.165  24.731  1.00  0.00     0.118 C 
BRANCH   2   3
ATOM      3  N   UNL A   1      34.211  19.537  25.124  1.00  0.00    -0.352 N 
ATOM      4  C   UNL A   1      32.910  19.895  25.220  1.00  0.00     0.251 C 
ATOM      5  O   UNL A   1      32.146  19.004  25.606  1.00  0.00    -0.270 OA
ATOM      6  H   UNL A   1      34.347  18.599  25.392  1.00  0.00     0.163 HD
BRANCH   4   7
ATOM      7  C   UNL A   1      32.363  21.242  24.892  1.00  0.00     0.067 C 
ATOM      8  C   UNL A   1      31.246  25.648  22.702  1.00  0.00    -0.026 A 
ATOM      9  C   UNL A   1      30.732  24.926  23.792  1.00  0.00     0.052 A 
ATOM     10  C   UNL A   1      32.176  24.997  21.868  1.00  0.00     0.045 A 
ATOM     11  C   UNL A   1      31.214  23.657  24.098  1.00  0.00     0.128 A 
ATOM     12  C   UNL A   1      32.628  23.701  22.159  1.00  0.00     0.032 A 
ATOM     13  Cl  UNL A   1      32.813  25.745  20.443  1.00  0.00    -0.084 Cl
ATOM     14  C   UNL A   1      32.163  23.035  23.292  1.00  0.00     0.019 A 
ATOM     15  O   UNL A   1      30.700  23.057  25.213  1.00  0.00    -0.475 OA
ATOM     16  C   UNL A   1      32.630  21.701  23.652  1.00  0.00     0.025 C 
ATOM     17  C   UNL A   1      31.590  22.101  25.853  1.00  0.00     0.314 C 
BRANCH   8  18
ATOM     18  C   UNL A   1      30.761  27.060  22.438  1.00  0.00     0.037 C 
BRANCH  18  19
ATOM     19  C   UNL A   1      30.010  27.752  23.589  1.00  0.00     0.001 C 
ATOM     20  C   UNL A   1      28.647  28.297  23.181  1.00  0.00     0.004 C 
ENDBRANCH  18  19
ENDBRANCH   8  18
BRANCH  17  21
ATOM     21  C   UNL A   1      32.503  22.836  26.857  1.00  0.00     0.429 C 
ATOM     22  F   UNL A   1      33.627  23.281  26.243  1.00  0.00    -0.167 F 
ATOM     23  F   UNL A   1      31.906  23.923  27.403  1.00  0.00    -0.167 F 
ATOM     24  F   UNL A   1      32.891  22.052  27.889  1.00  0.00    -0.167 F 
ENDBRANCH  17  21
ENDBRANCH   4   7
ENDBRANCH   2   3
ENDBRANCH   1   2
BRANCH   1  25
ATOM     25  C   UNL A   1      37.315  21.737  25.442  1.00  0.00     0.118 C 
BRANCH  25  26
ATOM     26  N   UNL A   1      38.334  20.740  25.770  1.00  0.00    -0.352 N 
ATOM     27  C   UNL A   1      39.610  20.898  26.260  1.00  0.00     0.251 C 
ATOM     28  H   UNL A   1      38.063  19.807  25.616  1.00  0.00     0.163 HD
ATOM     29  O   UNL A   1      40.384  19.944  26.241  1.00  0.00    -0.269 OA
BRANCH  27  30
ATOM     30  C   UNL A   1      40.046  22.210  26.779  1.00  0.00     0.039 A 
ATOM     31  C   UNL A   1      39.552  23.385  26.216  1.00  0.00     0.014 A 
ATOM     32  C   UNL A   1      40.963  22.270  27.833  1.00  0.00     0.014 A 
ATOM     33  C   UNL A   1      40.127  24.602  26.554  1.00  0.00     0.010 A 
ATOM     34  C   UNL A   1      41.455  23.509  28.253  1.00  0.00     0.010 A 
ATOM     35  C   UNL A   1      41.083  24.682  27.579  1.00  0.00    -0.014 A 
BRANCH  35  36
ATOM     36  C   UNL A   1      41.660  26.010  27.921  1.00  0.00     0.031 A 
ATOM     37  C   UNL A   1      43.019  26.416  27.419  1.00  0.00     0.074 A 
ATOM     38  C   UNL A   1      40.913  26.876  28.633  1.00  0.00     0.049 A 
ATOM     39  N   UNL A   1      43.646  27.553  27.580  1.00  0.00    -0.248 NA
ATOM     40  C   UNL A   1      43.779  25.422  26.645  1.00  0.00     0.031 C 
ATOM     41  C   UNL A   1      39.584  26.582  29.171  1.00  0.00     0.029 A 
ATOM     42  N   UNL A   1      41.138  28.180  29.000  1.00  0.00    -0.354 N 
ATOM     43  C   UNL A   1      44.878  27.404  26.954  1.00  0.00     0.074 A 
ATOM     44  C   UNL A   1      44.925  26.055  26.435  1.00  0.00     0.031 C 
ATOM     45  C   UNL A   1      39.082  27.688  29.733  1.00  0.00     0.029 A 
ATOM     46  C   UNL A   1      40.084  28.748  29.677  1.00  0.00     0.049 A 
ATOM     47  H   UNL A   1      41.972  28.661  28.798  1.00  0.00     0.167 HD
ATOM     48  C   UNL A   1      45.871  28.315  26.816  1.00  0.00     0.034 A 
ATOM     49  C   UNL A   1      39.939  29.980  30.210  1.00  0.00     0.034 A 
ATOM     50  C   UNL A   1      45.790  29.666  27.312  1.00  0.00     0.049 A 
ATOM     51  C   UNL A   1      41.058  30.971  30.047  1.00  0.00     0.074 A 
ATOM     52  C   UNL A   1      46.726  30.678  27.185  1.00  0.00     0.029 A 
ATOM     53  N   UNL A   1      44.721  30.197  28.020  1.00  0.00    -0.354 N 
ATOM     54  N   UNL A   1      42.197  30.828  29.409  1.00  0.00    -0.248 NA
ATOM     55  C   UNL A   1      40.883  32.289  30.670  1.00  0.00     0.031 C 
ATOM     56  C   UNL A   1      46.251  31.798  27.868  1.00  0.00     0.029 A 
ATOM     57  C   UNL A   1      44.987  31.513  28.362  1.00  0.00     0.049 A 
ATOM     58  H   UNL A   1      43.896  29.710  28.247  1.00  0.00     0.167 HD
ATOM     59  C   UNL A   1      42.870  32.036  29.548  1.00  0.00     0.074 A 
ATOM     60  C   UNL A   1      41.996  32.913  30.300  1.00  0.00     0.031 C 
ATOM     61  C   UNL A   1      44.105  32.382  29.105  1.00  0.00     0.034 A 
BRANCH  48  62
ATOM     62  C   UNL A   1      47.135  27.910  26.098  1.00  0.00     0.023 A 
ATOM     63  C   UNL A   1      47.228  28.064  24.701  1.00  0.00     0.031 A 
ATOM     64  C   UNL A   1      48.187  27.260  26.766  1.00  0.00     0.131 A 
ATOM     65  C   UNL A   1      48.333  27.547  24.014  1.00  0.00     0.055 A 
ATOM     66  C   UNL A   1      49.305  26.780  26.080  1.00  0.00     0.041 A 
ATOM     67  F   UNL A   1      48.147  27.088  28.097  1.00  0.00    -0.206 F 
ATOM     68  C   UNL A   1      49.375  26.910  24.696  1.00  0.00     0.022 A 
BRANCH  65  69
ATOM     69  S   UNL A   1      48.433  27.619  22.204  1.00  0.00     0.124 S 
ATOM     70  O   UNL A   1      49.588  28.492  22.004  1.00  0.00    -0.237 OA
ATOM     71  O   UNL A   1      48.644  26.217  21.854  1.00  0.00    -0.237 OA
ATOM     72  O   UNL A   1      47.150  28.184  21.804  1.00  0.00    -0.744 OA
ENDBRANCH  65  69
ENDBRANCH  48  62
BRANCH  49  73
ATOM     73  C   UNL A   1      38.664  30.319  30.909  1.00  0.00     0.023 A 
ATOM     74  C   UNL A   1      37.605  30.933  30.214  1.00  0.00     0.031 A 
ATOM     75  C   UNL A   1      38.535  30.159  32.298  1.00  0.00     0.131 A 
ATOM     76  C   UNL A   1      36.508  31.445  30.920  1.00  0.00     0.055 A 
ATOM     77  C   UNL A   1      37.402  30.597  32.987  1.00  0.00     0.041 A 
ATOM     78  F   UNL A   1      39.521  29.592  33.008  1.00  0.00    -0.206 F 
ATOM     79  C   UNL A   1      36.393  31.265  32.301  1.00  0.00     0.022 A 
BRANCH  76  80
ATOM     80  S   UNL A   1      35.289  32.505  30.093  1.00  0.00     0.124 S 
ATOM     81  O   UNL A   1      36.086  33.681  29.761  1.00  0.00    -0.237 OA
ATOM     82  O   UNL A   1      34.887  31.673  28.961  1.00  0.00    -0.237 OA
ATOM     83  O   UNL A   1      34.260  32.702  31.108  1.00  0.00    -0.744 OA
ENDBRANCH  76  80
ENDBRANCH  49  73
BRANCH  61  84
ATOM     84  C   UNL A   1      44.616  33.767  29.414  1.00  0.00     0.023 A 
ATOM     85  C   UNL A   1      44.340  34.832  28.535  1.00  0.00     0.031 A 
ATOM     86  C   UNL A   1      45.499  33.996  30.483  1.00  0.00     0.131 A 
ATOM     87  C   UNL A   1      44.976  36.066  28.715  1.00  0.00     0.055 A 
ATOM     88  C   UNL A   1      46.094  35.242  30.686  1.00  0.00     0.041 A 
ATOM     89  F   UNL A   1      45.800  33.009  31.341  1.00  0.00    -0.206 F 
ATOM     90  C   UNL A   1      45.845  36.279  29.791  1.00  0.00     0.022 A 
BRANCH  87  91
ATOM     91  S   UNL A   1      44.774  37.408  27.512  1.00  0.00     0.124 S 
ATOM     92  O   UNL A   1      44.798  38.590  28.371  1.00  0.00    -0.237 OA
ATOM     93  O   UNL A   1      45.944  37.233  26.657  1.00  0.00    -0.237 OA
ATOM     94  O   UNL A   1      43.489  37.125  26.881  1.00  0.00    -0.744 OA
ENDBRANCH  87  91
ENDBRANCH  61  84
ENDBRANCH  35  36
ENDBRANCH  27  30
ENDBRANCH  25  26
ENDBRANCH   1  25
TORSDOF 16
ENDMDL
MODEL 2
REMARK VINA RESULT:     -12.5      5.223     10.328
REMARK SMILES CCCc1cc2c(cc1Cl)C=C(C(=O)NCCCNC(=O)c1ccc(-c3c4nc(c(-c5cc(S(=O)(=O)[O-])ccc5F)c5ccc([nH]5)c(-c5cc(S(=O)(=O)[O-])ccc5F)c5nc(c(-c6cc(S(=O)(=O)[O-])ccc6F)c6ccc3[nH]6)C=C5)C=C4)cc1)[C@@H](C(F)(F)F)O2
REMARK SMILES IDX 17 1 16 2 15 3 13 4 14 5 12 7 4 8 5 9 9 10 6 11 8 12 10 13
REMARK SMILES IDX 7 14 90 15 11 16 85 17 3 18 2 19 1 20 86 21 87 22 88 23
REMARK SMILES IDX 89 24 18 25 19 26 20 27 21 29 22 30 23 31 84 32 24 33 83 34
REMARK SMILES IDX 25 35 26 36 27 37 77 38 28 39 82 40 76 41 78 42 29 43 81 44
REMARK SMILES IDX 75 45 74 46 30 48 62 49 42 50 61 51 43 52 46 53 60 54 79 55
REMARK SMILES IDX 44 56 45 57 59 59 80 60 47 61 31 62 32 63 40 64 33 65 39 66
REMARK SMILES IDX 41 67 38 68 34 69 35 70 36 71 37 72 63 73 64 74 72 75 65 76
REMARK SMILES IDX 71 77 73 78 70 79 66 80 67 81 68 82 69 83 48 84 49 85 57 86
REMARK SMILES IDX 50 87 56 88 58 89 55 90 51 91 52 92 53 93 54 94
REMARK H PARENT 15 6 19 28 78 47 46 58
REMARK Flexibility Score: inf
ROOT
ATOM      1  C   UNL A   1      31.303  30.104  25.253  1.00  0.00     0.042 C 
ENDROOT
BRANCH   1   2
ATOM      2  C   UNL A   1      31.776  28.799  24.632  1.00  0.00     0.118 C 
BRANCH   2   3
ATOM      3  N   UNL A   1      30.685  27.849  24.460  1.00  0.00    -0.352 N 
ATOM      4  C   UNL A   1      30.551  26.531  24.189  1.00  0.00     0.251 C 
ATOM      5  O   UNL A   1      29.387  26.119  24.141  1.00  0.00    -0.270 OA
ATOM      6  H   UNL A   1      29.809  28.284  24.573  1.00  0.00     0.163 HD
BRANCH   4   7
ATOM      7  C   UNL A   1      31.677  25.581  23.964  1.00  0.00     0.067 C 
ATOM      8  C   UNL A   1      35.982  22.966  24.261  1.00  0.00    -0.026 A 
ATOM      9  C   UNL A   1      34.789  22.829  23.533  1.00  0.00     0.052 A 
ATOM     10  C   UNL A   1      36.011  23.927  25.290  1.00  0.00     0.045 A 
ATOM     11  C   UNL A   1      33.718  23.692  23.748  1.00  0.00     0.128 A 
ATOM     12  C   UNL A   1      34.913  24.767  25.530  1.00  0.00     0.032 A 
ATOM     13  Cl  UNL A   1      37.388  24.130  26.319  1.00  0.00    -0.084 Cl
ATOM     14  C   UNL A   1      33.769  24.666  24.740  1.00  0.00     0.019 A 
ATOM     15  O   UNL A   1      32.623  23.522  22.948  1.00  0.00    -0.475 OA
ATOM     16  C   UNL A   1      32.617  25.540  24.931  1.00  0.00     0.025 C 
ATOM     17  C   UNL A   1      31.833  24.726  22.738  1.00  0.00     0.314 C 
BRANCH   8  18
ATOM     18  C   UNL A   1      37.161  22.065  23.952  1.00  0.00     0.037 C 
BRANCH  18  19
ATOM     19  C   UNL A   1      37.561  21.062  25.049  1.00  0.00     0.001 C 
ATOM     20  C   UNL A   1      36.971  19.673  24.843  1.00  0.00     0.004 C 
ENDBRANCH  18  19
ENDBRANCH   8  18
BRANCH  17  21
ATOM     21  C   UNL A   1      32.398  25.511  21.536  1.00  0.00     0.429 C 
ATOM     22  F   UNL A   1      31.414  26.214  20.919  1.00  0.00    -0.167 F 
ATOM     23  F   UNL A   1      33.343  26.411  21.900  1.00  0.00    -0.167 F 
ATOM     24  F   UNL A   1      32.966  24.712  20.604  1.00  0.00    -0.167 F 
ENDBRANCH  17  21
ENDBRANCH   4   7
ENDBRANCH   2   3
ENDBRANCH   1   2
BRANCH   1  25
ATOM     25  C   UNL A   1      32.148  30.516  26.452  1.00  0.00     0.118 C 
BRANCH  25  26
ATOM     26  N   UNL A   1      32.086  31.956  26.700  1.00  0.00    -0.352 N 
ATOM     27  C   UNL A   1      32.904  32.768  27.450  1.00  0.00     0.251 C 
ATOM     28  H   UNL A   1      31.339  32.419  26.257  1.00  0.00     0.163 HD
ATOM     29  O   UNL A   1      32.538  33.909  27.719  1.00  0.00    -0.269 OA
BRANCH  27  30
ATOM     30  C   UNL A   1      34.198  32.258  27.947  1.00  0.00     0.039 A 
ATOM     31  C   UNL A   1      34.318  30.929  28.352  1.00  0.00     0.014 A 
ATOM     32  C   UNL A   1      35.302  33.113  28.016  1.00  0.00     0.014 A 
ATOM     33  C   UNL A   1      35.462  30.517  29.020  1.00  0.00     0.010 A 
ATOM     34  C   UNL A   1      36.496  32.659  28.583  1.00  0.00     0.010 A 
ATOM     35  C   UNL A   1      36.568  31.373  29.142  1.00  0.00    -0.014 A 
BRANCH  35  36
ATOM     36  C   UNL A   1      37.782  30.884  29.849  1.00  0.00     0.031 A 
ATOM     37  C   UNL A   1      38.053  31.269  31.278  1.00  0.00     0.074 A 
ATOM     38  C   UNL A   1      38.603  30.028  29.210  1.00  0.00     0.049 A 
ATOM     39  N   UNL A   1      39.033  30.889  32.057  1.00  0.00    -0.248 NA
ATOM     40  C   UNL A   1      37.114  32.205  31.917  1.00  0.00     0.031 C 
ATOM     41  C   UNL A   1      38.433  29.593  27.823  1.00  0.00     0.029 A 
ATOM     42  N   UNL A   1      39.715  29.347  29.638  1.00  0.00    -0.354 N 
ATOM     43  C   UNL A   1      38.845  31.556  33.263  1.00  0.00     0.074 A 
ATOM     44  C   UNL A   1      37.675  32.389  33.104  1.00  0.00     0.031 C 
ATOM     45  C   UNL A   1      39.357  28.668  27.537  1.00  0.00     0.029 A 
ATOM     46  C   UNL A   1      40.242  28.505  28.686  1.00  0.00     0.049 A 
ATOM     47  H   UNL A   1      40.098  29.451  30.538  1.00  0.00     0.167 HD
ATOM     48  C   UNL A   1      39.578  31.468  34.399  1.00  0.00     0.034 A 
ATOM     49  C   UNL A   1      41.325  27.700  28.722  1.00  0.00     0.034 A 
ATOM     50  C   UNL A   1      40.723  30.606  34.547  1.00  0.00     0.049 A 
ATOM     51  C   UNL A   1      42.124  27.625  29.995  1.00  0.00     0.074 A 
ATOM     52  C   UNL A   1      41.507  30.415  35.672  1.00  0.00     0.029 A 
ATOM     53  N   UNL A   1      41.247  29.792  33.553  1.00  0.00    -0.354 N 
ATOM     54  N   UNL A   1      41.903  28.226  31.141  1.00  0.00    -0.248 NA
ATOM     55  C   UNL A   1      43.317  26.769  29.988  1.00  0.00     0.031 C 
ATOM     56  C   UNL A   1      42.537  29.535  35.341  1.00  0.00     0.029 A 
ATOM     57  C   UNL A   1      42.360  29.119  34.030  1.00  0.00     0.049 A 
ATOM     58  H   UNL A   1      40.882  29.705  32.642  1.00  0.00     0.167 HD
ATOM     59  C   UNL A   1      42.922  27.817  31.992  1.00  0.00     0.074 A 
ATOM     60  C   UNL A   1      43.741  26.888  31.241  1.00  0.00     0.031 C 
ATOM     61  C   UNL A   1      43.165  28.187  33.275  1.00  0.00     0.034 A 
BRANCH  48  62
ATOM     62  C   UNL A   1      39.180  32.309  35.587  1.00  0.00     0.023 A 
ATOM     63  C   UNL A   1      39.684  33.617  35.721  1.00  0.00     0.031 A 
ATOM     64  C   UNL A   1      38.414  31.781  36.642  1.00  0.00     0.131 A 
ATOM     65  C   UNL A   1      39.443  34.340  36.896  1.00  0.00     0.055 A 
ATOM     66  C   UNL A   1      38.145  32.522  37.795  1.00  0.00     0.041 A 
ATOM     67  F   UNL A   1      37.910  30.539  36.564  1.00  0.00    -0.206 F 
ATOM     68  C   UNL A   1      38.672  33.803  37.931  1.00  0.00     0.022 A 
BRANCH  65  69
ATOM     69  S   UNL A   1      40.175  35.981  37.156  1.00  0.00     0.124 S 
ATOM     70  O   UNL A   1      39.605  36.359  38.448  1.00  0.00    -0.237 OA
ATOM     71  O   UNL A   1      41.603  35.679  37.169  1.00  0.00    -0.237 OA
ATOM     72  O   UNL A   1      39.704  36.760  36.017  1.00  0.00    -0.744 OA
ENDBRANCH  65  69
ENDBRANCH  48  62
BRANCH  49  73
ATOM     73  C   UNL A   1      41.666  26.894  27.513  1.00  0.00     0.023 A 
ATOM     74  C   UNL A   1      41.439  25.505  27.488  1.00  0.00     0.031 A 
ATOM     75  C   UNL A   1      42.343  27.470  26.426  1.00  0.00     0.131 A 
ATOM     76  C   UNL A   1      41.961  24.729  26.445  1.00  0.00     0.055 A 
ATOM     77  C   UNL A   1      42.791  26.704  25.348  1.00  0.00     0.041 A 
ATOM     78  F   UNL A   1      42.596  28.787  26.408  1.00  0.00    -0.206 F 
ATOM     79  C   UNL A   1      42.622  25.323  25.366  1.00  0.00     0.022 A 
BRANCH  76  80
ATOM     80  S   UNL A   1      41.951  22.916  26.545  1.00  0.00     0.124 S 
ATOM     81  O   UNL A   1      40.527  22.615  26.437  1.00  0.00    -0.237 OA
ATOM     82  O   UNL A   1      42.765  22.548  25.389  1.00  0.00    -0.237 OA
ATOM     83  O   UNL A   1      42.561  22.640  27.841  1.00  0.00    -0.744 OA
ENDBRANCH  76  80
ENDBRANCH  49  73
BRANCH  61  84
ATOM     84  C   UNL A   1      44.368  27.605  33.975  1.00  0.00     0.023 A 
ATOM     85  C   UNL A   1      44.228  26.457  34.777  1.00  0.00     0.031 A 
ATOM     86  C   UNL A   1      45.605  28.272  33.974  1.00  0.00     0.131 A 
ATOM     87  C   UNL A   1      45.294  26.035  35.581  1.00  0.00     0.055 A 
ATOM     88  C   UNL A   1      46.680  27.820  34.739  1.00  0.00     0.041 A 
ATOM     89  F   UNL A   1      45.783  29.377  33.231  1.00  0.00    -0.206 F 
ATOM     90  C   UNL A   1      46.522  26.706  35.559  1.00  0.00     0.022 A 
BRANCH  87  91
ATOM     91  S   UNL A   1      45.100  24.662  36.748  1.00  0.00     0.124 S 
ATOM     92  O   UNL A   1      46.457  24.517  37.272  1.00  0.00    -0.237 OA
ATOM     93  O   UNL A   1      44.121  25.196  37.691  1.00  0.00    -0.237 OA
ATOM     94  O   UNL A   1      44.633  23.557  35.919  1.00  0.00    -0.744 OA
ENDBRANCH  87  91
ENDBRANCH  61  84
ENDBRANCH  35  36
ENDBRANCH  27  30
ENDBRANCH  25  26
ENDBRANCH   1  25
TORSDOF 16
ENDMDL
MODEL 3
REMARK VINA RESULT:     -12.3      5.486     10.768
REMARK SMILES CCCc1cc2c(cc1Cl)C=C(C(=O)NCCCNC(=O)c1ccc(-c3c4nc(c(-c5cc(S(=O)(=O)[O-])ccc5F)c5ccc([nH]5)c(-c5cc(S(=O)(=O)[O-])ccc5F)c5nc(c(-c6cc(S(=O)(=O)[O-])ccc6F)c6ccc3[nH]6)C=C5)C=C4)cc1)[C@@H](C(F)(F)F)O2
REMARK SMILES IDX 17 1 16 2 15 3 13 4 14 5 12 7 4 8 5 9 9 10 6 11 8 12 10 13
REMARK SMILES IDX 7 14 90 15 11 16 85 17 3 18 2 19 1 20 86 21 87 22 88 23
REMARK SMILES IDX 89 24 18 25 19 26 20 27 21 29 22 30 23 31 84 32 24 33 83 34
REMARK SMILES IDX 25 35 26 36 27 37 77 38 28 39 82 40 76 41 78 42 29 43 81 44
REMARK SMILES IDX 75 45 74 46 30 48 62 49 42 50 61 51 43 52 46 53 60 54 79 55
REMARK SMILES IDX 44 56 45 57 59 59 80 60 47 61 31 62 32 63 40 64 33 65 39 66
REMARK SMILES IDX 41 67 38 68 34 69 35 70 36 71 37 72 63 73 64 74 72 75 65 76
REMARK SMILES IDX 71 77 73 78 70 79 66 80 67 81 68 82 69 83 48 84 49 85 57 86
REMARK SMILES IDX 50 87 56 88 58 89 55 90 51 91 52 92 53 93 54 94
REMARK H PARENT 15 6 19 28 78 47 46 58
REMARK Flexibility Score: inf
ROOT
ATOM      1  C   UNL A   1      31.063  31.947  25.966  1.00  0.00     0.042 C 
ENDROOT
BRANCH   1   2
ATOM      2  C   UNL A   1      31.114  30.557  25.350  1.00  0.00     0.118 C 
BRANCH   2   3
ATOM      3  N   UNL A   1      30.277  30.456  24.162  1.00  0.00    -0.352 N 
ATOM      4  C   UNL A   1      29.953  29.506  23.255  1.00  0.00     0.251 C 
ATOM      5  O   UNL A   1      29.164  29.865  22.375  1.00  0.00    -0.270 OA
ATOM      6  H   UNL A   1      29.824  31.308  23.967  1.00  0.00     0.163 HD
BRANCH   4   7
ATOM      7  C   UNL A   1      30.463  28.105  23.259  1.00  0.00     0.067 C 
ATOM      8  C   UNL A   1      31.518  23.305  24.397  1.00  0.00    -0.026 A 
ATOM      9  C   UNL A   1      31.680  24.110  23.257  1.00  0.00     0.052 A 
ATOM     10  C   UNL A   1      30.744  23.818  25.455  1.00  0.00     0.045 A 
ATOM     11  C   UNL A   1      31.188  25.412  23.228  1.00  0.00     0.128 A 
ATOM     12  C   UNL A   1      30.216  25.118  25.402  1.00  0.00     0.032 A 
ATOM     13  Cl  UNL A   1      30.393  22.890  26.872  1.00  0.00    -0.084 Cl
ATOM     14  C   UNL A   1      30.458  25.928  24.294  1.00  0.00     0.019 A 
ATOM     15  O   UNL A   1      31.449  26.142  22.103  1.00  0.00    -0.475 OA
ATOM     16  C   UNL A   1      29.957  27.295  24.211  1.00  0.00     0.025 C 
ATOM     17  C   UNL A   1      31.506  27.581  22.311  1.00  0.00     0.314 C 
BRANCH   8  18
ATOM     18  C   UNL A   1      32.132  21.919  24.433  1.00  0.00     0.037 C 
BRANCH  18  19
ATOM     19  C   UNL A   1      33.612  21.837  24.845  1.00  0.00     0.001 C 
ATOM     20  C   UNL A   1      33.814  21.672  26.346  1.00  0.00     0.004 C 
ENDBRANCH  18  19
ENDBRANCH   8  18
BRANCH  17  21
ATOM     21  C   UNL A   1      32.937  27.988  22.721  1.00  0.00     0.429 C 
ATOM     22  F   UNL A   1      33.854  27.293  22.002  1.00  0.00    -0.167 F 
ATOM     23  F   UNL A   1      33.187  29.301  22.499  1.00  0.00    -0.167 F 
ATOM     24  F   UNL A   1      33.195  27.762  24.029  1.00  0.00    -0.167 F 
ENDBRANCH  17  21
ENDBRANCH   4   7
ENDBRANCH   2   3
ENDBRANCH   1   2
BRANCH   1  25
ATOM     25  C   UNL A   1      32.152  32.159  27.010  1.00  0.00     0.118 C 
BRANCH  25  26
ATOM     26  N   UNL A   1      32.258  33.559  27.418  1.00  0.00    -0.352 N 
ATOM     27  C   UNL A   1      33.150  34.177  28.262  1.00  0.00     0.251 C 
ATOM     28  H   UNL A   1      31.582  34.156  27.023  1.00  0.00     0.163 HD
ATOM     29  O   UNL A   1      32.918  35.318  28.655  1.00  0.00    -0.269 OA
BRANCH  27  30
ATOM     30  C   UNL A   1      34.362  33.462  28.710  1.00  0.00     0.039 A 
ATOM     31  C   UNL A   1      34.248  32.296  29.467  1.00  0.00     0.014 A 
ATOM     32  C   UNL A   1      35.625  33.960  28.379  1.00  0.00     0.014 A 
ATOM     33  C   UNL A   1      35.375  31.756  30.068  1.00  0.00     0.010 A 
ATOM     34  C   UNL A   1      36.770  33.341  28.890  1.00  0.00     0.010 A 
ATOM     35  C   UNL A   1      36.652  32.267  29.786  1.00  0.00    -0.014 A 
BRANCH  35  36
ATOM     36  C   UNL A   1      37.836  31.646  30.438  1.00  0.00     0.031 A 
ATOM     37  C   UNL A   1      38.191  31.966  31.864  1.00  0.00     0.074 A 
ATOM     38  C   UNL A   1      38.548  30.731  29.750  1.00  0.00     0.049 A 
ATOM     39  N   UNL A   1      39.156  31.474  32.598  1.00  0.00    -0.248 NA
ATOM     40  C   UNL A   1      37.370  32.971  32.557  1.00  0.00     0.031 C 
ATOM     41  C   UNL A   1      38.290  30.350  28.361  1.00  0.00     0.029 A 
ATOM     42  N   UNL A   1      39.602  29.935  30.122  1.00  0.00    -0.354 N 
ATOM     43  C   UNL A   1      39.075  32.124  33.825  1.00  0.00     0.074 A 
ATOM     44  C   UNL A   1      37.986  33.069  33.727  1.00  0.00     0.031 C 
ATOM     45  C   UNL A   1      39.110  29.348  28.020  1.00  0.00     0.029 A 
ATOM     46  C   UNL A   1      40.013  29.072  29.133  1.00  0.00     0.049 A 
ATOM     47  H   UNL A   1      40.024  29.979  31.010  1.00  0.00     0.167 HD
ATOM     48  C   UNL A   1      39.833  31.937  34.931  1.00  0.00     0.034 A 
ATOM     49  C   UNL A   1      41.013  28.166  29.112  1.00  0.00     0.034 A 
ATOM     50  C   UNL A   1      40.894  30.965  35.018  1.00  0.00     0.049 A 
ATOM     51  C   UNL A   1      41.844  27.982  30.353  1.00  0.00     0.074 A 
ATOM     52  C   UNL A   1      41.693  30.671  36.109  1.00  0.00     0.029 A 
ATOM     53  N   UNL A   1      41.302  30.130  33.988  1.00  0.00    -0.354 N 
ATOM     54  N   UNL A   1      41.721  28.572  31.519  1.00  0.00    -0.248 NA
ATOM     55  C   UNL A   1      42.947  27.015  30.284  1.00  0.00     0.031 C 
ATOM     56  C   UNL A   1      42.621  29.705  35.721  1.00  0.00     0.029 A 
ATOM     57  C   UNL A   1      42.360  29.341  34.409  1.00  0.00     0.049 A 
ATOM     58  H   UNL A   1      40.900  30.103  33.090  1.00  0.00     0.167 HD
ATOM     59  C   UNL A   1      42.724  28.045  32.324  1.00  0.00     0.074 A 
ATOM     60  C   UNL A   1      43.423  27.060  31.522  1.00  0.00     0.031 C 
ATOM     61  C   UNL A   1      43.045  28.356  33.604  1.00  0.00     0.034 A 
BRANCH  48  62
ATOM     62  C   UNL A   1      39.559  32.781  36.151  1.00  0.00     0.023 A 
ATOM     63  C   UNL A   1      38.738  32.282  37.180  1.00  0.00     0.031 A 
ATOM     64  C   UNL A   1      39.998  34.115  36.241  1.00  0.00     0.131 A 
ATOM     65  C   UNL A   1      38.355  33.118  38.236  1.00  0.00     0.055 A 
ATOM     66  C   UNL A   1      39.645  34.933  37.316  1.00  0.00     0.041 A 
ATOM     67  F   UNL A   1      40.784  34.639  35.287  1.00  0.00    -0.206 F 
ATOM     68  C   UNL A   1      38.808  34.439  38.313  1.00  0.00     0.022 A 
BRANCH  65  69
ATOM     69  S   UNL A   1      37.202  32.548  39.516  1.00  0.00     0.124 S 
ATOM     70  O   UNL A   1      35.926  32.586  38.806  1.00  0.00    -0.237 OA
ATOM     71  O   UNL A   1      37.711  31.212  39.812  1.00  0.00    -0.237 OA
ATOM     72  O   UNL A   1      37.349  33.531  40.583  1.00  0.00    -0.744 OA
ENDBRANCH  65  69
ENDBRANCH  48  62
BRANCH  49  73
ATOM     73  C   UNL A   1      41.234  27.362  27.874  1.00  0.00     0.023 A 
ATOM     74  C   UNL A   1      40.880  26.000  27.829  1.00  0.00     0.031 A 
ATOM     75  C   UNL A   1      41.918  27.901  26.773  1.00  0.00     0.131 A 
ATOM     76  C   UNL A   1      41.290  25.206  26.750  1.00  0.00     0.055 A 
ATOM     77  C   UNL A   1      42.253  27.124  25.661  1.00  0.00     0.041 A 
ATOM     78  F   UNL A   1      42.288  29.190  26.771  1.00  0.00    -0.206 F 
ATOM     79  C   UNL A   1      41.960  25.764  25.657  1.00  0.00     0.022 A 
BRANCH  76  80
ATOM     80  S   UNL A   1      41.119  23.400  26.812  1.00  0.00     0.124 S 
ATOM     81  O   UNL A   1      39.705  23.218  26.502  1.00  0.00    -0.237 OA
ATOM     82  O   UNL A   1      42.055  22.974  25.774  1.00  0.00    -0.237 OA
ATOM     83  O   UNL A   1      41.517  23.064  28.175  1.00  0.00    -0.744 OA
ENDBRANCH  76  80
ENDBRANCH  49  73
BRANCH  61  84
ATOM     84  C   UNL A   1      44.209  27.644  34.247  1.00  0.00     0.023 A 
ATOM     85  C   UNL A   1      44.007  26.413  34.900  1.00  0.00     0.031 A 
ATOM     86  C   UNL A   1      45.471  28.254  34.349  1.00  0.00     0.131 A 
ATOM     87  C   UNL A   1      45.038  25.852  35.663  1.00  0.00     0.055 A 
ATOM     88  C   UNL A   1      46.510  27.667  35.070  1.00  0.00     0.041 A 
ATOM     89  F   UNL A   1      45.708  29.432  33.751  1.00  0.00    -0.206 F 
ATOM     90  C   UNL A   1      46.292  26.469  35.744  1.00  0.00     0.022 A 
BRANCH  87  91
ATOM     91  S   UNL A   1      44.765  24.355  36.649  1.00  0.00     0.124 S 
ATOM     92  O   UNL A   1      46.105  23.773  36.693  1.00  0.00    -0.237 OA
ATOM     93  O   UNL A   1      44.282  24.904  37.913  1.00  0.00    -0.237 OA
ATOM     94  O   UNL A   1      43.784  23.599  35.879  1.00  0.00    -0.744 OA
ENDBRANCH  87  91
ENDBRANCH  61  84
ENDBRANCH  35  36
ENDBRANCH  27  30
ENDBRANCH  25  26
ENDBRANCH   1  25
TORSDOF 16
ENDMDL
