MODEL 1
REMARK VINA RESULT:     -12.0      0.000      0.000
REMARK SMILES CCCC[C@@H](NS(=O)(=O)c1cc2c3c(c1)c(C)cc(=O)n3CC2)C(=O)NCCCNC(=O)c1ccc(-c2c3nc(c(-c4cc(S(=O)(=O)[O-])ccc4F)c4ccc([nH]4)c(-c4cc(S(=O)(=O)[O-])ccc4F)c4nc(c(-c5cc(S(=O)(=O)[O-])ccc5F)c5ccc2[nH]5)C=C4)C=C3)cc1
REMARK SMILES IDX 28 1 27 2 26 3 24 4 25 5 5 7 4 8 3 9 2 10 1 11 6 12 7 14
REMARK SMILES IDX 8 15 9 16 10 17 11 18 15 19 12 20 14 21 13 22 23 23 16 24
REMARK SMILES IDX 21 25 22 26 17 27 18 28 19 29 20 30 29 31 30 32 31 33 32 35
REMARK SMILES IDX 33 36 34 37 95 38 35 39 94 40 36 41 37 42 38 43 88 44 39 45
REMARK SMILES IDX 93 46 87 47 89 48 40 49 92 50 86 51 85 52 41 54 73 55 53 56
REMARK SMILES IDX 72 57 54 58 57 59 71 60 90 61 55 62 56 63 70 65 91 66 58 67
REMARK SMILES IDX 42 68 43 69 51 70 44 71 50 72 52 73 49 74 45 75 46 76 47 77
REMARK SMILES IDX 48 78 74 79 75 80 83 81 76 82 82 83 84 84 81 85 77 86 78 87
REMARK SMILES IDX 79 88 80 89 59 90 60 91 68 92 61 93 67 94 69 95 66 96 62 97
REMARK SMILES IDX 63 98 64 99 65 100
REMARK H PARENT 26 6 6 13 30 34 89 53 57 64
REMARK Flexibility Score: inf
ROOT
ATOM      1  C   UNL A   1      33.159  29.145  24.976  1.00  0.00     0.042 C 
ENDROOT
BRANCH   1   2
ATOM      2  C   UNL A   1      31.700  29.544  25.104  1.00  0.00     0.117 C 
BRANCH   2   3
ATOM      3  N   UNL A   1      31.116  29.867  23.811  1.00  0.00    -0.355 N 
ATOM      4  C   UNL A   1      30.797  29.055  22.761  1.00  0.00     0.238 C 
ATOM      5  O   UNL A   1      30.330  29.577  21.746  1.00  0.00    -0.273 OA
ATOM      6  H   UNL A   1      30.922  30.822  23.673  1.00  0.00     0.163 HD
BRANCH   4   7
ATOM      7  C   UNL A   1      30.998  27.540  22.851  1.00  0.00     0.159 C 
BRANCH   7   8
ATOM      8  C   UNL A   1      29.705  26.896  23.383  1.00  0.00     0.030 C 
BRANCH   8   9
ATOM      9  C   UNL A   1      29.888  25.611  24.195  1.00  0.00     0.002 C 
BRANCH   9  10
ATOM     10  C   UNL A   1      29.913  25.784  25.712  1.00  0.00    -0.003 C 
ATOM     11  C   UNL A   1      31.291  26.120  26.265  1.00  0.00     0.004 C 
ENDBRANCH   9  10
ENDBRANCH   8   9
ENDBRANCH   7   8
BRANCH   7  12
ATOM     12  N   UNL A   1      31.400  26.982  21.541  1.00  0.00    -0.199 NA
ATOM     13  H   UNL A   1      31.274  27.725  20.854  1.00  0.00     0.142 HD
BRANCH  12  14
ATOM     14  S   UNL A   1      32.952  26.375  21.317  1.00  0.00     0.241 S 
ATOM     15  O   UNL A   1      32.988  25.715  20.032  1.00  0.00    -0.207 OA
ATOM     16  O   UNL A   1      33.851  27.468  21.623  1.00  0.00    -0.207 OA
BRANCH  14  17
ATOM     17  C   UNL A   1      33.153  25.160  22.601  1.00  0.00     0.083 A 
ATOM     18  C   UNL A   1      33.893  25.508  23.747  1.00  0.00     0.027 A 
ATOM     19  C   UNL A   1      32.642  23.851  22.406  1.00  0.00     0.032 A 
ATOM     20  C   UNL A   1      34.197  24.503  24.641  1.00  0.00    -0.020 A 
ATOM     21  C   UNL A   1      32.971  22.835  23.309  1.00  0.00     0.003 A 
ATOM     22  C   UNL A   1      33.753  23.214  24.390  1.00  0.00     0.055 A 
ATOM     23  C   UNL A   1      35.045  24.533  25.877  1.00  0.00     0.060 C 
ATOM     24  C   UNL A   1      32.646  21.396  23.203  1.00  0.00    -0.036 A 
ATOM     25  N   UNL A   1      34.250  22.327  25.329  1.00  0.00    -0.308 N 
ATOM     26  C   UNL A   1      35.070  23.046  26.300  1.00  0.00     0.131 C 
ATOM     27  C   UNL A   1      31.768  20.908  22.091  1.00  0.00     0.045 C 
ATOM     28  C   UNL A   1      33.163  20.545  24.118  1.00  0.00     0.075 A 
ATOM     29  C   UNL A   1      34.021  20.981  25.265  1.00  0.00     0.251 A 
ATOM     30  O   UNL A   1      34.462  20.162  26.063  1.00  0.00    -0.269 OA
ENDBRANCH  14  17
ENDBRANCH  12  14
ENDBRANCH   7  12
ENDBRANCH   4   7
ENDBRANCH   2   3
ENDBRANCH   1   2
BRANCH   1  31
ATOM     31  C   UNL A   1      33.911  29.260  26.295  1.00  0.00     0.118 C 
BRANCH  31  32
ATOM     32  N   UNL A   1      33.829  30.606  26.851  1.00  0.00    -0.352 N 
ATOM     33  C   UNL A   1      34.584  31.166  27.850  1.00  0.00     0.251 C 
ATOM     34  H   UNL A   1      33.140  31.190  26.458  1.00  0.00     0.163 HD
ATOM     35  O   UNL A   1      34.237  32.216  28.380  1.00  0.00    -0.269 OA
BRANCH  33  36
ATOM     36  C   UNL A   1      35.822  30.478  28.261  1.00  0.00     0.039 A 
ATOM     37  C   UNL A   1      37.006  30.696  27.558  1.00  0.00     0.014 A 
ATOM     38  C   UNL A   1      35.796  29.644  29.384  1.00  0.00     0.014 A 
ATOM     39  C   UNL A   1      38.188  30.116  28.018  1.00  0.00     0.010 A 
ATOM     40  C   UNL A   1      36.983  29.126  29.880  1.00  0.00     0.010 A 
ATOM     41  C   UNL A   1      38.186  29.345  29.193  1.00  0.00    -0.014 A 
BRANCH  41  42
ATOM     42  C   UNL A   1      39.426  28.732  29.717  1.00  0.00     0.031 A 
ATOM     43  C   UNL A   1      40.077  29.309  30.940  1.00  0.00     0.074 A 
ATOM     44  C   UNL A   1      40.011  27.726  29.041  1.00  0.00     0.049 A 
ATOM     45  N   UNL A   1      41.183  28.945  31.529  1.00  0.00    -0.248 NA
ATOM     46  C   UNL A   1      39.412  30.465  31.564  1.00  0.00     0.031 C 
ATOM     47  C   UNL A   1      39.501  27.140  27.801  1.00  0.00     0.029 A 
ATOM     48  N   UNL A   1      41.170  27.035  29.288  1.00  0.00    -0.354 N 
ATOM     49  C   UNL A   1      41.358  29.835  32.581  1.00  0.00     0.074 A 
ATOM     50  C   UNL A   1      40.273  30.787  32.519  1.00  0.00     0.031 C 
ATOM     51  C   UNL A   1      40.340  26.172  27.400  1.00  0.00     0.029 A 
ATOM     52  C   UNL A   1      41.458  26.085  28.339  1.00  0.00     0.049 A 
ATOM     53  H   UNL A   1      41.742  27.206  30.072  1.00  0.00     0.167 HD
ATOM     54  C   UNL A   1      42.326  29.841  33.524  1.00  0.00     0.034 A 
ATOM     55  C   UNL A   1      42.502  25.238  28.236  1.00  0.00     0.034 A 
ATOM     56  C   UNL A   1      43.381  28.867  33.590  1.00  0.00     0.049 A 
ATOM     57  C   UNL A   1      43.549  25.233  29.318  1.00  0.00     0.074 A 
ATOM     58  C   UNL A   1      44.346  28.720  34.569  1.00  0.00     0.029 A 
ATOM     59  N   UNL A   1      43.616  27.882  32.642  1.00  0.00    -0.354 N 
ATOM     60  N   UNL A   1      43.629  25.993  30.385  1.00  0.00    -0.248 NA
ATOM     61  C   UNL A   1      44.636  24.251  29.200  1.00  0.00     0.031 C 
ATOM     62  C   UNL A   1      45.197  27.682  34.186  1.00  0.00     0.029 A 
ATOM     63  C   UNL A   1      44.730  27.143  32.996  1.00  0.00     0.049 A 
ATOM     64  H   UNL A   1      43.070  27.732  31.836  1.00  0.00     0.167 HD
ATOM     65  C   UNL A   1      44.761  25.569  31.076  1.00  0.00     0.074 A 
ATOM     66  C   UNL A   1      45.326  24.475  30.313  1.00  0.00     0.031 C 
ATOM     67  C   UNL A   1      45.280  26.046  32.236  1.00  0.00     0.034 A 
BRANCH  54  68
ATOM     68  C   UNL A   1      42.287  30.913  34.580  1.00  0.00     0.023 A 
ATOM     69  C   UNL A   1      43.008  32.106  34.394  1.00  0.00     0.031 A 
ATOM     70  C   UNL A   1      41.621  30.716  35.803  1.00  0.00     0.131 A 
ATOM     71  C   UNL A   1      43.061  33.050  35.427  1.00  0.00     0.055 A 
ATOM     72  C   UNL A   1      41.649  31.675  36.814  1.00  0.00     0.041 A 
ATOM     73  F   UNL A   1      40.919  29.592  36.024  1.00  0.00    -0.206 F 
ATOM     74  C   UNL A   1      42.379  32.845  36.631  1.00  0.00     0.022 A 
BRANCH  71  75
ATOM     75  S   UNL A   1      44.044  34.564  35.259  1.00  0.00     0.124 S 
ATOM     76  O   UNL A   1      43.624  35.051  33.946  1.00  0.00    -0.237 OA
ATOM     77  O   UNL A   1      43.579  35.354  36.395  1.00  0.00    -0.237 OA
ATOM     78  O   UNL A   1      45.424  34.096  35.333  1.00  0.00    -0.744 OA
ENDBRANCH  71  75
ENDBRANCH  54  68
BRANCH  55  79
ATOM     79  C   UNL A   1      42.534  24.280  27.095  1.00  0.00     0.023 A 
ATOM     80  C   UNL A   1      41.923  23.017  27.194  1.00  0.00     0.031 A 
ATOM     81  C   UNL A   1      43.301  24.561  25.952  1.00  0.00     0.131 A 
ATOM     82  C   UNL A   1      42.149  22.058  26.198  1.00  0.00     0.055 A 
ATOM     83  C   UNL A   1      43.470  23.624  24.932  1.00  0.00     0.041 A 
ATOM     84  F   UNL A   1      43.914  25.748  25.826  1.00  0.00    -0.206 F 
ATOM     85  C   UNL A   1      42.905  22.358  25.060  1.00  0.00     0.022 A 
BRANCH  82  86
ATOM     86  S   UNL A   1      41.557  20.355  26.400  1.00  0.00     0.124 S 
ATOM     87  O   UNL A   1      42.001  20.030  27.752  1.00  0.00    -0.237 OA
ATOM     88  O   UNL A   1      40.115  20.524  26.234  1.00  0.00    -0.237 OA
ATOM     89  O   UNL A   1      42.226  19.627  25.328  1.00  0.00    -0.744 OA
ENDBRANCH  82  86
ENDBRANCH  55  79
BRANCH  67  90
ATOM     90  C   UNL A   1      46.527  25.406  32.788  1.00  0.00     0.023 A 
ATOM     91  C   UNL A   1      46.425  24.413  33.782  1.00  0.00     0.031 A 
ATOM     92  C   UNL A   1      47.802  25.899  32.464  1.00  0.00     0.131 A 
ATOM     93  C   UNL A   1      47.574  23.982  34.453  1.00  0.00     0.055 A 
ATOM     94  C   UNL A   1      48.950  25.433  33.106  1.00  0.00     0.041 A 
ATOM     95  F   UNL A   1      47.947  26.852  31.529  1.00  0.00    -0.206 F 
ATOM     96  C   UNL A   1      48.837  24.480  34.116  1.00  0.00     0.022 A 
BRANCH  93  97
ATOM     97  S   UNL A   1      47.465  22.816  35.838  1.00  0.00     0.124 S 
ATOM     98  O   UNL A   1      47.841  21.554  35.205  1.00  0.00    -0.237 OA
ATOM     99  O   UNL A   1      48.443  23.360  36.775  1.00  0.00    -0.237 OA
ATOM    100  O   UNL A   1      46.071  22.902  36.263  1.00  0.00    -0.744 OA
ENDBRANCH  93  97
ENDBRANCH  67  90
ENDBRANCH  41  42
ENDBRANCH  33  36
ENDBRANCH  31  32
ENDBRANCH   1  31
TORSDOF 19
ENDMDL
MODEL 2
REMARK VINA RESULT:     -12.0      1.887      2.131
REMARK SMILES CCCC[C@@H](NS(=O)(=O)c1cc2c3c(c1)c(C)cc(=O)n3CC2)C(=O)NCCCNC(=O)c1ccc(-c2c3nc(c(-c4cc(S(=O)(=O)[O-])ccc4F)c4ccc([nH]4)c(-c4cc(S(=O)(=O)[O-])ccc4F)c4nc(c(-c5cc(S(=O)(=O)[O-])ccc5F)c5ccc2[nH]5)C=C4)C=C3)cc1
REMARK SMILES IDX 28 1 27 2 26 3 24 4 25 5 5 7 4 8 3 9 2 10 1 11 6 12 7 14
REMARK SMILES IDX 8 15 9 16 10 17 11 18 15 19 12 20 14 21 13 22 23 23 16 24
REMARK SMILES IDX 21 25 22 26 17 27 18 28 19 29 20 30 29 31 30 32 31 33 32 35
REMARK SMILES IDX 33 36 34 37 95 38 35 39 94 40 36 41 37 42 38 43 88 44 39 45
REMARK SMILES IDX 93 46 87 47 89 48 40 49 92 50 86 51 85 52 41 54 73 55 53 56
REMARK SMILES IDX 72 57 54 58 57 59 71 60 90 61 55 62 56 63 70 65 91 66 58 67
REMARK SMILES IDX 42 68 43 69 51 70 44 71 50 72 52 73 49 74 45 75 46 76 47 77
REMARK SMILES IDX 48 78 74 79 75 80 83 81 76 82 82 83 84 84 81 85 77 86 78 87
REMARK SMILES IDX 79 88 80 89 59 90 60 91 68 92 61 93 67 94 69 95 66 96 62 97
REMARK SMILES IDX 63 98 64 99 65 100
REMARK H PARENT 26 6 6 13 30 34 89 53 57 64
REMARK Flexibility Score: inf
ROOT
ATOM      1  C   UNL A   1      32.813  29.352  24.799  1.00  0.00     0.042 C 
ENDROOT
BRANCH   1   2
ATOM      2  C   UNL A   1      31.334  29.648  24.970  1.00  0.00     0.117 C 
BRANCH   2   3
ATOM      3  N   UNL A   1      30.664  29.793  23.686  1.00  0.00    -0.355 N 
ATOM      4  C   UNL A   1      30.501  28.896  22.670  1.00  0.00     0.238 C 
ATOM      5  O   UNL A   1      29.910  29.271  21.655  1.00  0.00    -0.273 OA
ATOM      6  H   UNL A   1      30.267  30.679  23.526  1.00  0.00     0.163 HD
BRANCH   4   7
ATOM      7  C   UNL A   1      31.024  27.463  22.799  1.00  0.00     0.159 C 
BRANCH   7   8
ATOM      8  C   UNL A   1      29.940  26.594  23.462  1.00  0.00     0.030 C 
BRANCH   8   9
ATOM      9  C   UNL A   1      30.235  26.142  24.894  1.00  0.00     0.002 C 
BRANCH   9  10
ATOM     10  C   UNL A   1      30.305  24.632  25.111  1.00  0.00    -0.003 C 
ATOM     11  C   UNL A   1      30.947  24.234  26.432  1.00  0.00     0.004 C 
ENDBRANCH   9  10
ENDBRANCH   8   9
ENDBRANCH   7   8
BRANCH   7  12
ATOM     12  N   UNL A   1      31.435  26.930  21.480  1.00  0.00    -0.199 NA
ATOM     13  H   UNL A   1      31.349  27.698  20.815  1.00  0.00     0.142 HD
BRANCH  12  14
ATOM     14  S   UNL A   1      32.972  26.280  21.269  1.00  0.00     0.241 S 
ATOM     15  O   UNL A   1      33.000  25.622  19.983  1.00  0.00    -0.207 OA
ATOM     16  O   UNL A   1      33.899  27.346  21.587  1.00  0.00    -0.207 OA
BRANCH  14  17
ATOM     17  C   UNL A   1      33.125  25.056  22.552  1.00  0.00     0.083 A 
ATOM     18  C   UNL A   1      33.826  25.395  23.724  1.00  0.00     0.027 A 
ATOM     19  C   UNL A   1      32.618  23.749  22.331  1.00  0.00     0.032 A 
ATOM     20  C   UNL A   1      34.097  24.383  24.622  1.00  0.00    -0.020 A 
ATOM     21  C   UNL A   1      32.913  22.727  23.238  1.00  0.00     0.003 A 
ATOM     22  C   UNL A   1      33.658  23.097  24.347  1.00  0.00     0.055 A 
ATOM     23  C   UNL A   1      34.902  24.403  25.887  1.00  0.00     0.060 C 
ATOM     24  C   UNL A   1      32.588  21.290  23.112  1.00  0.00    -0.036 A 
ATOM     25  N   UNL A   1      34.120  22.202  25.297  1.00  0.00    -0.308 N 
ATOM     26  C   UNL A   1      34.908  22.913  26.301  1.00  0.00     0.131 C 
ATOM     27  C   UNL A   1      31.747  20.811  21.967  1.00  0.00     0.045 C 
ATOM     28  C   UNL A   1      33.070  20.432  24.038  1.00  0.00     0.075 A 
ATOM     29  C   UNL A   1      33.890  20.858  25.217  1.00  0.00     0.251 A 
ATOM     30  O   UNL A   1      34.301  20.032  26.024  1.00  0.00    -0.269 OA
ENDBRANCH  14  17
ENDBRANCH  12  14
ENDBRANCH   7  12
ENDBRANCH   4   7
ENDBRANCH   2   3
ENDBRANCH   1   2
BRANCH   1  31
ATOM     31  C   UNL A   1      33.612  29.634  26.065  1.00  0.00     0.118 C 
BRANCH  31  32
ATOM     32  N   UNL A   1      33.392  30.990  26.554  1.00  0.00    -0.352 N 
ATOM     33  C   UNL A   1      34.045  31.651  27.564  1.00  0.00     0.251 C 
ATOM     34  H   UNL A   1      32.683  31.499  26.100  1.00  0.00     0.163 HD
ATOM     35  O   UNL A   1      33.586  32.690  28.027  1.00  0.00    -0.269 OA
BRANCH  33  36
ATOM     36  C   UNL A   1      35.308  31.083  28.070  1.00  0.00     0.039 A 
ATOM     37  C   UNL A   1      36.484  31.830  27.998  1.00  0.00     0.014 A 
ATOM     38  C   UNL A   1      35.297  29.813  28.657  1.00  0.00     0.014 A 
ATOM     39  C   UNL A   1      37.650  31.319  28.570  1.00  0.00     0.010 A 
ATOM     40  C   UNL A   1      36.440  29.340  29.285  1.00  0.00     0.010 A 
ATOM     41  C   UNL A   1      37.628  30.081  29.234  1.00  0.00    -0.014 A 
BRANCH  41  42
ATOM     42  C   UNL A   1      38.843  29.523  29.866  1.00  0.00     0.031 A 
ATOM     43  C   UNL A   1      39.279  30.032  31.209  1.00  0.00     0.074 A 
ATOM     44  C   UNL A   1      39.597  28.634  29.194  1.00  0.00     0.049 A 
ATOM     45  N   UNL A   1      40.331  29.703  31.908  1.00  0.00    -0.248 NA
ATOM     46  C   UNL A   1      38.438  31.068  31.833  1.00  0.00     0.031 C 
ATOM     47  C   UNL A   1      39.304  28.129  27.853  1.00  0.00     0.029 A 
ATOM     48  N   UNL A   1      40.774  28.017  29.536  1.00  0.00    -0.354 N 
ATOM     49  C   UNL A   1      40.291  30.502  33.044  1.00  0.00     0.074 A 
ATOM     50  C   UNL A   1      39.139  31.367  32.917  1.00  0.00     0.031 C 
ATOM     51  C   UNL A   1      40.271  27.272  27.489  1.00  0.00     0.029 A 
ATOM     52  C   UNL A   1      41.265  27.187  28.558  1.00  0.00     0.049 A 
ATOM     53  H   UNL A   1      41.225  28.158  30.400  1.00  0.00     0.167 HD
ATOM     54  C   UNL A   1      41.127  30.496  34.106  1.00  0.00     0.034 A 
ATOM     55  C   UNL A   1      42.386  26.438  28.525  1.00  0.00     0.034 A 
ATOM     56  C   UNL A   1      42.250  29.607  34.231  1.00  0.00     0.049 A 
ATOM     57  C   UNL A   1      43.284  26.415  29.734  1.00  0.00     0.074 A 
ATOM     58  C   UNL A   1      43.093  29.446  35.314  1.00  0.00     0.029 A 
ATOM     59  N   UNL A   1      42.691  28.738  33.244  1.00  0.00    -0.354 N 
ATOM     60  N   UNL A   1      43.160  27.076  30.861  1.00  0.00    -0.248 NA
ATOM     61  C   UNL A   1      44.462  25.538  29.681  1.00  0.00     0.031 C 
ATOM     62  C   UNL A   1      44.077  28.520  34.964  1.00  0.00     0.029 A 
ATOM     63  C   UNL A   1      43.814  28.059  33.682  1.00  0.00     0.049 A 
ATOM     64  H   UNL A   1      42.267  28.621  32.363  1.00  0.00     0.167 HD
ATOM     65  C   UNL A   1      44.229  26.680  31.660  1.00  0.00     0.074 A 
ATOM     66  C   UNL A   1      44.983  25.711  30.891  1.00  0.00     0.031 C 
ATOM     67  C   UNL A   1      44.553  27.085  32.914  1.00  0.00     0.034 A 
BRANCH  54  68
ATOM     68  C   UNL A   1      40.858  31.457  35.232  1.00  0.00     0.023 A 
ATOM     69  C   UNL A   1      39.703  31.309  36.019  1.00  0.00     0.031 A 
ATOM     70  C   UNL A   1      41.690  32.568  35.464  1.00  0.00     0.131 A 
ATOM     71  C   UNL A   1      39.400  32.270  36.992  1.00  0.00     0.055 A 
ATOM     72  C   UNL A   1      41.401  33.503  36.458  1.00  0.00     0.041 A 
ATOM     73  F   UNL A   1      42.805  32.749  34.738  1.00  0.00    -0.206 F 
ATOM     74  C   UNL A   1      40.246  33.360  37.221  1.00  0.00     0.022 A 
BRANCH  71  75
ATOM     75  S   UNL A   1      37.879  32.159  37.973  1.00  0.00     0.124 S 
ATOM     76  O   UNL A   1      37.040  33.176  37.342  1.00  0.00    -0.237 OA
ATOM     77  O   UNL A   1      37.469  30.778  37.740  1.00  0.00    -0.237 OA
ATOM     78  O   UNL A   1      38.315  32.471  39.330  1.00  0.00    -0.744 OA
ENDBRANCH  71  75
ENDBRANCH  54  68
BRANCH  55  79
ATOM     79  C   UNL A   1      42.649  25.598  27.324  1.00  0.00     0.023 A 
ATOM     80  C   UNL A   1      42.190  24.270  27.256  1.00  0.00     0.031 A 
ATOM     81  C   UNL A   1      43.486  26.065  26.298  1.00  0.00     0.131 A 
ATOM     82  C   UNL A   1      42.629  23.436  26.219  1.00  0.00     0.055 A 
ATOM     83  C   UNL A   1      43.869  25.250  25.233  1.00  0.00     0.041 A 
ATOM     84  F   UNL A   1      43.959  27.321  26.333  1.00  0.00    -0.206 F 
ATOM     85  C   UNL A   1      43.453  23.922  25.198  1.00  0.00     0.022 A 
BRANCH  82  86
ATOM     86  S   UNL A   1      42.232  21.666  26.221  1.00  0.00     0.124 S 
ATOM     87  O   UNL A   1      42.452  21.300  27.618  1.00  0.00    -0.237 OA
ATOM     88  O   UNL A   1      40.838  21.678  25.786  1.00  0.00    -0.237 OA
ATOM     89  O   UNL A   1      43.178  21.099  25.268  1.00  0.00    -0.744 OA
ENDBRANCH  82  86
ENDBRANCH  55  79
BRANCH  67  90
ATOM     90  C   UNL A   1      45.774  26.497  33.572  1.00  0.00     0.023 A 
ATOM     91  C   UNL A   1      45.656  25.331  34.353  1.00  0.00     0.031 A 
ATOM     92  C   UNL A   1      47.000  27.182  33.574  1.00  0.00     0.131 A 
ATOM     93  C   UNL A   1      46.732  24.913  35.144  1.00  0.00     0.055 A 
ATOM     94  C   UNL A   1      48.084  26.737  34.331  1.00  0.00     0.041 A 
ATOM     95  F   UNL A   1      47.155  28.304  32.852  1.00  0.00    -0.206 F 
ATOM     96  C   UNL A   1      47.948  25.605  35.131  1.00  0.00     0.022 A 
BRANCH  93  97
ATOM     97  S   UNL A   1      46.570  23.504  36.274  1.00  0.00     0.124 S 
ATOM     98  O   UNL A   1      45.365  23.852  37.025  1.00  0.00    -0.237 OA
ATOM     99  O   UNL A   1      46.426  22.384  35.348  1.00  0.00    -0.237 OA
ATOM    100  O   UNL A   1      47.808  23.526  37.046  1.00  0.00    -0.744 OA
ENDBRANCH  93  97
ENDBRANCH  67  90
ENDBRANCH  41  42
ENDBRANCH  33  36
ENDBRANCH  31  32
ENDBRANCH   1  31
TORSDOF 19
ENDMDL
MODEL 3
REMARK VINA RESULT:     -11.9      1.866      2.208
REMARK SMILES CCCC[C@@H](NS(=O)(=O)c1cc2c3c(c1)c(C)cc(=O)n3CC2)C(=O)NCCCNC(=O)c1ccc(-c2c3nc(c(-c4cc(S(=O)(=O)[O-])ccc4F)c4ccc([nH]4)c(-c4cc(S(=O)(=O)[O-])ccc4F)c4nc(c(-c5cc(S(=O)(=O)[O-])ccc5F)c5ccc2[nH]5)C=C4)C=C3)cc1
REMARK SMILES IDX 28 1 27 2 26 3 24 4 25 5 5 7 4 8 3 9 2 10 1 11 6 12 7 14
REMARK SMILES IDX 8 15 9 16 10 17 11 18 15 19 12 20 14 21 13 22 23 23 16 24
REMARK SMILES IDX 21 25 22 26 17 27 18 28 19 29 20 30 29 31 30 32 31 33 32 35
REMARK SMILES IDX 33 36 34 37 95 38 35 39 94 40 36 41 37 42 38 43 88 44 39 45
REMARK SMILES IDX 93 46 87 47 89 48 40 49 92 50 86 51 85 52 41 54 73 55 53 56
REMARK SMILES IDX 72 57 54 58 57 59 71 60 90 61 55 62 56 63 70 65 91 66 58 67
REMARK SMILES IDX 42 68 43 69 51 70 44 71 50 72 52 73 49 74 45 75 46 76 47 77
REMARK SMILES IDX 48 78 74 79 75 80 83 81 76 82 82 83 84 84 81 85 77 86 78 87
REMARK SMILES IDX 79 88 80 89 59 90 60 91 68 92 61 93 67 94 69 95 66 96 62 97
REMARK SMILES IDX 63 98 64 99 65 100
REMARK H PARENT 26 6 6 13 30 34 89 53 57 64
REMARK Flexibility Score: inf
ROOT
ATOM      1  C   UNL A   1      33.350  28.889  25.191  1.00  0.00     0.042 C 
ENDROOT
BRANCH   1   2
ATOM      2  C   UNL A   1      31.895  29.289  25.359  1.00  0.00     0.117 C 
BRANCH   2   3
ATOM      3  N   UNL A   1      31.316  29.748  24.105  1.00  0.00    -0.355 N 
ATOM      4  C   UNL A   1      30.950  29.046  22.994  1.00  0.00     0.238 C 
ATOM      5  O   UNL A   1      30.500  29.675  22.032  1.00  0.00    -0.273 OA
ATOM      6  H   UNL A   1      31.167  30.720  24.051  1.00  0.00     0.163 HD
BRANCH   4   7
ATOM      7  C   UNL A   1      31.078  27.521  22.952  1.00  0.00     0.159 C 
BRANCH   7   8
ATOM      8  C   UNL A   1      29.745  26.895  23.398  1.00  0.00     0.030 C 
BRANCH   8   9
ATOM      9  C   UNL A   1      29.857  25.619  24.237  1.00  0.00     0.002 C 
BRANCH   9  10
ATOM     10  C   UNL A   1      30.611  25.759  25.558  1.00  0.00    -0.003 C 
ATOM     11  C   UNL A   1      30.881  24.431  26.249  1.00  0.00     0.004 C 
ENDBRANCH   9  10
ENDBRANCH   8   9
ENDBRANCH   7   8
BRANCH   7  12
ATOM     12  N   UNL A   1      31.486  27.062  21.605  1.00  0.00    -0.199 NA
ATOM     13  H   UNL A   1      31.408  27.867  20.985  1.00  0.00     0.142 HD
BRANCH  12  14
ATOM     14  S   UNL A   1      33.016  26.409  21.358  1.00  0.00     0.241 S 
ATOM     15  O   UNL A   1      33.019  25.771  20.061  1.00  0.00    -0.207 OA
ATOM     16  O   UNL A   1      33.953  27.466  21.675  1.00  0.00    -0.207 OA
BRANCH  14  17
ATOM     17  C   UNL A   1      33.187  25.165  22.619  1.00  0.00     0.083 A 
ATOM     18  C   UNL A   1      33.935  25.473  23.770  1.00  0.00     0.027 A 
ATOM     19  C   UNL A   1      32.643  23.873  22.400  1.00  0.00     0.032 A 
ATOM     20  C   UNL A   1      34.214  24.444  24.645  1.00  0.00    -0.020 A 
ATOM     21  C   UNL A   1      32.947  22.832  23.283  1.00  0.00     0.003 A 
ATOM     22  C   UNL A   1      33.738  23.172  24.370  1.00  0.00     0.055 A 
ATOM     23  C   UNL A   1      35.063  24.430  25.881  1.00  0.00     0.060 C 
ATOM     24  C   UNL A   1      32.586  21.404  23.150  1.00  0.00    -0.036 A 
ATOM     25  N   UNL A   1      34.213  22.255  25.292  1.00  0.00    -0.308 N 
ATOM     26  C   UNL A   1      35.051  22.935  26.277  1.00  0.00     0.131 C 
ATOM     27  C   UNL A   1      31.696  20.959  22.030  1.00  0.00     0.045 C 
ATOM     28  C   UNL A   1      33.081  20.524  24.048  1.00  0.00     0.075 A 
ATOM     29  C   UNL A   1      33.950  20.917  25.204  1.00  0.00     0.251 A 
ATOM     30  O   UNL A   1      34.371  20.072  25.985  1.00  0.00    -0.269 OA
ENDBRANCH  14  17
ENDBRANCH  12  14
ENDBRANCH   7  12
ENDBRANCH   4   7
ENDBRANCH   2   3
ENDBRANCH   1   2
BRANCH   1  31
ATOM     31  C   UNL A   1      34.202  29.279  26.392  1.00  0.00     0.118 C 
BRANCH  31  32
ATOM     32  N   UNL A   1      33.891  30.624  26.863  1.00  0.00    -0.352 N 
ATOM     33  C   UNL A   1      34.453  31.315  27.907  1.00  0.00     0.251 C 
ATOM     34  H   UNL A   1      33.186  31.099  26.367  1.00  0.00     0.163 HD
ATOM     35  O   UNL A   1      33.920  32.332  28.340  1.00  0.00    -0.269 OA
BRANCH  33  36
ATOM     36  C   UNL A   1      35.710  30.807  28.487  1.00  0.00     0.039 A 
ATOM     37  C   UNL A   1      35.670  29.865  29.515  1.00  0.00     0.014 A 
ATOM     38  C   UNL A   1      36.929  31.250  27.963  1.00  0.00     0.014 A 
ATOM     39  C   UNL A   1      36.866  29.321  29.984  1.00  0.00     0.010 A 
ATOM     40  C   UNL A   1      38.110  30.657  28.383  1.00  0.00     0.010 A 
ATOM     41  C   UNL A   1      38.090  29.699  29.407  1.00  0.00    -0.014 A 
BRANCH  41  42
ATOM     42  C   UNL A   1      39.372  29.126  29.870  1.00  0.00     0.031 A 
ATOM     43  C   UNL A   1      40.117  29.790  30.991  1.00  0.00     0.074 A 
ATOM     44  C   UNL A   1      39.906  28.074  29.222  1.00  0.00     0.049 A 
ATOM     45  N   UNL A   1      41.270  29.469  31.512  1.00  0.00    -0.248 NA
ATOM     46  C   UNL A   1      39.498  30.987  31.583  1.00  0.00     0.031 C 
ATOM     47  C   UNL A   1      39.301  27.400  28.074  1.00  0.00     0.029 A 
ATOM     48  N   UNL A   1      41.086  27.403  29.423  1.00  0.00    -0.354 N 
ATOM     49  C   UNL A   1      41.526  30.433  32.479  1.00  0.00     0.074 A 
ATOM     50  C   UNL A   1      40.433  31.378  32.438  1.00  0.00     0.031 C 
ATOM     51  C   UNL A   1      40.110  26.405  27.676  1.00  0.00     0.029 A 
ATOM     52  C   UNL A   1      41.301  26.387  28.524  1.00  0.00     0.049 A 
ATOM     53  H   UNL A   1      41.719  27.630  30.142  1.00  0.00     0.167 HD
ATOM     54  C   UNL A   1      42.567  30.508  33.337  1.00  0.00     0.034 A 
ATOM     55  C   UNL A   1      42.339  25.535  28.396  1.00  0.00     0.034 A 
ATOM     56  C   UNL A   1      43.630  29.541  33.386  1.00  0.00     0.049 A 
ATOM     57  C   UNL A   1      43.471  25.608  29.387  1.00  0.00     0.074 A 
ATOM     58  C   UNL A   1      44.673  29.465  34.291  1.00  0.00     0.029 A 
ATOM     59  N   UNL A   1      43.792  28.491  32.495  1.00  0.00    -0.354 N 
ATOM     60  N   UNL A   1      43.633  26.444  30.386  1.00  0.00    -0.248 NA
ATOM     61  C   UNL A   1      44.550  24.621  29.251  1.00  0.00     0.031 C 
ATOM     62  C   UNL A   1      45.496  28.403  33.915  1.00  0.00     0.029 A 
ATOM     63  C   UNL A   1      44.937  27.779  32.809  1.00  0.00     0.049 A 
ATOM     64  H   UNL A   1      43.184  28.283  31.749  1.00  0.00     0.167 HD
ATOM     65  C   UNL A   1      44.820  26.071  31.011  1.00  0.00     0.074 A 
ATOM     66  C   UNL A   1      45.328  24.925  30.285  1.00  0.00     0.031 C 
ATOM     67  C   UNL A   1      45.429  26.630  32.087  1.00  0.00     0.034 A 
BRANCH  54  68
ATOM     68  C   UNL A   1      42.608  31.652  34.313  1.00  0.00     0.023 A 
ATOM     69  C   UNL A   1      41.866  31.584  35.506  1.00  0.00     0.031 A 
ATOM     70  C   UNL A   1      43.300  32.841  34.022  1.00  0.00     0.131 A 
ATOM     71  C   UNL A   1      41.818  32.695  36.356  1.00  0.00     0.055 A 
ATOM     72  C   UNL A   1      43.277  33.933  34.889  1.00  0.00     0.041 A 
ATOM     73  F   UNL A   1      44.023  32.951  32.895  1.00  0.00    -0.206 F 
ATOM     74  C   UNL A   1      42.526  33.865  36.058  1.00  0.00     0.022 A 
BRANCH  71  75
ATOM     75  S   UNL A   1      40.810  32.676  37.862  1.00  0.00     0.124 S 
ATOM     76  O   UNL A   1      41.663  31.933  38.786  1.00  0.00    -0.237 OA
ATOM     77  O   UNL A   1      40.669  34.101  38.149  1.00  0.00    -0.237 OA
ATOM     78  O   UNL A   1      39.588  31.988  37.458  1.00  0.00    -0.744 OA
ENDBRANCH  71  75
ENDBRANCH  54  68
BRANCH  55  79
ATOM     79  C   UNL A   1      42.284  24.497  27.329  1.00  0.00     0.023 A 
ATOM     80  C   UNL A   1      41.626  23.273  27.544  1.00  0.00     0.031 A 
ATOM     81  C   UNL A   1      43.013  24.661  26.140  1.00  0.00     0.131 A 
ATOM     82  C   UNL A   1      41.769  22.236  26.612  1.00  0.00     0.055 A 
ATOM     83  C   UNL A   1      43.101  23.647  25.186  1.00  0.00     0.041 A 
ATOM     84  F   UNL A   1      43.670  25.808  25.904  1.00  0.00    -0.206 F 
ATOM     85  C   UNL A   1      42.489  22.420  25.427  1.00  0.00     0.022 A 
BRANCH  82  86
ATOM     86  S   UNL A   1      41.115  20.580  26.961  1.00  0.00     0.124 S 
ATOM     87  O   UNL A   1      42.249  19.722  26.628  1.00  0.00    -0.237 OA
ATOM     88  O   UNL A   1      40.800  20.683  28.384  1.00  0.00    -0.237 OA
ATOM     89  O   UNL A   1      39.963  20.470  26.074  1.00  0.00    -0.744 OA
ENDBRANCH  82  86
ENDBRANCH  55  79
BRANCH  67  90
ATOM     90  C   UNL A   1      46.722  26.032  32.579  1.00  0.00     0.023 A 
ATOM     91  C   UNL A   1      47.914  26.254  31.864  1.00  0.00     0.031 A 
ATOM     92  C   UNL A   1      46.739  25.109  33.638  1.00  0.00     0.131 A 
ATOM     93  C   UNL A   1      49.063  25.524  32.185  1.00  0.00     0.055 A 
ATOM     94  C   UNL A   1      47.900  24.415  33.983  1.00  0.00     0.041 A 
ATOM     95  F   UNL A   1      45.624  24.858  34.342  1.00  0.00    -0.206 F 
ATOM     96  C   UNL A   1      49.065  24.611  33.245  1.00  0.00     0.022 A 
BRANCH  93  97
ATOM     97  S   UNL A   1      50.574  25.675  31.193  1.00  0.00     0.124 S 
ATOM     98  O   UNL A   1      51.502  24.809  31.917  1.00  0.00    -0.237 OA
ATOM     99  O   UNL A   1      50.138  25.174  29.892  1.00  0.00    -0.237 OA
ATOM    100  O   UNL A   1      50.889  27.099  31.245  1.00  0.00    -0.744 OA
ENDBRANCH  93  97
ENDBRANCH  67  90
ENDBRANCH  41  42
ENDBRANCH  33  36
ENDBRANCH  31  32
ENDBRANCH   1  31
TORSDOF 19
ENDMDL
