MODEL 1
REMARK VINA RESULT:     -12.7      0.000      0.000
REMARK SMILES N#C/C(=C/c1ccc(-c2cccc(C(=O)NCCCNC(=O)c3ccc(-c4c5nc(c(-c6cc(S(=O)(=O)[O-])ccc6F)c6ccc([nH]6)c(-c6cc(S(=O)(=O)[O-])ccc6F)c6nc(c(-c7cc(S(=O)(=O)[O-])ccc7F)c7ccc4[nH]7)C=C6)C=C5)cc3)c2)o1)c1ccc(F)cc1
REMARK SMILES IDX 18 1 17 2 16 3 14 4 15 5 13 7 9 8 10 9 86 10 11 11 12 12
REMARK SMILES IDX 8 13 5 14 6 15 87 16 7 17 4 18 3 19 2 20 1 21 88 22 89 23
REMARK SMILES IDX 94 24 90 25 93 26 91 27 92 28 19 29 20 30 21 31 22 33 23 34
REMARK SMILES IDX 24 35 85 36 25 37 84 38 26 39 27 40 28 41 78 42 29 43 83 44
REMARK SMILES IDX 77 45 79 46 30 47 82 48 76 49 75 50 31 52 63 53 43 54 62 55
REMARK SMILES IDX 44 56 47 57 61 58 80 59 45 60 46 61 60 63 81 64 48 65 32 66
REMARK SMILES IDX 33 67 41 68 34 69 40 70 42 71 39 72 35 73 36 74 37 75 38 76
REMARK SMILES IDX 64 77 65 78 73 79 66 80 72 81 74 82 71 83 67 84 68 85 69 86
REMARK SMILES IDX 70 87 49 88 50 89 58 90 51 91 57 92 59 93 56 94 52 95 53 96
REMARK SMILES IDX 54 97 55 98
REMARK H PARENT 16 6 20 32 79 51 47 62
REMARK Flexibility Score: inf
ROOT
ATOM      1  C   UNL A   1      31.681  31.738  26.613  1.00  0.00     0.042 C 
ENDROOT
BRANCH   1   2
ATOM      2  C   UNL A   1      31.843  30.273  26.242  1.00  0.00     0.118 C 
BRANCH   2   3
ATOM      3  N   UNL A   1      32.630  30.032  25.033  1.00  0.00    -0.352 N 
ATOM      4  C   UNL A   1      32.599  29.092  24.023  1.00  0.00     0.251 C 
ATOM      5  O   UNL A   1      33.429  29.199  23.119  1.00  0.00    -0.269 OA
ATOM      6  H   UNL A   1      33.348  30.693  24.912  1.00  0.00     0.163 HD
BRANCH   4   7
ATOM      7  C   UNL A   1      31.670  27.928  23.998  1.00  0.00     0.040 A 
ATOM      8  C   UNL A   1      31.314  25.542  23.684  1.00  0.00     0.018 A 
ATOM      9  C   UNL A   1      29.949  25.762  23.504  1.00  0.00     0.012 A 
ATOM     10  C   UNL A   1      32.115  26.619  24.083  1.00  0.00     0.025 A 
ATOM     11  C   UNL A   1      29.432  27.055  23.650  1.00  0.00     0.002 A 
ATOM     12  C   UNL A   1      30.297  28.139  23.844  1.00  0.00     0.014 A 
BRANCH   8  13
ATOM     13  C   UNL A   1      32.005  24.301  23.352  1.00  0.00     0.134 A 
ATOM     14  C   UNL A   1      32.222  22.085  23.371  1.00  0.00     0.128 A 
ATOM     15  C   UNL A   1      32.975  22.584  22.312  1.00  0.00     0.051 A 
ATOM     16  O   UNL A   1      31.601  23.157  23.984  1.00  0.00    -0.457 OA
ATOM     17  C   UNL A   1      32.894  23.986  22.347  1.00  0.00     0.051 A 
BRANCH  14  18
ATOM     18  C   UNL A   1      32.150  20.737  23.835  1.00  0.00     0.067 C 
ATOM     19  C   UNL A   1      33.091  20.238  24.666  1.00  0.00     0.063 C 
BRANCH  19  20
ATOM     20  C   UNL A   1      33.061  18.778  25.089  1.00  0.00     0.100 C 
ATOM     21  N   UNL A   1      33.036  17.567  25.440  1.00  0.00    -0.192 NA
ENDBRANCH  19  20
BRANCH  19  22
ATOM     22  C   UNL A   1      34.186  21.073  25.249  1.00  0.00    -0.007 A 
ATOM     23  C   UNL A   1      33.929  21.956  26.319  1.00  0.00     0.012 A 
ATOM     24  C   UNL A   1      35.474  21.056  24.691  1.00  0.00     0.012 A 
ATOM     25  C   UNL A   1      34.891  22.878  26.736  1.00  0.00     0.040 A 
ATOM     26  C   UNL A   1      36.448  21.957  25.134  1.00  0.00     0.040 A 
ATOM     27  C   UNL A   1      36.140  22.876  26.131  1.00  0.00     0.123 A 
ATOM     28  F   UNL A   1      37.055  23.780  26.507  1.00  0.00    -0.207 F 
ENDBRANCH  19  22
ENDBRANCH  14  18
ENDBRANCH   8  13
ENDBRANCH   4   7
ENDBRANCH   2   3
ENDBRANCH   1   2
BRANCH   1  29
ATOM     29  C   UNL A   1      32.913  32.357  27.254  1.00  0.00     0.118 C 
BRANCH  29  30
ATOM     30  N   UNL A   1      32.708  33.753  27.629  1.00  0.00    -0.352 N 
ATOM     31  C   UNL A   1      33.242  34.505  28.650  1.00  0.00     0.251 C 
ATOM     32  H   UNL A   1      32.079  34.241  27.051  1.00  0.00     0.163 HD
ATOM     33  O   UNL A   1      32.733  35.589  28.918  1.00  0.00    -0.269 OA
BRANCH  31  34
ATOM     34  C   UNL A   1      34.400  34.013  29.429  1.00  0.00     0.039 A 
ATOM     35  C   UNL A   1      34.179  33.200  30.545  1.00  0.00     0.014 A 
ATOM     36  C   UNL A   1      35.703  34.373  29.084  1.00  0.00     0.014 A 
ATOM     37  C   UNL A   1      35.267  32.683  31.254  1.00  0.00     0.010 A 
ATOM     38  C   UNL A   1      36.783  33.773  29.721  1.00  0.00     0.010 A 
ATOM     39  C   UNL A   1      36.579  32.924  30.817  1.00  0.00    -0.014 A 
BRANCH  39  40
ATOM     40  C   UNL A   1      37.755  32.313  31.490  1.00  0.00     0.031 A 
ATOM     41  C   UNL A   1      38.483  31.167  30.839  1.00  0.00     0.074 A 
ATOM     42  C   UNL A   1      38.111  32.734  32.721  1.00  0.00     0.049 A 
ATOM     43  N   UNL A   1      39.453  30.426  31.311  1.00  0.00    -0.248 NA
ATOM     44  C   UNL A   1      38.035  30.781  29.492  1.00  0.00     0.031 C 
ATOM     45  C   UNL A   1      37.455  33.807  33.470  1.00  0.00     0.029 A 
ATOM     46  N   UNL A   1      39.105  32.303  33.565  1.00  0.00    -0.354 N 
ATOM     47  C   UNL A   1      39.719  29.478  30.328  1.00  0.00     0.074 A 
ATOM     48  C   UNL A   1      38.760  29.696  29.267  1.00  0.00     0.031 C 
ATOM     49  C   UNL A   1      38.080  33.971  34.646  1.00  0.00     0.029 A 
ATOM     50  C   UNL A   1      39.143  32.978  34.764  1.00  0.00     0.049 A 
ATOM     51  H   UNL A   1      39.731  31.579  33.334  1.00  0.00     0.167 HD
ATOM     52  C   UNL A   1      40.689  28.531  30.302  1.00  0.00     0.034 A 
ATOM     53  C   UNL A   1      39.932  32.804  35.844  1.00  0.00     0.034 A 
ATOM     54  C   UNL A   1      41.643  28.339  31.367  1.00  0.00     0.049 A 
ATOM     55  C   UNL A   1      40.980  31.720  35.808  1.00  0.00     0.074 A 
ATOM     56  C   UNL A   1      42.703  27.451  31.424  1.00  0.00     0.029 A 
ATOM     57  N   UNL A   1      41.649  29.040  32.567  1.00  0.00    -0.354 N 
ATOM     58  N   UNL A   1      41.252  30.866  34.848  1.00  0.00    -0.248 NA
ATOM     59  C   UNL A   1      41.832  31.582  36.995  1.00  0.00     0.031 C 
ATOM     60  C   UNL A   1      43.298  27.559  32.684  1.00  0.00     0.029 A 
ATOM     61  C   UNL A   1      42.670  28.577  33.384  1.00  0.00     0.049 A 
ATOM     62  H   UNL A   1      41.021  29.760  32.802  1.00  0.00     0.167 HD
ATOM     63  C   UNL A   1      42.329  30.112  35.306  1.00  0.00     0.074 A 
ATOM     64  C   UNL A   1      42.664  30.623  36.619  1.00  0.00     0.031 C 
ATOM     65  C   UNL A   1      42.986  29.092  34.696  1.00  0.00     0.034 A 
BRANCH  52  66
ATOM     66  C   UNL A   1      40.744  27.621  29.098  1.00  0.00     0.023 A 
ATOM     67  C   UNL A   1      41.677  27.818  28.063  1.00  0.00     0.031 A 
ATOM     68  C   UNL A   1      39.838  26.553  28.968  1.00  0.00     0.131 A 
ATOM     69  C   UNL A   1      41.630  27.016  26.914  1.00  0.00     0.055 A 
ATOM     70  C   UNL A   1      39.854  25.702  27.861  1.00  0.00     0.041 A 
ATOM     71  F   UNL A   1      38.909  26.327  29.909  1.00  0.00    -0.206 F 
ATOM     72  C   UNL A   1      40.744  25.941  26.817  1.00  0.00     0.022 A 
BRANCH  69  73
ATOM     73  S   UNL A   1      42.638  27.495  25.484  1.00  0.00     0.124 S 
ATOM     74  O   UNL A   1      43.937  27.737  26.108  1.00  0.00    -0.237 OA
ATOM     75  O   UNL A   1      42.550  26.319  24.627  1.00  0.00    -0.237 OA
ATOM     76  O   UNL A   1      41.967  28.691  24.977  1.00  0.00    -0.744 OA
ENDBRANCH  69  73
ENDBRANCH  52  66
BRANCH  53  77
ATOM     77  C   UNL A   1      39.759  33.660  37.053  1.00  0.00     0.023 A 
ATOM     78  C   UNL A   1      39.061  33.191  38.176  1.00  0.00     0.031 A 
ATOM     79  C   UNL A   1      40.250  34.978  37.089  1.00  0.00     0.131 A 
ATOM     80  C   UNL A   1      38.829  34.045  39.265  1.00  0.00     0.055 A 
ATOM     81  C   UNL A   1      40.069  35.805  38.199  1.00  0.00     0.041 A 
ATOM     82  F   UNL A   1      40.929  35.479  36.044  1.00  0.00    -0.206 F 
ATOM     83  C   UNL A   1      39.341  35.344  39.291  1.00  0.00     0.022 A 
BRANCH  80  84
ATOM     84  S   UNL A   1      37.759  33.464  40.610  1.00  0.00     0.124 S 
ATOM     85  O   UNL A   1      38.543  32.361  41.156  1.00  0.00    -0.237 OA
ATOM     86  O   UNL A   1      37.653  34.653  41.448  1.00  0.00    -0.237 OA
ATOM     87  O   UNL A   1      36.529  33.075  39.922  1.00  0.00    -0.744 OA
ENDBRANCH  80  84
ENDBRANCH  53  77
BRANCH  65  88
ATOM     88  C   UNL A   1      44.163  28.495  35.428  1.00  0.00     0.023 A 
ATOM     89  C   UNL A   1      44.007  27.459  36.365  1.00  0.00     0.031 A 
ATOM     90  C   UNL A   1      45.463  28.975  35.183  1.00  0.00     0.131 A 
ATOM     91  C   UNL A   1      45.125  26.972  37.061  1.00  0.00     0.055 A 
ATOM     92  C   UNL A   1      46.578  28.442  35.830  1.00  0.00     0.041 A 
ATOM     93  F   UNL A   1      45.670  29.968  34.302  1.00  0.00    -0.206 F 
ATOM     94  C   UNL A   1      46.411  27.444  36.785  1.00  0.00     0.022 A 
BRANCH  91  95
ATOM     95  S   UNL A   1      44.863  25.782  38.404  1.00  0.00     0.124 S 
ATOM     96  O   UNL A   1      44.604  24.549  37.669  1.00  0.00    -0.237 OA
ATOM     97  O   UNL A   1      46.131  25.841  39.125  1.00  0.00    -0.237 OA
ATOM     98  O   UNL A   1      43.715  26.327  39.126  1.00  0.00    -0.744 OA
ENDBRANCH  91  95
ENDBRANCH  65  88
ENDBRANCH  39  40
ENDBRANCH  31  34
ENDBRANCH  29  30
ENDBRANCH   1  29
TORSDOF 17
ENDMDL
MODEL 2
REMARK VINA RESULT:     -12.6      5.647     11.727
REMARK SMILES N#C/C(=C/c1ccc(-c2cccc(C(=O)NCCCNC(=O)c3ccc(-c4c5nc(c(-c6cc(S(=O)(=O)[O-])ccc6F)c6ccc([nH]6)c(-c6cc(S(=O)(=O)[O-])ccc6F)c6nc(c(-c7cc(S(=O)(=O)[O-])ccc7F)c7ccc4[nH]7)C=C6)C=C5)cc3)c2)o1)c1ccc(F)cc1
REMARK SMILES IDX 18 1 17 2 16 3 14 4 15 5 13 7 9 8 10 9 86 10 11 11 12 12
REMARK SMILES IDX 8 13 5 14 6 15 87 16 7 17 4 18 3 19 2 20 1 21 88 22 89 23
REMARK SMILES IDX 94 24 90 25 93 26 91 27 92 28 19 29 20 30 21 31 22 33 23 34
REMARK SMILES IDX 24 35 85 36 25 37 84 38 26 39 27 40 28 41 78 42 29 43 83 44
REMARK SMILES IDX 77 45 79 46 30 47 82 48 76 49 75 50 31 52 63 53 43 54 62 55
REMARK SMILES IDX 44 56 47 57 61 58 80 59 45 60 46 61 60 63 81 64 48 65 32 66
REMARK SMILES IDX 33 67 41 68 34 69 40 70 42 71 39 72 35 73 36 74 37 75 38 76
REMARK SMILES IDX 64 77 65 78 73 79 66 80 72 81 74 82 71 83 67 84 68 85 69 86
REMARK SMILES IDX 70 87 49 88 50 89 58 90 51 91 57 92 59 93 56 94 52 95 53 96
REMARK SMILES IDX 54 97 55 98
REMARK H PARENT 16 6 20 32 79 51 47 62
REMARK Flexibility Score: inf
ROOT
ATOM      1  C   UNL A   1      37.971  19.985  25.049  1.00  0.00     0.042 C 
ENDROOT
BRANCH   1   2
ATOM      2  C   UNL A   1      36.885  21.039  24.904  1.00  0.00     0.118 C 
BRANCH   2   3
ATOM      3  N   UNL A   1      36.011  21.180  26.068  1.00  0.00    -0.352 N 
ATOM      4  C   UNL A   1      34.677  21.480  26.254  1.00  0.00     0.251 C 
ATOM      5  O   UNL A   1      34.252  21.501  27.410  1.00  0.00    -0.269 OA
ATOM      6  H   UNL A   1      36.485  21.025  26.917  1.00  0.00     0.163 HD
BRANCH   4   7
ATOM      7  C   UNL A   1      33.745  21.843  25.150  1.00  0.00     0.040 A 
ATOM      8  C   UNL A   1      32.066  23.350  24.239  1.00  0.00     0.018 A 
ATOM      9  C   UNL A   1      31.664  22.367  23.335  1.00  0.00     0.012 A 
ATOM     10  C   UNL A   1      33.204  23.111  25.018  1.00  0.00     0.025 A 
ATOM     11  C   UNL A   1      32.355  21.150  23.284  1.00  0.00     0.002 A 
ATOM     12  C   UNL A   1      33.357  20.871  24.223  1.00  0.00     0.014 A 
BRANCH   8  13
ATOM     13  C   UNL A   1      31.308  24.558  24.541  1.00  0.00     0.134 A 
ATOM     14  C   UNL A   1      30.094  26.335  23.967  1.00  0.00     0.128 A 
ATOM     15  C   UNL A   1      29.829  26.044  25.301  1.00  0.00     0.051 A 
ATOM     16  O   UNL A   1      30.986  25.386  23.502  1.00  0.00    -0.457 OA
ATOM     17  C   UNL A   1      30.650  24.968  25.681  1.00  0.00     0.051 A 
BRANCH  14  18
ATOM     18  C   UNL A   1      29.631  27.450  23.206  1.00  0.00     0.067 C 
ATOM     19  C   UNL A   1      30.240  28.652  23.294  1.00  0.00     0.063 C 
BRANCH  19  20
ATOM     20  C   UNL A   1      29.692  29.859  22.550  1.00  0.00     0.100 C 
ATOM     21  N   UNL A   1      29.238  30.861  21.933  1.00  0.00    -0.192 NA
ENDBRANCH  19  20
BRANCH  19  22
ATOM     22  C   UNL A   1      31.491  28.874  24.084  1.00  0.00    -0.007 A 
ATOM     23  C   UNL A   1      32.735  28.403  23.612  1.00  0.00     0.012 A 
ATOM     24  C   UNL A   1      31.442  29.481  25.347  1.00  0.00     0.012 A 
ATOM     25  C   UNL A   1      33.868  28.428  24.427  1.00  0.00     0.040 A 
ATOM     26  C   UNL A   1      32.587  29.538  26.149  1.00  0.00     0.040 A 
ATOM     27  C   UNL A   1      33.780  28.987  25.693  1.00  0.00     0.123 A 
ATOM     28  F   UNL A   1      34.857  28.986  26.490  1.00  0.00    -0.207 F 
ENDBRANCH  19  22
ENDBRANCH  14  18
ENDBRANCH   8  13
ENDBRANCH   4   7
ENDBRANCH   2   3
ENDBRANCH   1   2
BRANCH   1  29
ATOM     29  C   UNL A   1      39.191  20.453  25.826  1.00  0.00     0.118 C 
BRANCH  29  30
ATOM     30  N   UNL A   1      40.196  19.404  25.973  1.00  0.00    -0.352 N 
ATOM     31  C   UNL A   1      41.564  19.474  26.109  1.00  0.00     0.251 C 
ATOM     32  H   UNL A   1      39.834  18.490  25.976  1.00  0.00     0.163 HD
ATOM     33  O   UNL A   1      42.227  18.451  25.968  1.00  0.00    -0.269 OA
BRANCH  31  34
ATOM     34  C   UNL A   1      42.234  20.761  26.403  1.00  0.00     0.039 A 
ATOM     35  C   UNL A   1      42.635  21.581  25.345  1.00  0.00     0.014 A 
ATOM     36  C   UNL A   1      42.495  21.150  27.717  1.00  0.00     0.014 A 
ATOM     37  C   UNL A   1      43.216  22.824  25.611  1.00  0.00     0.010 A 
ATOM     38  C   UNL A   1      42.971  22.429  27.982  1.00  0.00     0.010 A 
ATOM     39  C   UNL A   1      43.343  23.281  26.933  1.00  0.00    -0.014 A 
BRANCH  39  40
ATOM     40  C   UNL A   1      43.867  24.635  27.248  1.00  0.00     0.031 A 
ATOM     41  C   UNL A   1      42.938  25.700  27.765  1.00  0.00     0.074 A 
ATOM     42  C   UNL A   1      45.158  24.925  26.990  1.00  0.00     0.049 A 
ATOM     43  N   UNL A   1      43.173  26.968  27.990  1.00  0.00    -0.248 NA
ATOM     44  C   UNL A   1      41.549  25.293  28.030  1.00  0.00     0.031 C 
ATOM     45  C   UNL A   1      46.145  23.988  26.450  1.00  0.00     0.029 A 
ATOM     46  N   UNL A   1      45.863  26.095  27.135  1.00  0.00    -0.354 N 
ATOM     47  C   UNL A   1      41.962  27.511  28.404  1.00  0.00     0.074 A 
ATOM     48  C   UNL A   1      40.981  26.450  28.331  1.00  0.00     0.031 C 
ATOM     49  C   UNL A   1      47.329  24.608  26.337  1.00  0.00     0.029 A 
ATOM     50  C   UNL A   1      47.178  26.002  26.740  1.00  0.00     0.049 A 
ATOM     51  H   UNL A   1      45.464  26.923  27.489  1.00  0.00     0.167 HD
ATOM     52  C   UNL A   1      41.697  28.771  28.830  1.00  0.00     0.034 A 
ATOM     53  C   UNL A   1      48.147  26.939  26.688  1.00  0.00     0.034 A 
ATOM     54  C   UNL A   1      42.694  29.812  28.907  1.00  0.00     0.049 A 
ATOM     55  C   UNL A   1      47.821  28.342  27.132  1.00  0.00     0.074 A 
ATOM     56  C   UNL A   1      42.554  31.105  29.377  1.00  0.00     0.029 A 
ATOM     57  N   UNL A   1      44.015  29.681  28.496  1.00  0.00    -0.354 N 
ATOM     58  N   UNL A   1      46.682  28.827  27.571  1.00  0.00    -0.248 NA
ATOM     59  C   UNL A   1      48.912  29.323  27.082  1.00  0.00     0.031 C 
ATOM     60  C   UNL A   1      43.763  31.778  29.176  1.00  0.00     0.029 A 
ATOM     61  C   UNL A   1      44.688  30.881  28.665  1.00  0.00     0.049 A 
ATOM     62  H   UNL A   1      44.415  28.856  28.136  1.00  0.00     0.167 HD
ATOM     63  C   UNL A   1      46.931  30.161  27.880  1.00  0.00     0.074 A 
ATOM     64  C   UNL A   1      48.331  30.399  27.591  1.00  0.00     0.031 C 
ATOM     65  C   UNL A   1      46.082  31.105  28.363  1.00  0.00     0.034 A 
BRANCH  52  66
ATOM     66  C   UNL A   1      40.274  29.093  29.219  1.00  0.00     0.023 A 
ATOM     67  C   UNL A   1      39.854  29.087  30.562  1.00  0.00     0.031 A 
ATOM     68  C   UNL A   1      39.314  29.387  28.234  1.00  0.00     0.131 A 
ATOM     69  C   UNL A   1      38.501  29.289  30.876  1.00  0.00     0.055 A 
ATOM     70  C   UNL A   1      37.987  29.676  28.560  1.00  0.00     0.041 A 
ATOM     71  F   UNL A   1      39.646  29.386  26.934  1.00  0.00    -0.206 F 
ATOM     72  C   UNL A   1      37.570  29.612  29.887  1.00  0.00     0.022 A 
BRANCH  69  73
ATOM     73  S   UNL A   1      37.952  28.971  32.574  1.00  0.00     0.124 S 
ATOM     74  O   UNL A   1      36.570  29.442  32.530  1.00  0.00    -0.237 OA
ATOM     75  O   UNL A   1      38.131  27.529  32.701  1.00  0.00    -0.237 OA
ATOM     76  O   UNL A   1      38.854  29.787  33.385  1.00  0.00    -0.744 OA
ENDBRANCH  69  73
ENDBRANCH  52  66
BRANCH  53  77
ATOM     77  C   UNL A   1      49.509  26.592  26.189  1.00  0.00     0.023 A 
ATOM     78  C   UNL A   1      49.960  27.053  24.942  1.00  0.00     0.031 A 
ATOM     79  C   UNL A   1      50.365  25.756  26.928  1.00  0.00     0.131 A 
ATOM     80  C   UNL A   1      51.207  26.638  24.450  1.00  0.00     0.055 A 
ATOM     81  C   UNL A   1      51.630  25.394  26.461  1.00  0.00     0.041 A 
ATOM     82  F   UNL A   1      49.987  25.288  28.129  1.00  0.00    -0.206 F 
ATOM     83  C   UNL A   1      52.051  25.824  25.207  1.00  0.00     0.022 A 
BRANCH  80  84
ATOM     84  S   UNL A   1      51.668  27.099  22.757  1.00  0.00     0.124 S 
ATOM     85  O   UNL A   1      50.399  26.945  22.053  1.00  0.00    -0.237 OA
ATOM     86  O   UNL A   1      52.142  28.467  22.935  1.00  0.00    -0.237 OA
ATOM     87  O   UNL A   1      52.698  26.123  22.408  1.00  0.00    -0.744 OA
ENDBRANCH  80  84
ENDBRANCH  53  77
BRANCH  65  88
ATOM     88  C   UNL A   1      46.662  32.468  28.653  1.00  0.00     0.023 A 
ATOM     89  C   UNL A   1      46.741  33.466  27.666  1.00  0.00     0.031 A 
ATOM     90  C   UNL A   1      47.143  32.772  29.939  1.00  0.00     0.131 A 
ATOM     91  C   UNL A   1      47.337  34.701  27.966  1.00  0.00     0.055 A 
ATOM     92  C   UNL A   1      47.675  34.023  30.250  1.00  0.00     0.041 A 
ATOM     93  F   UNL A   1      47.098  31.855  30.920  1.00  0.00    -0.206 F 
ATOM     94  C   UNL A   1      47.786  34.992  29.257  1.00  0.00     0.022 A 
BRANCH  91  95
ATOM     95  S   UNL A   1      47.606  35.888  26.622  1.00  0.00     0.124 S 
ATOM     96  O   UNL A   1      46.517  36.835  26.833  1.00  0.00    -0.237 OA
ATOM     97  O   UNL A   1      48.949  36.384  26.908  1.00  0.00    -0.237 OA
ATOM     98  O   UNL A   1      47.493  35.070  25.416  1.00  0.00    -0.744 OA
ENDBRANCH  91  95
ENDBRANCH  65  88
ENDBRANCH  39  40
ENDBRANCH  31  34
ENDBRANCH  29  30
ENDBRANCH   1  29
TORSDOF 17
ENDMDL
MODEL 3
REMARK VINA RESULT:     -12.5      1.473      1.787
REMARK SMILES N#C/C(=C/c1ccc(-c2cccc(C(=O)NCCCNC(=O)c3ccc(-c4c5nc(c(-c6cc(S(=O)(=O)[O-])ccc6F)c6ccc([nH]6)c(-c6cc(S(=O)(=O)[O-])ccc6F)c6nc(c(-c7cc(S(=O)(=O)[O-])ccc7F)c7ccc4[nH]7)C=C6)C=C5)cc3)c2)o1)c1ccc(F)cc1
REMARK SMILES IDX 18 1 17 2 16 3 14 4 15 5 13 7 9 8 10 9 86 10 11 11 12 12
REMARK SMILES IDX 8 13 5 14 6 15 87 16 7 17 4 18 3 19 2 20 1 21 88 22 89 23
REMARK SMILES IDX 94 24 90 25 93 26 91 27 92 28 19 29 20 30 21 31 22 33 23 34
REMARK SMILES IDX 24 35 85 36 25 37 84 38 26 39 27 40 28 41 78 42 29 43 83 44
REMARK SMILES IDX 77 45 79 46 30 47 82 48 76 49 75 50 31 52 63 53 43 54 62 55
REMARK SMILES IDX 44 56 47 57 61 58 80 59 45 60 46 61 60 63 81 64 48 65 32 66
REMARK SMILES IDX 33 67 41 68 34 69 40 70 42 71 39 72 35 73 36 74 37 75 38 76
REMARK SMILES IDX 64 77 65 78 73 79 66 80 72 81 74 82 71 83 67 84 68 85 69 86
REMARK SMILES IDX 70 87 49 88 50 89 58 90 51 91 57 92 59 93 56 94 52 95 53 96
REMARK SMILES IDX 54 97 55 98
REMARK H PARENT 16 6 20 32 79 51 47 62
REMARK Flexibility Score: inf
ROOT
ATOM      1  C   UNL A   1      31.701  31.984  26.777  1.00  0.00     0.042 C 
ENDROOT
BRANCH   1   2
ATOM      2  C   UNL A   1      31.796  30.476  26.607  1.00  0.00     0.118 C 
BRANCH   2   3
ATOM      3  N   UNL A   1      32.590  30.039  25.460  1.00  0.00    -0.352 N 
ATOM      4  C   UNL A   1      32.460  29.053  24.504  1.00  0.00     0.251 C 
ATOM      5  O   UNL A   1      33.338  28.972  23.643  1.00  0.00    -0.269 OA
ATOM      6  H   UNL A   1      33.408  30.573  25.342  1.00  0.00     0.163 HD
BRANCH   4   7
ATOM      7  C   UNL A   1      31.363  28.045  24.493  1.00  0.00     0.040 A 
ATOM      8  C   UNL A   1      30.562  25.816  25.050  1.00  0.00     0.018 A 
ATOM      9  C   UNL A   1      29.519  25.954  24.135  1.00  0.00     0.012 A 
ATOM     10  C   UNL A   1      31.366  26.931  25.316  1.00  0.00     0.025 A 
ATOM     11  C   UNL A   1      29.350  27.167  23.458  1.00  0.00     0.002 A 
ATOM     12  C   UNL A   1      30.298  28.189  23.598  1.00  0.00     0.014 A 
BRANCH   8  13
ATOM     13  C   UNL A   1      30.976  24.553  25.652  1.00  0.00     0.134 A 
ATOM     14  C   UNL A   1      31.655  22.435  25.548  1.00  0.00     0.128 A 
ATOM     15  C   UNL A   1      32.021  22.946  26.790  1.00  0.00     0.051 A 
ATOM     16  O   UNL A   1      31.038  23.452  24.843  1.00  0.00    -0.457 OA
ATOM     17  C   UNL A   1      31.527  24.259  26.880  1.00  0.00     0.051 A 
BRANCH  14  18
ATOM     18  C   UNL A   1      31.784  21.092  25.082  1.00  0.00     0.067 C 
ATOM     19  C   UNL A   1      32.958  20.636  24.595  1.00  0.00     0.063 C 
BRANCH  19  20
ATOM     20  C   UNL A   1      33.071  19.234  24.019  1.00  0.00     0.100 C 
ATOM     21  N   UNL A   1      33.164  18.071  23.541  1.00  0.00    -0.192 NA
ENDBRANCH  19  20
BRANCH  19  22
ATOM     22  C   UNL A   1      34.216  21.445  24.616  1.00  0.00    -0.007 A 
ATOM     23  C   UNL A   1      35.041  21.465  25.761  1.00  0.00     0.012 A 
ATOM     24  C   UNL A   1      34.560  22.264  23.531  1.00  0.00     0.012 A 
ATOM     25  C   UNL A   1      36.104  22.364  25.864  1.00  0.00     0.040 A 
ATOM     26  C   UNL A   1      35.647  23.139  23.622  1.00  0.00     0.040 A 
ATOM     27  C   UNL A   1      36.391  23.201  24.796  1.00  0.00     0.123 A 
ATOM     28  F   UNL A   1      37.390  24.087  24.902  1.00  0.00    -0.207 F 
ENDBRANCH  19  22
ENDBRANCH  14  18
ENDBRANCH   8  13
ENDBRANCH   4   7
ENDBRANCH   2   3
ENDBRANCH   1   2
BRANCH   1  29
ATOM     29  C   UNL A   1      32.964  32.628  27.326  1.00  0.00     0.118 C 
BRANCH  29  30
ATOM     30  N   UNL A   1      32.749  34.009  27.749  1.00  0.00    -0.352 N 
ATOM     31  C   UNL A   1      33.277  34.727  28.798  1.00  0.00     0.251 C 
ATOM     32  H   UNL A   1      32.118  34.513  27.188  1.00  0.00     0.163 HD
ATOM     33  O   UNL A   1      32.760  35.798  29.103  1.00  0.00    -0.269 OA
BRANCH  31  34
ATOM     34  C   UNL A   1      34.436  34.215  29.562  1.00  0.00     0.039 A 
ATOM     35  C   UNL A   1      34.215  33.436  30.702  1.00  0.00     0.014 A 
ATOM     36  C   UNL A   1      35.741  34.523  29.178  1.00  0.00     0.014 A 
ATOM     37  C   UNL A   1      35.302  32.900  31.398  1.00  0.00     0.010 A 
ATOM     38  C   UNL A   1      36.816  33.902  29.804  1.00  0.00     0.010 A 
ATOM     39  C   UNL A   1      36.610  33.086  30.925  1.00  0.00    -0.014 A 
BRANCH  39  40
ATOM     40  C   UNL A   1      37.781  32.452  31.585  1.00  0.00     0.031 A 
ATOM     41  C   UNL A   1      38.499  31.313  30.912  1.00  0.00     0.074 A 
ATOM     42  C   UNL A   1      38.141  32.845  32.824  1.00  0.00     0.049 A 
ATOM     43  N   UNL A   1      39.463  30.554  31.368  1.00  0.00    -0.248 NA
ATOM     44  C   UNL A   1      38.048  30.957  29.557  1.00  0.00     0.031 C 
ATOM     45  C   UNL A   1      37.495  33.909  33.595  1.00  0.00     0.029 A 
ATOM     46  N   UNL A   1      39.131  32.389  33.659  1.00  0.00    -0.354 N 
ATOM     47  C   UNL A   1      39.720  29.624  30.367  1.00  0.00     0.074 A 
ATOM     48  C   UNL A   1      38.763  29.871  29.310  1.00  0.00     0.031 C 
ATOM     49  C   UNL A   1      38.121  34.044  34.774  1.00  0.00     0.029 A 
ATOM     50  C   UNL A   1      39.176  33.040  34.871  1.00  0.00     0.049 A 
ATOM     51  H   UNL A   1      39.751  31.665  33.414  1.00  0.00     0.167 HD
ATOM     52  C   UNL A   1      40.682  28.669  30.322  1.00  0.00     0.034 A 
ATOM     53  C   UNL A   1      39.963  32.838  35.947  1.00  0.00     0.034 A 
ATOM     54  C   UNL A   1      41.635  28.448  31.382  1.00  0.00     0.049 A 
ATOM     55  C   UNL A   1      41.002  31.747  35.889  1.00  0.00     0.074 A 
ATOM     56  C   UNL A   1      42.688  27.550  31.421  1.00  0.00     0.029 A 
ATOM     57  N   UNL A   1      41.648  29.125  32.596  1.00  0.00    -0.354 N 
ATOM     58  N   UNL A   1      41.266  30.909  34.913  1.00  0.00    -0.248 NA
ATOM     59  C   UNL A   1      41.853  31.578  37.073  1.00  0.00     0.031 C 
ATOM     60  C   UNL A   1      43.284  27.628  32.683  1.00  0.00     0.029 A 
ATOM     61  C   UNL A   1      42.664  28.637  33.402  1.00  0.00     0.049 A 
ATOM     62  H   UNL A   1      41.025  29.846  32.845  1.00  0.00     0.167 HD
ATOM     63  C   UNL A   1      42.337  30.137  35.355  1.00  0.00     0.074 A 
ATOM     64  C   UNL A   1      42.677  30.619  36.678  1.00  0.00     0.031 C 
ATOM     65  C   UNL A   1      42.985  29.123  34.725  1.00  0.00     0.034 A 
BRANCH  52  66
ATOM     66  C   UNL A   1      40.730  27.782  29.100  1.00  0.00     0.023 A 
ATOM     67  C   UNL A   1      41.674  27.982  28.077  1.00  0.00     0.031 A 
ATOM     68  C   UNL A   1      39.803  26.736  28.941  1.00  0.00     0.131 A 
ATOM     69  C   UNL A   1      41.621  27.204  26.910  1.00  0.00     0.055 A 
ATOM     70  C   UNL A   1      39.812  25.907  27.817  1.00  0.00     0.041 A 
ATOM     71  F   UNL A   1      38.863  26.509  29.870  1.00  0.00    -0.206 F 
ATOM     72  C   UNL A   1      40.715  26.149  26.785  1.00  0.00     0.022 A 
BRANCH  69  73
ATOM     73  S   UNL A   1      42.650  27.692  25.499  1.00  0.00     0.124 S 
ATOM     74  O   UNL A   1      41.926  28.857  24.995  1.00  0.00    -0.237 OA
ATOM     75  O   UNL A   1      43.939  27.963  26.125  1.00  0.00    -0.237 OA
ATOM     76  O   UNL A   1      42.612  26.520  24.626  1.00  0.00    -0.744 OA
ENDBRANCH  69  73
ENDBRANCH  52  66
BRANCH  53  77
ATOM     77  C   UNL A   1      39.798  33.672  37.173  1.00  0.00     0.023 A 
ATOM     78  C   UNL A   1      40.721  34.681  37.490  1.00  0.00     0.031 A 
ATOM     79  C   UNL A   1      38.740  33.444  38.072  1.00  0.00     0.131 A 
ATOM     80  C   UNL A   1      40.600  35.389  38.695  1.00  0.00     0.055 A 
ATOM     81  C   UNL A   1      38.589  34.192  39.240  1.00  0.00     0.041 A 
ATOM     82  F   UNL A   1      37.826  32.494  37.818  1.00  0.00    -0.206 F 
ATOM     83  C   UNL A   1      39.531  35.163  39.565  1.00  0.00     0.022 A 
BRANCH  80  84
ATOM     84  S   UNL A   1      41.918  36.547  39.156  1.00  0.00     0.124 S 
ATOM     85  O   UNL A   1      41.294  37.287  40.247  1.00  0.00    -0.237 OA
ATOM     86  O   UNL A   1      42.999  35.640  39.530  1.00  0.00    -0.237 OA
ATOM     87  O   UNL A   1      42.143  37.312  37.931  1.00  0.00    -0.744 OA
ENDBRANCH  80  84
ENDBRANCH  53  77
BRANCH  65  88
ATOM     88  C   UNL A   1      44.157  28.502  35.444  1.00  0.00     0.023 A 
ATOM     89  C   UNL A   1      43.989  27.479  36.393  1.00  0.00     0.031 A 
ATOM     90  C   UNL A   1      45.465  28.944  35.174  1.00  0.00     0.131 A 
ATOM     91  C   UNL A   1      45.103  26.970  37.078  1.00  0.00     0.055 A 
ATOM     92  C   UNL A   1      46.576  28.388  35.809  1.00  0.00     0.041 A 
ATOM     93  F   UNL A   1      45.686  29.923  34.281  1.00  0.00    -0.206 F 
ATOM     94  C   UNL A   1      46.397  27.404  36.776  1.00  0.00     0.022 A 
BRANCH  91  95
ATOM     95  S   UNL A   1      44.831  25.800  38.436  1.00  0.00     0.124 S 
ATOM     96  O   UNL A   1      44.628  24.546  37.719  1.00  0.00    -0.237 OA
ATOM     97  O   UNL A   1      46.073  25.908  39.194  1.00  0.00    -0.237 OA
ATOM     98  O   UNL A   1      43.647  26.327  39.111  1.00  0.00    -0.744 OA
ENDBRANCH  91  95
ENDBRANCH  65  88
ENDBRANCH  39  40
ENDBRANCH  31  34
ENDBRANCH  29  30
ENDBRANCH   1  29
TORSDOF 17
ENDMDL
