MODEL 1
REMARK VINA RESULT:     -10.2      0.000      0.000
REMARK SMILES CN1C(=O)Cc2cc([C@@H](O)CCCCC(=O)NCCCNC(=O)c3ccc(-c4c5nc(c(-c6cc(S(=O)(=O)[O-])ccc6F)c6ccc([nH]6)c(-c6cc(S(=O)(=O)[O-])ccc6F)c6nc(c(-c7cc(S(=O)(=O)[O-])ccc7F)c7ccc4[nH]7)C=C6)C=C5)cc3)ccc21
REMARK SMILES IDX 18 1 17 2 15 3 16 4 14 6 13 7 12 8 11 9 9 10 8 11 1 12 2 13
REMARK SMILES IDX 3 14 89 15 4 16 5 17 6 18 88 19 7 20 87 21 10 22 19 24 20 25
REMARK SMILES IDX 21 26 22 27 23 29 24 30 25 31 86 32 26 33 85 34 27 35 28 36
REMARK SMILES IDX 29 37 79 38 30 39 84 40 78 41 80 42 31 43 83 44 77 45 76 46
REMARK SMILES IDX 32 48 64 49 44 50 63 51 45 52 48 53 62 54 81 55 46 56 47 57
REMARK SMILES IDX 61 59 82 60 49 61 33 62 34 63 42 64 35 65 41 66 43 67 40 68
REMARK SMILES IDX 36 69 37 70 38 71 39 72 65 73 66 74 74 75 67 76 73 77 75 78
REMARK SMILES IDX 72 79 68 80 69 81 70 82 71 83 50 84 51 85 59 86 52 87 58 88
REMARK SMILES IDX 60 89 57 90 53 91 54 92 55 93 56 94
REMARK H PARENT 17 5 10 23 21 28 80 47 48 58
REMARK Flexibility Score: inf
ROOT
ATOM      1  C   UNL A   1      42.477  19.690  27.409  1.00  0.00     0.117 C 
ENDROOT
BRANCH   1   2
ATOM      2  N   UNL A   1      43.246  18.807  26.550  1.00  0.00    -0.356 N 
ATOM      3  C   UNL A   1      44.027  19.083  25.471  1.00  0.00     0.219 C 
ATOM      4  O   UNL A   1      44.541  18.137  24.869  1.00  0.00    -0.275 OA
ATOM      5  H   UNL A   1      43.194  17.853  26.788  1.00  0.00     0.163 HD
BRANCH   3   6
ATOM      6  C   UNL A   1      44.296  20.511  25.034  1.00  0.00     0.100 C 
BRANCH   6   7
ATOM      7  C   UNL A   1      45.751  20.960  25.174  1.00  0.00     0.010 C 
BRANCH   7   8
ATOM      8  C   UNL A   1      46.121  22.276  24.495  1.00  0.00     0.004 C 
BRANCH   8   9
ATOM      9  C   UNL A   1      44.998  23.321  24.403  1.00  0.00     0.037 C 
BRANCH   9  10
ATOM     10  C   UNL A   1      45.318  24.651  25.086  1.00  0.00     0.144 C 
BRANCH  10  11
ATOM     11  C   UNL A   1      45.372  24.494  26.590  1.00  0.00    -0.019 A 
ATOM     12  C   UNL A   1      45.879  25.006  31.745  1.00  0.00     0.153 C 
ATOM     13  N   UNL A   1      45.097  24.368  30.723  1.00  0.00    -0.315 N 
ATOM     14  C   UNL A   1      43.997  23.541  30.969  1.00  0.00     0.231 C 
ATOM     15  C   UNL A   1      45.334  24.503  29.355  1.00  0.00     0.047 A 
ATOM     16  O   UNL A   1      43.554  23.213  32.054  1.00  0.00    -0.274 OA
ATOM     17  C   UNL A   1      43.442  23.108  29.607  1.00  0.00     0.138 C 
ATOM     18  C   UNL A   1      44.391  23.760  28.648  1.00  0.00    -0.014 A 
ATOM     19  C   UNL A   1      46.313  25.239  28.719  1.00  0.00     0.027 A 
ATOM     20  C   UNL A   1      44.399  23.735  27.267  1.00  0.00     0.012 A 
ATOM     21  C   UNL A   1      46.331  25.227  27.325  1.00  0.00     0.008 A 
ENDBRANCH  10  11
BRANCH  10  22
ATOM     22  O   UNL A   1      46.572  25.123  24.592  1.00  0.00    -0.388 OA
ATOM     23  H   UNL A   1      47.289  24.771  25.142  1.00  0.00     0.211 HD
ENDBRANCH  10  22
ENDBRANCH   9  10
ENDBRANCH   8   9
ENDBRANCH   7   8
ENDBRANCH   6   7
ENDBRANCH   3   6
ENDBRANCH   1   2
BRANCH   1  24
ATOM     24  C   UNL A   1      41.103  19.986  26.815  1.00  0.00     0.042 C 
BRANCH  24  25
ATOM     25  C   UNL A   1      40.701  21.447  26.888  1.00  0.00     0.118 C 
BRANCH  25  26
ATOM     26  N   UNL A   1      39.413  21.695  26.265  1.00  0.00    -0.352 N 
ATOM     27  C   UNL A   1      38.632  22.825  26.280  1.00  0.00     0.251 C 
ATOM     28  H   UNL A   1      39.044  20.938  25.753  1.00  0.00     0.163 HD
ATOM     29  O   UNL A   1      37.477  22.751  25.862  1.00  0.00    -0.269 OA
BRANCH  27  30
ATOM     30  C   UNL A   1      39.152  24.106  26.817  1.00  0.00     0.039 A 
ATOM     31  C   UNL A   1      39.874  24.949  25.967  1.00  0.00     0.014 A 
ATOM     32  C   UNL A   1      38.957  24.476  28.150  1.00  0.00     0.014 A 
ATOM     33  C   UNL A   1      40.352  26.173  26.440  1.00  0.00     0.010 A 
ATOM     34  C   UNL A   1      39.333  25.743  28.587  1.00  0.00     0.010 A 
ATOM     35  C   UNL A   1      40.057  26.597  27.745  1.00  0.00    -0.014 A 
BRANCH  35  36
ATOM     36  C   UNL A   1      40.532  27.910  28.258  1.00  0.00     0.031 A 
ATOM     37  C   UNL A   1      42.008  28.208  28.315  1.00  0.00     0.074 A 
ATOM     38  C   UNL A   1      39.643  28.808  28.724  1.00  0.00     0.049 A 
ATOM     39  N   UNL A   1      42.624  29.265  28.779  1.00  0.00    -0.248 NA
ATOM     40  C   UNL A   1      42.910  27.159  27.819  1.00  0.00     0.031 C 
ATOM     41  C   UNL A   1      38.192  28.612  28.769  1.00  0.00     0.029 A 
ATOM     42  N   UNL A   1      39.823  30.061  29.252  1.00  0.00    -0.354 N 
ATOM     43  C   UNL A   1      43.985  28.998  28.648  1.00  0.00     0.074 A 
ATOM     44  C   UNL A   1      44.097  27.650  28.138  1.00  0.00     0.031 C 
ATOM     45  C   UNL A   1      37.614  29.716  29.264  1.00  0.00     0.029 A 
ATOM     46  C   UNL A   1      38.652  30.678  29.623  1.00  0.00     0.049 A 
ATOM     47  H   UNL A   1      40.709  30.480  29.355  1.00  0.00     0.167 HD
ATOM     48  C   UNL A   1      45.039  29.812  28.905  1.00  0.00     0.034 A 
ATOM     49  C   UNL A   1      38.435  31.877  30.200  1.00  0.00     0.034 A 
ATOM     50  C   UNL A   1      44.900  31.158  29.409  1.00  0.00     0.049 A 
ATOM     51  C   UNL A   1      39.618  32.762  30.498  1.00  0.00     0.074 A 
ATOM     52  C   UNL A   1      45.887  32.098  29.642  1.00  0.00     0.029 A 
ATOM     53  N   UNL A   1      43.696  31.750  29.775  1.00  0.00    -0.354 N 
ATOM     54  N   UNL A   1      40.896  32.525  30.306  1.00  0.00    -0.248 NA
ATOM     55  C   UNL A   1      39.330  34.078  31.078  1.00  0.00     0.031 C 
ATOM     56  C   UNL A   1      45.293  33.220  30.229  1.00  0.00     0.029 A 
ATOM     57  C   UNL A   1      43.921  33.024  30.274  1.00  0.00     0.049 A 
ATOM     58  H   UNL A   1      42.811  31.326  29.691  1.00  0.00     0.167 HD
ATOM     59  C   UNL A   1      41.563  33.675  30.718  1.00  0.00     0.074 A 
ATOM     60  C   UNL A   1      40.542  34.608  31.153  1.00  0.00     0.031 C 
ATOM     61  C   UNL A   1      42.896  33.938  30.729  1.00  0.00     0.034 A 
BRANCH  48  62
ATOM     62  C   UNL A   1      46.424  29.244  28.679  1.00  0.00     0.023 A 
ATOM     63  C   UNL A   1      46.966  29.098  27.388  1.00  0.00     0.031 A 
ATOM     64  C   UNL A   1      47.191  28.781  29.764  1.00  0.00     0.131 A 
ATOM     65  C   UNL A   1      48.174  28.407  27.207  1.00  0.00     0.055 A 
ATOM     66  C   UNL A   1      48.443  28.189  29.584  1.00  0.00     0.041 A 
ATOM     67  F   UNL A   1      46.726  28.872  31.020  1.00  0.00    -0.206 F 
ATOM     68  C   UNL A   1      48.932  27.977  28.299  1.00  0.00     0.022 A 
BRANCH  65  69
ATOM     69  S   UNL A   1      48.637  27.904  25.526  1.00  0.00     0.124 S 
ATOM     70  O   UNL A   1      47.415  28.205  24.782  1.00  0.00    -0.237 OA
ATOM     71  O   UNL A   1      49.784  28.758  25.245  1.00  0.00    -0.237 OA
ATOM     72  O   UNL A   1      48.936  26.480  25.664  1.00  0.00    -0.744 OA
ENDBRANCH  65  69
ENDBRANCH  48  62
BRANCH  49  73
ATOM     73  C   UNL A   1      37.046  32.298  30.541  1.00  0.00     0.023 A 
ATOM     74  C   UNL A   1      36.202  32.879  29.580  1.00  0.00     0.031 A 
ATOM     75  C   UNL A   1      36.536  32.112  31.839  1.00  0.00     0.131 A 
ATOM     76  C   UNL A   1      34.905  33.277  29.938  1.00  0.00     0.055 A 
ATOM     77  C   UNL A   1      35.227  32.459  32.176  1.00  0.00     0.041 A 
ATOM     78  F   UNL A   1      37.301  31.561  32.796  1.00  0.00    -0.206 F 
ATOM     79  C   UNL A   1      34.405  33.054  31.223  1.00  0.00     0.022 A 
BRANCH  76  80
ATOM     80  S   UNL A   1      33.892  34.150  28.712  1.00  0.00     0.124 S 
ATOM     81  O   UNL A   1      33.551  33.075  27.788  1.00  0.00    -0.237 OA
ATOM     82  O   UNL A   1      32.797  34.663  29.530  1.00  0.00    -0.237 OA
ATOM     83  O   UNL A   1      34.797  35.166  28.179  1.00  0.00    -0.744 OA
ENDBRANCH  76  80
ENDBRANCH  49  73
BRANCH  61  84
ATOM     84  C   UNL A   1      43.323  35.311  31.195  1.00  0.00     0.023 A 
ATOM     85  C   UNL A   1      43.443  35.629  32.559  1.00  0.00     0.031 A 
ATOM     86  C   UNL A   1      43.609  36.318  30.256  1.00  0.00     0.131 A 
ATOM     87  C   UNL A   1      43.779  36.936  32.945  1.00  0.00     0.055 A 
ATOM     88  C   UNL A   1      44.013  37.595  30.645  1.00  0.00     0.041 A 
ATOM     89  F   UNL A   1      43.506  36.075  28.939  1.00  0.00    -0.206 F 
ATOM     90  C   UNL A   1      44.087  37.914  31.998  1.00  0.00     0.022 A 
BRANCH  87  91
ATOM     91  S   UNL A   1      43.707  37.370  34.705  1.00  0.00     0.124 S 
ATOM     92  O   UNL A   1      42.438  36.775  35.111  1.00  0.00    -0.237 OA
ATOM     93  O   UNL A   1      44.909  36.734  35.234  1.00  0.00    -0.237 OA
ATOM     94  O   UNL A   1      43.732  38.831  34.699  1.00  0.00    -0.744 OA
ENDBRANCH  87  91
ENDBRANCH  61  84
ENDBRANCH  35  36
ENDBRANCH  27  30
ENDBRANCH  25  26
ENDBRANCH  24  25
ENDBRANCH   1  24
TORSDOF 19
ENDMDL
MODEL 2
REMARK VINA RESULT:      -9.8      4.099     12.039
REMARK SMILES CN1C(=O)Cc2cc([C@@H](O)CCCCC(=O)NCCCNC(=O)c3ccc(-c4c5nc(c(-c6cc(S(=O)(=O)[O-])ccc6F)c6ccc([nH]6)c(-c6cc(S(=O)(=O)[O-])ccc6F)c6nc(c(-c7cc(S(=O)(=O)[O-])ccc7F)c7ccc4[nH]7)C=C6)C=C5)cc3)ccc21
REMARK SMILES IDX 18 1 17 2 15 3 16 4 14 6 13 7 12 8 11 9 9 10 8 11 1 12 2 13
REMARK SMILES IDX 3 14 89 15 4 16 5 17 6 18 88 19 7 20 87 21 10 22 19 24 20 25
REMARK SMILES IDX 21 26 22 27 23 29 24 30 25 31 86 32 26 33 85 34 27 35 28 36
REMARK SMILES IDX 29 37 79 38 30 39 84 40 78 41 80 42 31 43 83 44 77 45 76 46
REMARK SMILES IDX 32 48 64 49 44 50 63 51 45 52 48 53 62 54 81 55 46 56 47 57
REMARK SMILES IDX 61 59 82 60 49 61 33 62 34 63 42 64 35 65 41 66 43 67 40 68
REMARK SMILES IDX 36 69 37 70 38 71 39 72 65 73 66 74 74 75 67 76 73 77 75 78
REMARK SMILES IDX 72 79 68 80 69 81 70 82 71 83 50 84 51 85 59 86 52 87 58 88
REMARK SMILES IDX 60 89 57 90 53 91 54 92 55 93 56 94
REMARK H PARENT 17 5 10 23 21 28 80 47 48 58
REMARK Flexibility Score: inf
ROOT
ATOM      1  C   UNL A   1      34.283  35.444  29.500  1.00  0.00     0.117 C 
ENDROOT
BRANCH   1   2
ATOM      2  N   UNL A   1      33.333  36.240  30.258  1.00  0.00    -0.356 N 
ATOM      3  C   UNL A   1      33.302  36.558  31.580  1.00  0.00     0.219 C 
ATOM      4  O   UNL A   1      32.345  37.214  31.997  1.00  0.00    -0.275 OA
ATOM      5  H   UNL A   1      32.590  36.609  29.727  1.00  0.00     0.163 HD
BRANCH   3   6
ATOM      6  C   UNL A   1      34.425  36.153  32.516  1.00  0.00     0.100 C 
BRANCH   6   7
ATOM      7  C   UNL A   1      34.224  34.806  33.213  1.00  0.00     0.010 C 
BRANCH   7   8
ATOM      8  C   UNL A   1      35.082  34.549  34.448  1.00  0.00     0.004 C 
BRANCH   8   9
ATOM      9  C   UNL A   1      36.122  33.424  34.319  1.00  0.00     0.037 C 
BRANCH   9  10
ATOM     10  C   UNL A   1      36.426  33.010  32.879  1.00  0.00     0.144 C 
BRANCH  10  11
ATOM     11  C   UNL A   1      37.733  33.606  32.405  1.00  0.00    -0.019 A 
ATOM     12  C   UNL A   1      42.672  35.014  31.555  1.00  0.00     0.153 C 
ATOM     13  N   UNL A   1      41.416  34.769  30.902  1.00  0.00    -0.315 N 
ATOM     14  C   UNL A   1      41.207  34.869  29.523  1.00  0.00     0.231 C 
ATOM     15  C   UNL A   1      40.248  34.394  31.564  1.00  0.00     0.047 A 
ATOM     16  O   UNL A   1      42.022  35.197  28.680  1.00  0.00    -0.274 OA
ATOM     17  C   UNL A   1      39.746  34.493  29.256  1.00  0.00     0.138 C 
ATOM     18  C   UNL A   1      39.221  34.234  30.636  1.00  0.00    -0.014 A 
ATOM     19  C   UNL A   1      40.053  34.182  32.915  1.00  0.00     0.027 A 
ATOM     20  C   UNL A   1      37.956  33.851  31.037  1.00  0.00     0.012 A 
ATOM     21  C   UNL A   1      38.783  33.790  33.334  1.00  0.00     0.008 A 
ENDBRANCH  10  11
BRANCH  10  22
ATOM     22  O   UNL A   1      36.481  31.584  32.820  1.00  0.00    -0.388 OA
ATOM     23  H   UNL A   1      35.583  31.230  32.727  1.00  0.00     0.211 HD
ENDBRANCH  10  22
ENDBRANCH   9  10
ENDBRANCH   8   9
ENDBRANCH   7   8
ENDBRANCH   6   7
ENDBRANCH   3   6
ENDBRANCH   1   2
BRANCH   1  24
ATOM     24  C   UNL A   1      33.753  34.034  29.252  1.00  0.00     0.042 C 
BRANCH  24  25
ATOM     25  C   UNL A   1      34.712  33.143  28.485  1.00  0.00     0.118 C 
BRANCH  25  26
ATOM     26  N   UNL A   1      34.032  32.039  27.830  1.00  0.00    -0.352 N 
ATOM     27  C   UNL A   1      34.484  30.775  27.538  1.00  0.00     0.251 C 
ATOM     28  H   UNL A   1      33.105  32.225  27.553  1.00  0.00     0.163 HD
ATOM     29  O   UNL A   1      33.816  30.066  26.789  1.00  0.00    -0.269 OA
BRANCH  27  30
ATOM     30  C   UNL A   1      35.770  30.279  28.087  1.00  0.00     0.039 A 
ATOM     31  C   UNL A   1      35.791  29.754  29.382  1.00  0.00     0.014 A 
ATOM     32  C   UNL A   1      36.956  30.345  27.352  1.00  0.00     0.014 A 
ATOM     33  C   UNL A   1      36.983  29.256  29.913  1.00  0.00     0.010 A 
ATOM     34  C   UNL A   1      38.115  29.746  27.836  1.00  0.00     0.010 A 
ATOM     35  C   UNL A   1      38.150  29.216  29.133  1.00  0.00    -0.014 A 
BRANCH  35  36
ATOM     36  C   UNL A   1      39.421  28.663  29.670  1.00  0.00     0.031 A 
ATOM     37  C   UNL A   1      40.059  29.282  30.886  1.00  0.00     0.074 A 
ATOM     38  C   UNL A   1      40.030  27.643  29.033  1.00  0.00     0.049 A 
ATOM     39  N   UNL A   1      41.190  28.985  31.474  1.00  0.00    -0.248 NA
ATOM     40  C   UNL A   1      39.346  30.412  31.500  1.00  0.00     0.031 C 
ATOM     41  C   UNL A   1      39.535  26.995  27.817  1.00  0.00     0.029 A 
ATOM     42  N   UNL A   1      41.194  26.975  29.314  1.00  0.00    -0.354 N 
ATOM     43  C   UNL A   1      41.332  29.904  32.510  1.00  0.00     0.074 A 
ATOM     44  C   UNL A   1      40.211  30.813  32.416  1.00  0.00     0.031 C 
ATOM     45  C   UNL A   1      40.372  26.004  27.475  1.00  0.00     0.029 A 
ATOM     46  C   UNL A   1      41.490  25.979  28.414  1.00  0.00     0.049 A 
ATOM     47  H   UNL A   1      41.765  27.189  30.087  1.00  0.00     0.167 HD
ATOM     48  C   UNL A   1      42.292  29.964  33.467  1.00  0.00     0.034 A 
ATOM     49  C   UNL A   1      42.548  25.146  28.341  1.00  0.00     0.034 A 
ATOM     50  C   UNL A   1      43.398  29.040  33.542  1.00  0.00     0.049 A 
ATOM     51  C   UNL A   1      43.617  25.240  29.398  1.00  0.00     0.074 A 
ATOM     52  C   UNL A   1      44.392  28.960  34.502  1.00  0.00     0.029 A 
ATOM     53  N   UNL A   1      43.666  28.042  32.611  1.00  0.00    -0.354 N 
ATOM     54  N   UNL A   1      43.705  26.069  30.414  1.00  0.00    -0.248 NA
ATOM     55  C   UNL A   1      44.722  24.280  29.308  1.00  0.00     0.031 C 
ATOM     56  C   UNL A   1      45.306  27.978  34.105  1.00  0.00     0.029 A 
ATOM     57  C   UNL A   1      44.834  27.373  32.949  1.00  0.00     0.049 A 
ATOM     58  H   UNL A   1      43.108  27.839  31.826  1.00  0.00     0.167 HD
ATOM     59  C   UNL A   1      44.863  25.712  31.099  1.00  0.00     0.074 A 
ATOM     60  C   UNL A   1      45.428  24.583  30.388  1.00  0.00     0.031 C 
ATOM     61  C   UNL A   1      45.403  26.263  32.218  1.00  0.00     0.034 A 
BRANCH  48  62
ATOM     62  C   UNL A   1      42.199  31.093  34.472  1.00  0.00     0.023 A 
ATOM     63  C   UNL A   1      41.170  31.150  35.430  1.00  0.00     0.031 A 
ATOM     64  C   UNL A   1      43.113  32.162  34.432  1.00  0.00     0.131 A 
ATOM     65  C   UNL A   1      41.013  32.296  36.226  1.00  0.00     0.055 A 
ATOM     66  C   UNL A   1      43.013  33.252  35.300  1.00  0.00     0.041 A 
ATOM     67  F   UNL A   1      44.106  32.180  33.530  1.00  0.00    -0.206 F 
ATOM     68  C   UNL A   1      41.945  33.335  36.188  1.00  0.00     0.022 A 
BRANCH  65  69
ATOM     69  S   UNL A   1      39.469  32.495  37.158  1.00  0.00     0.124 S 
ATOM     70  O   UNL A   1      39.941  32.385  38.537  1.00  0.00    -0.237 OA
ATOM     71  O   UNL A   1      39.016  33.816  36.741  1.00  0.00    -0.237 OA
ATOM     72  O   UNL A   1      38.646  31.377  36.701  1.00  0.00    -0.744 OA
ENDBRANCH  65  69
ENDBRANCH  48  62
BRANCH  49  73
ATOM     73  C   UNL A   1      42.647  24.166  27.222  1.00  0.00     0.023 A 
ATOM     74  C   UNL A   1      42.049  22.898  27.306  1.00  0.00     0.031 A 
ATOM     75  C   UNL A   1      43.336  24.492  26.038  1.00  0.00     0.131 A 
ATOM     76  C   UNL A   1      42.175  21.994  26.240  1.00  0.00     0.055 A 
ATOM     77  C   UNL A   1      43.411  23.611  24.959  1.00  0.00     0.041 A 
ATOM     78  F   UNL A   1      43.925  25.692  25.906  1.00  0.00    -0.206 F 
ATOM     79  C   UNL A   1      42.835  22.348  25.061  1.00  0.00     0.022 A 
BRANCH  76  80
ATOM     80  S   UNL A   1      41.512  20.317  26.437  1.00  0.00     0.124 S 
ATOM     81  O   UNL A   1      40.098  20.518  26.142  1.00  0.00    -0.237 OA
ATOM     82  O   UNL A   1      42.273  19.568  25.442  1.00  0.00    -0.237 OA
ATOM     83  O   UNL A   1      41.817  19.988  27.828  1.00  0.00    -0.744 OA
ENDBRANCH  76  80
ENDBRANCH  49  73
BRANCH  61  84
ATOM     84  C   UNL A   1      46.658  25.621  32.762  1.00  0.00     0.023 A 
ATOM     85  C   UNL A   1      46.613  24.619  33.748  1.00  0.00     0.031 A 
ATOM     86  C   UNL A   1      47.920  26.023  32.288  1.00  0.00     0.131 A 
ATOM     87  C   UNL A   1      47.808  24.098  34.270  1.00  0.00     0.055 A 
ATOM     88  C   UNL A   1      49.101  25.450  32.760  1.00  0.00     0.041 A 
ATOM     89  F   UNL A   1      48.026  26.980  31.351  1.00  0.00    -0.206 F 
ATOM     90  C   UNL A   1      49.050  24.491  33.767  1.00  0.00     0.022 A 
BRANCH  87  91
ATOM     91  S   UNL A   1      47.721  22.975  35.692  1.00  0.00     0.124 S 
ATOM     92  O   UNL A   1      46.343  22.500  35.617  1.00  0.00    -0.237 OA
ATOM     93  O   UNL A   1      48.753  21.993  35.379  1.00  0.00    -0.237 OA
ATOM     94  O   UNL A   1      48.016  23.841  36.832  1.00  0.00    -0.744 OA
ENDBRANCH  87  91
ENDBRANCH  61  84
ENDBRANCH  35  36
ENDBRANCH  27  30
ENDBRANCH  25  26
ENDBRANCH  24  25
ENDBRANCH   1  24
TORSDOF 19
ENDMDL
MODEL 3
REMARK VINA RESULT:      -9.8      5.106      9.796
REMARK SMILES CN1C(=O)Cc2cc([C@@H](O)CCCCC(=O)NCCCNC(=O)c3ccc(-c4c5nc(c(-c6cc(S(=O)(=O)[O-])ccc6F)c6ccc([nH]6)c(-c6cc(S(=O)(=O)[O-])ccc6F)c6nc(c(-c7cc(S(=O)(=O)[O-])ccc7F)c7ccc4[nH]7)C=C6)C=C5)cc3)ccc21
REMARK SMILES IDX 18 1 17 2 15 3 16 4 14 6 13 7 12 8 11 9 9 10 8 11 1 12 2 13
REMARK SMILES IDX 3 14 89 15 4 16 5 17 6 18 88 19 7 20 87 21 10 22 19 24 20 25
REMARK SMILES IDX 21 26 22 27 23 29 24 30 25 31 86 32 26 33 85 34 27 35 28 36
REMARK SMILES IDX 29 37 79 38 30 39 84 40 78 41 80 42 31 43 83 44 77 45 76 46
REMARK SMILES IDX 32 48 64 49 44 50 63 51 45 52 48 53 62 54 81 55 46 56 47 57
REMARK SMILES IDX 61 59 82 60 49 61 33 62 34 63 42 64 35 65 41 66 43 67 40 68
REMARK SMILES IDX 36 69 37 70 38 71 39 72 65 73 66 74 74 75 67 76 73 77 75 78
REMARK SMILES IDX 72 79 68 80 69 81 70 82 71 83 50 84 51 85 59 86 52 87 58 88
REMARK SMILES IDX 60 89 57 90 53 91 54 92 55 93 56 94
REMARK H PARENT 17 5 10 23 21 28 80 47 48 58
REMARK Flexibility Score: inf
ROOT
ATOM      1  C   UNL A   1      31.406  31.098  26.089  1.00  0.00     0.117 C 
ENDROOT
BRANCH   1   2
ATOM      2  N   UNL A   1      32.585  30.327  26.442  1.00  0.00    -0.356 N 
ATOM      3  C   UNL A   1      33.283  29.401  25.730  1.00  0.00     0.219 C 
ATOM      4  O   UNL A   1      34.233  28.839  26.280  1.00  0.00    -0.275 OA
ATOM      5  H   UNL A   1      32.937  30.503  27.345  1.00  0.00     0.163 HD
BRANCH   3   6
ATOM      6  C   UNL A   1      32.934  29.088  24.287  1.00  0.00     0.100 C 
BRANCH   6   7
ATOM      7  C   UNL A   1      33.989  28.273  23.536  1.00  0.00     0.010 C 
BRANCH   7   8
ATOM      8  C   UNL A   1      33.642  26.813  23.257  1.00  0.00     0.004 C 
BRANCH   8   9
ATOM      9  C   UNL A   1      33.340  25.948  24.491  1.00  0.00     0.037 C 
BRANCH   9  10
ATOM     10  C   UNL A   1      33.008  24.490  24.173  1.00  0.00     0.144 C 
BRANCH  10  11
ATOM     11  C   UNL A   1      34.144  23.573  24.570  1.00  0.00    -0.019 A 
ATOM     12  C   UNL A   1      37.782  19.877  25.013  1.00  0.00     0.153 C 
ATOM     13  N   UNL A   1      37.518  21.267  25.258  1.00  0.00    -0.315 N 
ATOM     14  C   UNL A   1      38.443  22.166  25.799  1.00  0.00     0.231 C 
ATOM     15  C   UNL A   1      36.305  21.896  24.980  1.00  0.00     0.047 A 
ATOM     16  O   UNL A   1      39.578  21.920  26.164  1.00  0.00    -0.274 OA
ATOM     17  C   UNL A   1      37.763  23.538  25.855  1.00  0.00     0.138 C 
ATOM     18  C   UNL A   1      36.390  23.241  25.333  1.00  0.00    -0.014 A 
ATOM     19  C   UNL A   1      35.158  21.353  24.435  1.00  0.00     0.027 A 
ATOM     20  C   UNL A   1      35.318  24.093  25.145  1.00  0.00     0.012 A 
ATOM     21  C   UNL A   1      34.070  22.201  24.235  1.00  0.00     0.008 A 
ENDBRANCH  10  11
BRANCH  10  22
ATOM     22  O   UNL A   1      31.816  24.134  24.873  1.00  0.00    -0.388 OA
ATOM     23  H   UNL A   1      31.153  24.834  24.759  1.00  0.00     0.211 HD
ENDBRANCH  10  22
ENDBRANCH   9  10
ENDBRANCH   8   9
ENDBRANCH   7   8
ENDBRANCH   6   7
ENDBRANCH   3   6
ENDBRANCH   1   2
BRANCH   1  24
ATOM     24  C   UNL A   1      31.354  32.416  26.856  1.00  0.00     0.042 C 
BRANCH  24  25
ATOM     25  C   UNL A   1      32.715  32.948  27.259  1.00  0.00     0.118 C 
BRANCH  25  26
ATOM     26  N   UNL A   1      32.654  34.323  27.723  1.00  0.00    -0.352 N 
ATOM     27  C   UNL A   1      33.323  34.935  28.755  1.00  0.00     0.251 C 
ATOM     28  H   UNL A   1      32.037  34.906  27.222  1.00  0.00     0.163 HD
ATOM     29  O   UNL A   1      32.964  36.055  29.111  1.00  0.00    -0.269 OA
BRANCH  27  30
ATOM     30  C   UNL A   1      34.439  34.250  29.453  1.00  0.00     0.039 A 
ATOM     31  C   UNL A   1      35.732  34.372  28.935  1.00  0.00     0.014 A 
ATOM     32  C   UNL A   1      34.225  33.473  30.594  1.00  0.00     0.014 A 
ATOM     33  C   UNL A   1      36.805  33.760  29.587  1.00  0.00     0.010 A 
ATOM     34  C   UNL A   1      35.306  32.961  31.305  1.00  0.00     0.010 A 
ATOM     35  C   UNL A   1      36.607  33.076  30.798  1.00  0.00    -0.014 A 
BRANCH  35  36
ATOM     36  C   UNL A   1      37.740  32.442  31.522  1.00  0.00     0.031 A 
ATOM     37  C   UNL A   1      38.493  31.298  30.894  1.00  0.00     0.074 A 
ATOM     38  C   UNL A   1      38.056  32.856  32.765  1.00  0.00     0.049 A 
ATOM     39  N   UNL A   1      39.469  30.577  31.383  1.00  0.00    -0.248 NA
ATOM     40  C   UNL A   1      38.061  30.887  29.550  1.00  0.00     0.031 C 
ATOM     41  C   UNL A   1      37.367  33.919  33.499  1.00  0.00     0.029 A 
ATOM     42  N   UNL A   1      39.030  32.434  33.633  1.00  0.00    -0.354 N 
ATOM     43  C   UNL A   1      39.752  29.617  30.415  1.00  0.00     0.074 A 
ATOM     44  C   UNL A   1      38.790  29.802  29.351  1.00  0.00     0.031 C 
ATOM     45  C   UNL A   1      37.959  34.088  34.690  1.00  0.00     0.029 A 
ATOM     46  C   UNL A   1      39.035  33.110  34.830  1.00  0.00     0.049 A 
ATOM     47  H   UNL A   1      39.667  31.713  33.419  1.00  0.00     0.167 HD
ATOM     48  C   UNL A   1      40.740  28.687  30.404  1.00  0.00     0.034 A 
ATOM     49  C   UNL A   1      39.807  32.955  35.924  1.00  0.00     0.034 A 
ATOM     50  C   UNL A   1      41.692  28.527  31.477  1.00  0.00     0.049 A 
ATOM     51  C   UNL A   1      40.886  31.904  35.905  1.00  0.00     0.074 A 
ATOM     52  C   UNL A   1      42.775  27.668  31.549  1.00  0.00     0.029 A 
ATOM     53  N   UNL A   1      41.666  29.231  32.677  1.00  0.00    -0.354 N 
ATOM     54  N   UNL A   1      41.189  31.047  34.956  1.00  0.00    -0.248 NA
ATOM     55  C   UNL A   1      41.735  31.806  37.097  1.00  0.00     0.031 C 
ATOM     56  C   UNL A   1      43.346  27.789  32.820  1.00  0.00     0.029 A 
ATOM     57  C   UNL A   1      42.684  28.793  33.511  1.00  0.00     0.049 A 
ATOM     58  H   UNL A   1      41.018  29.937  32.901  1.00  0.00     0.167 HD
ATOM     59  C   UNL A   1      42.282  30.325  35.428  1.00  0.00     0.074 A 
ATOM     60  C   UNL A   1      42.592  30.861  36.738  1.00  0.00     0.031 C 
ATOM     61  C   UNL A   1      42.970  29.318  34.828  1.00  0.00     0.034 A 
BRANCH  48  62
ATOM     62  C   UNL A   1      40.802  27.756  29.213  1.00  0.00     0.023 A 
ATOM     63  C   UNL A   1      41.749  27.926  28.185  1.00  0.00     0.031 A 
ATOM     64  C   UNL A   1      39.861  26.720  29.065  1.00  0.00     0.131 A 
ATOM     65  C   UNL A   1      41.664  27.156  27.015  1.00  0.00     0.055 A 
ATOM     66  C   UNL A   1      39.848  25.887  27.944  1.00  0.00     0.041 A 
ATOM     67  F   UNL A   1      38.917  26.515  29.998  1.00  0.00    -0.206 F 
ATOM     68  C   UNL A   1      40.738  26.117  26.900  1.00  0.00     0.022 A 
BRANCH  65  69
ATOM     69  S   UNL A   1      42.643  27.663  25.574  1.00  0.00     0.124 S 
ATOM     70  O   UNL A   1      42.571  26.469  24.734  1.00  0.00    -0.237 OA
ATOM     71  O   UNL A   1      41.915  28.829  25.092  1.00  0.00    -0.237 OA
ATOM     72  O   UNL A   1      43.964  27.938  26.137  1.00  0.00    -0.744 OA
ENDBRANCH  65  69
ENDBRANCH  48  62
BRANCH  49  73
ATOM     73  C   UNL A   1      39.576  33.808  37.125  1.00  0.00     0.023 A 
ATOM     74  C   UNL A   1      38.882  33.321  38.245  1.00  0.00     0.031 A 
ATOM     75  C   UNL A   1      40.061  35.129  37.173  1.00  0.00     0.131 A 
ATOM     76  C   UNL A   1      38.669  34.157  39.352  1.00  0.00     0.055 A 
ATOM     77  C   UNL A   1      39.894  35.937  38.298  1.00  0.00     0.041 A 
ATOM     78  F   UNL A   1      40.731  35.643  36.129  1.00  0.00    -0.206 F 
ATOM     79  C   UNL A   1      39.186  35.454  39.395  1.00  0.00     0.022 A 
BRANCH  76  80
ATOM     80  S   UNL A   1      37.649  33.544  40.722  1.00  0.00     0.124 S 
ATOM     81  O   UNL A   1      37.333  34.778  41.433  1.00  0.00    -0.237 OA
ATOM     82  O   UNL A   1      36.540  32.910  40.017  1.00  0.00    -0.237 OA
ATOM     83  O   UNL A   1      38.540  32.628  41.431  1.00  0.00    -0.744 OA
ENDBRANCH  76  80
ENDBRANCH  49  73
BRANCH  61  84
ATOM     84  C   UNL A   1      44.155  28.754  35.577  1.00  0.00     0.023 A 
ATOM     85  C   UNL A   1      44.020  27.698  36.496  1.00  0.00     0.031 A 
ATOM     86  C   UNL A   1      45.439  29.288  35.370  1.00  0.00     0.131 A 
ATOM     87  C   UNL A   1      45.139  27.251  37.216  1.00  0.00     0.055 A 
ATOM     88  C   UNL A   1      46.560  28.791  36.037  1.00  0.00     0.041 A 
ATOM     89  F   UNL A   1      45.629  30.302  34.510  1.00  0.00    -0.206 F 
ATOM     90  C   UNL A   1      46.411  27.775  36.976  1.00  0.00     0.022 A 
BRANCH  87  91
ATOM     91  S   UNL A   1      44.892  26.045  38.549  1.00  0.00     0.124 S 
ATOM     92  O   UNL A   1      44.214  24.958  37.851  1.00  0.00    -0.237 OA
ATOM     93  O   UNL A   1      46.259  25.772  38.980  1.00  0.00    -0.237 OA
ATOM     94  O   UNL A   1      44.071  26.768  39.518  1.00  0.00    -0.744 OA
ENDBRANCH  87  91
ENDBRANCH  61  84
ENDBRANCH  35  36
ENDBRANCH  27  30
ENDBRANCH  25  26
ENDBRANCH  24  25
ENDBRANCH   1  24
TORSDOF 19
ENDMDL
