MODEL 1
REMARK VINA RESULT:     -11.9      0.000      0.000
REMARK SMILES Cc1cc(C(=O)NC2(CC(=O)NCCCNC(=O)c3ccc(-c4c5nc(c(-c6cc(S(=O)(=O)[O-])ccc6F)c6ccc([nH]6)c(-c6cc(S(=O)(=O)[O-])ccc6F)c6nc(c(-c7cc(S(=O)(=O)[O-])ccc7F)c7ccc4[nH]7)C=C6)C=C5)cc3)CCC2)sc1C
REMARK SMILES IDX 14 1 13 2 12 3 10 4 11 5 9 7 8 8 82 9 84 10 83 11 7 12 5 13
REMARK SMILES IDX 6 14 4 16 1 17 2 18 3 19 86 20 85 21 87 22 15 23 16 24 17 25
REMARK SMILES IDX 18 27 19 28 20 29 81 30 21 31 80 32 22 33 23 34 24 35 74 36
REMARK SMILES IDX 25 37 79 38 73 39 75 40 26 41 78 42 72 43 71 44 27 46 59 47
REMARK SMILES IDX 39 48 58 49 40 50 43 51 57 52 76 53 41 54 42 55 56 57 77 58
REMARK SMILES IDX 44 59 28 60 29 61 37 62 30 63 36 64 38 65 35 66 31 67 32 68
REMARK SMILES IDX 33 69 34 70 60 71 61 72 69 73 62 74 68 75 70 76 67 77 63 78
REMARK SMILES IDX 64 79 65 80 66 81 45 82 46 83 54 84 47 85 53 86 55 87 52 88
REMARK SMILES IDX 48 89 49 90 50 91 51 92
REMARK H PARENT 12 6 7 15 16 26 75 45 43 56
REMARK Flexibility Score: inf
ROOT
ATOM      1  C   UNL A   1      31.372  32.019  26.486  1.00  0.00     0.042 C 
ENDROOT
BRANCH   1   2
ATOM      2  C   UNL A   1      31.456  30.611  25.899  1.00  0.00     0.117 C 
BRANCH   2   3
ATOM      3  N   UNL A   1      31.669  29.627  26.944  1.00  0.00    -0.356 N 
ATOM      4  C   UNL A   1      31.527  28.278  26.908  1.00  0.00     0.222 C 
ATOM      5  O   UNL A   1      31.521  27.662  27.977  1.00  0.00    -0.275 OA
ATOM      6  H   UNL A   1      31.964  29.993  27.809  1.00  0.00     0.163 HD
BRANCH   4   7
ATOM      7  C   UNL A   1      31.375  27.530  25.603  1.00  0.00     0.128 C 
BRANCH   7   8
ATOM      8  C   UNL A   1      32.080  26.155  25.512  1.00  0.00     0.049 C 
ATOM      9  C   UNL A   1      33.602  26.337  25.745  1.00  0.00     0.029 C 
ATOM     10  C   UNL A   1      32.385  25.733  24.056  1.00  0.00     0.029 C 
ATOM     11  C   UNL A   1      33.823  26.250  24.224  1.00  0.00     0.005 C 
BRANCH   8  12
ATOM     12  N   UNL A   1      31.378  25.162  26.363  1.00  0.00    -0.345 N 
ATOM     13  C   UNL A   1      31.410  23.802  26.612  1.00  0.00     0.261 C 
ATOM     14  O   UNL A   1      30.697  23.460  27.565  1.00  0.00    -0.268 OA
ATOM     15  H   UNL A   1      30.687  25.600  26.911  1.00  0.00     0.164 HD
BRANCH  13  16
ATOM     16  C   UNL A   1      32.224  22.812  25.923  1.00  0.00     0.092 A 
ATOM     17  C   UNL A   1      32.478  19.979  23.431  1.00  0.00     0.045 C 
ATOM     18  C   UNL A   1      32.748  21.022  24.462  1.00  0.00    -0.037 A 
ATOM     19  C   UNL A   1      31.751  21.925  24.965  1.00  0.00     0.029 A 
ATOM     20  C   UNL A   1      33.961  21.256  25.084  1.00  0.00     0.005 A 
ATOM     21  S   UNL A   1      33.915  22.695  25.991  1.00  0.00    -0.135 S 
ATOM     22  C   UNL A   1      35.235  20.485  25.004  1.00  0.00     0.056 C 
ENDBRANCH  13  16
ENDBRANCH   8  12
ENDBRANCH   7   8
ENDBRANCH   4   7
ENDBRANCH   2   3
ENDBRANCH   1   2
BRANCH   1  23
ATOM     23  C   UNL A   1      32.616  32.432  27.264  1.00  0.00     0.118 C 
BRANCH  23  24
ATOM     24  N   UNL A   1      32.572  33.833  27.650  1.00  0.00    -0.352 N 
ATOM     25  C   UNL A   1      33.234  34.506  28.648  1.00  0.00     0.251 C 
ATOM     26  H   UNL A   1      31.970  34.391  27.106  1.00  0.00     0.163 HD
ATOM     27  O   UNL A   1      32.831  35.621  28.969  1.00  0.00    -0.269 OA
BRANCH  25  28
ATOM     28  C   UNL A   1      34.402  33.909  29.340  1.00  0.00     0.039 A 
ATOM     29  C   UNL A   1      34.186  32.866  30.247  1.00  0.00     0.014 A 
ATOM     30  C   UNL A   1      35.695  34.406  29.160  1.00  0.00     0.014 A 
ATOM     31  C   UNL A   1      35.265  32.298  30.933  1.00  0.00     0.010 A 
ATOM     32  C   UNL A   1      36.780  33.779  29.771  1.00  0.00     0.010 A 
ATOM     33  C   UNL A   1      36.575  32.731  30.681  1.00  0.00    -0.014 A 
BRANCH  33  34
ATOM     34  C   UNL A   1      37.740  32.137  31.392  1.00  0.00     0.031 A 
ATOM     35  C   UNL A   1      38.526  31.023  30.749  1.00  0.00     0.074 A 
ATOM     36  C   UNL A   1      38.060  32.559  32.631  1.00  0.00     0.049 A 
ATOM     37  N   UNL A   1      39.514  30.315  31.233  1.00  0.00    -0.248 NA
ATOM     38  C   UNL A   1      38.118  30.633  29.392  1.00  0.00     0.031 C 
ATOM     39  C   UNL A   1      37.360  33.609  33.372  1.00  0.00     0.029 A 
ATOM     40  N   UNL A   1      39.053  32.154  33.486  1.00  0.00    -0.354 N 
ATOM     41  C   UNL A   1      39.836  29.386  30.247  1.00  0.00     0.074 A 
ATOM     42  C   UNL A   1      38.884  29.577  29.172  1.00  0.00     0.031 C 
ATOM     43  C   UNL A   1      37.967  33.789  34.557  1.00  0.00     0.029 A 
ATOM     44  C   UNL A   1      39.066  32.837  34.681  1.00  0.00     0.049 A 
ATOM     45  H   UNL A   1      39.696  31.442  33.267  1.00  0.00     0.167 HD
ATOM     46  C   UNL A   1      40.846  28.480  30.225  1.00  0.00     0.034 A 
ATOM     47  C   UNL A   1      39.866  32.705  35.756  1.00  0.00     0.034 A 
ATOM     48  C   UNL A   1      41.792  28.312  31.301  1.00  0.00     0.049 A 
ATOM     49  C   UNL A   1      40.958  31.666  35.729  1.00  0.00     0.074 A 
ATOM     50  C   UNL A   1      42.879  27.457  31.371  1.00  0.00     0.029 A 
ATOM     51  N   UNL A   1      41.764  29.013  32.500  1.00  0.00    -0.354 N 
ATOM     52  N   UNL A   1      41.269  30.818  34.776  1.00  0.00    -0.248 NA
ATOM     53  C   UNL A   1      41.809  31.573  36.922  1.00  0.00     0.031 C 
ATOM     54  C   UNL A   1      43.468  27.597  32.634  1.00  0.00     0.029 A 
ATOM     55  C   UNL A   1      42.795  28.590  33.327  1.00  0.00     0.049 A 
ATOM     56  H   UNL A   1      41.107  29.708  32.731  1.00  0.00     0.167 HD
ATOM     57  C   UNL A   1      42.374  30.112  35.244  1.00  0.00     0.074 A 
ATOM     58  C   UNL A   1      42.680  30.643  36.557  1.00  0.00     0.031 C 
ATOM     59  C   UNL A   1      43.079  29.120  34.640  1.00  0.00     0.034 A 
BRANCH  46  60
ATOM     60  C   UNL A   1      40.948  27.593  29.004  1.00  0.00     0.023 A 
ATOM     61  C   UNL A   1      41.888  27.845  27.988  1.00  0.00     0.031 A 
ATOM     62  C   UNL A   1      40.062  26.516  28.823  1.00  0.00     0.131 A 
ATOM     63  C   UNL A   1      41.852  27.103  26.798  1.00  0.00     0.055 A 
ATOM     64  C   UNL A   1      40.094  25.721  27.675  1.00  0.00     0.041 A 
ATOM     65  F   UNL A   1      39.130  26.233  29.746  1.00  0.00    -0.206 F 
ATOM     66  C   UNL A   1      40.979  26.025  26.644  1.00  0.00     0.022 A 
BRANCH  63  67
ATOM     67  S   UNL A   1      42.839  27.683  25.390  1.00  0.00     0.124 S 
ATOM     68  O   UNL A   1      43.014  26.449  24.627  1.00  0.00    -0.237 OA
ATOM     69  O   UNL A   1      41.972  28.689  24.789  1.00  0.00    -0.237 OA
ATOM     70  O   UNL A   1      44.057  28.198  26.014  1.00  0.00    -0.744 OA
ENDBRANCH  63  67
ENDBRANCH  46  60
BRANCH  47  71
ATOM     71  C   UNL A   1      39.678  33.578  36.948  1.00  0.00     0.023 A 
ATOM     72  C   UNL A   1      39.138  33.064  38.137  1.00  0.00     0.031 A 
ATOM     73  C   UNL A   1      40.006  34.946  36.909  1.00  0.00     0.131 A 
ATOM     74  C   UNL A   1      38.902  33.917  39.225  1.00  0.00     0.055 A 
ATOM     75  C   UNL A   1      39.814  35.781  38.011  1.00  0.00     0.041 A 
ATOM     76  F   UNL A   1      40.532  35.486  35.798  1.00  0.00    -0.206 F 
ATOM     77  C   UNL A   1      39.248  35.270  39.175  1.00  0.00     0.022 A 
BRANCH  74  78
ATOM     78  S   UNL A   1      38.069  33.246  40.690  1.00  0.00     0.124 S 
ATOM     79  O   UNL A   1      38.361  34.264  41.692  1.00  0.00    -0.237 OA
ATOM     80  O   UNL A   1      36.683  33.166  40.241  1.00  0.00    -0.237 OA
ATOM     81  O   UNL A   1      38.729  31.958  40.897  1.00  0.00    -0.744 OA
ENDBRANCH  74  78
ENDBRANCH  47  71
BRANCH  59  82
ATOM     82  C   UNL A   1      44.278  28.585  35.384  1.00  0.00     0.023 A 
ATOM     83  C   UNL A   1      44.157  27.573  36.352  1.00  0.00     0.031 A 
ATOM     84  C   UNL A   1      45.556  29.113  35.132  1.00  0.00     0.131 A 
ATOM     85  C   UNL A   1      45.288  27.158  37.072  1.00  0.00     0.055 A 
ATOM     86  C   UNL A   1      46.687  28.655  35.811  1.00  0.00     0.041 A 
ATOM     87  F   UNL A   1      45.728  30.084  34.220  1.00  0.00    -0.206 F 
ATOM     88  C   UNL A   1      46.554  27.681  36.796  1.00  0.00     0.022 A 
BRANCH  85  89
ATOM     89  S   UNL A   1      45.068  25.988  38.441  1.00  0.00     0.124 S 
ATOM     90  O   UNL A   1      44.859  24.729  37.733  1.00  0.00    -0.237 OA
ATOM     91  O   UNL A   1      46.328  26.112  39.164  1.00  0.00    -0.237 OA
ATOM     92  O   UNL A   1      43.895  26.504  39.147  1.00  0.00    -0.744 OA
ENDBRANCH  85  89
ENDBRANCH  59  82
ENDBRANCH  33  34
ENDBRANCH  25  28
ENDBRANCH  23  24
ENDBRANCH   1  23
TORSDOF 16
ENDMDL
MODEL 2
REMARK VINA RESULT:     -11.8      5.647      8.648
REMARK SMILES Cc1cc(C(=O)NC2(CC(=O)NCCCNC(=O)c3ccc(-c4c5nc(c(-c6cc(S(=O)(=O)[O-])ccc6F)c6ccc([nH]6)c(-c6cc(S(=O)(=O)[O-])ccc6F)c6nc(c(-c7cc(S(=O)(=O)[O-])ccc7F)c7ccc4[nH]7)C=C6)C=C5)cc3)CCC2)sc1C
REMARK SMILES IDX 14 1 13 2 12 3 10 4 11 5 9 7 8 8 82 9 84 10 83 11 7 12 5 13
REMARK SMILES IDX 6 14 4 16 1 17 2 18 3 19 86 20 85 21 87 22 15 23 16 24 17 25
REMARK SMILES IDX 18 27 19 28 20 29 81 30 21 31 80 32 22 33 23 34 24 35 74 36
REMARK SMILES IDX 25 37 79 38 73 39 75 40 26 41 78 42 72 43 71 44 27 46 59 47
REMARK SMILES IDX 39 48 58 49 40 50 43 51 57 52 76 53 41 54 42 55 56 57 77 58
REMARK SMILES IDX 44 59 28 60 29 61 37 62 30 63 36 64 38 65 35 66 31 67 32 68
REMARK SMILES IDX 33 69 34 70 60 71 61 72 69 73 62 74 68 75 70 76 67 77 63 78
REMARK SMILES IDX 64 79 65 80 66 81 45 82 46 83 54 84 47 85 53 86 55 87 52 88
REMARK SMILES IDX 48 89 49 90 50 91 51 92
REMARK H PARENT 12 6 7 15 16 26 75 45 43 56
REMARK Flexibility Score: inf
ROOT
ATOM      1  C   UNL A   1      35.478  22.357  25.972  1.00  0.00     0.042 C 
ENDROOT
BRANCH   1   2
ATOM      2  C   UNL A   1      35.277  21.256  24.932  1.00  0.00     0.117 C 
BRANCH   2   3
ATOM      3  N   UNL A   1      33.987  20.614  25.102  1.00  0.00    -0.356 N 
ATOM      4  C   UNL A   1      32.778  20.942  24.579  1.00  0.00     0.222 C 
ATOM      5  O   UNL A   1      31.772  20.408  25.052  1.00  0.00    -0.275 OA
ATOM      6  H   UNL A   1      33.989  19.818  25.682  1.00  0.00     0.163 HD
BRANCH   4   7
ATOM      7  C   UNL A   1      32.647  21.937  23.449  1.00  0.00     0.128 C 
BRANCH   7   8
ATOM      8  C   UNL A   1      32.522  23.426  23.853  1.00  0.00     0.049 C 
ATOM      9  C   UNL A   1      31.666  24.177  22.802  1.00  0.00     0.029 C 
ATOM     10  C   UNL A   1      33.742  24.270  23.417  1.00  0.00     0.029 C 
ATOM     11  C   UNL A   1      32.958  24.733  22.178  1.00  0.00     0.005 C 
BRANCH   8  12
ATOM     12  N   UNL A   1      32.105  23.538  25.273  1.00  0.00    -0.345 N 
ATOM     13  C   UNL A   1      31.887  24.526  26.216  1.00  0.00     0.261 C 
ATOM     14  O   UNL A   1      31.376  24.104  27.262  1.00  0.00    -0.268 OA
ATOM     15  H   UNL A   1      31.934  22.647  25.657  1.00  0.00     0.164 HD
BRANCH  13  16
ATOM     16  C   UNL A   1      32.134  25.951  26.053  1.00  0.00     0.092 A 
ATOM     17  C   UNL A   1      34.432  28.921  26.493  1.00  0.00     0.045 C 
ATOM     18  C   UNL A   1      33.289  28.015  26.184  1.00  0.00    -0.037 A 
ATOM     19  C   UNL A   1      33.309  26.597  26.412  1.00  0.00     0.029 A 
ATOM     20  C   UNL A   1      32.066  28.398  25.664  1.00  0.00     0.005 A 
ATOM     21  S   UNL A   1      31.143  27.041  25.211  1.00  0.00    -0.135 S 
ATOM     22  C   UNL A   1      31.527  29.764  25.408  1.00  0.00     0.056 C 
ENDBRANCH  13  16
ENDBRANCH   8  12
ENDBRANCH   7   8
ENDBRANCH   4   7
ENDBRANCH   2   3
ENDBRANCH   1   2
BRANCH   1  23
ATOM     23  C   UNL A   1      36.801  23.100  25.829  1.00  0.00     0.118 C 
BRANCH  23  24
ATOM     24  N   UNL A   1      37.940  22.222  26.045  1.00  0.00    -0.352 N 
ATOM     25  C   UNL A   1      39.246  22.515  26.355  1.00  0.00     0.251 C 
ATOM     26  H   UNL A   1      37.743  21.262  25.954  1.00  0.00     0.163 HD
ATOM     27  O   UNL A   1      40.092  21.636  26.212  1.00  0.00    -0.269 OA
BRANCH  25  28
ATOM     28  C   UNL A   1      39.643  23.858  26.843  1.00  0.00     0.039 A 
ATOM     29  C   UNL A   1      40.072  24.812  25.914  1.00  0.00     0.014 A 
ATOM     30  C   UNL A   1      39.664  24.168  28.206  1.00  0.00     0.014 A 
ATOM     31  C   UNL A   1      40.475  26.079  26.346  1.00  0.00     0.010 A 
ATOM     32  C   UNL A   1      39.976  25.459  28.627  1.00  0.00     0.010 A 
ATOM     33  C   UNL A   1      40.405  26.424  27.704  1.00  0.00    -0.014 A 
BRANCH  33  34
ATOM     34  C   UNL A   1      40.820  27.770  28.187  1.00  0.00     0.031 A 
ATOM     35  C   UNL A   1      42.283  28.126  28.255  1.00  0.00     0.074 A 
ATOM     36  C   UNL A   1      39.892  28.648  28.612  1.00  0.00     0.049 A 
ATOM     37  N   UNL A   1      42.855  29.206  28.723  1.00  0.00    -0.248 NA
ATOM     38  C   UNL A   1      43.228  27.114  27.760  1.00  0.00     0.031 C 
ATOM     39  C   UNL A   1      38.447  28.412  28.624  1.00  0.00     0.029 A 
ATOM     40  N   UNL A   1      40.025  29.916  29.120  1.00  0.00    -0.354 N 
ATOM     41  C   UNL A   1      44.226  28.997  28.594  1.00  0.00     0.074 A 
ATOM     42  C   UNL A   1      44.393  27.656  28.074  1.00  0.00     0.031 C 
ATOM     43  C   UNL A   1      37.826  29.511  29.082  1.00  0.00     0.029 A 
ATOM     44  C   UNL A   1      38.826  30.511  29.442  1.00  0.00     0.049 A 
ATOM     45  H   UNL A   1      40.895  30.359  29.243  1.00  0.00     0.167 HD
ATOM     46  C   UNL A   1      45.248  29.850  28.857  1.00  0.00     0.034 A 
ATOM     47  C   UNL A   1      38.564  31.720  29.973  1.00  0.00     0.034 A 
ATOM     48  C   UNL A   1      45.062  31.188  29.365  1.00  0.00     0.049 A 
ATOM     49  C   UNL A   1      39.715  32.640  30.295  1.00  0.00     0.074 A 
ATOM     50  C   UNL A   1      46.017  32.155  29.628  1.00  0.00     0.029 A 
ATOM     51  N   UNL A   1      43.832  31.749  29.692  1.00  0.00    -0.354 N 
ATOM     52  N   UNL A   1      41.003  32.439  30.137  1.00  0.00    -0.248 NA
ATOM     53  C   UNL A   1      39.373  33.950  30.861  1.00  0.00     0.031 C 
ATOM     54  C   UNL A   1      45.373  33.274  30.170  1.00  0.00     0.029 A 
ATOM     55  C   UNL A   1      44.009  33.036  30.179  1.00  0.00     0.049 A 
ATOM     56  H   UNL A   1      42.963  31.299  29.592  1.00  0.00     0.167 HD
ATOM     57  C   UNL A   1      41.622  33.614  30.555  1.00  0.00     0.074 A 
ATOM     58  C   UNL A   1      40.565  34.519  30.960  1.00  0.00     0.031 C 
ATOM     59  C   UNL A   1      42.945  33.922  30.592  1.00  0.00     0.034 A 
BRANCH  46  60
ATOM     60  C   UNL A   1      46.650  29.339  28.617  1.00  0.00     0.023 A 
ATOM     61  C   UNL A   1      47.133  29.093  27.319  1.00  0.00     0.031 A 
ATOM     62  C   UNL A   1      47.499  29.039  29.697  1.00  0.00     0.131 A 
ATOM     63  C   UNL A   1      48.376  28.470  27.137  1.00  0.00     0.055 A 
ATOM     64  C   UNL A   1      48.776  28.506  29.505  1.00  0.00     0.041 A 
ATOM     65  F   UNL A   1      47.094  29.235  30.962  1.00  0.00    -0.206 F 
ATOM     66  C   UNL A   1      49.214  28.198  28.220  1.00  0.00     0.022 A 
BRANCH  63  67
ATOM     67  S   UNL A   1      48.802  27.860  25.482  1.00  0.00     0.124 S 
ATOM     68  O   UNL A   1      47.663  28.327  24.695  1.00  0.00    -0.237 OA
ATOM     69  O   UNL A   1      50.075  28.522  25.219  1.00  0.00    -0.237 OA
ATOM     70  O   UNL A   1      48.875  26.411  25.659  1.00  0.00    -0.744 OA
ENDBRANCH  63  67
ENDBRANCH  46  60
BRANCH  47  71
ATOM     71  C   UNL A   1      37.160  32.142  30.232  1.00  0.00     0.023 A 
ATOM     72  C   UNL A   1      36.419  32.817  29.248  1.00  0.00     0.031 A 
ATOM     73  C   UNL A   1      36.545  31.907  31.475  1.00  0.00     0.131 A 
ATOM     74  C   UNL A   1      35.123  33.270  29.535  1.00  0.00     0.055 A 
ATOM     75  C   UNL A   1      35.236  32.318  31.739  1.00  0.00     0.041 A 
ATOM     76  F   UNL A   1      37.206  31.261  32.448  1.00  0.00    -0.206 F 
ATOM     77  C   UNL A   1      34.522  33.014  30.769  1.00  0.00     0.022 A 
BRANCH  74  78
ATOM     78  S   UNL A   1      34.256  34.264  28.289  1.00  0.00     0.124 S 
ATOM     79  O   UNL A   1      33.955  35.479  29.035  1.00  0.00    -0.237 OA
ATOM     80  O   UNL A   1      35.265  34.385  27.242  1.00  0.00    -0.237 OA
ATOM     81  O   UNL A   1      33.099  33.440  27.943  1.00  0.00    -0.744 OA
ENDBRANCH  74  78
ENDBRANCH  47  71
BRANCH  59  82
ATOM     82  C   UNL A   1      43.309  35.314  31.046  1.00  0.00     0.023 A 
ATOM     83  C   UNL A   1      43.480  36.370  30.134  1.00  0.00     0.031 A 
ATOM     84  C   UNL A   1      43.505  35.581  32.412  1.00  0.00     0.131 A 
ATOM     85  C   UNL A   1      43.891  37.630  30.593  1.00  0.00     0.055 A 
ATOM     86  C   UNL A   1      43.857  36.852  32.870  1.00  0.00     0.041 A 
ATOM     87  F   UNL A   1      43.358  34.608  33.327  1.00  0.00    -0.206 F 
ATOM     88  C   UNL A   1      44.065  37.881  31.957  1.00  0.00     0.022 A 
BRANCH  85  89
ATOM     89  S   UNL A   1      44.285  38.916  29.376  1.00  0.00     0.124 S 
ATOM     90  O   UNL A   1      45.738  38.817  29.289  1.00  0.00    -0.237 OA
ATOM     91  O   UNL A   1      43.545  38.471  28.201  1.00  0.00    -0.237 OA
ATOM     92  O   UNL A   1      43.783  40.141  29.997  1.00  0.00    -0.744 OA
ENDBRANCH  85  89
ENDBRANCH  59  82
ENDBRANCH  33  34
ENDBRANCH  25  28
ENDBRANCH  23  24
ENDBRANCH   1  23
TORSDOF 16
ENDMDL
MODEL 3
REMARK VINA RESULT:     -11.7      5.209      8.503
REMARK SMILES Cc1cc(C(=O)NC2(CC(=O)NCCCNC(=O)c3ccc(-c4c5nc(c(-c6cc(S(=O)(=O)[O-])ccc6F)c6ccc([nH]6)c(-c6cc(S(=O)(=O)[O-])ccc6F)c6nc(c(-c7cc(S(=O)(=O)[O-])ccc7F)c7ccc4[nH]7)C=C6)C=C5)cc3)CCC2)sc1C
REMARK SMILES IDX 14 1 13 2 12 3 10 4 11 5 9 7 8 8 82 9 84 10 83 11 7 12 5 13
REMARK SMILES IDX 6 14 4 16 1 17 2 18 3 19 86 20 85 21 87 22 15 23 16 24 17 25
REMARK SMILES IDX 18 27 19 28 20 29 81 30 21 31 80 32 22 33 23 34 24 35 74 36
REMARK SMILES IDX 25 37 79 38 73 39 75 40 26 41 78 42 72 43 71 44 27 46 59 47
REMARK SMILES IDX 39 48 58 49 40 50 43 51 57 52 76 53 41 54 42 55 56 57 77 58
REMARK SMILES IDX 44 59 28 60 29 61 37 62 30 63 36 64 38 65 35 66 31 67 32 68
REMARK SMILES IDX 33 69 34 70 60 71 61 72 69 73 62 74 68 75 70 76 67 77 63 78
REMARK SMILES IDX 64 79 65 80 66 81 45 82 46 83 54 84 47 85 53 86 55 87 52 88
REMARK SMILES IDX 48 89 49 90 50 91 51 92
REMARK H PARENT 12 6 7 15 16 26 75 45 43 56
REMARK Flexibility Score: inf
ROOT
ATOM      1  C   UNL A   1      35.910  21.870  25.913  1.00  0.00     0.042 C 
ENDROOT
BRANCH   1   2
ATOM      2  C   UNL A   1      35.615  20.657  25.031  1.00  0.00     0.117 C 
BRANCH   2   3
ATOM      3  N   UNL A   1      34.315  20.093  25.345  1.00  0.00    -0.356 N 
ATOM      4  C   UNL A   1      33.085  20.440  24.887  1.00  0.00     0.222 C 
ATOM      5  O   UNL A   1      32.096  19.993  25.473  1.00  0.00    -0.275 OA
ATOM      6  H   UNL A   1      34.327  19.345  25.984  1.00  0.00     0.163 HD
BRANCH   4   7
ATOM      7  C   UNL A   1      32.911  21.353  23.695  1.00  0.00     0.128 C 
BRANCH   7   8
ATOM      8  C   UNL A   1      32.769  22.864  23.999  1.00  0.00     0.049 C 
ATOM      9  C   UNL A   1      31.927  23.539  22.886  1.00  0.00     0.029 C 
ATOM     10  C   UNL A   1      33.991  23.688  23.531  1.00  0.00     0.029 C 
ATOM     11  C   UNL A   1      33.227  24.063  22.251  1.00  0.00     0.005 C 
BRANCH   8  12
ATOM     12  N   UNL A   1      32.325  23.065  25.401  1.00  0.00    -0.345 N 
ATOM     13  C   UNL A   1      32.025  24.110  26.255  1.00  0.00     0.261 C 
ATOM     14  O   UNL A   1      31.530  23.742  27.329  1.00  0.00    -0.268 OA
ATOM     15  H   UNL A   1      32.211  22.199  25.857  1.00  0.00     0.164 HD
BRANCH  13  16
ATOM     16  C   UNL A   1      32.174  25.530  25.974  1.00  0.00     0.092 A 
ATOM     17  C   UNL A   1      34.293  28.660  26.088  1.00  0.00     0.045 C 
ATOM     18  C   UNL A   1      33.199  27.665  25.898  1.00  0.00    -0.037 A 
ATOM     19  C   UNL A   1      33.318  26.273  26.231  1.00  0.00     0.029 A 
ATOM     20  C   UNL A   1      31.934  27.931  25.404  1.00  0.00     0.005 A 
ATOM     21  S   UNL A   1      31.084  26.489  25.096  1.00  0.00    -0.135 S 
ATOM     22  C   UNL A   1      31.300  29.238  25.069  1.00  0.00     0.056 C 
ENDBRANCH  13  16
ENDBRANCH   8  12
ENDBRANCH   7   8
ENDBRANCH   4   7
ENDBRANCH   2   3
ENDBRANCH   1   2
BRANCH   1  23
ATOM     23  C   UNL A   1      37.276  22.495  25.658  1.00  0.00     0.118 C 
BRANCH  23  24
ATOM     24  N   UNL A   1      38.358  21.604  26.044  1.00  0.00    -0.352 N 
ATOM     25  C   UNL A   1      39.636  21.881  26.465  1.00  0.00     0.251 C 
ATOM     26  H   UNL A   1      38.139  20.645  25.994  1.00  0.00     0.163 HD
ATOM     27  O   UNL A   1      40.463  20.973  26.464  1.00  0.00    -0.269 OA
BRANCH  25  28
ATOM     28  C   UNL A   1      40.027  23.243  26.904  1.00  0.00     0.039 A 
ATOM     29  C   UNL A   1      39.667  24.336  26.108  1.00  0.00     0.014 A 
ATOM     30  C   UNL A   1      40.799  23.452  28.050  1.00  0.00     0.014 A 
ATOM     31  C   UNL A   1      40.042  25.630  26.483  1.00  0.00     0.010 A 
ATOM     32  C   UNL A   1      41.090  24.748  28.472  1.00  0.00     0.010 A 
ATOM     33  C   UNL A   1      40.734  25.851  27.683  1.00  0.00    -0.014 A 
BRANCH  33  34
ATOM     34  C   UNL A   1      41.136  27.220  28.108  1.00  0.00     0.031 A 
ATOM     35  C   UNL A   1      42.587  27.625  28.066  1.00  0.00     0.074 A 
ATOM     36  C   UNL A   1      40.210  28.077  28.579  1.00  0.00     0.049 A 
ATOM     37  N   UNL A   1      43.153  28.733  28.471  1.00  0.00    -0.248 NA
ATOM     38  C   UNL A   1      43.528  26.634  27.527  1.00  0.00     0.031 C 
ATOM     39  C   UNL A   1      38.778  27.794  28.697  1.00  0.00     0.029 A 
ATOM     40  N   UNL A   1      40.334  29.359  29.050  1.00  0.00    -0.354 N 
ATOM     41  C   UNL A   1      44.517  28.566  28.251  1.00  0.00     0.074 A 
ATOM     42  C   UNL A   1      44.694  27.220  27.747  1.00  0.00     0.031 C 
ATOM     43  C   UNL A   1      38.153  28.883  29.175  1.00  0.00     0.029 A 
ATOM     44  C   UNL A   1      39.141  29.922  29.443  1.00  0.00     0.049 A 
ATOM     45  H   UNL A   1      41.195  29.834  29.103  1.00  0.00     0.167 HD
ATOM     46  C   UNL A   1      45.526  29.458  28.423  1.00  0.00     0.034 A 
ATOM     47  C   UNL A   1      38.876  31.135  29.967  1.00  0.00     0.034 A 
ATOM     48  C   UNL A   1      45.329  30.800  28.916  1.00  0.00     0.049 A 
ATOM     49  C   UNL A   1      40.014  32.098  30.189  1.00  0.00     0.074 A 
ATOM     50  C   UNL A   1      46.268  31.803  29.091  1.00  0.00     0.029 A 
ATOM     51  N   UNL A   1      44.108  31.329  29.316  1.00  0.00    -0.354 N 
ATOM     52  N   UNL A   1      41.294  31.936  29.945  1.00  0.00    -0.248 NA
ATOM     53  C   UNL A   1      39.667  33.409  30.751  1.00  0.00     0.031 C 
ATOM     54  C   UNL A   1      45.625  32.913  29.655  1.00  0.00     0.029 A 
ATOM     55  C   UNL A   1      44.274  32.631  29.764  1.00  0.00     0.049 A 
ATOM     56  H   UNL A   1      43.249  30.848  29.287  1.00  0.00     0.167 HD
ATOM     57  C   UNL A   1      41.900  33.140  30.294  1.00  0.00     0.074 A 
ATOM     58  C   UNL A   1      40.844  34.019  30.754  1.00  0.00     0.031 C 
ATOM     59  C   UNL A   1      43.212  33.491  30.233  1.00  0.00     0.034 A 
BRANCH  46  60
ATOM     60  C   UNL A   1      46.925  28.987  28.097  1.00  0.00     0.023 A 
ATOM     61  C   UNL A   1      47.340  28.779  26.769  1.00  0.00     0.031 A 
ATOM     62  C   UNL A   1      47.839  28.688  29.122  1.00  0.00     0.131 A 
ATOM     63  C   UNL A   1      48.587  28.191  26.506  1.00  0.00     0.055 A 
ATOM     64  C   UNL A   1      49.116  28.191  28.849  1.00  0.00     0.041 A 
ATOM     65  F   UNL A   1      47.499  28.848  30.411  1.00  0.00    -0.206 F 
ATOM     66  C   UNL A   1      49.489  27.920  27.536  1.00  0.00     0.022 A 
BRANCH  63  67
ATOM     67  S   UNL A   1      48.935  27.625  24.818  1.00  0.00     0.124 S 
ATOM     68  O   UNL A   1      48.995  26.176  25.001  1.00  0.00    -0.237 OA
ATOM     69  O   UNL A   1      47.786  28.127  24.073  1.00  0.00    -0.237 OA
ATOM     70  O   UNL A   1      50.213  28.259  24.501  1.00  0.00    -0.744 OA
ENDBRANCH  63  67
ENDBRANCH  46  60
BRANCH  47  71
ATOM     71  C   UNL A   1      37.479  31.517  30.315  1.00  0.00     0.023 A 
ATOM     72  C   UNL A   1      36.599  31.996  29.331  1.00  0.00     0.031 A 
ATOM     73  C   UNL A   1      37.010  31.439  31.638  1.00  0.00     0.131 A 
ATOM     74  C   UNL A   1      35.311  32.419  29.690  1.00  0.00     0.055 A 
ATOM     75  C   UNL A   1      35.710  31.815  31.983  1.00  0.00     0.041 A 
ATOM     76  F   UNL A   1      37.808  30.980  32.615  1.00  0.00    -0.206 F 
ATOM     77  C   UNL A   1      34.856  32.320  31.007  1.00  0.00     0.022 A 
BRANCH  74  78
ATOM     78  S   UNL A   1      34.257  33.168  28.418  1.00  0.00     0.124 S 
ATOM     79  O   UNL A   1      33.402  34.040  29.215  1.00  0.00    -0.237 OA
ATOM     80  O   UNL A   1      35.237  33.834  27.566  1.00  0.00    -0.237 OA
ATOM     81  O   UNL A   1      33.587  32.019  27.812  1.00  0.00    -0.744 OA
ENDBRANCH  74  78
ENDBRANCH  47  71
BRANCH  59  82
ATOM     82  C   UNL A   1      43.558  34.904  30.631  1.00  0.00     0.023 A 
ATOM     83  C   UNL A   1      43.807  35.257  31.969  1.00  0.00     0.031 A 
ATOM     84  C   UNL A   1      43.619  35.916  29.657  1.00  0.00     0.131 A 
ATOM     85  C   UNL A   1      44.052  36.597  32.304  1.00  0.00     0.055 A 
ATOM     86  C   UNL A   1      43.921  37.238  29.989  1.00  0.00     0.041 A 
ATOM     87  F   UNL A   1      43.387  35.635  28.364  1.00  0.00    -0.206 F 
ATOM     88  C   UNL A   1      44.127  37.586  31.320  1.00  0.00     0.022 A 
BRANCH  85  89
ATOM     89  S   UNL A   1      44.183  37.048  34.057  1.00  0.00     0.124 S 
ATOM     90  O   UNL A   1      43.641  38.402  34.063  1.00  0.00    -0.237 OA
ATOM     91  O   UNL A   1      43.363  36.029  34.703  1.00  0.00    -0.237 OA
ATOM     92  O   UNL A   1      45.617  36.953  34.328  1.00  0.00    -0.744 OA
ENDBRANCH  85  89
ENDBRANCH  59  82
ENDBRANCH  33  34
ENDBRANCH  25  28
ENDBRANCH  23  24
ENDBRANCH   1  23
TORSDOF 16
ENDMDL
