MODEL 1
REMARK VINA RESULT:     -13.2      0.000      0.000
REMARK SMILES Cc1ccc(C(=O)N2CCCC[C@@H]2C(=O)NCCCNC(=O)c2ccc(-c3c4nc(c(-c5cc(S(=O)(=O)[O-])ccc5F)c5ccc([nH]5)c(-c5cc(S(=O)(=O)[O-])ccc5F)c5nc(c(-c6cc(S(=O)(=O)[O-])ccc6F)c6ccc3[nH]6)C=C5)C=C4)cc2)cc1S(=O)(=O)N1CCCCC1
REMARK SMILES IDX 17 1 16 2 14 3 15 4 13 6 8 7 9 8 10 9 12 10 11 11 6 12 7 13
REMARK SMILES IDX 5 14 1 15 2 16 3 17 87 18 4 19 86 20 88 21 89 22 90 23 91 24
REMARK SMILES IDX 92 25 96 26 93 27 95 28 94 29 18 30 19 31 20 32 21 33 22 35
REMARK SMILES IDX 23 36 24 37 85 38 25 39 84 40 26 41 27 42 28 43 78 44 29 45
REMARK SMILES IDX 83 46 77 47 79 48 30 49 82 50 76 51 75 52 31 54 63 55 43 56
REMARK SMILES IDX 62 57 44 58 47 59 61 60 80 61 45 62 46 63 60 65 81 66 48 67
REMARK SMILES IDX 32 68 33 69 41 70 34 71 40 72 42 73 39 74 35 75 36 76 37 77
REMARK SMILES IDX 38 78 64 79 65 80 73 81 66 82 72 83 74 84 71 85 67 86 68 87
REMARK SMILES IDX 69 88 70 89 49 90 50 91 58 92 51 93 57 94 59 95 56 96 52 97
REMARK SMILES IDX 53 98 54 99 55 100
REMARK H PARENT 16 5 20 34 79 53 47 64
REMARK Flexibility Score: inf
ROOT
ATOM      1  C   UNL A   1      33.242  29.118  27.209  1.00  0.00     0.117 C 
ENDROOT
BRANCH   1   2
ATOM      2  N   UNL A   1      33.661  28.680  25.887  1.00  0.00    -0.354 N 
ATOM      3  C   UNL A   1      32.916  28.307  24.808  1.00  0.00     0.242 C 
ATOM      4  O   UNL A   1      33.463  27.729  23.863  1.00  0.00    -0.273 OA
ATOM      5  H   UNL A   1      34.636  28.647  25.750  1.00  0.00     0.163 HD
BRANCH   3   6
ATOM      6  C   UNL A   1      31.374  28.466  24.822  1.00  0.00     0.174 C 
ATOM      7  N   UNL A   1      30.633  27.173  24.811  1.00  0.00    -0.327 N 
ATOM      8  C   UNL A   1      29.270  27.170  24.304  1.00  0.00     0.120 C 
ATOM      9  C   UNL A   1      29.115  27.920  23.000  1.00  0.00     0.022 C 
ATOM     10  C   UNL A   1      31.024  29.396  23.633  1.00  0.00     0.035 C 
ATOM     11  C   UNL A   1      29.571  29.354  23.184  1.00  0.00     0.004 C 
BRANCH   7  12
ATOM     12  C   UNL A   1      30.971  26.027  25.552  1.00  0.00     0.254 C 
ATOM     13  O   UNL A   1      30.953  26.022  26.785  1.00  0.00    -0.269 OA
BRANCH  12  14
ATOM     14  C   UNL A   1      31.466  24.797  24.901  1.00  0.00     0.041 A 
ATOM     15  C   UNL A   1      32.280  20.963  23.101  1.00  0.00     0.046 C 
ATOM     16  C   UNL A   1      32.117  22.251  23.840  1.00  0.00    -0.031 A 
ATOM     17  C   UNL A   1      31.202  23.123  23.200  1.00  0.00     0.005 A 
ATOM     18  C   UNL A   1      32.721  22.687  25.034  1.00  0.00     0.086 A 
ATOM     19  C   UNL A   1      30.868  24.367  23.728  1.00  0.00     0.014 A 
ATOM     20  C   UNL A   1      32.367  23.956  25.551  1.00  0.00     0.035 A 
BRANCH  18  21
ATOM     21  S   UNL A   1      33.880  21.870  26.138  1.00  0.00     0.243 S 
ATOM     22  O   UNL A   1      33.768  22.540  27.420  1.00  0.00    -0.207 OA
ATOM     23  O   UNL A   1      33.566  20.456  26.038  1.00  0.00    -0.207 OA
BRANCH  21  24
ATOM     24  N   UNL A   1      35.487  22.030  25.632  1.00  0.00    -0.198 NA
ATOM     25  C   UNL A   1      36.188  23.245  26.086  1.00  0.00     0.102 C 
ATOM     26  C   UNL A   1      36.199  20.772  25.322  1.00  0.00     0.102 C 
ATOM     27  C   UNL A   1      37.629  23.338  25.617  1.00  0.00     0.017 C 
ATOM     28  C   UNL A   1      37.656  20.961  24.928  1.00  0.00     0.017 C 
ATOM     29  C   UNL A   1      38.374  22.022  25.744  1.00  0.00     0.003 C 
ENDBRANCH  21  24
ENDBRANCH  18  21
ENDBRANCH  12  14
ENDBRANCH   7  12
ENDBRANCH   3   6
ENDBRANCH   1   2
BRANCH   1  30
ATOM     30  C   UNL A   1      33.405  30.617  27.383  1.00  0.00     0.042 C 
BRANCH  30  31
ATOM     31  C   UNL A   1      34.851  31.076  27.390  1.00  0.00     0.118 C 
BRANCH  31  32
ATOM     32  N   UNL A   1      35.299  31.612  28.675  1.00  0.00    -0.352 N 
ATOM     33  C   UNL A   1      36.094  31.029  29.647  1.00  0.00     0.251 C 
ATOM     34  H   UNL A   1      34.988  32.524  28.880  1.00  0.00     0.163 HD
ATOM     35  O   UNL A   1      36.311  31.585  30.721  1.00  0.00    -0.269 OA
BRANCH  33  36
ATOM     36  C   UNL A   1      36.852  29.802  29.309  1.00  0.00     0.039 A 
ATOM     37  C   UNL A   1      37.091  28.910  30.363  1.00  0.00     0.014 A 
ATOM     38  C   UNL A   1      37.609  29.743  28.148  1.00  0.00     0.014 A 
ATOM     39  C   UNL A   1      38.282  28.201  30.385  1.00  0.00     0.010 A 
ATOM     40  C   UNL A   1      38.858  29.188  28.238  1.00  0.00     0.010 A 
ATOM     41  C   UNL A   1      39.207  28.472  29.384  1.00  0.00    -0.014 A 
BRANCH  41  42
ATOM     42  C   UNL A   1      40.575  28.007  29.398  1.00  0.00     0.031 A 
ATOM     43  C   UNL A   1      40.818  26.664  28.864  1.00  0.00     0.074 A 
ATOM     44  C   UNL A   1      41.546  28.862  29.782  1.00  0.00     0.049 A 
ATOM     45  N   UNL A   1      41.809  25.919  29.184  1.00  0.00    -0.248 NA
ATOM     46  C   UNL A   1      39.880  26.010  27.952  1.00  0.00     0.031 C 
ATOM     47  C   UNL A   1      42.990  28.721  29.641  1.00  0.00     0.029 A 
ATOM     48  N   UNL A   1      41.386  29.978  30.603  1.00  0.00    -0.354 N 
ATOM     49  C   UNL A   1      41.814  24.846  28.320  1.00  0.00     0.074 A 
ATOM     50  C   UNL A   1      40.537  24.886  27.658  1.00  0.00     0.031 C 
ATOM     51  C   UNL A   1      43.590  29.517  30.545  1.00  0.00     0.029 A 
ATOM     52  C   UNL A   1      42.544  30.063  31.398  1.00  0.00     0.049 A 
ATOM     53  H   UNL A   1      40.613  30.587  30.624  1.00  0.00     0.167 HD
ATOM     54  C   UNL A   1      42.974  24.153  28.161  1.00  0.00     0.034 A 
ATOM     55  C   UNL A   1      42.450  29.864  32.749  1.00  0.00     0.034 A 
ATOM     56  C   UNL A   1      43.996  24.697  29.051  1.00  0.00     0.049 A 
ATOM     57  C   UNL A   1      43.195  28.631  33.197  1.00  0.00     0.074 A 
ATOM     58  C   UNL A   1      44.991  25.640  28.856  1.00  0.00     0.029 A 
ATOM     59  N   UNL A   1      43.832  24.568  30.422  1.00  0.00    -0.354 N 
ATOM     60  N   UNL A   1      43.483  27.626  32.413  1.00  0.00    -0.248 NA
ATOM     61  C   UNL A   1      43.703  28.453  34.551  1.00  0.00     0.031 C 
ATOM     62  C   UNL A   1      45.359  26.148  30.130  1.00  0.00     0.029 A 
ATOM     63  C   UNL A   1      44.623  25.479  31.094  1.00  0.00     0.049 A 
ATOM     64  H   UNL A   1      43.235  23.918  30.856  1.00  0.00     0.167 HD
ATOM     65  C   UNL A   1      44.195  26.690  33.114  1.00  0.00     0.074 A 
ATOM     66  C   UNL A   1      44.324  27.267  34.443  1.00  0.00     0.031 C 
ATOM     67  C   UNL A   1      44.611  25.516  32.548  1.00  0.00     0.034 A 
BRANCH  54  68
ATOM     68  C   UNL A   1      43.298  23.211  27.027  1.00  0.00     0.023 A 
ATOM     69  C   UNL A   1      42.803  21.892  27.107  1.00  0.00     0.031 A 
ATOM     70  C   UNL A   1      44.085  23.487  25.892  1.00  0.00     0.131 A 
ATOM     71  C   UNL A   1      43.141  20.913  26.159  1.00  0.00     0.055 A 
ATOM     72  C   UNL A   1      44.451  22.504  24.961  1.00  0.00     0.041 A 
ATOM     73  F   UNL A   1      44.503  24.722  25.596  1.00  0.00    -0.206 F 
ATOM     74  C   UNL A   1      43.984  21.205  25.093  1.00  0.00     0.022 A 
BRANCH  71  75
ATOM     75  S   UNL A   1      42.458  19.247  26.349  1.00  0.00     0.124 S 
ATOM     76  O   UNL A   1      43.620  18.406  26.075  1.00  0.00    -0.237 OA
ATOM     77  O   UNL A   1      41.981  19.263  27.728  1.00  0.00    -0.237 OA
ATOM     78  O   UNL A   1      41.406  19.195  25.335  1.00  0.00    -0.744 OA
ENDBRANCH  71  75
ENDBRANCH  54  68
BRANCH  55  79
ATOM     79  C   UNL A   1      41.152  30.358  33.310  1.00  0.00     0.023 A 
ATOM     80  C   UNL A   1      40.996  31.758  33.366  1.00  0.00     0.031 A 
ATOM     81  C   UNL A   1      39.991  29.574  33.301  1.00  0.00     0.131 A 
ATOM     82  C   UNL A   1      39.733  32.328  33.152  1.00  0.00     0.055 A 
ATOM     83  C   UNL A   1      38.720  30.158  33.203  1.00  0.00     0.041 A 
ATOM     84  F   UNL A   1      40.070  28.236  33.242  1.00  0.00    -0.206 F 
ATOM     85  C   UNL A   1      38.590  31.539  33.060  1.00  0.00     0.022 A 
BRANCH  82  86
ATOM     86  S   UNL A   1      39.688  34.064  32.658  1.00  0.00     0.124 S 
ATOM     87  O   UNL A   1      41.074  34.474  32.854  1.00  0.00    -0.237 OA
ATOM     88  O   UNL A   1      39.237  33.968  31.268  1.00  0.00    -0.237 OA
ATOM     89  O   UNL A   1      38.712  34.676  33.558  1.00  0.00    -0.744 OA
ENDBRANCH  82  86
ENDBRANCH  55  79
BRANCH  67  90
ATOM     90  C   UNL A   1      45.102  24.303  33.307  1.00  0.00     0.023 A 
ATOM     91  C   UNL A   1      46.386  24.224  33.856  1.00  0.00     0.031 A 
ATOM     92  C   UNL A   1      44.250  23.206  33.591  1.00  0.00     0.131 A 
ATOM     93  C   UNL A   1      46.818  23.076  34.536  1.00  0.00     0.055 A 
ATOM     94  C   UNL A   1      44.642  22.118  34.375  1.00  0.00     0.041 A 
ATOM     95  F   UNL A   1      42.992  23.143  33.131  1.00  0.00    -0.206 F 
ATOM     96  C   UNL A   1      45.945  22.035  34.834  1.00  0.00     0.022 A 
BRANCH  93  97
ATOM     97  S   UNL A   1      48.580  22.945  34.914  1.00  0.00     0.124 S 
ATOM     98  O   UNL A   1      49.107  24.159  34.295  1.00  0.00    -0.237 OA
ATOM     99  O   UNL A   1      48.590  22.926  36.372  1.00  0.00    -0.237 OA
ATOM    100  O   UNL A   1      48.979  21.696  34.270  1.00  0.00    -0.744 OA
ENDBRANCH  93  97
ENDBRANCH  67  90
ENDBRANCH  41  42
ENDBRANCH  33  36
ENDBRANCH  31  32
ENDBRANCH  30  31
ENDBRANCH   1  30
TORSDOF 17
ENDMDL
MODEL 2
REMARK VINA RESULT:     -12.7      2.201      2.869
REMARK SMILES Cc1ccc(C(=O)N2CCCC[C@@H]2C(=O)NCCCNC(=O)c2ccc(-c3c4nc(c(-c5cc(S(=O)(=O)[O-])ccc5F)c5ccc([nH]5)c(-c5cc(S(=O)(=O)[O-])ccc5F)c5nc(c(-c6cc(S(=O)(=O)[O-])ccc6F)c6ccc3[nH]6)C=C5)C=C4)cc2)cc1S(=O)(=O)N1CCCCC1
REMARK SMILES IDX 17 1 16 2 14 3 15 4 13 6 8 7 9 8 10 9 12 10 11 11 6 12 7 13
REMARK SMILES IDX 5 14 1 15 2 16 3 17 87 18 4 19 86 20 88 21 89 22 90 23 91 24
REMARK SMILES IDX 92 25 96 26 93 27 95 28 94 29 18 30 19 31 20 32 21 33 22 35
REMARK SMILES IDX 23 36 24 37 85 38 25 39 84 40 26 41 27 42 28 43 78 44 29 45
REMARK SMILES IDX 83 46 77 47 79 48 30 49 82 50 76 51 75 52 31 54 63 55 43 56
REMARK SMILES IDX 62 57 44 58 47 59 61 60 80 61 45 62 46 63 60 65 81 66 48 67
REMARK SMILES IDX 32 68 33 69 41 70 34 71 40 72 42 73 39 74 35 75 36 76 37 77
REMARK SMILES IDX 38 78 64 79 65 80 73 81 66 82 72 83 74 84 71 85 67 86 68 87
REMARK SMILES IDX 69 88 70 89 49 90 50 91 58 92 51 93 57 94 59 95 56 96 52 97
REMARK SMILES IDX 53 98 54 99 55 100
REMARK H PARENT 16 5 20 34 79 53 47 64
REMARK Flexibility Score: inf
ROOT
ATOM      1  C   UNL A   1      32.692  30.382  27.016  1.00  0.00     0.117 C 
ENDROOT
BRANCH   1   2
ATOM      2  N   UNL A   1      33.227  30.021  25.713  1.00  0.00    -0.354 N 
ATOM      3  C   UNL A   1      32.660  29.310  24.697  1.00  0.00     0.242 C 
ATOM      4  O   UNL A   1      33.370  28.898  23.774  1.00  0.00    -0.273 OA
ATOM      5  H   UNL A   1      34.142  30.338  25.537  1.00  0.00     0.163 HD
BRANCH   3   6
ATOM      6  C   UNL A   1      31.169  28.890  24.764  1.00  0.00     0.174 C 
ATOM      7  N   UNL A   1      30.962  27.441  25.044  1.00  0.00    -0.327 N 
ATOM      8  C   UNL A   1      29.708  26.836  24.622  1.00  0.00     0.120 C 
ATOM      9  C   UNL A   1      29.312  27.201  23.209  1.00  0.00     0.022 C 
ATOM     10  C   UNL A   1      30.523  29.370  23.440  1.00  0.00     0.035 C 
ATOM     11  C   UNL A   1      29.199  28.708  23.089  1.00  0.00     0.004 C 
BRANCH   7  12
ATOM     12  C   UNL A   1      31.686  26.672  25.971  1.00  0.00     0.254 C 
ATOM     13  O   UNL A   1      31.654  26.912  27.180  1.00  0.00    -0.269 OA
BRANCH  12  14
ATOM     14  C   UNL A   1      32.605  25.598  25.543  1.00  0.00     0.041 A 
ATOM     15  C   UNL A   1      35.585  22.943  23.908  1.00  0.00     0.046 C 
ATOM     16  C   UNL A   1      34.437  23.763  24.400  1.00  0.00    -0.031 A 
ATOM     17  C   UNL A   1      34.856  24.814  25.252  1.00  0.00     0.005 A 
ATOM     18  C   UNL A   1      33.061  23.636  24.133  1.00  0.00     0.086 A 
ATOM     19  C   UNL A   1      33.960  25.726  25.801  1.00  0.00     0.014 A 
ATOM     20  C   UNL A   1      32.168  24.575  24.704  1.00  0.00     0.035 A 
BRANCH  18  21
ATOM     21  S   UNL A   1      32.161  22.480  23.092  1.00  0.00     0.243 S 
ATOM     22  O   UNL A   1      30.769  22.888  23.133  1.00  0.00    -0.207 OA
ATOM     23  O   UNL A   1      32.871  22.479  21.826  1.00  0.00    -0.207 OA
BRANCH  21  24
ATOM     24  N   UNL A   1      32.231  20.891  23.669  1.00  0.00    -0.198 NA
ATOM     25  C   UNL A   1      32.326  19.836  22.643  1.00  0.00     0.102 C 
ATOM     26  C   UNL A   1      32.769  20.718  25.036  1.00  0.00     0.102 C 
ATOM     27  C   UNL A   1      32.398  18.429  23.209  1.00  0.00     0.017 C 
ATOM     28  C   UNL A   1      32.867  19.269  25.489  1.00  0.00     0.017 C 
ATOM     29  C   UNL A   1      33.334  18.321  24.398  1.00  0.00     0.003 C 
ENDBRANCH  21  24
ENDBRANCH  18  21
ENDBRANCH  12  14
ENDBRANCH   7  12
ENDBRANCH   3   6
ENDBRANCH   1   2
BRANCH   1  30
ATOM     30  C   UNL A   1      33.291  31.678  27.530  1.00  0.00     0.042 C 
BRANCH  30  31
ATOM     31  C   UNL A   1      34.790  31.611  27.752  1.00  0.00     0.118 C 
BRANCH  31  32
ATOM     32  N   UNL A   1      35.209  31.981  29.103  1.00  0.00    -0.352 N 
ATOM     33  C   UNL A   1      35.993  31.284  30.007  1.00  0.00     0.251 C 
ATOM     34  H   UNL A   1      34.885  32.856  29.417  1.00  0.00     0.163 HD
ATOM     35  O   UNL A   1      36.185  31.699  31.147  1.00  0.00    -0.269 OA
BRANCH  33  36
ATOM     36  C   UNL A   1      36.768  30.116  29.529  1.00  0.00     0.039 A 
ATOM     37  C   UNL A   1      37.174  29.197  30.507  1.00  0.00     0.014 A 
ATOM     38  C   UNL A   1      37.388  30.147  28.288  1.00  0.00     0.014 A 
ATOM     39  C   UNL A   1      38.395  28.557  30.361  1.00  0.00     0.010 A 
ATOM     40  C   UNL A   1      38.667  29.661  28.210  1.00  0.00     0.010 A 
ATOM     41  C   UNL A   1      39.183  28.920  29.275  1.00  0.00    -0.014 A 
BRANCH  41  42
ATOM     42  C   UNL A   1      40.565  28.534  29.113  1.00  0.00     0.031 A 
ATOM     43  C   UNL A   1      40.821  27.124  28.806  1.00  0.00     0.074 A 
ATOM     44  C   UNL A   1      41.513  29.494  29.132  1.00  0.00     0.049 A 
ATOM     45  N   UNL A   1      41.913  26.507  29.065  1.00  0.00    -0.248 NA
ATOM     46  C   UNL A   1      39.793  26.255  28.234  1.00  0.00     0.031 C 
ATOM     47  C   UNL A   1      42.915  29.396  28.745  1.00  0.00     0.029 A 
ATOM     48  N   UNL A   1      41.409  30.744  29.743  1.00  0.00    -0.354 N 
ATOM     49  C   UNL A   1      41.854  25.282  28.435  1.00  0.00     0.074 A 
ATOM     50  C   UNL A   1      40.480  25.127  28.037  1.00  0.00     0.031 C 
ATOM     51  C   UNL A   1      43.598  30.386  29.349  1.00  0.00     0.029 A 
ATOM     52  C   UNL A   1      42.680  31.043  30.268  1.00  0.00     0.049 A 
ATOM     53  H   UNL A   1      40.603  31.307  29.796  1.00  0.00     0.167 HD
ATOM     54  C   UNL A   1      43.021  24.627  28.190  1.00  0.00     0.034 A 
ATOM     55  C   UNL A   1      42.848  31.118  31.624  1.00  0.00     0.034 A 
ATOM     56  C   UNL A   1      44.137  25.388  28.746  1.00  0.00     0.049 A 
ATOM     57  C   UNL A   1      43.763  30.037  32.145  1.00  0.00     0.074 A 
ATOM     58  C   UNL A   1      44.996  26.319  28.187  1.00  0.00     0.029 A 
ATOM     59  N   UNL A   1      44.233  25.532  30.122  1.00  0.00    -0.354 N 
ATOM     60  N   UNL A   1      43.989  28.910  31.526  1.00  0.00    -0.248 NA
ATOM     61  C   UNL A   1      44.519  30.161  33.385  1.00  0.00     0.031 C 
ATOM     62  C   UNL A   1      45.543  27.091  29.247  1.00  0.00     0.029 A 
ATOM     63  C   UNL A   1      45.052  26.596  30.444  1.00  0.00     0.049 A 
ATOM     64  H   UNL A   1      43.781  24.955  30.779  1.00  0.00     0.167 HD
ATOM     65  C   UNL A   1      44.893  28.169  32.241  1.00  0.00     0.074 A 
ATOM     66  C   UNL A   1      45.209  29.008  33.386  1.00  0.00     0.031 C 
ATOM     67  C   UNL A   1      45.299  26.926  31.838  1.00  0.00     0.034 A 
BRANCH  54  68
ATOM     68  C   UNL A   1      43.215  23.492  27.214  1.00  0.00     0.023 A 
ATOM     69  C   UNL A   1      42.476  22.309  27.429  1.00  0.00     0.031 A 
ATOM     70  C   UNL A   1      44.092  23.458  26.113  1.00  0.00     0.131 A 
ATOM     71  C   UNL A   1      42.668  21.161  26.643  1.00  0.00     0.055 A 
ATOM     72  C   UNL A   1      44.309  22.304  25.347  1.00  0.00     0.041 A 
ATOM     73  F   UNL A   1      44.749  24.543  25.690  1.00  0.00    -0.206 F 
ATOM     74  C   UNL A   1      43.600  21.143  25.612  1.00  0.00     0.022 A 
BRANCH  71  75
ATOM     75  S   UNL A   1      41.674  19.689  26.998  1.00  0.00     0.124 S 
ATOM     76  O   UNL A   1      40.470  20.267  27.587  1.00  0.00    -0.237 OA
ATOM     77  O   UNL A   1      41.526  19.090  25.677  1.00  0.00    -0.237 OA
ATOM     78  O   UNL A   1      42.512  18.932  27.927  1.00  0.00    -0.744 OA
ENDBRANCH  71  75
ENDBRANCH  54  68
BRANCH  55  79
ATOM     79  C   UNL A   1      41.635  31.652  32.321  1.00  0.00     0.023 A 
ATOM     80  C   UNL A   1      41.035  30.792  33.264  1.00  0.00     0.031 A 
ATOM     81  C   UNL A   1      41.395  33.027  32.449  1.00  0.00     0.131 A 
ATOM     82  C   UNL A   1      40.451  31.326  34.422  1.00  0.00     0.055 A 
ATOM     83  C   UNL A   1      40.706  33.544  33.556  1.00  0.00     0.041 A 
ATOM     84  F   UNL A   1      41.941  33.900  31.589  1.00  0.00    -0.206 F 
ATOM     85  C   UNL A   1      40.289  32.699  34.583  1.00  0.00     0.022 A 
BRANCH  82  86
ATOM     86  S   UNL A   1      40.239  30.209  35.825  1.00  0.00     0.124 S 
ATOM     87  O   UNL A   1      38.812  30.334  36.102  1.00  0.00    -0.237 OA
ATOM     88  O   UNL A   1      40.673  28.931  35.258  1.00  0.00    -0.237 OA
ATOM     89  O   UNL A   1      41.133  30.737  36.852  1.00  0.00    -0.744 OA
ENDBRANCH  82  86
ENDBRANCH  55  79
BRANCH  67  90
ATOM     90  C   UNL A   1      46.019  25.917  32.705  1.00  0.00     0.023 A 
ATOM     91  C   UNL A   1      45.351  24.909  33.406  1.00  0.00     0.031 A 
ATOM     92  C   UNL A   1      47.435  25.876  32.781  1.00  0.00     0.131 A 
ATOM     93  C   UNL A   1      46.046  24.002  34.218  1.00  0.00     0.055 A 
ATOM     94  C   UNL A   1      48.132  24.896  33.491  1.00  0.00     0.041 A 
ATOM     95  F   UNL A   1      48.209  26.779  32.162  1.00  0.00    -0.206 F 
ATOM     96  C   UNL A   1      47.437  23.962  34.239  1.00  0.00     0.022 A 
BRANCH  93  97
ATOM     97  S   UNL A   1      45.073  22.959  35.328  1.00  0.00     0.124 S 
ATOM     98  O   UNL A   1      44.256  22.202  34.381  1.00  0.00    -0.237 OA
ATOM     99  O   UNL A   1      46.100  22.195  36.026  1.00  0.00    -0.237 OA
ATOM    100  O   UNL A   1      44.341  23.920  36.149  1.00  0.00    -0.744 OA
ENDBRANCH  93  97
ENDBRANCH  67  90
ENDBRANCH  41  42
ENDBRANCH  33  36
ENDBRANCH  31  32
ENDBRANCH  30  31
ENDBRANCH   1  30
TORSDOF 17
ENDMDL
MODEL 3
REMARK VINA RESULT:     -12.2      2.190      2.537
REMARK SMILES Cc1ccc(C(=O)N2CCCC[C@@H]2C(=O)NCCCNC(=O)c2ccc(-c3c4nc(c(-c5cc(S(=O)(=O)[O-])ccc5F)c5ccc([nH]5)c(-c5cc(S(=O)(=O)[O-])ccc5F)c5nc(c(-c6cc(S(=O)(=O)[O-])ccc6F)c6ccc3[nH]6)C=C5)C=C4)cc2)cc1S(=O)(=O)N1CCCCC1
REMARK SMILES IDX 17 1 16 2 14 3 15 4 13 6 8 7 9 8 10 9 12 10 11 11 6 12 7 13
REMARK SMILES IDX 5 14 1 15 2 16 3 17 87 18 4 19 86 20 88 21 89 22 90 23 91 24
REMARK SMILES IDX 92 25 96 26 93 27 95 28 94 29 18 30 19 31 20 32 21 33 22 35
REMARK SMILES IDX 23 36 24 37 85 38 25 39 84 40 26 41 27 42 28 43 78 44 29 45
REMARK SMILES IDX 83 46 77 47 79 48 30 49 82 50 76 51 75 52 31 54 63 55 43 56
REMARK SMILES IDX 62 57 44 58 47 59 61 60 80 61 45 62 46 63 60 65 81 66 48 67
REMARK SMILES IDX 32 68 33 69 41 70 34 71 40 72 42 73 39 74 35 75 36 76 37 77
REMARK SMILES IDX 38 78 64 79 65 80 73 81 66 82 72 83 74 84 71 85 67 86 68 87
REMARK SMILES IDX 69 88 70 89 49 90 50 91 58 92 51 93 57 94 59 95 56 96 52 97
REMARK SMILES IDX 53 98 54 99 55 100
REMARK H PARENT 16 5 20 34 79 53 47 64
REMARK Flexibility Score: inf
ROOT
ATOM      1  C   UNL A   1      32.568  30.884  27.060  1.00  0.00     0.117 C 
ENDROOT
BRANCH   1   2
ATOM      2  N   UNL A   1      33.230  30.070  26.052  1.00  0.00    -0.354 N 
ATOM      3  C   UNL A   1      32.714  29.147  25.192  1.00  0.00     0.242 C 
ATOM      4  O   UNL A   1      33.478  28.384  24.591  1.00  0.00    -0.273 OA
ATOM      5  H   UNL A   1      34.202  30.206  25.982  1.00  0.00     0.163 HD
BRANCH   3   6
ATOM      6  C   UNL A   1      31.181  28.947  25.075  1.00  0.00     0.174 C 
ATOM      7  N   UNL A   1      30.765  27.519  24.971  1.00  0.00    -0.327 N 
ATOM      8  C   UNL A   1      29.485  27.225  24.347  1.00  0.00     0.120 C 
ATOM      9  C   UNL A   1      29.263  27.973  23.052  1.00  0.00     0.022 C 
ATOM     10  C   UNL A   1      30.720  29.820  23.881  1.00  0.00     0.035 C 
ATOM     11  C   UNL A   1      29.357  29.465  23.307  1.00  0.00     0.004 C 
BRANCH   7  12
ATOM     12  C   UNL A   1      31.301  26.452  25.712  1.00  0.00     0.254 C 
ATOM     13  O   UNL A   1      31.450  26.521  26.934  1.00  0.00    -0.269 OA
BRANCH  12  14
ATOM     14  C   UNL A   1      31.808  25.228  25.060  1.00  0.00     0.041 A 
ATOM     15  C   UNL A   1      32.657  21.414  23.234  1.00  0.00     0.046 C 
ATOM     16  C   UNL A   1      32.478  22.693  23.984  1.00  0.00    -0.031 A 
ATOM     17  C   UNL A   1      31.587  23.579  23.329  1.00  0.00     0.005 A 
ATOM     18  C   UNL A   1      33.047  23.110  25.202  1.00  0.00     0.086 A 
ATOM     19  C   UNL A   1      31.244  24.817  23.863  1.00  0.00     0.014 A 
ATOM     20  C   UNL A   1      32.684  24.374  25.726  1.00  0.00     0.035 A 
BRANCH  18  21
ATOM     21  S   UNL A   1      34.168  22.271  26.330  1.00  0.00     0.243 S 
ATOM     22  O   UNL A   1      34.143  23.024  27.570  1.00  0.00    -0.207 OA
ATOM     23  O   UNL A   1      33.741  20.883  26.325  1.00  0.00    -0.207 OA
BRANCH  21  24
ATOM     24  N   UNL A   1      35.768  22.271  25.780  1.00  0.00    -0.198 NA
ATOM     25  C   UNL A   1      36.612  23.384  26.252  1.00  0.00     0.102 C 
ATOM     26  C   UNL A   1      36.328  20.954  25.407  1.00  0.00     0.102 C 
ATOM     27  C   UNL A   1      38.041  23.334  25.742  1.00  0.00     0.017 C 
ATOM     28  C   UNL A   1      37.786  20.996  24.975  1.00  0.00     0.017 C 
ATOM     29  C   UNL A   1      38.639  21.941  25.803  1.00  0.00     0.003 C 
ENDBRANCH  21  24
ENDBRANCH  18  21
ENDBRANCH  12  14
ENDBRANCH   7  12
ENDBRANCH   3   6
ENDBRANCH   1   2
BRANCH   1  30
ATOM     30  C   UNL A   1      33.352  32.146  27.368  1.00  0.00     0.042 C 
BRANCH  30  31
ATOM     31  C   UNL A   1      34.811  31.892  27.696  1.00  0.00     0.118 C 
BRANCH  31  32
ATOM     32  N   UNL A   1      35.148  32.098  29.104  1.00  0.00    -0.352 N 
ATOM     33  C   UNL A   1      35.856  31.283  29.972  1.00  0.00     0.251 C 
ATOM     34  H   UNL A   1      34.824  32.943  29.493  1.00  0.00     0.163 HD
ATOM     35  O   UNL A   1      35.981  31.564  31.161  1.00  0.00    -0.269 OA
BRANCH  33  36
ATOM     36  C   UNL A   1      36.636  30.154  29.416  1.00  0.00     0.039 A 
ATOM     37  C   UNL A   1      36.957  29.122  30.309  1.00  0.00     0.014 A 
ATOM     38  C   UNL A   1      37.336  30.303  28.227  1.00  0.00     0.014 A 
ATOM     39  C   UNL A   1      38.170  28.467  30.169  1.00  0.00     0.010 A 
ATOM     40  C   UNL A   1      38.607  29.792  28.176  1.00  0.00     0.010 A 
ATOM     41  C   UNL A   1      39.035  28.925  29.182  1.00  0.00    -0.014 A 
BRANCH  41  42
ATOM     42  C   UNL A   1      40.416  28.519  29.064  1.00  0.00     0.031 A 
ATOM     43  C   UNL A   1      40.666  27.090  28.853  1.00  0.00     0.074 A 
ATOM     44  C   UNL A   1      41.372  29.472  29.034  1.00  0.00     0.049 A 
ATOM     45  N   UNL A   1      41.750  26.484  29.166  1.00  0.00    -0.248 NA
ATOM     46  C   UNL A   1      39.639  26.193  28.323  1.00  0.00     0.031 C 
ATOM     47  C   UNL A   1      42.778  29.340  28.674  1.00  0.00     0.029 A 
ATOM     48  N   UNL A   1      41.270  30.759  29.561  1.00  0.00    -0.354 N 
ATOM     49  C   UNL A   1      41.689  25.222  28.617  1.00  0.00     0.074 A 
ATOM     50  C   UNL A   1      40.319  25.050  28.210  1.00  0.00     0.031 C 
ATOM     51  C   UNL A   1      43.460  30.362  29.222  1.00  0.00     0.029 A 
ATOM     52  C   UNL A   1      42.535  31.083  30.084  1.00  0.00     0.049 A 
ATOM     53  H   UNL A   1      40.467  31.331  29.567  1.00  0.00     0.167 HD
ATOM     54  C   UNL A   1      42.854  24.544  28.430  1.00  0.00     0.034 A 
ATOM     55  C   UNL A   1      42.685  31.245  31.434  1.00  0.00     0.034 A 
ATOM     56  C   UNL A   1      43.968  25.332  28.952  1.00  0.00     0.049 A 
ATOM     57  C   UNL A   1      43.585  30.194  32.037  1.00  0.00     0.074 A 
ATOM     58  C   UNL A   1      44.843  26.219  28.345  1.00  0.00     0.029 A 
ATOM     59  N   UNL A   1      44.048  25.564  30.316  1.00  0.00    -0.354 N 
ATOM     60  N   UNL A   1      43.811  29.027  31.496  1.00  0.00    -0.248 NA
ATOM     61  C   UNL A   1      44.326  30.393  33.276  1.00  0.00     0.031 C 
ATOM     62  C   UNL A   1      45.381  27.054  29.360  1.00  0.00     0.029 A 
ATOM     63  C   UNL A   1      44.870  26.642  30.580  1.00  0.00     0.049 A 
ATOM     64  H   UNL A   1      43.582  25.034  31.003  1.00  0.00     0.167 HD
ATOM     65  C   UNL A   1      44.699  28.329  32.269  1.00  0.00     0.074 A 
ATOM     66  C   UNL A   1      45.006  29.238  33.361  1.00  0.00     0.031 C 
ATOM     67  C   UNL A   1      45.101  27.059  31.953  1.00  0.00     0.034 A 
BRANCH  54  68
ATOM     68  C   UNL A   1      43.053  23.347  27.533  1.00  0.00     0.023 A 
ATOM     69  C   UNL A   1      44.216  23.311  26.735  1.00  0.00     0.031 A 
ATOM     70  C   UNL A   1      42.178  22.256  27.365  1.00  0.00     0.131 A 
ATOM     71  C   UNL A   1      44.436  22.297  25.789  1.00  0.00     0.055 A 
ATOM     72  C   UNL A   1      42.379  21.259  26.400  1.00  0.00     0.041 A 
ATOM     73  F   UNL A   1      41.112  22.068  28.150  1.00  0.00    -0.206 F 
ATOM     74  C   UNL A   1      43.511  21.277  25.600  1.00  0.00     0.022 A 
BRANCH  71  75
ATOM     75  S   UNL A   1      45.959  22.338  24.809  1.00  0.00     0.124 S 
ATOM     76  O   UNL A   1      46.789  23.264  25.573  1.00  0.00    -0.237 OA
ATOM     77  O   UNL A   1      46.372  20.940  24.818  1.00  0.00    -0.237 OA
ATOM     78  O   UNL A   1      45.511  22.839  23.510  1.00  0.00    -0.744 OA
ENDBRANCH  71  75
ENDBRANCH  54  68
BRANCH  55  79
ATOM     79  C   UNL A   1      41.467  31.831  32.078  1.00  0.00     0.023 A 
ATOM     80  C   UNL A   1      40.750  30.976  32.939  1.00  0.00     0.031 A 
ATOM     81  C   UNL A   1      41.311  33.213  32.257  1.00  0.00     0.131 A 
ATOM     82  C   UNL A   1      40.128  31.497  34.082  1.00  0.00     0.055 A 
ATOM     83  C   UNL A   1      40.587  33.728  33.341  1.00  0.00     0.041 A 
ATOM     84  F   UNL A   1      41.971  34.082  31.476  1.00  0.00    -0.206 F 
ATOM     85  C   UNL A   1      40.047  32.870  34.299  1.00  0.00     0.022 A 
BRANCH  82  86
ATOM     86  S   UNL A   1      39.749  30.338  35.414  1.00  0.00     0.124 S 
ATOM     87  O   UNL A   1      38.291  30.353  35.426  1.00  0.00    -0.237 OA
ATOM     88  O   UNL A   1      40.374  29.107  34.925  1.00  0.00    -0.237 OA
ATOM     89  O   UNL A   1      40.399  30.907  36.591  1.00  0.00    -0.744 OA
ENDBRANCH  82  86
ENDBRANCH  55  79
BRANCH  67  90
ATOM     90  C   UNL A   1      45.802  26.104  32.893  1.00  0.00     0.023 A 
ATOM     91  C   UNL A   1      45.110  25.205  33.712  1.00  0.00     0.031 A 
ATOM     92  C   UNL A   1      47.215  25.997  32.929  1.00  0.00     0.131 A 
ATOM     93  C   UNL A   1      45.790  24.347  34.588  1.00  0.00     0.055 A 
ATOM     94  C   UNL A   1      47.889  25.056  33.711  1.00  0.00     0.041 A 
ATOM     95  F   UNL A   1      48.010  26.792  32.199  1.00  0.00    -0.206 F 
ATOM     96  C   UNL A   1      47.176  24.237  34.570  1.00  0.00     0.022 A 
BRANCH  93  97
ATOM     97  S   UNL A   1      44.807  23.470  35.826  1.00  0.00     0.124 S 
ATOM     98  O   UNL A   1      44.247  22.375  35.038  1.00  0.00    -0.237 OA
ATOM     99  O   UNL A   1      45.810  23.088  36.813  1.00  0.00    -0.237 OA
ATOM    100  O   UNL A   1      43.841  24.472  36.271  1.00  0.00    -0.744 OA
ENDBRANCH  93  97
ENDBRANCH  67  90
ENDBRANCH  41  42
ENDBRANCH  33  36
ENDBRANCH  31  32
ENDBRANCH  30  31
ENDBRANCH   1  30
TORSDOF 17
ENDMDL
