MODEL 1
REMARK VINA RESULT:     -14.0      0.000      0.000
REMARK SMILES COc1cc2ccccc2cc1C(=O)Nc1cc(C(=O)NCCCNC(=O)c2ccc(-c3c4nc(c(-c5cc(S(=O)(=O)[O-])ccc5F)c5ccc([nH]5)c(-c5cc(S(=O)(=O)[O-])ccc5F)c5nc(c(-c6cc(S(=O)(=O)[O-])ccc6F)c6ccc3[nH]6)C=C5)C=C4)cc2)ccc1C
REMARK SMILES IDX 23 1 22 2 21 3 19 4 20 5 18 7 16 8 17 9 93 10 92 11 94 12
REMARK SMILES IDX 91 13 15 14 13 15 14 16 12 18 3 19 4 20 5 21 11 22 6 23
REMARK SMILES IDX 10 24 7 25 9 26 8 27 2 28 1 29 24 30 25 31 26 32 27 34 28 35
REMARK SMILES IDX 29 36 90 37 30 38 89 39 31 40 32 41 33 42 83 43 34 44 88 45
REMARK SMILES IDX 82 46 84 47 35 48 87 49 81 50 80 51 36 53 68 54 48 55 67 56
REMARK SMILES IDX 49 57 52 58 66 59 85 60 50 61 51 62 65 64 86 65 53 66 37 67
REMARK SMILES IDX 38 68 46 69 39 70 45 71 47 72 44 73 40 74 41 75 42 76 43 77
REMARK SMILES IDX 69 78 70 79 78 80 71 81 77 82 79 83 76 84 72 85 73 86 74 87
REMARK SMILES IDX 75 88 54 89 55 90 63 91 56 92 62 93 64 94 61 95 57 96 58 97
REMARK SMILES IDX 59 98 60 99
REMARK H PARENT 21 6 15 17 25 33 84 52 52 63
REMARK Flexibility Score: inf
ROOT
ATOM      1  C   UNL A   1      38.119  21.706  25.367  1.00  0.00     0.042 C 
ENDROOT
BRANCH   1   2
ATOM      2  C   UNL A   1      36.600  21.557  25.250  1.00  0.00     0.118 C 
BRANCH   2   3
ATOM      3  N   UNL A   1      35.909  21.781  26.516  1.00  0.00    -0.352 N 
ATOM      4  C   UNL A   1      34.648  22.229  26.834  1.00  0.00     0.251 C 
ATOM      5  O   UNL A   1      34.306  22.166  28.017  1.00  0.00    -0.269 OA
ATOM      6  H   UNL A   1      36.459  21.570  27.305  1.00  0.00     0.163 HD
BRANCH   4   7
ATOM      7  C   UNL A   1      33.662  22.782  25.852  1.00  0.00     0.041 A 
ATOM      8  C   UNL A   1      33.011  24.066  23.880  1.00  0.00     0.045 A 
ATOM      9  C   UNL A   1      33.976  23.634  24.799  1.00  0.00     0.040 A 
ATOM     10  C   UNL A   1      31.656  23.776  24.089  1.00  0.00    -0.027 A 
ATOM     11  C   UNL A   1      31.324  22.928  25.155  1.00  0.00     0.006 A 
ATOM     12  C   UNL A   1      30.571  24.169  23.126  1.00  0.00     0.046 C 
ATOM     13  C   UNL A   1      32.314  22.427  26.011  1.00  0.00     0.014 A 
BRANCH   8  14
ATOM     14  N   UNL A   1      33.417  24.747  22.721  1.00  0.00    -0.322 N 
ATOM     15  C   UNL A   1      33.229  26.064  22.347  1.00  0.00     0.259 C 
ATOM     16  O   UNL A   1      33.474  26.360  21.173  1.00  0.00    -0.269 OA
ATOM     17  H   UNL A   1      33.917  24.200  22.073  1.00  0.00     0.170 HD
BRANCH  15  18
ATOM     18  C   UNL A   1      32.852  27.163  23.293  1.00  0.00     0.082 A 
ATOM     19  C   UNL A   1      31.641  27.869  23.292  1.00  0.00     0.132 A 
ATOM     20  C   UNL A   1      31.409  28.904  24.205  1.00  0.00     0.056 A 
ATOM     21  C   UNL A   1      32.313  29.159  25.234  1.00  0.00    -0.015 A 
ATOM     22  C   UNL A   1      33.764  27.426  24.333  1.00  0.00     0.026 A 
ATOM     23  C   UNL A   1      32.051  30.154  26.183  1.00  0.00     0.009 A 
ATOM     24  C   UNL A   1      33.496  28.393  25.322  1.00  0.00    -0.017 A 
ATOM     25  C   UNL A   1      32.923  30.353  27.248  1.00  0.00     0.001 A 
ATOM     26  C   UNL A   1      34.373  28.622  26.393  1.00  0.00     0.009 A 
ATOM     27  C   UNL A   1      34.080  29.588  27.356  1.00  0.00     0.001 A 
BRANCH  19  28
ATOM     28  O   UNL A   1      30.627  27.653  22.401  1.00  0.00    -0.496 OA
ATOM     29  C   UNL A   1      29.733  28.760  22.378  1.00  0.00     0.278 C 
ENDBRANCH  19  28
ENDBRANCH  15  18
ENDBRANCH   8  14
ENDBRANCH   4   7
ENDBRANCH   2   3
ENDBRANCH   1   2
BRANCH   1  30
ATOM     30  C   UNL A   1      38.544  22.959  26.113  1.00  0.00     0.118 C 
BRANCH  30  31
ATOM     31  N   UNL A   1      39.955  22.969  26.502  1.00  0.00    -0.352 N 
ATOM     32  C   UNL A   1      40.714  24.042  26.948  1.00  0.00     0.251 C 
ATOM     33  H   UNL A   1      40.425  22.107  26.437  1.00  0.00     0.163 HD
ATOM     34  O   UNL A   1      41.899  23.935  27.208  1.00  0.00    -0.269 OA
BRANCH  32  35
ATOM     35  C   UNL A   1      40.001  25.311  27.220  1.00  0.00     0.039 A 
ATOM     36  C   UNL A   1      40.400  26.437  26.492  1.00  0.00     0.014 A 
ATOM     37  C   UNL A   1      39.234  25.439  28.374  1.00  0.00     0.014 A 
ATOM     38  C   UNL A   1      40.245  27.697  27.060  1.00  0.00     0.010 A 
ATOM     39  C   UNL A   1      39.199  26.672  28.993  1.00  0.00     0.010 A 
ATOM     40  C   UNL A   1      39.757  27.792  28.363  1.00  0.00    -0.014 A 
BRANCH  40  41
ATOM     41  C   UNL A   1      39.917  28.988  29.184  1.00  0.00     0.031 A 
ATOM     42  C   UNL A   1      38.862  30.022  29.218  1.00  0.00     0.074 A 
ATOM     43  C   UNL A   1      41.022  29.161  29.942  1.00  0.00     0.049 A 
ATOM     44  N   UNL A   1      39.081  31.275  29.440  1.00  0.00    -0.248 NA
ATOM     45  C   UNL A   1      37.463  29.723  28.947  1.00  0.00     0.031 C 
ATOM     46  C   UNL A   1      41.222  30.151  30.998  1.00  0.00     0.029 A 
ATOM     47  N   UNL A   1      42.284  28.616  29.744  1.00  0.00    -0.354 N 
ATOM     48  C   UNL A   1      37.863  31.880  29.642  1.00  0.00     0.074 A 
ATOM     49  C   UNL A   1      36.887  30.891  29.244  1.00  0.00     0.031 C 
ATOM     50  C   UNL A   1      42.538  30.322  31.194  1.00  0.00     0.029 A 
ATOM     51  C   UNL A   1      43.231  29.554  30.176  1.00  0.00     0.049 A 
ATOM     52  H   UNL A   1      42.479  27.727  29.366  1.00  0.00     0.167 HD
ATOM     53  C   UNL A   1      37.802  33.089  30.269  1.00  0.00     0.034 A 
ATOM     54  C   UNL A   1      44.188  30.047  29.335  1.00  0.00     0.034 A 
ATOM     55  C   UNL A   1      39.132  33.592  30.611  1.00  0.00     0.049 A 
ATOM     56  C   UNL A   1      44.143  31.543  29.173  1.00  0.00     0.074 A 
ATOM     57  C   UNL A   1      39.847  33.596  31.798  1.00  0.00     0.029 A 
ATOM     58  N   UNL A   1      40.027  33.953  29.611  1.00  0.00    -0.354 N 
ATOM     59  N   UNL A   1      43.112  32.278  29.481  1.00  0.00    -0.248 NA
ATOM     60  C   UNL A   1      45.245  32.323  28.621  1.00  0.00     0.031 C 
ATOM     61  C   UNL A   1      41.190  33.938  31.503  1.00  0.00     0.029 A 
ATOM     62  C   UNL A   1      41.289  34.159  30.140  1.00  0.00     0.049 A 
ATOM     63  H   UNL A   1      39.796  34.050  28.659  1.00  0.00     0.167 HD
ATOM     64  C   UNL A   1      43.364  33.583  29.144  1.00  0.00     0.074 A 
ATOM     65  C   UNL A   1      44.727  33.563  28.643  1.00  0.00     0.031 C 
ATOM     66  C   UNL A   1      42.409  34.551  29.293  1.00  0.00     0.034 A 
BRANCH  53  67
ATOM     67  C   UNL A   1      36.535  33.658  30.876  1.00  0.00     0.023 A 
ATOM     68  C   UNL A   1      35.563  34.226  30.024  1.00  0.00     0.031 A 
ATOM     69  C   UNL A   1      36.237  33.723  32.250  1.00  0.00     0.131 A 
ATOM     70  C   UNL A   1      34.452  34.923  30.532  1.00  0.00     0.055 A 
ATOM     71  C   UNL A   1      35.166  34.469  32.761  1.00  0.00     0.041 A 
ATOM     72  F   UNL A   1      36.931  33.021  33.155  1.00  0.00    -0.206 F 
ATOM     73  C   UNL A   1      34.274  35.091  31.902  1.00  0.00     0.022 A 
BRANCH  70  74
ATOM     74  S   UNL A   1      33.236  35.601  29.371  1.00  0.00     0.124 S 
ATOM     75  O   UNL A   1      32.563  34.399  28.889  1.00  0.00    -0.237 OA
ATOM     76  O   UNL A   1      32.452  36.484  30.226  1.00  0.00    -0.237 OA
ATOM     77  O   UNL A   1      34.063  36.285  28.377  1.00  0.00    -0.744 OA
ENDBRANCH  70  74
ENDBRANCH  53  67
BRANCH  54  78
ATOM     78  C   UNL A   1      44.589  29.088  28.273  1.00  0.00     0.023 A 
ATOM     79  C   UNL A   1      45.405  28.015  28.671  1.00  0.00     0.031 A 
ATOM     80  C   UNL A   1      43.878  28.969  27.070  1.00  0.00     0.131 A 
ATOM     81  C   UNL A   1      45.340  26.798  27.985  1.00  0.00     0.055 A 
ATOM     82  C   UNL A   1      43.884  27.774  26.340  1.00  0.00     0.041 A 
ATOM     83  F   UNL A   1      43.066  29.952  26.655  1.00  0.00    -0.206 F 
ATOM     84  C   UNL A   1      44.577  26.664  26.825  1.00  0.00     0.022 A 
BRANCH  81  85
ATOM     85  S   UNL A   1      46.052  25.339  28.786  1.00  0.00     0.124 S 
ATOM     86  O   UNL A   1      47.115  24.992  27.846  1.00  0.00    -0.237 OA
ATOM     87  O   UNL A   1      46.484  25.865  30.080  1.00  0.00    -0.237 OA
ATOM     88  O   UNL A   1      44.930  24.407  28.855  1.00  0.00    -0.744 OA
ENDBRANCH  81  85
ENDBRANCH  54  78
BRANCH  66  89
ATOM     89  C   UNL A   1      42.476  35.965  28.749  1.00  0.00     0.023 A 
ATOM     90  C   UNL A   1      43.035  37.043  29.452  1.00  0.00     0.031 A 
ATOM     91  C   UNL A   1      42.022  36.269  27.441  1.00  0.00     0.131 A 
ATOM     92  C   UNL A   1      43.048  38.344  28.916  1.00  0.00     0.055 A 
ATOM     93  C   UNL A   1      42.105  37.546  26.879  1.00  0.00     0.041 A 
ATOM     94  F   UNL A   1      41.490  35.333  26.641  1.00  0.00    -0.206 F 
ATOM     95  C   UNL A   1      42.604  38.602  27.625  1.00  0.00     0.022 A 
BRANCH  92  96
ATOM     96  S   UNL A   1      43.601  39.700  29.982  1.00  0.00     0.124 S 
ATOM     97  O   UNL A   1      42.402  40.530  30.062  1.00  0.00    -0.237 OA
ATOM     98  O   UNL A   1      43.972  39.004  31.210  1.00  0.00    -0.237 OA
ATOM     99  O   UNL A   1      44.714  40.290  29.241  1.00  0.00    -0.744 OA
ENDBRANCH  92  96
ENDBRANCH  66  89
ENDBRANCH  40  41
ENDBRANCH  32  35
ENDBRANCH  30  31
ENDBRANCH   1  30
TORSDOF 16
ENDMDL
MODEL 2
REMARK VINA RESULT:     -13.5      1.906      2.291
REMARK SMILES COc1cc2ccccc2cc1C(=O)Nc1cc(C(=O)NCCCNC(=O)c2ccc(-c3c4nc(c(-c5cc(S(=O)(=O)[O-])ccc5F)c5ccc([nH]5)c(-c5cc(S(=O)(=O)[O-])ccc5F)c5nc(c(-c6cc(S(=O)(=O)[O-])ccc6F)c6ccc3[nH]6)C=C5)C=C4)cc2)ccc1C
REMARK SMILES IDX 23 1 22 2 21 3 19 4 20 5 18 7 16 8 17 9 93 10 92 11 94 12
REMARK SMILES IDX 91 13 15 14 13 15 14 16 12 18 3 19 4 20 5 21 11 22 6 23
REMARK SMILES IDX 10 24 7 25 9 26 8 27 2 28 1 29 24 30 25 31 26 32 27 34 28 35
REMARK SMILES IDX 29 36 90 37 30 38 89 39 31 40 32 41 33 42 83 43 34 44 88 45
REMARK SMILES IDX 82 46 84 47 35 48 87 49 81 50 80 51 36 53 68 54 48 55 67 56
REMARK SMILES IDX 49 57 52 58 66 59 85 60 50 61 51 62 65 64 86 65 53 66 37 67
REMARK SMILES IDX 38 68 46 69 39 70 45 71 47 72 44 73 40 74 41 75 42 76 43 77
REMARK SMILES IDX 69 78 70 79 78 80 71 81 77 82 79 83 76 84 72 85 73 86 74 87
REMARK SMILES IDX 75 88 54 89 55 90 63 91 56 92 62 93 64 94 61 95 57 96 58 97
REMARK SMILES IDX 59 98 60 99
REMARK H PARENT 21 6 15 17 25 33 84 52 52 63
REMARK Flexibility Score: inf
ROOT
ATOM      1  C   UNL A   1      37.706  20.974  25.181  1.00  0.00     0.042 C 
ENDROOT
BRANCH   1   2
ATOM      2  C   UNL A   1      36.181  21.089  25.131  1.00  0.00     0.118 C 
BRANCH   2   3
ATOM      3  N   UNL A   1      35.597  21.451  26.419  1.00  0.00    -0.352 N 
ATOM      4  C   UNL A   1      34.428  22.078  26.781  1.00  0.00     0.251 C 
ATOM      5  O   UNL A   1      34.147  22.105  27.981  1.00  0.00    -0.269 OA
ATOM      6  H   UNL A   1      36.157  21.196  27.188  1.00  0.00     0.163 HD
BRANCH   4   7
ATOM      7  C   UNL A   1      33.471  22.724  25.827  1.00  0.00     0.041 A 
ATOM      8  C   UNL A   1      32.891  24.073  23.876  1.00  0.00     0.045 A 
ATOM      9  C   UNL A   1      33.835  23.549  24.768  1.00  0.00     0.040 A 
ATOM     10  C   UNL A   1      31.520  23.907  24.120  1.00  0.00    -0.027 A 
ATOM     11  C   UNL A   1      31.140  23.087  25.191  1.00  0.00     0.006 A 
ATOM     12  C   UNL A   1      30.451  24.403  23.187  1.00  0.00     0.046 C 
ATOM     13  C   UNL A   1      32.101  22.493  26.020  1.00  0.00     0.014 A 
BRANCH   8  14
ATOM     14  N   UNL A   1      33.327  24.720  22.709  1.00  0.00    -0.322 N 
ATOM     15  C   UNL A   1      33.174  26.032  22.305  1.00  0.00     0.259 C 
ATOM     16  O   UNL A   1      33.442  26.298  21.128  1.00  0.00    -0.269 OA
ATOM     17  H   UNL A   1      33.822  24.148  22.079  1.00  0.00     0.170 HD
BRANCH  15  18
ATOM     18  C   UNL A   1      32.811  27.159  23.223  1.00  0.00     0.082 A 
ATOM     19  C   UNL A   1      31.667  27.964  23.123  1.00  0.00     0.132 A 
ATOM     20  C   UNL A   1      31.445  29.015  24.020  1.00  0.00     0.056 A 
ATOM     21  C   UNL A   1      32.276  29.195  25.125  1.00  0.00    -0.015 A 
ATOM     22  C   UNL A   1      33.648  27.346  24.339  1.00  0.00     0.026 A 
ATOM     23  C   UNL A   1      32.017  30.208  26.055  1.00  0.00     0.009 A 
ATOM     24  C   UNL A   1      33.378  28.332  25.308  1.00  0.00    -0.017 A 
ATOM     25  C   UNL A   1      32.807  30.334  27.192  1.00  0.00     0.001 A 
ATOM     26  C   UNL A   1      34.176  28.487  26.452  1.00  0.00     0.009 A 
ATOM     27  C   UNL A   1      33.883  29.474  27.393  1.00  0.00     0.001 A 
BRANCH  19  28
ATOM     28  O   UNL A   1      30.719  27.834  22.146  1.00  0.00    -0.496 OA
ATOM     29  C   UNL A   1      29.436  28.203  22.638  1.00  0.00     0.278 C 
ENDBRANCH  19  28
ENDBRANCH  15  18
ENDBRANCH   8  14
ENDBRANCH   4   7
ENDBRANCH   2   3
ENDBRANCH   1   2
BRANCH   1  30
ATOM     30  C   UNL A   1      38.398  22.283  25.521  1.00  0.00     0.118 C 
BRANCH  30  31
ATOM     31  N   UNL A   1      39.724  22.117  26.117  1.00  0.00    -0.352 N 
ATOM     32  C   UNL A   1      40.511  23.076  26.739  1.00  0.00     0.251 C 
ATOM     33  H   UNL A   1      40.107  21.212  26.068  1.00  0.00     0.163 HD
ATOM     34  O   UNL A   1      41.623  22.826  27.166  1.00  0.00    -0.269 OA
BRANCH  32  35
ATOM     35  C   UNL A   1      39.899  24.403  26.982  1.00  0.00     0.039 A 
ATOM     36  C   UNL A   1      40.590  25.522  26.505  1.00  0.00     0.014 A 
ATOM     37  C   UNL A   1      38.888  24.535  27.928  1.00  0.00     0.014 A 
ATOM     38  C   UNL A   1      40.440  26.738  27.164  1.00  0.00     0.010 A 
ATOM     39  C   UNL A   1      38.837  25.703  28.662  1.00  0.00     0.010 A 
ATOM     40  C   UNL A   1      39.656  26.786  28.317  1.00  0.00    -0.014 A 
BRANCH  40  41
ATOM     41  C   UNL A   1      39.739  27.874  29.286  1.00  0.00     0.031 A 
ATOM     42  C   UNL A   1      38.814  29.022  29.207  1.00  0.00     0.074 A 
ATOM     43  C   UNL A   1      40.649  27.840  30.285  1.00  0.00     0.049 A 
ATOM     44  N   UNL A   1      39.098  30.213  29.616  1.00  0.00    -0.248 NA
ATOM     45  C   UNL A   1      37.493  28.925  28.600  1.00  0.00     0.031 C 
ATOM     46  C   UNL A   1      40.695  28.697  31.467  1.00  0.00     0.029 A 
ATOM     47  N   UNL A   1      41.861  27.162  30.308  1.00  0.00    -0.354 N 
ATOM     48  C   UNL A   1      37.932  30.943  29.614  1.00  0.00     0.074 A 
ATOM     49  C   UNL A   1      36.983  30.122  28.897  1.00  0.00     0.031 C 
ATOM     50  C   UNL A   1      41.940  28.685  31.968  1.00  0.00     0.029 A 
ATOM     51  C   UNL A   1      42.771  27.933  31.046  1.00  0.00     0.049 A 
ATOM     52  H   UNL A   1      42.049  26.294  29.882  1.00  0.00     0.167 HD
ATOM     53  C   UNL A   1      37.848  32.089  30.348  1.00  0.00     0.034 A 
ATOM     54  C   UNL A   1      43.941  28.378  30.500  1.00  0.00     0.034 A 
ATOM     55  C   UNL A   1      39.106  32.390  31.032  1.00  0.00     0.049 A 
ATOM     56  C   UNL A   1      44.084  29.878  30.507  1.00  0.00     0.074 A 
ATOM     57  C   UNL A   1      39.522  32.198  32.340  1.00  0.00     0.029 A 
ATOM     58  N   UNL A   1      40.240  32.728  30.304  1.00  0.00    -0.354 N 
ATOM     59  N   UNL A   1      43.088  30.703  30.664  1.00  0.00    -0.248 NA
ATOM     60  C   UNL A   1      45.356  30.562  30.307  1.00  0.00     0.031 C 
ATOM     61  C   UNL A   1      40.923  32.397  32.390  1.00  0.00     0.029 A 
ATOM     62  C   UNL A   1      41.358  32.727  31.118  1.00  0.00     0.049 A 
ATOM     63  H   UNL A   1      40.247  32.938  29.342  1.00  0.00     0.167 HD
ATOM     64  C   UNL A   1      43.541  31.992  30.546  1.00  0.00     0.074 A 
ATOM     65  C   UNL A   1      44.973  31.849  30.359  1.00  0.00     0.031 C 
ATOM     66  C   UNL A   1      42.678  33.053  30.592  1.00  0.00     0.034 A 
BRANCH  53  67
ATOM     67  C   UNL A   1      36.538  32.753  30.723  1.00  0.00     0.023 A 
ATOM     68  C   UNL A   1      35.768  33.366  29.711  1.00  0.00     0.031 A 
ATOM     69  C   UNL A   1      36.013  32.865  32.024  1.00  0.00     0.131 A 
ATOM     70  C   UNL A   1      34.637  34.145  30.013  1.00  0.00     0.055 A 
ATOM     71  C   UNL A   1      34.925  33.690  32.336  1.00  0.00     0.041 A 
ATOM     72  F   UNL A   1      36.493  32.137  33.041  1.00  0.00    -0.206 F 
ATOM     73  C   UNL A   1      34.239  34.352  31.330  1.00  0.00     0.022 A 
BRANCH  70  74
ATOM     74  S   UNL A   1      33.688  34.878  28.653  1.00  0.00     0.124 S 
ATOM     75  O   UNL A   1      34.700  35.662  27.955  1.00  0.00    -0.237 OA
ATOM     76  O   UNL A   1      33.187  33.698  27.956  1.00  0.00    -0.237 OA
ATOM     77  O   UNL A   1      32.664  35.664  29.341  1.00  0.00    -0.744 OA
ENDBRANCH  70  74
ENDBRANCH  53  67
BRANCH  54  78
ATOM     78  C   UNL A   1      44.481  27.478  29.448  1.00  0.00     0.023 A 
ATOM     79  C   UNL A   1      43.903  27.587  28.171  1.00  0.00     0.031 A 
ATOM     80  C   UNL A   1      45.746  26.884  29.554  1.00  0.00     0.131 A 
ATOM     81  C   UNL A   1      44.663  27.295  27.035  1.00  0.00     0.055 A 
ATOM     82  C   UNL A   1      46.470  26.513  28.414  1.00  0.00     0.041 A 
ATOM     83  F   UNL A   1      46.354  26.776  30.744  1.00  0.00    -0.206 F 
ATOM     84  C   UNL A   1      45.950  26.766  27.145  1.00  0.00     0.022 A 
BRANCH  81  85
ATOM     85  S   UNL A   1      44.043  27.868  25.433  1.00  0.00     0.124 S 
ATOM     86  O   UNL A   1      45.290  28.196  24.749  1.00  0.00    -0.237 OA
ATOM     87  O   UNL A   1      43.323  26.698  24.934  1.00  0.00    -0.237 OA
ATOM     88  O   UNL A   1      43.189  29.000  25.784  1.00  0.00    -0.744 OA
ENDBRANCH  81  85
ENDBRANCH  54  78
BRANCH  66  89
ATOM     89  C   UNL A   1      43.010  34.492  30.245  1.00  0.00     0.023 A 
ATOM     90  C   UNL A   1      42.820  35.048  28.972  1.00  0.00     0.031 A 
ATOM     91  C   UNL A   1      43.485  35.391  31.232  1.00  0.00     0.131 A 
ATOM     92  C   UNL A   1      43.170  36.382  28.692  1.00  0.00     0.055 A 
ATOM     93  C   UNL A   1      43.761  36.737  30.973  1.00  0.00     0.041 A 
ATOM     94  F   UNL A   1      43.688  35.008  32.501  1.00  0.00    -0.206 F 
ATOM     95  C   UNL A   1      43.623  37.239  29.689  1.00  0.00     0.022 A 
BRANCH  92  96
ATOM     96  S   UNL A   1      43.080  36.945  26.973  1.00  0.00     0.124 S 
ATOM     97  O   UNL A   1      44.440  37.426  26.740  1.00  0.00    -0.237 OA
ATOM     98  O   UNL A   1      42.711  35.726  26.261  1.00  0.00    -0.237 OA
ATOM     99  O   UNL A   1      42.052  37.984  27.002  1.00  0.00    -0.744 OA
ENDBRANCH  92  96
ENDBRANCH  66  89
ENDBRANCH  40  41
ENDBRANCH  32  35
ENDBRANCH  30  31
ENDBRANCH   1  30
TORSDOF 16
ENDMDL
MODEL 3
REMARK VINA RESULT:     -13.5      1.446      2.199
REMARK SMILES COc1cc2ccccc2cc1C(=O)Nc1cc(C(=O)NCCCNC(=O)c2ccc(-c3c4nc(c(-c5cc(S(=O)(=O)[O-])ccc5F)c5ccc([nH]5)c(-c5cc(S(=O)(=O)[O-])ccc5F)c5nc(c(-c6cc(S(=O)(=O)[O-])ccc6F)c6ccc3[nH]6)C=C5)C=C4)cc2)ccc1C
REMARK SMILES IDX 23 1 22 2 21 3 19 4 20 5 18 7 16 8 17 9 93 10 92 11 94 12
REMARK SMILES IDX 91 13 15 14 13 15 14 16 12 18 3 19 4 20 5 21 11 22 6 23
REMARK SMILES IDX 10 24 7 25 9 26 8 27 2 28 1 29 24 30 25 31 26 32 27 34 28 35
REMARK SMILES IDX 29 36 90 37 30 38 89 39 31 40 32 41 33 42 83 43 34 44 88 45
REMARK SMILES IDX 82 46 84 47 35 48 87 49 81 50 80 51 36 53 68 54 48 55 67 56
REMARK SMILES IDX 49 57 52 58 66 59 85 60 50 61 51 62 65 64 86 65 53 66 37 67
REMARK SMILES IDX 38 68 46 69 39 70 45 71 47 72 44 73 40 74 41 75 42 76 43 77
REMARK SMILES IDX 69 78 70 79 78 80 71 81 77 82 79 83 76 84 72 85 73 86 74 87
REMARK SMILES IDX 75 88 54 89 55 90 63 91 56 92 62 93 64 94 61 95 57 96 58 97
REMARK SMILES IDX 59 98 60 99
REMARK H PARENT 21 6 15 17 25 33 84 52 52 63
REMARK Flexibility Score: inf
ROOT
ATOM      1  C   UNL A   1      38.095  21.287  25.420  1.00  0.00     0.042 C 
ENDROOT
BRANCH   1   2
ATOM      2  C   UNL A   1      36.712  21.373  24.769  1.00  0.00     0.118 C 
BRANCH   2   3
ATOM      3  N   UNL A   1      35.904  20.178  24.994  1.00  0.00    -0.352 N 
ATOM      4  C   UNL A   1      34.574  19.891  24.800  1.00  0.00     0.251 C 
ATOM      5  O   UNL A   1      34.219  18.719  24.950  1.00  0.00    -0.269 OA
ATOM      6  H   UNL A   1      36.418  19.422  25.361  1.00  0.00     0.163 HD
BRANCH   4   7
ATOM      7  C   UNL A   1      33.527  20.891  24.418  1.00  0.00     0.041 A 
ATOM      8  C   UNL A   1      31.511  22.214  24.801  1.00  0.00     0.045 A 
ATOM      9  C   UNL A   1      32.420  21.223  25.191  1.00  0.00     0.040 A 
ATOM     10  C   UNL A   1      31.604  22.797  23.529  1.00  0.00    -0.027 A 
ATOM     11  C   UNL A   1      32.709  22.462  22.734  1.00  0.00     0.006 A 
ATOM     12  C   UNL A   1      30.692  23.894  23.057  1.00  0.00     0.046 C 
ATOM     13  C   UNL A   1      33.663  21.537  23.179  1.00  0.00     0.014 A 
BRANCH   8  14
ATOM     14  N   UNL A   1      30.537  22.656  25.711  1.00  0.00    -0.322 N 
ATOM     15  C   UNL A   1      30.512  23.779  26.515  1.00  0.00     0.259 C 
ATOM     16  O   UNL A   1      29.654  23.821  27.403  1.00  0.00    -0.269 OA
ATOM     17  H   UNL A   1      29.747  22.074  25.787  1.00  0.00     0.170 HD
BRANCH  15  18
ATOM     18  C   UNL A   1      31.381  24.982  26.310  1.00  0.00     0.082 A 
ATOM     19  C   UNL A   1      32.780  25.010  26.407  1.00  0.00     0.132 A 
ATOM     20  C   UNL A   1      33.491  26.202  26.229  1.00  0.00     0.056 A 
ATOM     21  C   UNL A   1      32.841  27.359  25.800  1.00  0.00    -0.015 A 
ATOM     22  C   UNL A   1      30.730  26.153  25.880  1.00  0.00     0.026 A 
ATOM     23  C   UNL A   1      33.563  28.535  25.562  1.00  0.00     0.009 A 
ATOM     24  C   UNL A   1      31.445  27.332  25.593  1.00  0.00    -0.017 A 
ATOM     25  C   UNL A   1      32.919  29.663  25.065  1.00  0.00     0.001 A 
ATOM     26  C   UNL A   1      30.810  28.487  25.109  1.00  0.00     0.009 A 
ATOM     27  C   UNL A   1      31.546  29.640  24.836  1.00  0.00     0.001 A 
BRANCH  19  28
ATOM     28  O   UNL A   1      33.550  23.926  26.724  1.00  0.00    -0.496 OA
ATOM     29  C   UNL A   1      34.786  23.964  26.021  1.00  0.00     0.278 C 
ENDBRANCH  19  28
ENDBRANCH  15  18
ENDBRANCH   8  14
ENDBRANCH   4   7
ENDBRANCH   2   3
ENDBRANCH   1   2
BRANCH   1  30
ATOM     30  C   UNL A   1      38.573  22.609  25.994  1.00  0.00     0.118 C 
BRANCH  30  31
ATOM     31  N   UNL A   1      40.007  22.646  26.286  1.00  0.00    -0.352 N 
ATOM     32  C   UNL A   1      40.787  23.746  26.614  1.00  0.00     0.251 C 
ATOM     33  H   UNL A   1      40.477  21.783  26.241  1.00  0.00     0.163 HD
ATOM     34  O   UNL A   1      41.987  23.658  26.799  1.00  0.00    -0.269 OA
BRANCH  32  35
ATOM     35  C   UNL A   1      40.085  25.028  26.856  1.00  0.00     0.039 A 
ATOM     36  C   UNL A   1      40.603  26.167  26.232  1.00  0.00     0.014 A 
ATOM     37  C   UNL A   1      39.189  25.136  27.915  1.00  0.00     0.014 A 
ATOM     38  C   UNL A   1      40.419  27.408  26.834  1.00  0.00     0.010 A 
ATOM     39  C   UNL A   1      39.118  26.342  28.581  1.00  0.00     0.010 A 
ATOM     40  C   UNL A   1      39.781  27.467  28.073  1.00  0.00    -0.014 A 
BRANCH  40  41
ATOM     41  C   UNL A   1      39.878  28.622  28.960  1.00  0.00     0.031 A 
ATOM     42  C   UNL A   1      38.825  29.658  28.960  1.00  0.00     0.074 A 
ATOM     43  C   UNL A   1      40.920  28.753  29.811  1.00  0.00     0.049 A 
ATOM     44  N   UNL A   1      39.028  30.898  29.258  1.00  0.00    -0.248 NA
ATOM     45  C   UNL A   1      37.451  29.381  28.565  1.00  0.00     0.031 C 
ATOM     46  C   UNL A   1      41.036  29.690  30.925  1.00  0.00     0.029 A 
ATOM     47  N   UNL A   1      42.192  28.210  29.686  1.00  0.00    -0.354 N 
ATOM     48  C   UNL A   1      37.798  31.499  29.392  1.00  0.00     0.074 A 
ATOM     49  C   UNL A   1      36.856  30.535  28.871  1.00  0.00     0.031 C 
ATOM     50  C   UNL A   1      42.333  29.844  31.233  1.00  0.00     0.029 A 
ATOM     51  C   UNL A   1      43.104  29.122  30.237  1.00  0.00     0.049 A 
ATOM     52  H   UNL A   1      42.415  27.339  29.284  1.00  0.00     0.167 HD
ATOM     53  C   UNL A   1      37.690  32.678  30.070  1.00  0.00     0.034 A 
ATOM     54  C   UNL A   1      44.125  29.649  29.499  1.00  0.00     0.034 A 
ATOM     55  C   UNL A   1      38.990  33.156  30.540  1.00  0.00     0.049 A 
ATOM     56  C   UNL A   1      44.095  31.151  29.405  1.00  0.00     0.074 A 
ATOM     57  C   UNL A   1      39.609  33.100  31.778  1.00  0.00     0.029 A 
ATOM     58  N   UNL A   1      39.961  33.560  29.631  1.00  0.00    -0.354 N 
ATOM     59  N   UNL A   1      43.044  31.877  29.665  1.00  0.00    -0.248 NA
ATOM     60  C   UNL A   1      45.239  31.950  28.980  1.00  0.00     0.031 C 
ATOM     61  C   UNL A   1      40.971  33.448  31.606  1.00  0.00     0.029 A 
ATOM     62  C   UNL A   1      41.178  33.734  30.267  1.00  0.00     0.049 A 
ATOM     63  H   UNL A   1      39.807  33.703  28.670  1.00  0.00     0.167 HD
ATOM     64  C   UNL A   1      43.325  33.195  29.412  1.00  0.00     0.074 A 
ATOM     65  C   UNL A   1      44.723  33.191  29.020  1.00  0.00     0.031 C 
ATOM     66  C   UNL A   1      42.362  34.160  29.532  1.00  0.00     0.034 A 
BRANCH  53  67
ATOM     67  C   UNL A   1      36.379  33.224  30.601  1.00  0.00     0.023 A 
ATOM     68  C   UNL A   1      35.545  33.964  29.736  1.00  0.00     0.031 A 
ATOM     69  C   UNL A   1      35.914  33.106  31.925  1.00  0.00     0.131 A 
ATOM     70  C   UNL A   1      34.407  34.641  30.207  1.00  0.00     0.055 A 
ATOM     71  C   UNL A   1      34.818  33.831  32.411  1.00  0.00     0.041 A 
ATOM     72  F   UNL A   1      36.463  32.243  32.789  1.00  0.00    -0.206 F 
ATOM     73  C   UNL A   1      34.066  34.619  31.556  1.00  0.00     0.022 A 
BRANCH  70  74
ATOM     74  S   UNL A   1      33.373  35.548  29.025  1.00  0.00     0.124 S 
ATOM     75  O   UNL A   1      34.366  36.161  28.150  1.00  0.00    -0.237 OA
ATOM     76  O   UNL A   1      32.565  34.482  28.442  1.00  0.00    -0.237 OA
ATOM     77  O   UNL A   1      32.635  36.484  29.872  1.00  0.00    -0.744 OA
ENDBRANCH  70  74
ENDBRANCH  53  67
BRANCH  54  78
ATOM     78  C   UNL A   1      44.607  28.739  28.427  1.00  0.00     0.023 A 
ATOM     79  C   UNL A   1      45.414  27.662  28.833  1.00  0.00     0.031 A 
ATOM     80  C   UNL A   1      43.975  28.660  27.178  1.00  0.00     0.131 A 
ATOM     81  C   UNL A   1      45.412  26.473  28.097  1.00  0.00     0.055 A 
ATOM     82  C   UNL A   1      44.047  27.495  26.403  1.00  0.00     0.041 A 
ATOM     83  F   UNL A   1      43.176  29.647  26.751  1.00  0.00    -0.206 F 
ATOM     84  C   UNL A   1      44.725  26.377  26.886  1.00  0.00     0.022 A 
BRANCH  81  85
ATOM     85  S   UNL A   1      46.095  24.992  28.882  1.00  0.00     0.124 S 
ATOM     86  O   UNL A   1      45.306  23.944  28.243  1.00  0.00    -0.237 OA
ATOM     87  O   UNL A   1      47.507  25.056  28.506  1.00  0.00    -0.237 OA
ATOM     88  O   UNL A   1      45.837  25.211  30.303  1.00  0.00    -0.744 OA
ENDBRANCH  81  85
ENDBRANCH  54  78
BRANCH  66  89
ATOM     89  C   UNL A   1      42.474  35.598  29.063  1.00  0.00     0.023 A 
ATOM     90  C   UNL A   1      43.293  36.555  29.681  1.00  0.00     0.031 A 
ATOM     91  C   UNL A   1      41.788  36.046  27.907  1.00  0.00     0.131 A 
ATOM     92  C   UNL A   1      43.341  37.886  29.226  1.00  0.00     0.055 A 
ATOM     93  C   UNL A   1      41.895  37.349  27.410  1.00  0.00     0.041 A 
ATOM     94  F   UNL A   1      40.991  35.235  27.197  1.00  0.00    -0.206 F 
ATOM     95  C   UNL A   1      42.662  38.287  28.081  1.00  0.00     0.022 A 
BRANCH  92  96
ATOM     96  S   UNL A   1      44.265  39.092  30.212  1.00  0.00     0.124 S 
ATOM     97  O   UNL A   1      43.852  40.356  29.609  1.00  0.00    -0.237 OA
ATOM     98  O   UNL A   1      43.767  38.842  31.561  1.00  0.00    -0.237 OA
ATOM     99  O   UNL A   1      45.662  38.725  29.987  1.00  0.00    -0.744 OA
ENDBRANCH  92  96
ENDBRANCH  66  89
ENDBRANCH  40  41
ENDBRANCH  32  35
ENDBRANCH  30  31
ENDBRANCH   1  30
TORSDOF 16
ENDMDL
