MODEL 1
REMARK VINA RESULT:     -11.7      0.000      0.000
REMARK SMILES CC(C)(C(=O)NCCCNC(=O)c1ccc(-c2c3nc(c(-c4cc(S(=O)(=O)[O-])ccc4F)c4ccc([nH]4)c(-c4cc(S(=O)(=O)[O-])ccc4F)c4nc(c(-c5cc(S(=O)(=O)[O-])ccc5F)c5ccc2[nH]5)C=C4)C=C3)cc1)c1ccc(C(=O)CCCCl)cc1
REMARK SMILES IDX 7 1 6 2 4 3 5 4 2 6 1 7 3 8 76 9 77 10 87 11 78 12 86 13
REMARK SMILES IDX 79 14 80 15 81 16 82 17 83 18 84 19 85 20 8 21 9 22 10 23
REMARK SMILES IDX 11 24 12 26 13 27 14 28 75 29 15 30 74 31 16 32 17 33 18 34
REMARK SMILES IDX 68 35 19 36 73 37 67 38 69 39 20 40 72 41 66 42 65 43 21 45
REMARK SMILES IDX 53 46 33 47 52 48 34 49 37 50 51 51 70 52 35 53 36 54 50 56
REMARK SMILES IDX 71 57 38 58 22 59 23 60 31 61 24 62 30 63 32 64 29 65 25 66
REMARK SMILES IDX 26 67 27 68 28 69 54 70 55 71 63 72 56 73 62 74 64 75 61 76
REMARK SMILES IDX 57 77 58 78 59 79 60 80 39 81 40 82 48 83 41 84 47 85 49 86
REMARK SMILES IDX 46 87 42 88 43 89 44 90 45 91
REMARK H PARENT 6 5 10 25 69 44 37 55
REMARK Flexibility Score: inf
ROOT
ATOM      1  C   UNL A   1      31.233  27.588  26.707  1.00  0.00     0.117 C 
ENDROOT
BRANCH   1   2
ATOM      2  N   UNL A   1      31.580  26.195  26.904  1.00  0.00    -0.355 N 
ATOM      3  C   UNL A   1      31.836  25.170  26.051  1.00  0.00     0.230 C 
ATOM      4  O   UNL A   1      31.950  24.065  26.594  1.00  0.00    -0.274 OA
ATOM      5  H   UNL A   1      31.645  25.939  27.852  1.00  0.00     0.163 HD
BRANCH   3   6
ATOM      6  C   UNL A   1      32.001  25.359  24.515  1.00  0.00     0.068 C 
ATOM      7  C   UNL A   1      33.347  26.045  24.205  1.00  0.00     0.026 C 
ATOM      8  C   UNL A   1      31.964  23.994  23.781  1.00  0.00     0.026 C 
BRANCH   6   9
ATOM      9  C   UNL A   1      30.797  26.185  23.978  1.00  0.00    -0.033 A 
ATOM     10  C   UNL A   1      29.459  25.873  24.267  1.00  0.00     0.005 A 
ATOM     11  C   UNL A   1      31.041  27.302  23.156  1.00  0.00     0.005 A 
ATOM     12  C   UNL A   1      28.421  26.717  23.859  1.00  0.00     0.012 A 
ATOM     13  C   UNL A   1      30.006  28.133  22.729  1.00  0.00     0.012 A 
ATOM     14  C   UNL A   1      28.699  27.880  23.137  1.00  0.00     0.018 A 
BRANCH  14  15
ATOM     15  C   UNL A   1      27.596  28.852  22.903  1.00  0.00     0.162 C 
ATOM     16  O   UNL A   1      26.532  28.720  23.505  1.00  0.00    -0.294 OA
BRANCH  15  17
ATOM     17  C   UNL A   1      27.837  30.056  22.008  1.00  0.00     0.082 C 
BRANCH  17  18
ATOM     18  C   UNL A   1      28.017  31.356  22.797  1.00  0.00     0.024 C 
BRANCH  18  19
ATOM     19  C   UNL A   1      28.746  32.492  22.083  1.00  0.00     0.110 C 
ATOM     20  Cl  UNL A   1      29.156  33.825  23.189  1.00  0.00    -0.127 Cl
ENDBRANCH  18  19
ENDBRANCH  17  18
ENDBRANCH  15  17
ENDBRANCH  14  15
ENDBRANCH   6   9
ENDBRANCH   3   6
ENDBRANCH   1   2
BRANCH   1  21
ATOM     21  C   UNL A   1      32.309  28.516  27.255  1.00  0.00     0.042 C 
BRANCH  21  22
ATOM     22  C   UNL A   1      32.917  29.428  26.197  1.00  0.00     0.118 C 
BRANCH  22  23
ATOM     23  N   UNL A   1      32.621  30.833  26.440  1.00  0.00    -0.352 N 
ATOM     24  C   UNL A   1      33.256  31.733  27.266  1.00  0.00     0.251 C 
ATOM     25  H   UNL A   1      31.852  31.193  25.941  1.00  0.00     0.163 HD
ATOM     26  O   UNL A   1      32.729  32.807  27.516  1.00  0.00    -0.269 OA
BRANCH  24  27
ATOM     27  C   UNL A   1      34.563  31.375  27.858  1.00  0.00     0.039 A 
ATOM     28  C   UNL A   1      35.559  32.348  27.961  1.00  0.00     0.014 A 
ATOM     29  C   UNL A   1      34.790  30.081  28.329  1.00  0.00     0.014 A 
ATOM     30  C   UNL A   1      36.757  32.041  28.611  1.00  0.00     0.010 A 
ATOM     31  C   UNL A   1      35.942  29.805  29.053  1.00  0.00     0.010 A 
ATOM     32  C   UNL A   1      36.940  30.781  29.202  1.00  0.00    -0.014 A 
BRANCH  32  33
ATOM     33  C   UNL A   1      38.165  30.434  29.966  1.00  0.00     0.031 A 
ATOM     34  C   UNL A   1      39.142  29.447  29.384  1.00  0.00     0.074 A 
ATOM     35  C   UNL A   1      38.346  30.915  31.212  1.00  0.00     0.049 A 
ATOM     36  N   UNL A   1      40.164  28.859  29.950  1.00  0.00    -0.248 NA
ATOM     37  C   UNL A   1      38.905  29.038  27.991  1.00  0.00     0.031 C 
ATOM     38  C   UNL A   1      37.455  31.858  31.893  1.00  0.00     0.029 A 
ATOM     39  N   UNL A   1      39.325  30.659  32.139  1.00  0.00    -0.354 N 
ATOM     40  C   UNL A   1      40.675  27.989  28.992  1.00  0.00     0.074 A 
ATOM     41  C   UNL A   1      39.812  28.086  27.833  1.00  0.00     0.031 C 
ATOM     42  C   UNL A   1      37.937  32.110  33.120  1.00  0.00     0.029 A 
ATOM     43  C   UNL A   1      39.134  31.305  33.339  1.00  0.00     0.049 A 
ATOM     44  H   UNL A   1      40.093  30.069  31.961  1.00  0.00     0.167 HD
ATOM     45  C   UNL A   1      41.774  27.197  29.065  1.00  0.00     0.034 A 
ATOM     46  C   UNL A   1      39.829  31.236  34.492  1.00  0.00     0.034 A 
ATOM     47  C   UNL A   1      42.632  27.133  30.222  1.00  0.00     0.049 A 
ATOM     48  C   UNL A   1      41.035  30.332  34.561  1.00  0.00     0.074 A 
ATOM     49  C   UNL A   1      43.797  26.404  30.390  1.00  0.00     0.029 A 
ATOM     50  N   UNL A   1      42.419  27.822  31.409  1.00  0.00    -0.354 N 
ATOM     51  N   UNL A   1      41.521  29.533  33.639  1.00  0.00    -0.248 NA
ATOM     52  C   UNL A   1      41.791  30.325  35.820  1.00  0.00     0.031 C 
ATOM     53  C   UNL A   1      44.251  26.602  31.699  1.00  0.00     0.029 A 
ATOM     54  C   UNL A   1      43.417  27.518  32.321  1.00  0.00     0.049 A 
ATOM     55  H   UNL A   1      41.669  28.436  31.578  1.00  0.00     0.167 HD
ATOM     56  C   UNL A   1      42.666  28.964  34.194  1.00  0.00     0.074 A 
ATOM     57  C   UNL A   1      42.794  29.510  35.528  1.00  0.00     0.031 C 
ATOM     58  C   UNL A   1      43.536  28.079  33.647  1.00  0.00     0.034 A 
BRANCH  45  59
ATOM     59  C   UNL A   1      42.083  26.325  27.872  1.00  0.00     0.023 A 
ATOM     60  C   UNL A   1      41.606  25.005  27.777  1.00  0.00     0.031 A 
ATOM     61  C   UNL A   1      42.896  26.805  26.829  1.00  0.00     0.131 A 
ATOM     62  C   UNL A   1      42.013  24.187  26.712  1.00  0.00     0.055 A 
ATOM     63  C   UNL A   1      43.223  26.013  25.726  1.00  0.00     0.041 A 
ATOM     64  F   UNL A   1      43.399  28.048  26.872  1.00  0.00    -0.206 F 
ATOM     65  C   UNL A   1      42.795  24.690  25.671  1.00  0.00     0.022 A 
BRANCH  62  66
ATOM     66  S   UNL A   1      41.631  22.416  26.791  1.00  0.00     0.124 S 
ATOM     67  O   UNL A   1      42.521  21.971  27.861  1.00  0.00    -0.237 OA
ATOM     68  O   UNL A   1      40.207  22.413  27.101  1.00  0.00    -0.237 OA
ATOM     69  O   UNL A   1      41.981  21.931  25.457  1.00  0.00    -0.744 OA
ENDBRANCH  62  66
ENDBRANCH  45  59
BRANCH  46  70
ATOM     70  C   UNL A   1      39.403  32.029  35.681  1.00  0.00     0.023 A 
ATOM     71  C   UNL A   1      38.632  31.443  36.699  1.00  0.00     0.031 A 
ATOM     72  C   UNL A   1      39.723  33.393  35.800  1.00  0.00     0.131 A 
ATOM     73  C   UNL A   1      38.167  32.228  37.765  1.00  0.00     0.055 A 
ATOM     74  C   UNL A   1      39.303  34.156  36.891  1.00  0.00     0.041 A 
ATOM     75  F   UNL A   1      40.462  34.002  34.859  1.00  0.00    -0.206 F 
ATOM     76  C   UNL A   1      38.509  33.577  37.876  1.00  0.00     0.022 A 
BRANCH  73  77
ATOM     77  S   UNL A   1      37.032  31.477  38.963  1.00  0.00     0.124 S 
ATOM     78  O   UNL A   1      35.878  32.365  38.874  1.00  0.00    -0.237 OA
ATOM     79  O   UNL A   1      36.855  30.137  38.414  1.00  0.00    -0.237 OA
ATOM     80  O   UNL A   1      37.773  31.540  40.220  1.00  0.00    -0.744 OA
ENDBRANCH  73  77
ENDBRANCH  46  70
BRANCH  58  81
ATOM     81  C   UNL A   1      44.749  27.706  34.462  1.00  0.00     0.023 A 
ATOM     82  C   UNL A   1      44.768  26.581  35.302  1.00  0.00     0.031 A 
ATOM     83  C   UNL A   1      45.914  28.491  34.376  1.00  0.00     0.131 A 
ATOM     84  C   UNL A   1      45.917  26.295  36.057  1.00  0.00     0.055 A 
ATOM     85  C   UNL A   1      47.070  28.170  35.086  1.00  0.00     0.041 A 
ATOM     86  F   UNL A   1      45.948  29.579  33.589  1.00  0.00    -0.206 F 
ATOM     87  C   UNL A   1      47.073  27.071  35.939  1.00  0.00     0.022 A 
BRANCH  84  88
ATOM     88  S   UNL A   1      45.860  24.932  37.252  1.00  0.00     0.124 S 
ATOM     89  O   UNL A   1      47.241  24.463  37.245  1.00  0.00    -0.237 OA
ATOM     90  O   UNL A   1      45.421  25.604  38.471  1.00  0.00    -0.237 OA
ATOM     91  O   UNL A   1      44.887  24.007  36.673  1.00  0.00    -0.744 OA
ENDBRANCH  84  88
ENDBRANCH  58  81
ENDBRANCH  32  33
ENDBRANCH  24  27
ENDBRANCH  22  23
ENDBRANCH  21  22
ENDBRANCH   1  21
TORSDOF 18
ENDMDL
MODEL 2
REMARK VINA RESULT:     -11.6      1.828      7.787
REMARK SMILES CC(C)(C(=O)NCCCNC(=O)c1ccc(-c2c3nc(c(-c4cc(S(=O)(=O)[O-])ccc4F)c4ccc([nH]4)c(-c4cc(S(=O)(=O)[O-])ccc4F)c4nc(c(-c5cc(S(=O)(=O)[O-])ccc5F)c5ccc2[nH]5)C=C4)C=C3)cc1)c1ccc(C(=O)CCCCl)cc1
REMARK SMILES IDX 7 1 6 2 4 3 5 4 2 6 1 7 3 8 76 9 77 10 87 11 78 12 86 13
REMARK SMILES IDX 79 14 80 15 81 16 82 17 83 18 84 19 85 20 8 21 9 22 10 23
REMARK SMILES IDX 11 24 12 26 13 27 14 28 75 29 15 30 74 31 16 32 17 33 18 34
REMARK SMILES IDX 68 35 19 36 73 37 67 38 69 39 20 40 72 41 66 42 65 43 21 45
REMARK SMILES IDX 53 46 33 47 52 48 34 49 37 50 51 51 70 52 35 53 36 54 50 56
REMARK SMILES IDX 71 57 38 58 22 59 23 60 31 61 24 62 30 63 32 64 29 65 25 66
REMARK SMILES IDX 26 67 27 68 28 69 54 70 55 71 63 72 56 73 62 74 64 75 61 76
REMARK SMILES IDX 57 77 58 78 59 79 60 80 39 81 40 82 48 83 41 84 47 85 49 86
REMARK SMILES IDX 46 87 42 88 43 89 44 90 45 91
REMARK H PARENT 6 5 10 25 69 44 37 55
REMARK Flexibility Score: inf
ROOT
ATOM      1  C   UNL A   1      31.468  28.051  26.753  1.00  0.00     0.117 C 
ENDROOT
BRANCH   1   2
ATOM      2  N   UNL A   1      31.300  26.627  26.967  1.00  0.00    -0.355 N 
ATOM      3  C   UNL A   1      31.234  25.561  26.128  1.00  0.00     0.230 C 
ATOM      4  O   UNL A   1      30.926  24.495  26.674  1.00  0.00    -0.274 OA
ATOM      5  H   UNL A   1      31.217  26.382  27.916  1.00  0.00     0.163 HD
BRANCH   3   6
ATOM      6  C   UNL A   1      31.543  25.652  24.605  1.00  0.00     0.068 C 
ATOM      7  C   UNL A   1      32.992  26.132  24.385  1.00  0.00     0.026 C 
ATOM      8  C   UNL A   1      31.371  24.272  23.921  1.00  0.00     0.026 C 
BRANCH   6   9
ATOM      9  C   UNL A   1      30.513  26.610  23.940  1.00  0.00    -0.033 A 
ATOM     10  C   UNL A   1      29.123  26.441  24.048  1.00  0.00     0.005 A 
ATOM     11  C   UNL A   1      30.977  27.704  23.185  1.00  0.00     0.005 A 
ATOM     12  C   UNL A   1      28.241  27.396  23.532  1.00  0.00     0.012 A 
ATOM     13  C   UNL A   1      30.100  28.647  22.651  1.00  0.00     0.012 A 
ATOM     14  C   UNL A   1      28.732  28.531  22.882  1.00  0.00     0.018 A 
BRANCH  14  15
ATOM     15  C   UNL A   1      27.777  29.619  22.534  1.00  0.00     0.162 C 
ATOM     16  O   UNL A   1      26.856  29.889  23.303  1.00  0.00    -0.294 OA
BRANCH  15  17
ATOM     17  C   UNL A   1      28.017  30.454  21.287  1.00  0.00     0.082 C 
BRANCH  17  18
ATOM     18  C   UNL A   1      28.484  31.878  21.608  1.00  0.00     0.024 C 
BRANCH  18  19
ATOM     19  C   UNL A   1      28.669  32.218  23.085  1.00  0.00     0.110 C 
ATOM     20  Cl  UNL A   1      29.378  33.834  23.317  1.00  0.00    -0.127 Cl
ENDBRANCH  18  19
ENDBRANCH  17  18
ENDBRANCH  15  17
ENDBRANCH  14  15
ENDBRANCH   6   9
ENDBRANCH   3   6
ENDBRANCH   1   2
BRANCH   1  21
ATOM     21  C   UNL A   1      32.799  28.545  27.305  1.00  0.00     0.042 C 
BRANCH  21  22
ATOM     22  C   UNL A   1      33.564  29.434  26.331  1.00  0.00     0.118 C 
BRANCH  22  23
ATOM     23  N   UNL A   1      33.643  30.815  26.786  1.00  0.00    -0.352 N 
ATOM     24  C   UNL A   1      34.507  31.393  27.689  1.00  0.00     0.251 C 
ATOM     25  H   UNL A   1      32.980  31.426  26.390  1.00  0.00     0.163 HD
ATOM     26  O   UNL A   1      34.278  32.514  28.119  1.00  0.00    -0.269 OA
BRANCH  24  27
ATOM     27  C   UNL A   1      35.692  30.635  28.144  1.00  0.00     0.039 A 
ATOM     28  C   UNL A   1      36.889  30.743  27.434  1.00  0.00     0.014 A 
ATOM     29  C   UNL A   1      35.619  29.835  29.286  1.00  0.00     0.014 A 
ATOM     30  C   UNL A   1      38.037  30.110  27.917  1.00  0.00     0.010 A 
ATOM     31  C   UNL A   1      36.779  29.283  29.813  1.00  0.00     0.010 A 
ATOM     32  C   UNL A   1      38.001  29.412  29.134  1.00  0.00    -0.014 A 
BRANCH  32  33
ATOM     33  C   UNL A   1      39.211  28.786  29.725  1.00  0.00     0.031 A 
ATOM     34  C   UNL A   1      39.822  29.385  30.964  1.00  0.00     0.074 A 
ATOM     35  C   UNL A   1      39.816  27.757  29.098  1.00  0.00     0.049 A 
ATOM     36  N   UNL A   1      40.971  29.125  31.532  1.00  0.00    -0.248 NA
ATOM     37  C   UNL A   1      39.052  30.451  31.621  1.00  0.00     0.031 C 
ATOM     38  C   UNL A   1      39.333  27.107  27.877  1.00  0.00     0.029 A 
ATOM     39  N   UNL A   1      40.982  27.093  29.385  1.00  0.00    -0.354 N 
ATOM     40  C   UNL A   1      41.074  30.015  32.597  1.00  0.00     0.074 A 
ATOM     41  C   UNL A   1      39.898  30.858  32.555  1.00  0.00     0.031 C 
ATOM     42  C   UNL A   1      40.187  26.132  27.531  1.00  0.00     0.029 A 
ATOM     43  C   UNL A   1      41.308  26.122  28.465  1.00  0.00     0.049 A 
ATOM     44  H   UNL A   1      41.534  27.291  30.177  1.00  0.00     0.167 HD
ATOM     45  C   UNL A   1      42.050  30.106  33.534  1.00  0.00     0.034 A 
ATOM     46  C   UNL A   1      42.398  25.334  28.371  1.00  0.00     0.034 A 
ATOM     47  C   UNL A   1      43.203  29.240  33.569  1.00  0.00     0.049 A 
ATOM     48  C   UNL A   1      43.483  25.467  29.410  1.00  0.00     0.074 A 
ATOM     49  C   UNL A   1      44.229  29.210  34.497  1.00  0.00     0.029 A 
ATOM     50  N   UNL A   1      43.485  28.252  32.634  1.00  0.00    -0.354 N 
ATOM     51  N   UNL A   1      43.556  26.296  30.426  1.00  0.00    -0.248 NA
ATOM     52  C   UNL A   1      44.629  24.555  29.296  1.00  0.00     0.031 C 
ATOM     53  C   UNL A   1      45.161  28.251  34.088  1.00  0.00     0.029 A 
ATOM     54  C   UNL A   1      44.678  27.624  32.950  1.00  0.00     0.049 A 
ATOM     55  H   UNL A   1      42.918  28.032  31.859  1.00  0.00     0.167 HD
ATOM     56  C   UNL A   1      44.733  25.972  31.097  1.00  0.00     0.074 A 
ATOM     57  C   UNL A   1      45.336  24.875  30.370  1.00  0.00     0.031 C 
ATOM     58  C   UNL A   1      45.262  26.524  32.218  1.00  0.00     0.034 A 
BRANCH  45  59
ATOM     59  C   UNL A   1      41.918  31.195  34.572  1.00  0.00     0.023 A 
ATOM     60  C   UNL A   1      40.882  31.188  35.523  1.00  0.00     0.031 A 
ATOM     61  C   UNL A   1      42.819  32.275  34.590  1.00  0.00     0.131 A 
ATOM     62  C   UNL A   1      40.722  32.277  36.393  1.00  0.00     0.055 A 
ATOM     63  C   UNL A   1      42.707  33.312  35.519  1.00  0.00     0.041 A 
ATOM     64  F   UNL A   1      43.815  32.350  33.694  1.00  0.00    -0.206 F 
ATOM     65  C   UNL A   1      41.643  33.326  36.417  1.00  0.00     0.022 A 
BRANCH  62  66
ATOM     66  S   UNL A   1      39.206  32.374  37.383  1.00  0.00     0.124 S 
ATOM     67  O   UNL A   1      38.525  31.140  36.998  1.00  0.00    -0.237 OA
ATOM     68  O   UNL A   1      39.721  32.420  38.746  1.00  0.00    -0.237 OA
ATOM     69  O   UNL A   1      38.568  33.602  36.914  1.00  0.00    -0.744 OA
ENDBRANCH  62  66
ENDBRANCH  45  59
BRANCH  46  70
ATOM     70  C   UNL A   1      42.531  24.360  27.250  1.00  0.00     0.023 A 
ATOM     71  C   UNL A   1      41.946  23.086  27.328  1.00  0.00     0.031 A 
ATOM     72  C   UNL A   1      43.280  24.671  26.101  1.00  0.00     0.131 A 
ATOM     73  C   UNL A   1      42.157  22.153  26.301  1.00  0.00     0.055 A 
ATOM     74  C   UNL A   1      43.442  23.758  25.057  1.00  0.00     0.041 A 
ATOM     75  F   UNL A   1      43.856  25.877  25.971  1.00  0.00    -0.206 F 
ATOM     76  C   UNL A   1      42.890  22.485  25.160  1.00  0.00     0.022 A 
BRANCH  73  77
ATOM     77  S   UNL A   1      41.533  20.465  26.520  1.00  0.00     0.124 S 
ATOM     78  O   UNL A   1      40.105  20.643  26.278  1.00  0.00    -0.237 OA
ATOM     79  O   UNL A   1      42.271  19.734  25.496  1.00  0.00    -0.237 OA
ATOM     80  O   UNL A   1      41.898  20.144  27.898  1.00  0.00    -0.744 OA
ENDBRANCH  73  77
ENDBRANCH  46  70
BRANCH  58  81
ATOM     81  C   UNL A   1      46.518  25.899  32.772  1.00  0.00     0.023 A 
ATOM     82  C   UNL A   1      46.481  24.840  33.694  1.00  0.00     0.031 A 
ATOM     83  C   UNL A   1      47.775  26.370  32.351  1.00  0.00     0.131 A 
ATOM     84  C   UNL A   1      47.681  24.313  34.196  1.00  0.00     0.055 A 
ATOM     85  C   UNL A   1      48.964  25.804  32.811  1.00  0.00     0.041 A 
ATOM     86  F   UNL A   1      47.866  27.382  31.472  1.00  0.00    -0.206 F 
ATOM     87  C   UNL A   1      48.921  24.775  33.746  1.00  0.00     0.022 A 
BRANCH  84  88
ATOM     88  S   UNL A   1      47.604  23.057  35.503  1.00  0.00     0.124 S 
ATOM     89  O   UNL A   1      48.058  21.861  34.802  1.00  0.00    -0.237 OA
ATOM     90  O   UNL A   1      48.519  23.593  36.506  1.00  0.00    -0.237 OA
ATOM     91  O   UNL A   1      46.195  23.051  35.892  1.00  0.00    -0.744 OA
ENDBRANCH  84  88
ENDBRANCH  58  81
ENDBRANCH  32  33
ENDBRANCH  24  27
ENDBRANCH  22  23
ENDBRANCH  21  22
ENDBRANCH   1  21
TORSDOF 18
ENDMDL
MODEL 3
REMARK VINA RESULT:     -11.4      5.447     10.177
REMARK SMILES CC(C)(C(=O)NCCCNC(=O)c1ccc(-c2c3nc(c(-c4cc(S(=O)(=O)[O-])ccc4F)c4ccc([nH]4)c(-c4cc(S(=O)(=O)[O-])ccc4F)c4nc(c(-c5cc(S(=O)(=O)[O-])ccc5F)c5ccc2[nH]5)C=C4)C=C3)cc1)c1ccc(C(=O)CCCCl)cc1
REMARK SMILES IDX 7 1 6 2 4 3 5 4 2 6 1 7 3 8 76 9 77 10 87 11 78 12 86 13
REMARK SMILES IDX 79 14 80 15 81 16 82 17 83 18 84 19 85 20 8 21 9 22 10 23
REMARK SMILES IDX 11 24 12 26 13 27 14 28 75 29 15 30 74 31 16 32 17 33 18 34
REMARK SMILES IDX 68 35 19 36 73 37 67 38 69 39 20 40 72 41 66 42 65 43 21 45
REMARK SMILES IDX 53 46 33 47 52 48 34 49 37 50 51 51 70 52 35 53 36 54 50 56
REMARK SMILES IDX 71 57 38 58 22 59 23 60 31 61 24 62 30 63 32 64 29 65 25 66
REMARK SMILES IDX 26 67 27 68 28 69 54 70 55 71 63 72 56 73 62 74 64 75 61 76
REMARK SMILES IDX 57 77 58 78 59 79 60 80 39 81 40 82 48 83 41 84 47 85 49 86
REMARK SMILES IDX 46 87 42 88 43 89 44 90 45 91
REMARK H PARENT 6 5 10 25 69 44 37 55
REMARK Flexibility Score: inf
ROOT
ATOM      1  C   UNL A   1      35.211  20.914  25.613  1.00  0.00     0.117 C 
ENDROOT
BRANCH   1   2
ATOM      2  N   UNL A   1      33.918  20.446  25.157  1.00  0.00    -0.355 N 
ATOM      3  C   UNL A   1      32.651  20.909  25.315  1.00  0.00     0.230 C 
ATOM      4  O   UNL A   1      31.769  20.147  24.903  1.00  0.00    -0.274 OA
ATOM      5  H   UNL A   1      33.967  19.621  24.622  1.00  0.00     0.163 HD
BRANCH   3   6
ATOM      6  C   UNL A   1      32.322  22.297  25.938  1.00  0.00     0.068 C 
ATOM      7  C   UNL A   1      30.812  22.402  26.234  1.00  0.00     0.026 C 
ATOM      8  C   UNL A   1      33.098  22.508  27.263  1.00  0.00     0.026 C 
BRANCH   6   9
ATOM      9  C   UNL A   1      32.796  23.412  24.963  1.00  0.00    -0.033 A 
ATOM     10  C   UNL A   1      32.477  23.425  23.595  1.00  0.00     0.005 A 
ATOM     11  C   UNL A   1      33.588  24.467  25.455  1.00  0.00     0.005 A 
ATOM     12  C   UNL A   1      32.826  24.511  22.786  1.00  0.00     0.012 A 
ATOM     13  C   UNL A   1      33.957  25.541  24.646  1.00  0.00     0.012 A 
ATOM     14  C   UNL A   1      33.518  25.599  23.326  1.00  0.00     0.018 A 
BRANCH  14  15
ATOM     15  C   UNL A   1      33.687  26.819  22.489  1.00  0.00     0.162 C 
ATOM     16  O   UNL A   1      33.713  26.716  21.263  1.00  0.00    -0.294 OA
BRANCH  15  17
ATOM     17  C   UNL A   1      33.716  28.184  23.155  1.00  0.00     0.082 C 
BRANCH  17  18
ATOM     18  C   UNL A   1      32.326  28.819  23.267  1.00  0.00     0.024 C 
BRANCH  18  19
ATOM     19  C   UNL A   1      31.138  27.860  23.278  1.00  0.00     0.110 C 
ATOM     20  Cl  UNL A   1      30.758  27.283  24.918  1.00  0.00    -0.127 Cl
ENDBRANCH  18  19
ENDBRANCH  17  18
ENDBRANCH  15  17
ENDBRANCH  14  15
ENDBRANCH   6   9
ENDBRANCH   3   6
ENDBRANCH   1   2
BRANCH   1  21
ATOM     21  C   UNL A   1      35.931  21.710  24.531  1.00  0.00     0.042 C 
BRANCH  21  22
ATOM     22  C   UNL A   1      37.354  22.100  24.913  1.00  0.00     0.118 C 
BRANCH  22  23
ATOM     23  N   UNL A   1      38.126  20.966  25.403  1.00  0.00    -0.352 N 
ATOM     24  C   UNL A   1      39.322  20.949  26.083  1.00  0.00     0.251 C 
ATOM     25  H   UNL A   1      37.735  20.081  25.220  1.00  0.00     0.163 HD
ATOM     26  O   UNL A   1      39.935  19.899  26.212  1.00  0.00    -0.269 OA
BRANCH  24  27
ATOM     27  C   UNL A   1      39.862  22.212  26.631  1.00  0.00     0.039 A 
ATOM     28  C   UNL A   1      40.810  22.166  27.655  1.00  0.00     0.014 A 
ATOM     29  C   UNL A   1      39.442  23.439  26.113  1.00  0.00     0.014 A 
ATOM     30  C   UNL A   1      41.397  23.352  28.105  1.00  0.00     0.010 A 
ATOM     31  C   UNL A   1      40.091  24.605  26.497  1.00  0.00     0.010 A 
ATOM     32  C   UNL A   1      41.075  24.575  27.498  1.00  0.00    -0.014 A 
BRANCH  32  33
ATOM     33  C   UNL A   1      41.726  25.851  27.892  1.00  0.00     0.031 A 
ATOM     34  C   UNL A   1      40.923  26.892  28.626  1.00  0.00     0.074 A 
ATOM     35  C   UNL A   1      42.988  26.116  27.502  1.00  0.00     0.049 A 
ATOM     36  N   UNL A   1      41.225  28.136  28.894  1.00  0.00    -0.248 NA
ATOM     37  C   UNL A   1      39.585  26.485  29.079  1.00  0.00     0.031 C 
ATOM     38  C   UNL A   1      43.857  25.196  26.763  1.00  0.00     0.029 A 
ATOM     39  N   UNL A   1      43.754  27.246  27.649  1.00  0.00    -0.354 N 
ATOM     40  C   UNL A   1      40.103  28.669  29.521  1.00  0.00     0.074 A 
ATOM     41  C   UNL A   1      39.097  27.628  29.537  1.00  0.00     0.031 C 
ATOM     42  C   UNL A   1      45.037  25.793  26.536  1.00  0.00     0.029 A 
ATOM     43  C   UNL A   1      44.993  27.156  27.056  1.00  0.00     0.049 A 
ATOM     44  H   UNL A   1      43.445  28.045  28.134  1.00  0.00     0.167 HD
ATOM     45  C   UNL A   1      39.935  29.906  30.051  1.00  0.00     0.034 A 
ATOM     46  C   UNL A   1      45.970  28.075  26.924  1.00  0.00     0.034 A 
ATOM     47  C   UNL A   1      40.960  30.921  30.043  1.00  0.00     0.049 A 
ATOM     48  C   UNL A   1      45.755  29.453  27.500  1.00  0.00     0.074 A 
ATOM     49  C   UNL A   1      40.918  32.191  30.591  1.00  0.00     0.029 A 
ATOM     50  N   UNL A   1      42.211  30.783  29.455  1.00  0.00    -0.354 N 
ATOM     51  N   UNL A   1      44.698  29.936  28.112  1.00  0.00    -0.248 NA
ATOM     52  C   UNL A   1      46.865  30.407  27.376  1.00  0.00     0.031 C 
ATOM     53  C   UNL A   1      42.116  32.842  30.280  1.00  0.00     0.029 A 
ATOM     54  C   UNL A   1      42.940  31.952  29.608  1.00  0.00     0.049 A 
ATOM     55  H   UNL A   1      42.533  29.973  28.997  1.00  0.00     0.167 HD
ATOM     56  C   UNL A   1      45.035  31.235  28.485  1.00  0.00     0.074 A 
ATOM     57  C   UNL A   1      46.390  31.459  28.028  1.00  0.00     0.031 C 
ATOM     58  C   UNL A   1      44.295  32.155  29.153  1.00  0.00     0.034 A 
BRANCH  45  59
ATOM     59  C   UNL A   1      38.588  30.227  30.654  1.00  0.00     0.023 A 
ATOM     60  C   UNL A   1      37.568  30.837  29.901  1.00  0.00     0.031 A 
ATOM     61  C   UNL A   1      38.330  29.953  32.009  1.00  0.00     0.131 A 
ATOM     62  C   UNL A   1      36.375  31.228  30.526  1.00  0.00     0.055 A 
ATOM     63  C   UNL A   1      37.105  30.264  32.602  1.00  0.00     0.041 A 
ATOM     64  F   UNL A   1      39.271  29.393  32.784  1.00  0.00    -0.206 F 
ATOM     65  C   UNL A   1      36.124  30.921  31.865  1.00  0.00     0.022 A 
BRANCH  62  66
ATOM     66  S   UNL A   1      35.222  32.280  29.603  1.00  0.00     0.124 S 
ATOM     67  O   UNL A   1      34.236  32.607  30.631  1.00  0.00    -0.237 OA
ATOM     68  O   UNL A   1      36.076  33.377  29.165  1.00  0.00    -0.237 OA
ATOM     69  O   UNL A   1      34.735  31.404  28.539  1.00  0.00    -0.744 OA
ENDBRANCH  62  66
ENDBRANCH  45  59
BRANCH  46  70
ATOM     70  C   UNL A   1      47.234  27.738  26.207  1.00  0.00     0.023 A 
ATOM     71  C   UNL A   1      47.346  27.923  24.820  1.00  0.00     0.031 A 
ATOM     72  C   UNL A   1      48.333  27.189  26.890  1.00  0.00     0.131 A 
ATOM     73  C   UNL A   1      48.512  27.519  24.152  1.00  0.00     0.055 A 
ATOM     74  C   UNL A   1      49.512  26.838  26.228  1.00  0.00     0.041 A 
ATOM     75  F   UNL A   1      48.282  26.996  28.218  1.00  0.00    -0.206 F 
ATOM     76  C   UNL A   1      49.601  26.990  24.848  1.00  0.00     0.022 A 
BRANCH  73  77
ATOM     77  S   UNL A   1      48.550  27.612  22.341  1.00  0.00     0.124 S 
ATOM     78  O   UNL A   1      48.617  26.202  21.973  1.00  0.00    -0.237 OA
ATOM     79  O   UNL A   1      47.294  28.293  22.047  1.00  0.00    -0.237 OA
ATOM     80  O   UNL A   1      49.757  28.387  22.066  1.00  0.00    -0.744 OA
ENDBRANCH  73  77
ENDBRANCH  46  70
BRANCH  58  81
ATOM     81  C   UNL A   1      44.964  33.462  29.501  1.00  0.00     0.023 A 
ATOM     82  C   UNL A   1      44.890  34.586  28.663  1.00  0.00     0.031 A 
ATOM     83  C   UNL A   1      45.676  33.580  30.709  1.00  0.00     0.131 A 
ATOM     84  C   UNL A   1      45.553  35.769  29.025  1.00  0.00     0.055 A 
ATOM     85  C   UNL A   1      46.285  34.775  31.090  1.00  0.00     0.041 A 
ATOM     86  F   UNL A   1      45.779  32.534  31.546  1.00  0.00    -0.206 F 
ATOM     87  C   UNL A   1      46.234  35.876  30.241  1.00  0.00     0.022 A 
BRANCH  84  88
ATOM     88  S   UNL A   1      45.575  37.152  27.851  1.00  0.00     0.124 S 
ATOM     89  O   UNL A   1      44.200  37.634  27.923  1.00  0.00    -0.237 OA
ATOM     90  O   UNL A   1      46.589  38.032  28.423  1.00  0.00    -0.237 OA
ATOM     91  O   UNL A   1      45.946  36.523  26.585  1.00  0.00    -0.744 OA
ENDBRANCH  84  88
ENDBRANCH  58  81
ENDBRANCH  32  33
ENDBRANCH  24  27
ENDBRANCH  22  23
ENDBRANCH  21  22
ENDBRANCH   1  21
TORSDOF 18
ENDMDL
