MODEL 1
REMARK VINA RESULT:     -13.0      0.000      0.000
REMARK SMILES CN1C(=O)C[C@@H](C(=O)NCCCNC(=O)c2ccc(-c3c4nc(c(-c5cc(S(=O)(=O)[O-])ccc5F)c5ccc([nH]5)c(-c5cc(S(=O)(=O)[O-])ccc5F)c5nc(c(-c6cc(S(=O)(=O)[O-])ccc6F)c6ccc3[nH]6)C=C5)C=C4)cc2)C12CCN(c1ccc(Cl)cn1)CC2
REMARK SMILES IDX 12 1 11 2 10 3 9 4 7 5 8 6 6 8 1 9 2 10 3 11 79 12 4 13 5 14
REMARK SMILES IDX 80 15 91 16 81 17 90 18 82 19 83 20 84 21 89 22 85 23 88 24
REMARK SMILES IDX 86 25 87 26 13 27 14 28 15 30 16 31 17 32 78 33 18 34 77 35
REMARK SMILES IDX 19 36 20 37 21 38 71 39 22 40 76 41 70 42 72 43 23 44 75 45
REMARK SMILES IDX 69 46 68 47 24 49 56 50 36 51 55 52 37 53 40 54 54 55 73 56
REMARK SMILES IDX 38 57 39 58 53 60 74 61 41 62 25 63 26 64 34 65 27 66 33 67
REMARK SMILES IDX 35 68 32 69 28 70 29 71 30 72 31 73 57 74 58 75 66 76 59 77
REMARK SMILES IDX 65 78 67 79 64 80 60 81 61 82 62 83 63 84 42 85 43 86 51 87
REMARK SMILES IDX 44 88 50 89 52 90 49 91 45 92 46 93 47 94 48 95
REMARK H PARENT 9 7 13 29 72 48 40 59
REMARK Flexibility Score: inf
ROOT
ATOM      1  C   UNL A   1      37.273  22.320  25.266  1.00  0.00     0.118 C 
ENDROOT
BRANCH   1   2
ATOM      2  C   UNL A   1      36.216  21.620  24.421  1.00  0.00     0.042 C 
BRANCH   2   3
ATOM      3  C   UNL A   1      35.301  20.698  25.223  1.00  0.00     0.117 C 
BRANCH   3   4
ATOM      4  N   UNL A   1      34.798  21.293  26.452  1.00  0.00    -0.356 N 
ATOM      5  C   UNL A   1      33.611  21.830  26.819  1.00  0.00     0.226 C 
ATOM      6  O   UNL A   1      33.520  22.182  28.002  1.00  0.00    -0.275 OA
ATOM      7  H   UNL A   1      35.467  21.307  27.174  1.00  0.00     0.163 HD
BRANCH   5   8
ATOM      8  C   UNL A   1      32.420  22.074  25.894  1.00  0.00     0.113 C 
ATOM      9  C   UNL A   1      33.331  22.965  22.381  1.00  0.00     0.147 C 
ATOM     10  N   UNL A   1      32.802  22.404  23.613  1.00  0.00    -0.339 N 
ATOM     11  C   UNL A   1      32.366  21.094  23.710  1.00  0.00     0.223 C 
ATOM     12  C   UNL A   1      32.551  23.191  24.831  1.00  0.00     0.058 C 
ATOM     13  O   UNL A   1      32.337  20.260  22.817  1.00  0.00    -0.275 OA
ATOM     14  C   UNL A   1      31.960  20.828  25.135  1.00  0.00     0.116 C 
ATOM     15  C   UNL A   1      33.662  24.226  25.121  1.00  0.00     0.051 C 
ATOM     16  C   UNL A   1      31.175  23.924  24.660  1.00  0.00     0.051 C 
ATOM     17  C   UNL A   1      33.288  25.187  26.236  1.00  0.00     0.120 C 
ATOM     18  C   UNL A   1      30.883  24.973  25.745  1.00  0.00     0.120 C 
ATOM     19  N   UNL A   1      32.050  25.820  25.839  1.00  0.00    -0.356 N 
BRANCH  19  20
ATOM     20  C   UNL A   1      31.957  27.188  25.900  1.00  0.00     0.128 A 
ATOM     21  C   UNL A   1      32.016  27.816  27.149  1.00  0.00     0.048 A 
ATOM     22  N   UNL A   1      31.791  27.894  24.764  1.00  0.00    -0.238 NA
ATOM     23  C   UNL A   1      31.868  29.197  27.249  1.00  0.00     0.026 A 
ATOM     24  C   UNL A   1      31.612  29.236  24.889  1.00  0.00     0.134 A 
ATOM     25  C   UNL A   1      31.641  29.921  26.093  1.00  0.00     0.059 A 
ATOM     26  Cl  UNL A   1      31.403  31.617  26.157  1.00  0.00    -0.083 Cl
ENDBRANCH  19  20
ENDBRANCH   5   8
ENDBRANCH   3   4
ENDBRANCH   2   3
ENDBRANCH   1   2
BRANCH   1  27
ATOM     27  N   UNL A   1      38.175  21.362  25.888  1.00  0.00    -0.352 N 
ATOM     28  C   UNL A   1      39.405  21.563  26.465  1.00  0.00     0.251 C 
ATOM     29  H   UNL A   1      37.855  20.431  25.896  1.00  0.00     0.163 HD
ATOM     30  O   UNL A   1      40.148  20.601  26.638  1.00  0.00    -0.269 OA
BRANCH  28  31
ATOM     31  C   UNL A   1      39.834  22.922  26.866  1.00  0.00     0.039 A 
ATOM     32  C   UNL A   1      40.690  23.069  27.961  1.00  0.00     0.014 A 
ATOM     33  C   UNL A   1      39.368  24.053  26.190  1.00  0.00     0.014 A 
ATOM     34  C   UNL A   1      41.124  24.343  28.336  1.00  0.00     0.010 A 
ATOM     35  C   UNL A   1      39.872  25.311  26.508  1.00  0.00     0.010 A 
ATOM     36  C   UNL A   1      40.752  25.473  27.588  1.00  0.00    -0.014 A 
BRANCH  36  37
ATOM     37  C   UNL A   1      41.271  26.827  27.921  1.00  0.00     0.031 A 
ATOM     38  C   UNL A   1      42.694  27.195  27.597  1.00  0.00     0.074 A 
ATOM     39  C   UNL A   1      40.474  27.702  28.568  1.00  0.00     0.049 A 
ATOM     40  N   UNL A   1      43.348  28.294  27.873  1.00  0.00    -0.248 NA
ATOM     41  C   UNL A   1      43.496  26.182  26.895  1.00  0.00     0.031 C 
ATOM     42  C   UNL A   1      39.089  27.445  28.968  1.00  0.00     0.029 A 
ATOM     43  N   UNL A   1      40.713  28.979  29.009  1.00  0.00    -0.354 N 
ATOM     44  C   UNL A   1      44.639  28.102  27.389  1.00  0.00     0.074 A 
ATOM     45  C   UNL A   1      44.690  26.755  26.863  1.00  0.00     0.031 C 
ATOM     46  C   UNL A   1      38.592  28.540  29.564  1.00  0.00     0.029 A 
ATOM     47  C   UNL A   1      39.636  29.557  29.643  1.00  0.00     0.049 A 
ATOM     48  H   UNL A   1      41.573  29.440  28.883  1.00  0.00     0.167 HD
ATOM     49  C   UNL A   1      45.675  28.976  27.365  1.00  0.00     0.034 A 
ATOM     50  C   UNL A   1      39.508  30.760  30.237  1.00  0.00     0.034 A 
ATOM     51  C   UNL A   1      45.601  30.319  27.888  1.00  0.00     0.049 A 
ATOM     52  C   UNL A   1      40.688  31.699  30.232  1.00  0.00     0.074 A 
ATOM     53  C   UNL A   1      46.573  31.305  27.869  1.00  0.00     0.029 A 
ATOM     54  N   UNL A   1      44.499  30.863  28.535  1.00  0.00    -0.354 N 
ATOM     55  N   UNL A   1      41.886  31.519  29.725  1.00  0.00    -0.248 NA
ATOM     56  C   UNL A   1      40.496  33.007  30.872  1.00  0.00     0.031 C 
ATOM     57  C   UNL A   1      46.089  32.412  28.573  1.00  0.00     0.029 A 
ATOM     58  C   UNL A   1      44.781  32.155  28.954  1.00  0.00     0.049 A 
ATOM     59  H   UNL A   1      43.642  30.399  28.675  1.00  0.00     0.167 HD
ATOM     60  C   UNL A   1      42.578  32.705  29.957  1.00  0.00     0.074 A 
ATOM     61  C   UNL A   1      41.657  33.597  30.632  1.00  0.00     0.031 C 
ATOM     62  C   UNL A   1      43.858  33.030  29.637  1.00  0.00     0.034 A 
BRANCH  49  63
ATOM     63  C   UNL A   1      46.983  28.494  26.778  1.00  0.00     0.023 A 
ATOM     64  C   UNL A   1      47.174  28.378  25.390  1.00  0.00     0.031 A 
ATOM     65  C   UNL A   1      48.051  28.133  27.619  1.00  0.00     0.131 A 
ATOM     66  C   UNL A   1      48.369  27.843  24.889  1.00  0.00     0.055 A 
ATOM     67  C   UNL A   1      49.271  27.684  27.111  1.00  0.00     0.041 A 
ATOM     68  F   UNL A   1      47.923  28.200  28.954  1.00  0.00    -0.206 F 
ATOM     69  C   UNL A   1      49.431  27.521  25.738  1.00  0.00     0.022 A 
BRANCH  66  70
ATOM     70  S   UNL A   1      48.462  27.432  23.124  1.00  0.00     0.124 S 
ATOM     71  O   UNL A   1      47.343  28.203  22.585  1.00  0.00    -0.237 OA
ATOM     72  O   UNL A   1      49.794  27.899  22.761  1.00  0.00    -0.237 OA
ATOM     73  O   UNL A   1      48.278  25.982  23.100  1.00  0.00    -0.744 OA
ENDBRANCH  66  70
ENDBRANCH  49  63
BRANCH  50  74
ATOM     74  C   UNL A   1      38.227  31.146  30.898  1.00  0.00     0.023 A 
ATOM     75  C   UNL A   1      37.205  31.787  30.180  1.00  0.00     0.031 A 
ATOM     76  C   UNL A   1      38.025  30.923  32.273  1.00  0.00     0.131 A 
ATOM     77  C   UNL A   1      36.052  32.230  30.847  1.00  0.00     0.055 A 
ATOM     78  C   UNL A   1      36.848  31.308  32.918  1.00  0.00     0.041 A 
ATOM     79  F   UNL A   1      38.967  30.311  33.009  1.00  0.00    -0.206 F 
ATOM     80  C   UNL A   1      35.859  31.979  32.208  1.00  0.00     0.022 A 
BRANCH  77  81
ATOM     81  S   UNL A   1      34.850  33.230  29.930  1.00  0.00     0.124 S 
ATOM     82  O   UNL A   1      34.213  32.226  29.085  1.00  0.00    -0.237 OA
ATOM     83  O   UNL A   1      34.030  33.778  31.005  1.00  0.00    -0.237 OA
ATOM     84  O   UNL A   1      35.683  34.203  29.226  1.00  0.00    -0.744 OA
ENDBRANCH  77  81
ENDBRANCH  50  74
BRANCH  62  85
ATOM     85  C   UNL A   1      44.316  34.429  29.977  1.00  0.00     0.023 A 
ATOM     86  C   UNL A   1      44.125  35.508  29.095  1.00  0.00     0.031 A 
ATOM     87  C   UNL A   1      44.965  34.682  31.198  1.00  0.00     0.131 A 
ATOM     88  C   UNL A   1      44.633  36.774  29.421  1.00  0.00     0.055 A 
ATOM     89  C   UNL A   1      45.405  35.960  31.548  1.00  0.00     0.041 A 
ATOM     90  F   UNL A   1      45.180  33.690  32.077  1.00  0.00    -0.206 F 
ATOM     91  C   UNL A   1      45.253  37.011  30.650  1.00  0.00     0.022 A 
BRANCH  88  92
ATOM     92  S   UNL A   1      44.567  38.085  28.168  1.00  0.00     0.124 S 
ATOM     93  O   UNL A   1      45.392  39.124  28.775  1.00  0.00    -0.237 OA
ATOM     94  O   UNL A   1      45.134  37.426  26.996  1.00  0.00    -0.237 OA
ATOM     95  O   UNL A   1      43.142  38.398  28.075  1.00  0.00    -0.744 OA
ENDBRANCH  88  92
ENDBRANCH  62  85
ENDBRANCH  36  37
ENDBRANCH  28  31
ENDBRANCH   1  27
TORSDOF 14
ENDMDL
MODEL 2
REMARK VINA RESULT:     -12.9      5.088     10.309
REMARK SMILES CN1C(=O)C[C@@H](C(=O)NCCCNC(=O)c2ccc(-c3c4nc(c(-c5cc(S(=O)(=O)[O-])ccc5F)c5ccc([nH]5)c(-c5cc(S(=O)(=O)[O-])ccc5F)c5nc(c(-c6cc(S(=O)(=O)[O-])ccc6F)c6ccc3[nH]6)C=C5)C=C4)cc2)C12CCN(c1ccc(Cl)cn1)CC2
REMARK SMILES IDX 12 1 11 2 10 3 9 4 7 5 8 6 6 8 1 9 2 10 3 11 79 12 4 13 5 14
REMARK SMILES IDX 80 15 91 16 81 17 90 18 82 19 83 20 84 21 89 22 85 23 88 24
REMARK SMILES IDX 86 25 87 26 13 27 14 28 15 30 16 31 17 32 78 33 18 34 77 35
REMARK SMILES IDX 19 36 20 37 21 38 71 39 22 40 76 41 70 42 72 43 23 44 75 45
REMARK SMILES IDX 69 46 68 47 24 49 56 50 36 51 55 52 37 53 40 54 54 55 73 56
REMARK SMILES IDX 38 57 39 58 53 60 74 61 41 62 25 63 26 64 34 65 27 66 33 67
REMARK SMILES IDX 35 68 32 69 28 70 29 71 30 72 31 73 57 74 58 75 66 76 59 77
REMARK SMILES IDX 65 78 67 79 64 80 60 81 61 82 62 83 63 84 42 85 43 86 51 87
REMARK SMILES IDX 44 88 50 89 52 90 49 91 45 92 46 93 47 94 48 95
REMARK H PARENT 9 7 13 29 72 48 40 59
REMARK Flexibility Score: inf
ROOT
ATOM      1  C   UNL A   1      31.923  31.526  26.828  1.00  0.00     0.118 C 
ENDROOT
BRANCH   1   2
ATOM      2  C   UNL A   1      31.062  31.181  25.619  1.00  0.00     0.042 C 
BRANCH   2   3
ATOM      3  C   UNL A   1      31.264  29.755  25.111  1.00  0.00     0.117 C 
BRANCH   3   4
ATOM      4  N   UNL A   1      32.478  29.576  24.328  1.00  0.00    -0.356 N 
ATOM      5  C   UNL A   1      32.834  28.743  23.322  1.00  0.00     0.226 C 
ATOM      6  O   UNL A   1      33.956  28.931  22.838  1.00  0.00    -0.275 OA
ATOM      7  H   UNL A   1      33.198  30.196  24.588  1.00  0.00     0.163 HD
BRANCH   5   8
ATOM      8  C   UNL A   1      31.994  27.586  22.785  1.00  0.00     0.113 C 
ATOM      9  C   UNL A   1      29.808  25.936  25.328  1.00  0.00     0.147 C 
ATOM     10  N   UNL A   1      30.397  26.600  24.177  1.00  0.00    -0.339 N 
ATOM     11  C   UNL A   1      29.669  27.424  23.335  1.00  0.00     0.223 C 
ATOM     12  C   UNL A   1      31.774  26.366  23.711  1.00  0.00     0.058 C 
ATOM     13  O   UNL A   1      28.478  27.685  23.412  1.00  0.00    -0.275 OA
ATOM     14  C   UNL A   1      30.602  28.002  22.305  1.00  0.00     0.116 C 
ATOM     15  C   UNL A   1      32.791  26.247  24.870  1.00  0.00     0.051 C 
ATOM     16  C   UNL A   1      31.781  25.048  22.862  1.00  0.00     0.051 C 
ATOM     17  C   UNL A   1      34.157  25.777  24.401  1.00  0.00     0.120 C 
ATOM     18  C   UNL A   1      33.187  24.539  22.505  1.00  0.00     0.120 C 
ATOM     19  N   UNL A   1      33.952  24.513  23.730  1.00  0.00    -0.356 N 
BRANCH  19  20
ATOM     20  C   UNL A   1      34.740  23.444  24.077  1.00  0.00     0.128 A 
ATOM     21  C   UNL A   1      36.046  23.376  23.579  1.00  0.00     0.048 A 
ATOM     22  N   UNL A   1      34.238  22.476  24.868  1.00  0.00    -0.238 NA
ATOM     23  C   UNL A   1      36.852  22.278  23.866  1.00  0.00     0.026 A 
ATOM     24  C   UNL A   1      35.028  21.396  25.106  1.00  0.00     0.134 A 
ATOM     25  C   UNL A   1      36.323  21.254  24.632  1.00  0.00     0.059 A 
ATOM     26  Cl  UNL A   1      37.249  19.854  24.978  1.00  0.00    -0.083 Cl
ENDBRANCH  19  20
ENDBRANCH   5   8
ENDBRANCH   3   4
ENDBRANCH   2   3
ENDBRANCH   1   2
BRANCH   1  27
ATOM     27  N   UNL A   1      32.119  32.964  26.947  1.00  0.00    -0.352 N 
ATOM     28  C   UNL A   1      33.008  33.666  27.722  1.00  0.00     0.251 C 
ATOM     29  H   UNL A   1      31.524  33.514  26.387  1.00  0.00     0.163 HD
ATOM     30  O   UNL A   1      32.806  34.860  27.932  1.00  0.00    -0.269 OA
BRANCH  28  31
ATOM     31  C   UNL A   1      34.192  32.994  28.305  1.00  0.00     0.039 A 
ATOM     32  C   UNL A   1      35.405  33.685  28.366  1.00  0.00     0.014 A 
ATOM     33  C   UNL A   1      34.120  31.674  28.758  1.00  0.00     0.014 A 
ATOM     34  C   UNL A   1      36.524  33.074  28.936  1.00  0.00     0.010 A 
ATOM     35  C   UNL A   1      35.210  31.100  29.406  1.00  0.00     0.010 A 
ATOM     36  C   UNL A   1      36.427  31.790  29.498  1.00  0.00    -0.014 A 
BRANCH  36  37
ATOM     37  C   UNL A   1      37.585  31.157  30.184  1.00  0.00     0.031 A 
ATOM     38  C   UNL A   1      37.919  31.522  31.606  1.00  0.00     0.074 A 
ATOM     39  C   UNL A   1      38.368  30.295  29.503  1.00  0.00     0.049 A 
ATOM     40  N   UNL A   1      38.926  31.134  32.345  1.00  0.00    -0.248 NA
ATOM     41  C   UNL A   1      37.017  32.472  32.274  1.00  0.00     0.031 C 
ATOM     42  C   UNL A   1      38.167  29.892  28.110  1.00  0.00     0.029 A 
ATOM     43  N   UNL A   1      39.493  29.608  29.885  1.00  0.00    -0.354 N 
ATOM     44  C   UNL A   1      38.785  31.799  33.560  1.00  0.00     0.074 A 
ATOM     45  C   UNL A   1      37.633  32.664  33.430  1.00  0.00     0.031 C 
ATOM     46  C   UNL A   1      39.114  29.005  27.766  1.00  0.00     0.029 A 
ATOM     47  C   UNL A   1      40.025  28.819  28.891  1.00  0.00     0.049 A 
ATOM     48  H   UNL A   1      39.883  29.672  30.787  1.00  0.00     0.167 HD
ATOM     49  C   UNL A   1      39.534  31.680  34.684  1.00  0.00     0.034 A 
ATOM     50  C   UNL A   1      41.130  28.047  28.878  1.00  0.00     0.034 A 
ATOM     51  C   UNL A   1      40.676  30.805  34.796  1.00  0.00     0.049 A 
ATOM     52  C   UNL A   1      41.969  27.962  30.129  1.00  0.00     0.074 A 
ATOM     53  C   UNL A   1      41.473  30.567  35.903  1.00  0.00     0.029 A 
ATOM     54  N   UNL A   1      41.192  30.031  33.764  1.00  0.00    -0.354 N 
ATOM     55  N   UNL A   1      41.791  28.558  31.285  1.00  0.00    -0.248 NA
ATOM     56  C   UNL A   1      43.150  27.092  30.076  1.00  0.00     0.031 C 
ATOM     57  C   UNL A   1      42.516  29.717  35.519  1.00  0.00     0.029 A 
ATOM     58  C   UNL A   1      42.319  29.348  34.197  1.00  0.00     0.049 A 
ATOM     59  H   UNL A   1      40.812  29.976  32.857  1.00  0.00     0.167 HD
ATOM     60  C   UNL A   1      42.823  28.109  32.106  1.00  0.00     0.074 A 
ATOM     61  C   UNL A   1      43.604  27.178  31.317  1.00  0.00     0.031 C 
ATOM     62  C   UNL A   1      43.097  28.432  33.396  1.00  0.00     0.034 A 
BRANCH  49  63
ATOM     63  C   UNL A   1      39.155  32.537  35.871  1.00  0.00     0.023 A 
ATOM     64  C   UNL A   1      39.569  33.876  35.980  1.00  0.00     0.031 A 
ATOM     65  C   UNL A   1      38.380  32.004  36.917  1.00  0.00     0.131 A 
ATOM     66  C   UNL A   1      39.273  34.611  37.137  1.00  0.00     0.055 A 
ATOM     67  C   UNL A   1      38.013  32.768  38.027  1.00  0.00     0.041 A 
ATOM     68  F   UNL A   1      37.973  30.725  36.883  1.00  0.00    -0.206 F 
ATOM     69  C   UNL A   1      38.473  34.075  38.150  1.00  0.00     0.022 A 
BRANCH  66  70
ATOM     70  S   UNL A   1      40.072  36.223  37.368  1.00  0.00     0.124 S 
ATOM     71  O   UNL A   1      39.961  36.800  36.030  1.00  0.00    -0.237 OA
ATOM     72  O   UNL A   1      39.248  36.839  38.400  1.00  0.00    -0.237 OA
ATOM     73  O   UNL A   1      41.431  35.876  37.778  1.00  0.00    -0.744 OA
ENDBRANCH  66  70
ENDBRANCH  49  63
BRANCH  50  74
ATOM     74  C   UNL A   1      41.521  27.303  27.645  1.00  0.00     0.023 A 
ATOM     75  C   UNL A   1      41.380  25.909  27.563  1.00  0.00     0.031 A 
ATOM     76  C   UNL A   1      42.087  27.972  26.544  1.00  0.00     0.131 A 
ATOM     77  C   UNL A   1      41.848  25.223  26.432  1.00  0.00     0.055 A 
ATOM     78  C   UNL A   1      42.492  27.292  25.394  1.00  0.00     0.041 A 
ATOM     79  F   UNL A   1      42.243  29.306  26.565  1.00  0.00    -0.206 F 
ATOM     80  C   UNL A   1      42.387  25.906  25.339  1.00  0.00     0.022 A 
BRANCH  77  81
ATOM     81  S   UNL A   1      41.836  23.409  26.450  1.00  0.00     0.124 S 
ATOM     82  O   UNL A   1      42.536  23.097  25.208  1.00  0.00    -0.237 OA
ATOM     83  O   UNL A   1      42.555  23.114  27.684  1.00  0.00    -0.237 OA
ATOM     84  O   UNL A   1      40.412  23.079  26.466  1.00  0.00    -0.744 OA
ENDBRANCH  77  81
ENDBRANCH  50  74
BRANCH  62  85
ATOM     85  C   UNL A   1      44.270  27.734  34.045  1.00  0.00     0.023 A 
ATOM     86  C   UNL A   1      44.116  26.532  34.758  1.00  0.00     0.031 A 
ATOM     87  C   UNL A   1      45.558  28.289  33.956  1.00  0.00     0.131 A 
ATOM     88  C   UNL A   1      45.220  25.958  35.406  1.00  0.00     0.055 A 
ATOM     89  C   UNL A   1      46.666  27.675  34.543  1.00  0.00     0.041 A 
ATOM     90  F   UNL A   1      45.765  29.438  33.293  1.00  0.00    -0.206 F 
ATOM     91  C   UNL A   1      46.497  26.511  35.285  1.00  0.00     0.022 A 
BRANCH  88  92
ATOM     92  S   UNL A   1      44.944  24.536  36.498  1.00  0.00     0.124 S 
ATOM     93  O   UNL A   1      46.300  24.225  36.937  1.00  0.00    -0.237 OA
ATOM     94  O   UNL A   1      44.057  25.092  37.516  1.00  0.00    -0.237 OA
ATOM     95  O   UNL A   1      44.332  23.543  35.618  1.00  0.00    -0.744 OA
ENDBRANCH  88  92
ENDBRANCH  62  85
ENDBRANCH  36  37
ENDBRANCH  28  31
ENDBRANCH   1  27
TORSDOF 14
ENDMDL
MODEL 3
REMARK VINA RESULT:     -12.9      4.991     10.097
REMARK SMILES CN1C(=O)C[C@@H](C(=O)NCCCNC(=O)c2ccc(-c3c4nc(c(-c5cc(S(=O)(=O)[O-])ccc5F)c5ccc([nH]5)c(-c5cc(S(=O)(=O)[O-])ccc5F)c5nc(c(-c6cc(S(=O)(=O)[O-])ccc6F)c6ccc3[nH]6)C=C5)C=C4)cc2)C12CCN(c1ccc(Cl)cn1)CC2
REMARK SMILES IDX 12 1 11 2 10 3 9 4 7 5 8 6 6 8 1 9 2 10 3 11 79 12 4 13 5 14
REMARK SMILES IDX 80 15 91 16 81 17 90 18 82 19 83 20 84 21 89 22 85 23 88 24
REMARK SMILES IDX 86 25 87 26 13 27 14 28 15 30 16 31 17 32 78 33 18 34 77 35
REMARK SMILES IDX 19 36 20 37 21 38 71 39 22 40 76 41 70 42 72 43 23 44 75 45
REMARK SMILES IDX 69 46 68 47 24 49 56 50 36 51 55 52 37 53 40 54 54 55 73 56
REMARK SMILES IDX 38 57 39 58 53 60 74 61 41 62 25 63 26 64 34 65 27 66 33 67
REMARK SMILES IDX 35 68 32 69 28 70 29 71 30 72 31 73 57 74 58 75 66 76 59 77
REMARK SMILES IDX 65 78 67 79 64 80 60 81 61 82 62 83 63 84 42 85 43 86 51 87
REMARK SMILES IDX 44 88 50 89 52 90 49 91 45 92 46 93 47 94 48 95
REMARK H PARENT 9 7 13 29 72 48 40 59
REMARK Flexibility Score: inf
ROOT
ATOM      1  C   UNL A   1      33.154  29.685  26.906  1.00  0.00     0.118 C 
ENDROOT
BRANCH   1   2
ATOM      2  C   UNL A   1      31.763  29.283  26.431  1.00  0.00     0.042 C 
BRANCH   2   3
ATOM      3  C   UNL A   1      31.501  29.605  24.962  1.00  0.00     0.117 C 
BRANCH   3   4
ATOM      4  N   UNL A   1      32.647  29.375  24.096  1.00  0.00    -0.356 N 
ATOM      5  C   UNL A   1      32.913  28.494  23.102  1.00  0.00     0.226 C 
ATOM      6  O   UNL A   1      33.995  28.645  22.523  1.00  0.00    -0.275 OA
ATOM      7  H   UNL A   1      33.392  29.995  24.270  1.00  0.00     0.163 HD
BRANCH   5   8
ATOM      8  C   UNL A   1      32.020  27.328  22.684  1.00  0.00     0.113 C 
ATOM      9  C   UNL A   1      29.956  25.878  25.441  1.00  0.00     0.147 C 
ATOM     10  N   UNL A   1      30.489  26.461  24.222  1.00  0.00    -0.339 N 
ATOM     11  C   UNL A   1      29.729  27.251  23.376  1.00  0.00     0.223 C 
ATOM     12  C   UNL A   1      31.831  26.169  23.691  1.00  0.00     0.058 C 
ATOM     13  O   UNL A   1      28.550  27.543  23.506  1.00  0.00    -0.275 OA
ATOM     14  C   UNL A   1      30.611  27.747  22.261  1.00  0.00     0.116 C 
ATOM     15  C   UNL A   1      32.913  26.093  24.794  1.00  0.00     0.051 C 
ATOM     16  C   UNL A   1      31.762  24.803  22.922  1.00  0.00     0.051 C 
ATOM     17  C   UNL A   1      34.239  25.565  24.275  1.00  0.00     0.120 C 
ATOM     18  C   UNL A   1      33.134  24.242  22.515  1.00  0.00     0.120 C 
ATOM     19  N   UNL A   1      33.969  24.270  23.693  1.00  0.00    -0.356 N 
BRANCH  19  20
ATOM     20  C   UNL A   1      34.756  23.205  24.056  1.00  0.00     0.128 A 
ATOM     21  C   UNL A   1      36.122  23.237  23.752  1.00  0.00     0.048 A 
ATOM     22  N   UNL A   1      34.198  22.146  24.675  1.00  0.00    -0.238 NA
ATOM     23  C   UNL A   1      36.935  22.149  24.056  1.00  0.00     0.026 A 
ATOM     24  C   UNL A   1      35.002  21.081  24.930  1.00  0.00     0.134 A 
ATOM     25  C   UNL A   1      36.357  21.037  24.641  1.00  0.00     0.059 A 
ATOM     26  Cl  UNL A   1      37.297  19.648  24.995  1.00  0.00    -0.083 Cl
ENDBRANCH  19  20
ENDBRANCH   5   8
ENDBRANCH   3   4
ENDBRANCH   2   3
ENDBRANCH   1   2
BRANCH   1  27
ATOM     27  N   UNL A   1      33.268  31.129  27.054  1.00  0.00    -0.352 N 
ATOM     28  C   UNL A   1      34.151  31.867  27.802  1.00  0.00     0.251 C 
ATOM     29  H   UNL A   1      32.613  31.654  26.540  1.00  0.00     0.163 HD
ATOM     30  O   UNL A   1      33.888  33.040  28.055  1.00  0.00    -0.269 OA
BRANCH  28  31
ATOM     31  C   UNL A   1      35.402  31.256  28.308  1.00  0.00     0.039 A 
ATOM     32  C   UNL A   1      36.588  31.992  28.255  1.00  0.00     0.014 A 
ATOM     33  C   UNL A   1      35.417  29.947  28.799  1.00  0.00     0.014 A 
ATOM     34  C   UNL A   1      37.772  31.439  28.750  1.00  0.00     0.010 A 
ATOM     35  C   UNL A   1      36.576  29.433  29.374  1.00  0.00     0.010 A 
ATOM     36  C   UNL A   1      37.769  30.169  29.352  1.00  0.00    -0.014 A 
BRANCH  36  37
ATOM     37  C   UNL A   1      39.000  29.599  29.960  1.00  0.00     0.031 A 
ATOM     38  C   UNL A   1      39.499  30.108  31.286  1.00  0.00     0.074 A 
ATOM     39  C   UNL A   1      39.699  28.662  29.288  1.00  0.00     0.049 A 
ATOM     40  N   UNL A   1      40.586  29.789  31.939  1.00  0.00    -0.248 NA
ATOM     41  C   UNL A   1      38.680  31.133  31.951  1.00  0.00     0.031 C 
ATOM     42  C   UNL A   1      39.336  28.116  27.978  1.00  0.00     0.029 A 
ATOM     43  N   UNL A   1      40.862  28.006  29.605  1.00  0.00    -0.354 N 
ATOM     44  C   UNL A   1      40.589  30.580  33.085  1.00  0.00     0.074 A 
ATOM     45  C   UNL A   1      39.428  31.439  33.001  1.00  0.00     0.031 C 
ATOM     46  C   UNL A   1      40.237  27.188  27.621  1.00  0.00     0.029 A 
ATOM     47  C   UNL A   1      41.274  27.111  28.645  1.00  0.00     0.049 A 
ATOM     48  H   UNL A   1      41.356  28.161  30.443  1.00  0.00     0.167 HD
ATOM     49  C   UNL A   1      41.465  30.571  34.120  1.00  0.00     0.034 A 
ATOM     50  C   UNL A   1      42.371  26.330  28.584  1.00  0.00     0.034 A 
ATOM     51  C   UNL A   1      42.613  29.700  34.190  1.00  0.00     0.049 A 
ATOM     52  C   UNL A   1      43.352  26.368  29.730  1.00  0.00     0.074 A 
ATOM     53  C   UNL A   1      43.536  29.572  35.214  1.00  0.00     0.029 A 
ATOM     54  N   UNL A   1      43.005  28.817  33.192  1.00  0.00    -0.354 N 
ATOM     55  N   UNL A   1      43.310  27.085  30.829  1.00  0.00    -0.248 NA
ATOM     56  C   UNL A   1      44.520  25.484  29.631  1.00  0.00     0.031 C 
ATOM     57  C   UNL A   1      44.527  28.675  34.802  1.00  0.00     0.029 A 
ATOM     58  C   UNL A   1      44.176  28.171  33.559  1.00  0.00     0.049 A 
ATOM     59  H   UNL A   1      42.522  28.671  32.346  1.00  0.00     0.167 HD
ATOM     60  C   UNL A   1      44.432  26.713  31.566  1.00  0.00     0.074 A 
ATOM     61  C   UNL A   1      45.116  25.696  30.794  1.00  0.00     0.031 C 
ATOM     62  C   UNL A   1      44.856  27.167  32.774  1.00  0.00     0.034 A 
BRANCH  49  63
ATOM     63  C   UNL A   1      41.227  31.553  35.246  1.00  0.00     0.023 A 
ATOM     64  C   UNL A   1      40.117  31.444  36.102  1.00  0.00     0.031 A 
ATOM     65  C   UNL A   1      42.115  32.623  35.458  1.00  0.00     0.131 A 
ATOM     66  C   UNL A   1      39.883  32.425  37.077  1.00  0.00     0.055 A 
ATOM     67  C   UNL A   1      41.925  33.547  36.487  1.00  0.00     0.041 A 
ATOM     68  F   UNL A   1      43.181  32.795  34.660  1.00  0.00    -0.206 F 
ATOM     69  C   UNL A   1      40.795  33.461  37.295  1.00  0.00     0.022 A 
BRANCH  66  70
ATOM     70  S   UNL A   1      38.296  32.412  37.955  1.00  0.00     0.124 S 
ATOM     71  O   UNL A   1      37.704  31.167  37.472  1.00  0.00    -0.237 OA
ATOM     72  O   UNL A   1      38.709  32.424  39.353  1.00  0.00    -0.237 OA
ATOM     73  O   UNL A   1      37.637  33.630  37.488  1.00  0.00    -0.744 OA
ENDBRANCH  66  70
ENDBRANCH  49  63
BRANCH  50  74
ATOM     74  C   UNL A   1      42.616  25.456  27.399  1.00  0.00     0.023 A 
ATOM     75  C   UNL A   1      42.128  24.141  27.355  1.00  0.00     0.031 A 
ATOM     76  C   UNL A   1      43.382  25.910  26.310  1.00  0.00     0.131 A 
ATOM     77  C   UNL A   1      42.456  23.308  26.275  1.00  0.00     0.055 A 
ATOM     78  C   UNL A   1      43.652  25.098  25.207  1.00  0.00     0.041 A 
ATOM     79  F   UNL A   1      43.872  27.161  26.296  1.00  0.00    -0.206 F 
ATOM     80  C   UNL A   1      43.201  23.782  25.192  1.00  0.00     0.022 A 
BRANCH  77  81
ATOM     81  S   UNL A   1      41.982  21.559  26.351  1.00  0.00     0.124 S 
ATOM     82  O   UNL A   1      42.294  21.229  27.738  1.00  0.00    -0.237 OA
ATOM     83  O   UNL A   1      40.565  21.615  26.008  1.00  0.00    -0.237 OA
ATOM     84  O   UNL A   1      42.840  20.930  25.350  1.00  0.00    -0.744 OA
ENDBRANCH  77  81
ENDBRANCH  50  74
BRANCH  62  85
ATOM     85  C   UNL A   1      46.098  26.528  33.351  1.00  0.00     0.023 A 
ATOM     86  C   UNL A   1      46.040  25.344  34.107  1.00  0.00     0.031 A 
ATOM     87  C   UNL A   1      47.356  27.122  33.149  1.00  0.00     0.131 A 
ATOM     88  C   UNL A   1      47.209  24.827  34.685  1.00  0.00     0.055 A 
ATOM     89  C   UNL A   1      48.526  26.563  33.667  1.00  0.00     0.041 A 
ATOM     90  F   UNL A   1      47.471  28.257  32.440  1.00  0.00    -0.206 F 
ATOM     91  C   UNL A   1      48.454  25.418  34.453  1.00  0.00     0.022 A 
BRANCH  88  92
ATOM     92  S   UNL A   1      47.067  23.431  35.834  1.00  0.00     0.124 S 
ATOM     93  O   UNL A   1      47.751  22.368  35.106  1.00  0.00    -0.237 OA
ATOM     94  O   UNL A   1      47.752  23.932  37.021  1.00  0.00    -0.237 OA
ATOM     95  O   UNL A   1      45.623  23.254  35.980  1.00  0.00    -0.744 OA
ENDBRANCH  88  92
ENDBRANCH  62  85
ENDBRANCH  36  37
ENDBRANCH  28  31
ENDBRANCH   1  27
TORSDOF 14
ENDMDL
