MODEL 1
REMARK VINA RESULT:     -11.3      0.000      0.000
REMARK SMILES CCC1(CC)CCN(C(=O)NC(=O)CCC(=O)NCCCNC(=O)c2ccc(-c3c4nc(c(-c5cc(S(=O)(=O)[O-])ccc5F)c5ccc([nH]5)c(-c5cc(S(=O)(=O)[O-])ccc5F)c5nc(c(-c6cc(S(=O)(=O)[O-])ccc6F)c6ccc3[nH]6)C=C5)C=C4)cc2)C1
REMARK SMILES IDX 19 1 18 2 16 3 17 4 15 6 14 7 12 8 9 9 10 10 11 11 13 13
REMARK SMILES IDX 8 14 3 15 6 16 88 17 7 18 2 19 1 20 4 21 5 22 20 23 21 24
REMARK SMILES IDX 22 25 23 26 24 28 25 29 26 30 87 31 27 32 86 33 28 34 29 35
REMARK SMILES IDX 30 36 80 37 31 38 85 39 79 40 81 41 32 42 84 43 78 44 77 45
REMARK SMILES IDX 33 47 65 48 45 49 64 50 46 51 49 52 63 53 82 54 47 55 48 56
REMARK SMILES IDX 62 58 83 59 50 60 34 61 35 62 43 63 36 64 42 65 44 66 41 67
REMARK SMILES IDX 37 68 38 69 39 70 40 71 66 72 67 73 75 74 68 75 74 76 76 77
REMARK SMILES IDX 73 78 69 79 70 80 71 81 72 82 51 83 52 84 60 85 53 86 59 87
REMARK SMILES IDX 61 88 58 89 54 90 55 91 56 92 57 93
REMARK H PARENT 18 5 11 12 22 27 81 46 49 57
REMARK Flexibility Score: inf
ROOT
ATOM      1  C   UNL A   1      34.770  21.370  26.414  1.00  0.00     0.117 C 
ENDROOT
BRANCH   1   2
ATOM      2  N   UNL A   1      33.938  20.186  26.227  1.00  0.00    -0.356 N 
ATOM      3  C   UNL A   1      32.799  20.017  25.505  1.00  0.00     0.220 C 
ATOM      4  O   UNL A   1      32.323  18.888  25.379  1.00  0.00    -0.275 OA
ATOM      5  H   UNL A   1      34.252  19.382  26.700  1.00  0.00     0.163 HD
BRANCH   3   6
ATOM      6  C   UNL A   1      32.119  21.209  24.885  1.00  0.00     0.110 C 
BRANCH   6   7
ATOM      7  C   UNL A   1      32.935  21.914  23.817  1.00  0.00     0.110 C 
BRANCH   7   8
ATOM      8  C   UNL A   1      32.204  22.332  22.565  1.00  0.00     0.228 C 
ATOM      9  C   UNL A   1      32.979  24.659  22.184  1.00  0.00     0.324 C 
ATOM     10  O   UNL A   1      33.410  25.020  21.088  1.00  0.00    -0.248 OA
ATOM     11  N   UNL A   1      32.042  23.656  22.228  1.00  0.00    -0.278 N 
ATOM     12  H   UNL A   1      31.126  23.922  21.983  1.00  0.00     0.174 HD
ATOM     13  O   UNL A   1      31.730  21.467  21.822  1.00  0.00    -0.275 OA
BRANCH   9  14
ATOM     14  N   UNL A   1      33.298  25.300  23.346  1.00  0.00    -0.324 N 
ATOM     15  C   UNL A   1      32.751  26.228  25.500  1.00  0.00    -0.011 C 
ATOM     16  C   UNL A   1      33.843  25.129  25.585  1.00  0.00     0.030 C 
ATOM     17  C   UNL A   1      32.353  26.207  23.993  1.00  0.00     0.128 C 
ATOM     18  C   UNL A   1      34.435  25.071  24.200  1.00  0.00     0.122 C 
BRANCH  15  19
ATOM     19  C   UNL A   1      33.368  27.602  25.894  1.00  0.00     0.005 C 
ATOM     20  C   UNL A   1      32.826  28.233  27.173  1.00  0.00     0.004 C 
ENDBRANCH  15  19
BRANCH  15  21
ATOM     21  C   UNL A   1      31.540  25.823  26.375  1.00  0.00     0.005 C 
ATOM     22  C   UNL A   1      30.995  24.431  26.081  1.00  0.00     0.004 C 
ENDBRANCH  15  21
ENDBRANCH   9  14
ENDBRANCH   7   8
ENDBRANCH   6   7
ENDBRANCH   3   6
ENDBRANCH   1   2
BRANCH   1  23
ATOM     23  C   UNL A   1      35.790  21.581  25.298  1.00  0.00     0.042 C 
BRANCH  23  24
ATOM     24  C   UNL A   1      37.071  22.276  25.737  1.00  0.00     0.118 C 
BRANCH  24  25
ATOM     25  N   UNL A   1      38.125  21.319  26.033  1.00  0.00    -0.352 N 
ATOM     26  C   UNL A   1      39.438  21.531  26.375  1.00  0.00     0.251 C 
ATOM     27  H   UNL A   1      37.855  20.374  25.980  1.00  0.00     0.163 HD
ATOM     28  O   UNL A   1      40.225  20.591  26.294  1.00  0.00    -0.269 OA
BRANCH  26  29
ATOM     29  C   UNL A   1      39.920  22.864  26.816  1.00  0.00     0.039 A 
ATOM     30  C   UNL A   1      39.500  23.996  26.108  1.00  0.00     0.014 A 
ATOM     31  C   UNL A   1      40.844  23.011  27.854  1.00  0.00     0.014 A 
ATOM     32  C   UNL A   1      39.976  25.263  26.461  1.00  0.00     0.010 A 
ATOM     33  C   UNL A   1      41.253  24.284  28.259  1.00  0.00     0.010 A 
ATOM     34  C   UNL A   1      40.844  25.423  27.552  1.00  0.00    -0.014 A 
BRANCH  34  35
ATOM     35  C   UNL A   1      41.364  26.768  27.930  1.00  0.00     0.031 A 
ATOM     36  C   UNL A   1      42.788  27.146  27.612  1.00  0.00     0.074 A 
ATOM     37  C   UNL A   1      40.574  27.635  28.591  1.00  0.00     0.049 A 
ATOM     38  N   UNL A   1      43.440  28.245  27.900  1.00  0.00    -0.248 NA
ATOM     39  C   UNL A   1      43.594  26.141  26.905  1.00  0.00     0.031 C 
ATOM     40  C   UNL A   1      39.190  27.378  28.994  1.00  0.00     0.029 A 
ATOM     41  N   UNL A   1      40.821  28.907  29.047  1.00  0.00    -0.354 N 
ATOM     42  C   UNL A   1      44.734  28.058  27.422  1.00  0.00     0.074 A 
ATOM     43  C   UNL A   1      44.787  26.714  26.889  1.00  0.00     0.031 C 
ATOM     44  C   UNL A   1      38.705  28.464  29.616  1.00  0.00     0.029 A 
ATOM     45  C   UNL A   1      39.751  29.479  29.695  1.00  0.00     0.049 A 
ATOM     46  H   UNL A   1      41.683  29.365  28.922  1.00  0.00     0.167 HD
ATOM     47  C   UNL A   1      45.773  28.931  27.406  1.00  0.00     0.034 A 
ATOM     48  C   UNL A   1      39.627  30.680  30.295  1.00  0.00     0.034 A 
ATOM     49  C   UNL A   1      45.703  30.275  27.932  1.00  0.00     0.049 A 
ATOM     50  C   UNL A   1      40.796  31.631  30.282  1.00  0.00     0.074 A 
ATOM     51  C   UNL A   1      46.673  31.261  27.914  1.00  0.00     0.029 A 
ATOM     52  N   UNL A   1      44.601  30.819  28.582  1.00  0.00    -0.354 N 
ATOM     53  N   UNL A   1      41.997  31.458  29.781  1.00  0.00    -0.248 NA
ATOM     54  C   UNL A   1      40.587  32.943  30.907  1.00  0.00     0.031 C 
ATOM     55  C   UNL A   1      46.186  32.373  28.610  1.00  0.00     0.029 A 
ATOM     56  C   UNL A   1      44.880  32.112  28.997  1.00  0.00     0.049 A 
ATOM     57  H   UNL A   1      43.746  30.352  28.726  1.00  0.00     0.167 HD
ATOM     58  C   UNL A   1      42.678  32.651  30.009  1.00  0.00     0.074 A 
ATOM     59  C   UNL A   1      41.750  33.537  30.680  1.00  0.00     0.031 C 
ATOM     60  C   UNL A   1      43.955  32.983  29.686  1.00  0.00     0.034 A 
BRANCH  47  61
ATOM     61  C   UNL A   1      47.081  28.439  26.825  1.00  0.00     0.023 A 
ATOM     62  C   UNL A   1      47.298  28.380  25.436  1.00  0.00     0.031 A 
ATOM     63  C   UNL A   1      48.107  27.976  27.667  1.00  0.00     0.131 A 
ATOM     64  C   UNL A   1      48.464  27.785  24.931  1.00  0.00     0.055 A 
ATOM     65  C   UNL A   1      49.305  27.468  27.159  1.00  0.00     0.041 A 
ATOM     66  F   UNL A   1      47.958  27.991  29.001  1.00  0.00    -0.206 F 
ATOM     67  C   UNL A   1      49.481  27.350  25.784  1.00  0.00     0.022 A 
BRANCH  64  68
ATOM     68  S   UNL A   1      48.552  27.427  23.155  1.00  0.00     0.124 S 
ATOM     69  O   UNL A   1      49.861  27.974  22.807  1.00  0.00    -0.237 OA
ATOM     70  O   UNL A   1      48.435  25.975  23.119  1.00  0.00    -0.237 OA
ATOM     71  O   UNL A   1      47.414  28.159  22.601  1.00  0.00    -0.744 OA
ENDBRANCH  64  68
ENDBRANCH  47  61
BRANCH  48  72
ATOM     72  C   UNL A   1      38.350  31.048  30.969  1.00  0.00     0.023 A 
ATOM     73  C   UNL A   1      37.329  31.717  30.275  1.00  0.00     0.031 A 
ATOM     74  C   UNL A   1      38.139  30.742  32.325  1.00  0.00     0.131 A 
ATOM     75  C   UNL A   1      36.156  32.090  30.950  1.00  0.00     0.055 A 
ATOM     76  C   UNL A   1      36.951  31.074  32.979  1.00  0.00     0.041 A 
ATOM     77  F   UNL A   1      39.082  30.096  33.030  1.00  0.00    -0.206 F 
ATOM     78  C   UNL A   1      35.954  31.761  32.293  1.00  0.00     0.022 A 
BRANCH  75  79
ATOM     79  S   UNL A   1      34.912  33.065  30.060  1.00  0.00     0.124 S 
ATOM     80  O   UNL A   1      34.388  32.086  29.114  1.00  0.00    -0.237 OA
ATOM     81  O   UNL A   1      34.011  33.464  31.136  1.00  0.00    -0.237 OA
ATOM     82  O   UNL A   1      35.690  34.150  29.468  1.00  0.00    -0.744 OA
ENDBRANCH  75  79
ENDBRANCH  48  72
BRANCH  60  83
ATOM     83  C   UNL A   1      44.406  34.383  30.028  1.00  0.00     0.023 A 
ATOM     84  C   UNL A   1      44.269  35.449  29.122  1.00  0.00     0.031 A 
ATOM     85  C   UNL A   1      44.995  34.649  31.277  1.00  0.00     0.131 A 
ATOM     86  C   UNL A   1      44.762  36.719  29.457  1.00  0.00     0.055 A 
ATOM     87  C   UNL A   1      45.430  35.928  31.627  1.00  0.00     0.041 A 
ATOM     88  F   UNL A   1      45.155  33.669  32.181  1.00  0.00    -0.206 F 
ATOM     89  C   UNL A   1      45.327  36.970  30.710  1.00  0.00     0.022 A 
BRANCH  86  90
ATOM     90  S   UNL A   1      44.736  38.026  28.198  1.00  0.00     0.124 S 
ATOM     91  O   UNL A   1      44.090  39.123  28.912  1.00  0.00    -0.237 OA
ATOM     92  O   UNL A   1      46.153  38.204  27.902  1.00  0.00    -0.237 OA
ATOM     93  O   UNL A   1      43.946  37.443  27.114  1.00  0.00    -0.744 OA
ENDBRANCH  86  90
ENDBRANCH  60  83
ENDBRANCH  34  35
ENDBRANCH  26  29
ENDBRANCH  24  25
ENDBRANCH  23  24
ENDBRANCH   1  23
TORSDOF 18
ENDMDL
MODEL 2
REMARK VINA RESULT:     -11.3      5.700      8.756
REMARK SMILES CCC1(CC)CCN(C(=O)NC(=O)CCC(=O)NCCCNC(=O)c2ccc(-c3c4nc(c(-c5cc(S(=O)(=O)[O-])ccc5F)c5ccc([nH]5)c(-c5cc(S(=O)(=O)[O-])ccc5F)c5nc(c(-c6cc(S(=O)(=O)[O-])ccc6F)c6ccc3[nH]6)C=C5)C=C4)cc2)C1
REMARK SMILES IDX 19 1 18 2 16 3 17 4 15 6 14 7 12 8 9 9 10 10 11 11 13 13
REMARK SMILES IDX 8 14 3 15 6 16 88 17 7 18 2 19 1 20 4 21 5 22 20 23 21 24
REMARK SMILES IDX 22 25 23 26 24 28 25 29 26 30 87 31 27 32 86 33 28 34 29 35
REMARK SMILES IDX 30 36 80 37 31 38 85 39 79 40 81 41 32 42 84 43 78 44 77 45
REMARK SMILES IDX 33 47 65 48 45 49 64 50 46 51 49 52 63 53 82 54 47 55 48 56
REMARK SMILES IDX 62 58 83 59 50 60 34 61 35 62 43 63 36 64 42 65 44 66 41 67
REMARK SMILES IDX 37 68 38 69 39 70 40 71 66 72 67 73 75 74 68 75 74 76 76 77
REMARK SMILES IDX 73 78 69 79 70 80 71 81 72 82 51 83 52 84 60 85 53 86 59 87
REMARK SMILES IDX 61 88 58 89 54 90 55 91 56 92 57 93
REMARK H PARENT 18 5 11 12 22 27 81 46 49 57
REMARK Flexibility Score: inf
ROOT
ATOM      1  C   UNL A   1      31.453  30.686  26.445  1.00  0.00     0.117 C 
ENDROOT
BRANCH   1   2
ATOM      2  N   UNL A   1      32.705  30.030  26.806  1.00  0.00    -0.356 N 
ATOM      3  C   UNL A   1      33.390  29.038  26.179  1.00  0.00     0.220 C 
ATOM      4  O   UNL A   1      34.505  28.717  26.592  1.00  0.00    -0.275 OA
ATOM      5  H   UNL A   1      33.119  30.359  27.636  1.00  0.00     0.163 HD
BRANCH   3   6
ATOM      6  C   UNL A   1      32.775  28.327  25.002  1.00  0.00     0.110 C 
BRANCH   6   7
ATOM      7  C   UNL A   1      33.754  27.507  24.181  1.00  0.00     0.110 C 
BRANCH   7   8
ATOM      8  C   UNL A   1      33.755  27.741  22.691  1.00  0.00     0.228 C 
ATOM      9  C   UNL A   1      32.242  25.975  21.820  1.00  0.00     0.324 C 
ATOM     10  O   UNL A   1      31.319  26.244  21.051  1.00  0.00    -0.248 OA
ATOM     11  N   UNL A   1      33.367  26.763  21.803  1.00  0.00    -0.278 N 
ATOM     12  H   UNL A   1      33.982  26.607  21.050  1.00  0.00     0.174 HD
ATOM     13  O   UNL A   1      34.120  28.835  22.248  1.00  0.00    -0.275 OA
BRANCH   9  14
ATOM     14  N   UNL A   1      32.248  24.853  22.597  1.00  0.00    -0.324 N 
ATOM     15  C   UNL A   1      33.358  23.067  23.772  1.00  0.00    -0.011 C 
ATOM     16  C   UNL A   1      32.480  23.939  24.707  1.00  0.00     0.030 C 
ATOM     17  C   UNL A   1      33.246  23.804  22.403  1.00  0.00     0.128 C 
ATOM     18  C   UNL A   1      31.482  24.598  23.790  1.00  0.00     0.122 C 
BRANCH  15  19
ATOM     19  C   UNL A   1      32.754  21.634  23.683  1.00  0.00     0.005 C 
ATOM     20  C   UNL A   1      32.244  21.046  24.994  1.00  0.00     0.004 C 
ENDBRANCH  15  19
BRANCH  15  21
ATOM     21  C   UNL A   1      34.823  23.088  24.269  1.00  0.00     0.005 C 
ATOM     22  C   UNL A   1      35.116  24.167  25.304  1.00  0.00     0.004 C 
ENDBRANCH  15  21
ENDBRANCH   9  14
ENDBRANCH   7   8
ENDBRANCH   6   7
ENDBRANCH   3   6
ENDBRANCH   1   2
BRANCH   1  23
ATOM     23  C   UNL A   1      31.443  32.184  26.736  1.00  0.00     0.042 C 
BRANCH  23  24
ATOM     24  C   UNL A   1      32.769  32.739  27.237  1.00  0.00     0.118 C 
BRANCH  24  25
ATOM     25  N   UNL A   1      32.649  34.129  27.642  1.00  0.00    -0.352 N 
ATOM     26  C   UNL A   1      33.209  34.789  28.709  1.00  0.00     0.251 C 
ATOM     27  H   UNL A   1      32.080  34.683  27.062  1.00  0.00     0.163 HD
ATOM     28  O   UNL A   1      32.747  35.881  29.033  1.00  0.00    -0.269 OA
BRANCH  26  29
ATOM     29  C   UNL A   1      34.334  34.204  29.480  1.00  0.00     0.039 A 
ATOM     30  C   UNL A   1      35.641  34.433  29.034  1.00  0.00     0.014 A 
ATOM     31  C   UNL A   1      34.124  33.364  30.576  1.00  0.00     0.014 A 
ATOM     32  C   UNL A   1      36.724  33.853  29.703  1.00  0.00     0.010 A 
ATOM     33  C   UNL A   1      35.209  32.854  31.293  1.00  0.00     0.010 A 
ATOM     34  C   UNL A   1      36.521  33.072  30.851  1.00  0.00    -0.014 A 
BRANCH  34  35
ATOM     35  C   UNL A   1      37.668  32.442  31.565  1.00  0.00     0.031 A 
ATOM     36  C   UNL A   1      38.422  31.301  30.931  1.00  0.00     0.074 A 
ATOM     37  C   UNL A   1      38.009  32.865  32.797  1.00  0.00     0.049 A 
ATOM     38  N   UNL A   1      39.414  30.592  31.410  1.00  0.00    -0.248 NA
ATOM     39  C   UNL A   1      37.980  30.884  29.592  1.00  0.00     0.031 C 
ATOM     40  C   UNL A   1      37.336  33.932  33.540  1.00  0.00     0.029 A 
ATOM     41  N   UNL A   1      39.003  32.446  33.647  1.00  0.00    -0.354 N 
ATOM     42  C   UNL A   1      39.704  29.637  30.439  1.00  0.00     0.074 A 
ATOM     43  C   UNL A   1      38.737  29.820  29.377  1.00  0.00     0.031 C 
ATOM     44  C   UNL A   1      37.949  34.098  34.723  1.00  0.00     0.029 A 
ATOM     45  C   UNL A   1      39.031  33.126  34.843  1.00  0.00     0.049 A 
ATOM     46  H   UNL A   1      39.636  31.727  33.421  1.00  0.00     0.167 HD
ATOM     47  C   UNL A   1      40.697  28.712  30.421  1.00  0.00     0.034 A 
ATOM     48  C   UNL A   1      39.828  32.978  35.920  1.00  0.00     0.034 A 
ATOM     49  C   UNL A   1      41.663  28.549  31.482  1.00  0.00     0.049 A 
ATOM     50  C   UNL A   1      40.916  31.935  35.889  1.00  0.00     0.074 A 
ATOM     51  C   UNL A   1      42.744  27.686  31.542  1.00  0.00     0.029 A 
ATOM     52  N   UNL A   1      41.658  29.256  32.679  1.00  0.00    -0.354 N 
ATOM     53  N   UNL A   1      41.210  31.074  34.943  1.00  0.00    -0.248 NA
ATOM     54  C   UNL A   1      41.785  31.852  37.070  1.00  0.00     0.031 C 
ATOM     55  C   UNL A   1      43.349  27.823  32.797  1.00  0.00     0.029 A 
ATOM     56  C   UNL A   1      42.695  28.826  33.494  1.00  0.00     0.049 A 
ATOM     57  H   UNL A   1      41.011  29.960  32.914  1.00  0.00     0.167 HD
ATOM     58  C   UNL A   1      42.315  30.364  35.405  1.00  0.00     0.074 A 
ATOM     59  C   UNL A   1      42.641  30.907  36.708  1.00  0.00     0.031 C 
ATOM     60  C   UNL A   1      43.001  29.358  34.802  1.00  0.00     0.034 A 
BRANCH  47  61
ATOM     61  C   UNL A   1      40.762  27.790  29.224  1.00  0.00     0.023 A 
ATOM     62  C   UNL A   1      41.700  27.980  28.193  1.00  0.00     0.031 A 
ATOM     63  C   UNL A   1      39.842  26.735  29.084  1.00  0.00     0.131 A 
ATOM     64  C   UNL A   1      41.637  27.196  27.031  1.00  0.00     0.055 A 
ATOM     65  C   UNL A   1      39.844  25.899  27.965  1.00  0.00     0.041 A 
ATOM     66  F   UNL A   1      38.911  26.510  30.024  1.00  0.00    -0.206 F 
ATOM     67  C   UNL A   1      40.730  26.140  26.920  1.00  0.00     0.022 A 
BRANCH  64  68
ATOM     68  S   UNL A   1      42.637  27.690  25.600  1.00  0.00     0.124 S 
ATOM     69  O   UNL A   1      42.531  26.511  24.744  1.00  0.00    -0.237 OA
ATOM     70  O   UNL A   1      41.948  28.885  25.131  1.00  0.00    -0.237 OA
ATOM     71  O   UNL A   1      43.963  27.917  26.170  1.00  0.00    -0.744 OA
ENDBRANCH  64  68
ENDBRANCH  47  61
BRANCH  48  72
ATOM     72  C   UNL A   1      39.622  33.832  37.123  1.00  0.00     0.023 A 
ATOM     73  C   UNL A   1      38.928  33.351  38.244  1.00  0.00     0.031 A 
ATOM     74  C   UNL A   1      40.109  35.151  37.160  1.00  0.00     0.131 A 
ATOM     75  C   UNL A   1      38.711  34.196  39.345  1.00  0.00     0.055 A 
ATOM     76  C   UNL A   1      39.930  35.971  38.275  1.00  0.00     0.041 A 
ATOM     77  F   UNL A   1      40.785  35.654  36.115  1.00  0.00    -0.206 F 
ATOM     78  C   UNL A   1      39.219  35.497  39.374  1.00  0.00     0.022 A 
BRANCH  75  79
ATOM     79  S   UNL A   1      37.703  33.586  40.725  1.00  0.00     0.124 S 
ATOM     80  O   UNL A   1      38.590  32.598  41.327  1.00  0.00    -0.237 OA
ATOM     81  O   UNL A   1      37.478  34.804  41.498  1.00  0.00    -0.237 OA
ATOM     82  O   UNL A   1      36.517  33.043  40.066  1.00  0.00    -0.744 OA
ENDBRANCH  75  79
ENDBRANCH  48  72
BRANCH  60  83
ATOM     83  C   UNL A   1      44.197  28.806  35.540  1.00  0.00     0.023 A 
ATOM     84  C   UNL A   1      44.081  27.743  36.453  1.00  0.00     0.031 A 
ATOM     85  C   UNL A   1      45.472  29.363  35.334  1.00  0.00     0.131 A 
ATOM     86  C   UNL A   1      45.208  27.306  37.164  1.00  0.00     0.055 A 
ATOM     87  C   UNL A   1      46.600  28.885  36.002  1.00  0.00     0.041 A 
ATOM     88  F   UNL A   1      45.642  30.383  34.477  1.00  0.00    -0.206 F 
ATOM     89  C   UNL A   1      46.470  27.859  36.933  1.00  0.00     0.022 A 
BRANCH  86  90
ATOM     90  S   UNL A   1      44.990  26.060  38.466  1.00  0.00     0.124 S 
ATOM     91  O   UNL A   1      44.673  24.864  37.692  1.00  0.00    -0.237 OA
ATOM     92  O   UNL A   1      46.290  26.066  39.127  1.00  0.00    -0.237 OA
ATOM     93  O   UNL A   1      43.887  26.589  39.266  1.00  0.00    -0.744 OA
ENDBRANCH  86  90
ENDBRANCH  60  83
ENDBRANCH  34  35
ENDBRANCH  26  29
ENDBRANCH  24  25
ENDBRANCH  23  24
ENDBRANCH   1  23
TORSDOF 18
ENDMDL
MODEL 3
REMARK VINA RESULT:     -11.2      1.823      2.317
REMARK SMILES CCC1(CC)CCN(C(=O)NC(=O)CCC(=O)NCCCNC(=O)c2ccc(-c3c4nc(c(-c5cc(S(=O)(=O)[O-])ccc5F)c5ccc([nH]5)c(-c5cc(S(=O)(=O)[O-])ccc5F)c5nc(c(-c6cc(S(=O)(=O)[O-])ccc6F)c6ccc3[nH]6)C=C5)C=C4)cc2)C1
REMARK SMILES IDX 19 1 18 2 16 3 17 4 15 6 14 7 12 8 9 9 10 10 11 11 13 13
REMARK SMILES IDX 8 14 3 15 6 16 88 17 7 18 2 19 1 20 4 21 5 22 20 23 21 24
REMARK SMILES IDX 22 25 23 26 24 28 25 29 26 30 87 31 27 32 86 33 28 34 29 35
REMARK SMILES IDX 30 36 80 37 31 38 85 39 79 40 81 41 32 42 84 43 78 44 77 45
REMARK SMILES IDX 33 47 65 48 45 49 64 50 46 51 49 52 63 53 82 54 47 55 48 56
REMARK SMILES IDX 62 58 83 59 50 60 34 61 35 62 43 63 36 64 42 65 44 66 41 67
REMARK SMILES IDX 37 68 38 69 39 70 40 71 66 72 67 73 75 74 68 75 74 76 76 77
REMARK SMILES IDX 73 78 69 79 70 80 71 81 72 82 51 83 52 84 60 85 53 86 59 87
REMARK SMILES IDX 61 88 58 89 54 90 55 91 56 92 57 93
REMARK H PARENT 18 5 11 12 22 27 81 46 49 57
REMARK Flexibility Score: inf
ROOT
ATOM      1  C   UNL A   1      35.033  22.811  26.340  1.00  0.00     0.117 C 
ENDROOT
BRANCH   1   2
ATOM      2  N   UNL A   1      33.788  23.227  26.977  1.00  0.00    -0.356 N 
ATOM      3  C   UNL A   1      32.515  22.791  26.787  1.00  0.00     0.220 C 
ATOM      4  O   UNL A   1      31.619  23.193  27.531  1.00  0.00    -0.275 OA
ATOM      5  H   UNL A   1      33.886  23.937  27.652  1.00  0.00     0.163 HD
BRANCH   3   6
ATOM      6  C   UNL A   1      32.206  21.840  25.661  1.00  0.00     0.110 C 
BRANCH   6   7
ATOM      7  C   UNL A   1      31.442  22.461  24.505  1.00  0.00     0.110 C 
BRANCH   7   8
ATOM      8  C   UNL A   1      32.057  22.330  23.134  1.00  0.00     0.228 C 
ATOM      9  C   UNL A   1      33.086  24.556  22.740  1.00  0.00     0.324 C 
ATOM     10  O   UNL A   1      34.256  24.665  22.375  1.00  0.00    -0.248 OA
ATOM     11  N   UNL A   1      32.382  23.434  22.377  1.00  0.00    -0.278 N 
ATOM     12  H   UNL A   1      32.066  23.415  21.445  1.00  0.00     0.174 HD
ATOM     13  O   UNL A   1      32.271  21.207  22.669  1.00  0.00    -0.275 OA
BRANCH   9  14
ATOM     14  N   UNL A   1      32.420  25.559  23.382  1.00  0.00    -0.324 N 
ATOM     15  C   UNL A   1      32.266  27.777  24.308  1.00  0.00    -0.011 C 
ATOM     16  C   UNL A   1      31.199  27.514  23.213  1.00  0.00     0.030 C 
ATOM     17  C   UNL A   1      33.116  26.472  24.286  1.00  0.00     0.128 C 
ATOM     18  C   UNL A   1      31.071  26.013  23.157  1.00  0.00     0.122 C 
BRANCH  15  19
ATOM     19  C   UNL A   1      31.560  27.958  25.685  1.00  0.00     0.005 C 
ATOM     20  C   UNL A   1      31.967  26.971  26.774  1.00  0.00     0.004 C 
ENDBRANCH  15  19
BRANCH  15  21
ATOM     21  C   UNL A   1      33.139  28.988  23.899  1.00  0.00     0.005 C 
ATOM     22  C   UNL A   1      34.024  28.738  22.684  1.00  0.00     0.004 C 
ENDBRANCH  15  21
ENDBRANCH   9  14
ENDBRANCH   7   8
ENDBRANCH   6   7
ENDBRANCH   3   6
ENDBRANCH   1   2
BRANCH   1  23
ATOM     23  C   UNL A   1      35.800  23.960  25.691  1.00  0.00     0.042 C 
BRANCH  23  24
ATOM     24  C   UNL A   1      36.930  23.524  24.771  1.00  0.00     0.118 C 
BRANCH  24  25
ATOM     25  N   UNL A   1      37.778  22.525  25.399  1.00  0.00    -0.352 N 
ATOM     26  C   UNL A   1      38.924  22.681  26.140  1.00  0.00     0.251 C 
ATOM     27  H   UNL A   1      37.486  21.594  25.274  1.00  0.00     0.163 HD
ATOM     28  O   UNL A   1      39.641  21.700  26.327  1.00  0.00    -0.269 OA
BRANCH  26  29
ATOM     29  C   UNL A   1      39.316  24.000  26.696  1.00  0.00     0.039 A 
ATOM     30  C   UNL A   1      40.048  24.876  25.887  1.00  0.00     0.014 A 
ATOM     31  C   UNL A   1      39.054  24.353  28.022  1.00  0.00     0.014 A 
ATOM     32  C   UNL A   1      40.482  26.106  26.394  1.00  0.00     0.010 A 
ATOM     33  C   UNL A   1      39.414  25.614  28.502  1.00  0.00     0.010 A 
ATOM     34  C   UNL A   1      40.154  26.497  27.702  1.00  0.00    -0.014 A 
BRANCH  34  35
ATOM     35  C   UNL A   1      40.619  27.800  28.255  1.00  0.00     0.031 A 
ATOM     36  C   UNL A   1      42.092  28.074  28.412  1.00  0.00     0.074 A 
ATOM     37  C   UNL A   1      39.721  28.722  28.651  1.00  0.00     0.049 A 
ATOM     38  N   UNL A   1      42.694  29.124  28.916  1.00  0.00    -0.248 NA
ATOM     39  C   UNL A   1      43.010  27.013  27.973  1.00  0.00     0.031 C 
ATOM     40  C   UNL A   1      38.267  28.566  28.590  1.00  0.00     0.029 A 
ATOM     41  N   UNL A   1      39.898  29.973  29.191  1.00  0.00    -0.354 N 
ATOM     42  C   UNL A   1      44.056  28.843  28.867  1.00  0.00     0.074 A 
ATOM     43  C   UNL A   1      44.183  27.498  28.348  1.00  0.00     0.031 C 
ATOM     44  C   UNL A   1      37.686  29.685  29.052  1.00  0.00     0.029 A 
ATOM     45  C   UNL A   1      38.720  30.622  29.480  1.00  0.00     0.049 A 
ATOM     46  H   UNL A   1      40.785  30.368  29.354  1.00  0.00     0.167 HD
ATOM     47  C   UNL A   1      45.105  29.638  29.200  1.00  0.00     0.034 A 
ATOM     48  C   UNL A   1      38.495  31.829  30.037  1.00  0.00     0.034 A 
ATOM     49  C   UNL A   1      44.964  30.984  29.706  1.00  0.00     0.049 A 
ATOM     50  C   UNL A   1      39.670  32.693  30.415  1.00  0.00     0.074 A 
ATOM     51  C   UNL A   1      45.955  31.898  30.018  1.00  0.00     0.029 A 
ATOM     52  N   UNL A   1      43.753  31.607  29.987  1.00  0.00    -0.354 N 
ATOM     53  N   UNL A   1      40.953  32.434  30.316  1.00  0.00    -0.248 NA
ATOM     54  C   UNL A   1      39.365  34.017  30.971  1.00  0.00     0.031 C 
ATOM     55  C   UNL A   1      45.350  33.043  30.550  1.00  0.00     0.029 A 
ATOM     56  C   UNL A   1      43.974  32.877  30.498  1.00  0.00     0.049 A 
ATOM     57  H   UNL A   1      42.866  31.203  29.843  1.00  0.00     0.167 HD
ATOM     58  C   UNL A   1      41.608  33.574  30.774  1.00  0.00     0.074 A 
ATOM     59  C   UNL A   1      40.578  34.525  31.137  1.00  0.00     0.031 C 
ATOM     60  C   UNL A   1      42.941  33.812  30.879  1.00  0.00     0.034 A 
BRANCH  47  61
ATOM     61  C   UNL A   1      46.492  29.053  29.051  1.00  0.00     0.023 A 
ATOM     62  C   UNL A   1      47.174  29.071  27.821  1.00  0.00     0.031 A 
ATOM     63  C   UNL A   1      47.122  28.424  30.140  1.00  0.00     0.131 A 
ATOM     64  C   UNL A   1      48.395  28.393  27.684  1.00  0.00     0.055 A 
ATOM     65  C   UNL A   1      48.380  27.829  30.020  1.00  0.00     0.041 A 
ATOM     66  F   UNL A   1      46.518  28.359  31.336  1.00  0.00    -0.206 F 
ATOM     67  C   UNL A   1      49.015  27.792  28.782  1.00  0.00     0.022 A 
BRANCH  64  68
ATOM     68  S   UNL A   1      49.070  28.156  26.017  1.00  0.00     0.124 S 
ATOM     69  O   UNL A   1      50.066  29.223  25.947  1.00  0.00    -0.237 OA
ATOM     70  O   UNL A   1      49.592  26.797  26.078  1.00  0.00    -0.237 OA
ATOM     71  O   UNL A   1      47.909  28.342  25.148  1.00  0.00    -0.744 OA
ENDBRANCH  64  68
ENDBRANCH  47  61
BRANCH  48  72
ATOM     72  C   UNL A   1      37.098  32.288  30.280  1.00  0.00     0.023 A 
ATOM     73  C   UNL A   1      36.363  32.941  29.278  1.00  0.00     0.031 A 
ATOM     74  C   UNL A   1      36.484  32.090  31.530  1.00  0.00     0.131 A 
ATOM     75  C   UNL A   1      35.066  33.402  29.553  1.00  0.00     0.055 A 
ATOM     76  C   UNL A   1      35.177  32.509  31.783  1.00  0.00     0.041 A 
ATOM     77  F   UNL A   1      37.143  31.465  32.518  1.00  0.00    -0.206 F 
ATOM     78  C   UNL A   1      34.463  33.178  30.794  1.00  0.00     0.022 A 
BRANCH  75  79
ATOM     79  S   UNL A   1      34.191  34.352  28.279  1.00  0.00     0.124 S 
ATOM     80  O   UNL A   1      33.901  35.596  28.981  1.00  0.00    -0.237 OA
ATOM     81  O   UNL A   1      35.191  34.430  27.218  1.00  0.00    -0.237 OA
ATOM     82  O   UNL A   1      33.029  33.521  27.974  1.00  0.00    -0.744 OA
ENDBRANCH  75  79
ENDBRANCH  48  72
BRANCH  60  83
ATOM     83  C   UNL A   1      43.355  35.176  31.377  1.00  0.00     0.023 A 
ATOM     84  C   UNL A   1      43.570  36.253  30.499  1.00  0.00     0.031 A 
ATOM     85  C   UNL A   1      43.550  35.396  32.753  1.00  0.00     0.131 A 
ATOM     86  C   UNL A   1      44.018  37.485  31.001  1.00  0.00     0.055 A 
ATOM     87  C   UNL A   1      43.940  36.640  33.251  1.00  0.00     0.041 A 
ATOM     88  F   UNL A   1      43.363  34.403  33.637  1.00  0.00    -0.206 F 
ATOM     89  C   UNL A   1      44.188  37.690  32.372  1.00  0.00     0.022 A 
BRANCH  86  90
ATOM     90  S   UNL A   1      44.462  38.796  29.827  1.00  0.00     0.124 S 
ATOM     91  O   UNL A   1      44.570  39.961  30.699  1.00  0.00    -0.237 OA
ATOM     92  O   UNL A   1      45.714  38.302  29.264  1.00  0.00    -0.237 OA
ATOM     93  O   UNL A   1      43.334  38.821  28.897  1.00  0.00    -0.744 OA
ENDBRANCH  86  90
ENDBRANCH  60  83
ENDBRANCH  34  35
ENDBRANCH  26  29
ENDBRANCH  24  25
ENDBRANCH  23  24
ENDBRANCH   1  23
TORSDOF 18
ENDMDL
