MODEL 1
REMARK VINA RESULT:     -11.8      0.000      0.000
REMARK SMILES COc1ccc(CCn2cc(C(=O)NCCCNC(=O)c3ccc(-c4c5nc(c(-c6cc(S(=O)(=O)[O-])ccc6F)c6ccc([nH]6)c(-c6cc(S(=O)(=O)[O-])ccc6F)c6nc(c(-c7cc(S(=O)(=O)[O-])ccc7F)c7ccc4[nH]7)C=C6)C=C5)cc3)ccc2=O)cc1OC
REMARK SMILES IDX 15 1 14 2 12 3 13 4 11 6 9 7 10 8 86 9 85 10 87 11 84 12
REMARK SMILES IDX 8 13 7 14 6 15 3 16 4 17 89 18 5 19 88 20 2 21 1 22 90 23
REMARK SMILES IDX 91 24 16 25 17 26 18 27 19 28 20 30 21 31 22 32 83 33 23 34
REMARK SMILES IDX 82 35 24 36 25 37 26 38 76 39 27 40 81 41 75 42 77 43 28 44
REMARK SMILES IDX 80 45 74 46 73 47 29 49 61 50 41 51 60 52 42 53 45 54 59 55
REMARK SMILES IDX 78 56 43 57 44 58 58 60 79 61 46 62 30 63 31 64 39 65 32 66
REMARK SMILES IDX 38 67 40 68 37 69 33 70 34 71 35 72 36 73 62 74 63 75 71 76
REMARK SMILES IDX 64 77 70 78 72 79 69 80 65 81 66 82 67 83 68 84 47 85 48 86
REMARK SMILES IDX 56 87 49 88 55 89 57 90 54 91 50 92 51 93 52 94 53 95
REMARK H PARENT 14 5 18 29 77 48 45 59
REMARK Flexibility Score: inf
ROOT
ATOM      1  C   UNL A   1      35.379  20.541  24.869  1.00  0.00     0.118 C 
ENDROOT
BRANCH   1   2
ATOM      2  N   UNL A   1      34.316  19.627  25.255  1.00  0.00    -0.352 N 
ATOM      3  C   UNL A   1      32.962  19.753  25.293  1.00  0.00     0.252 C 
ATOM      4  O   UNL A   1      32.307  18.806  25.733  1.00  0.00    -0.269 OA
ATOM      5  H   UNL A   1      34.639  18.744  25.547  1.00  0.00     0.163 HD
BRANCH   3   6
ATOM      6  C   UNL A   1      32.262  20.927  24.683  1.00  0.00     0.056 A 
ATOM      7  N   UNL A   1      31.187  23.066  24.779  1.00  0.00    -0.314 N 
ATOM      8  C   UNL A   1      31.626  21.884  25.380  1.00  0.00     0.103 A 
ATOM      9  C   UNL A   1      31.415  23.311  23.420  1.00  0.00     0.250 A 
ATOM     10  C   UNL A   1      31.828  22.129  22.619  1.00  0.00     0.072 A 
ATOM     11  O   UNL A   1      31.270  24.381  22.847  1.00  0.00    -0.269 OA
ATOM     12  C   UNL A   1      32.235  21.017  23.235  1.00  0.00     0.021 A 
BRANCH   7  13
ATOM     13  C   UNL A   1      30.727  24.149  25.663  1.00  0.00     0.130 C 
BRANCH  13  14
ATOM     14  C   UNL A   1      31.773  24.943  26.463  1.00  0.00     0.057 C 
BRANCH  14  15
ATOM     15  C   UNL A   1      31.823  26.441  26.260  1.00  0.00    -0.042 A 
ATOM     16  C   UNL A   1      31.692  29.212  25.758  1.00  0.00     0.160 A 
ATOM     17  C   UNL A   1      31.642  28.722  27.067  1.00  0.00     0.051 A 
ATOM     18  C   UNL A   1      31.843  28.328  24.686  1.00  0.00     0.160 A 
ATOM     19  C   UNL A   1      31.692  27.350  27.313  1.00  0.00     0.008 A 
ATOM     20  C   UNL A   1      31.899  26.951  24.954  1.00  0.00     0.054 A 
BRANCH  16  21
ATOM     21  O   UNL A   1      31.641  30.568  25.577  1.00  0.00    -0.493 OA
ATOM     22  C   UNL A   1      32.050  31.261  26.757  1.00  0.00     0.278 C 
ENDBRANCH  16  21
BRANCH  18  23
ATOM     23  O   UNL A   1      31.932  28.607  23.350  1.00  0.00    -0.493 OA
ATOM     24  C   UNL A   1      33.198  28.948  22.811  1.00  0.00     0.278 C 
ENDBRANCH  18  23
ENDBRANCH  14  15
ENDBRANCH  13  14
ENDBRANCH   7  13
ENDBRANCH   3   6
ENDBRANCH   1   2
BRANCH   1  25
ATOM     25  C   UNL A   1      35.542  21.635  25.923  1.00  0.00     0.042 C 
BRANCH  25  26
ATOM     26  C   UNL A   1      36.940  22.252  25.921  1.00  0.00     0.118 C 
BRANCH  26  27
ATOM     27  N   UNL A   1      37.967  21.236  26.090  1.00  0.00    -0.352 N 
ATOM     28  C   UNL A   1      39.312  21.367  26.320  1.00  0.00     0.251 C 
ATOM     29  H   UNL A   1      37.646  20.308  26.031  1.00  0.00     0.163 HD
ATOM     30  O   UNL A   1      40.035  20.388  26.155  1.00  0.00    -0.269 OA
BRANCH  28  31
ATOM     31  C   UNL A   1      39.889  22.660  26.751  1.00  0.00     0.039 A 
ATOM     32  C   UNL A   1      39.467  23.824  26.103  1.00  0.00     0.014 A 
ATOM     33  C   UNL A   1      40.884  22.730  27.731  1.00  0.00     0.014 A 
ATOM     34  C   UNL A   1      40.019  25.055  26.458  1.00  0.00     0.010 A 
ATOM     35  C   UNL A   1      41.378  23.969  28.138  1.00  0.00     0.010 A 
ATOM     36  C   UNL A   1      40.962  25.142  27.495  1.00  0.00    -0.014 A 
BRANCH  36  37
ATOM     37  C   UNL A   1      41.512  26.462  27.898  1.00  0.00     0.031 A 
ATOM     38  C   UNL A   1      42.914  26.856  27.519  1.00  0.00     0.074 A 
ATOM     39  C   UNL A   1      40.742  27.300  28.618  1.00  0.00     0.049 A 
ATOM     40  N   UNL A   1      43.552  27.975  27.755  1.00  0.00    -0.248 NA
ATOM     41  C   UNL A   1      43.716  25.850  26.806  1.00  0.00     0.031 C 
ATOM     42  C   UNL A   1      39.385  27.003  29.087  1.00  0.00     0.029 A 
ATOM     43  N   UNL A   1      40.977  28.573  29.074  1.00  0.00    -0.354 N 
ATOM     44  C   UNL A   1      44.825  27.809  27.221  1.00  0.00     0.074 A 
ATOM     45  C   UNL A   1      44.892  26.454  26.715  1.00  0.00     0.031 C 
ATOM     46  C   UNL A   1      38.895  28.078  29.723  1.00  0.00     0.029 A 
ATOM     47  C   UNL A   1      39.911  29.125  29.745  1.00  0.00     0.049 A 
ATOM     48  H   UNL A   1      41.829  29.045  28.933  1.00  0.00     0.167 HD
ATOM     49  C   UNL A   1      45.837  28.710  27.139  1.00  0.00     0.034 A 
ATOM     50  C   UNL A   1      39.766  30.338  30.311  1.00  0.00     0.034 A 
ATOM     51  C   UNL A   1      45.750  30.058  27.650  1.00  0.00     0.049 A 
ATOM     52  C   UNL A   1      40.905  31.320  30.212  1.00  0.00     0.074 A 
ATOM     53  C   UNL A   1      46.692  31.070  27.585  1.00  0.00     0.029 A 
ATOM     54  N   UNL A   1      44.657  30.582  28.332  1.00  0.00    -0.354 N 
ATOM     55  N   UNL A   1      42.083  31.167  29.648  1.00  0.00    -0.248 NA
ATOM     56  C   UNL A   1      40.687  32.642  30.806  1.00  0.00     0.031 C 
ATOM     57  C   UNL A   1      46.200  32.176  28.286  1.00  0.00     0.029 A 
ATOM     58  C   UNL A   1      44.916  31.889  28.719  1.00  0.00     0.049 A 
ATOM     59  H   UNL A   1      43.822  30.095  28.516  1.00  0.00     0.167 HD
ATOM     60  C   UNL A   1      42.735  32.388  29.799  1.00  0.00     0.074 A 
ATOM     61  C   UNL A   1      41.804  33.270  30.475  1.00  0.00     0.031 C 
ATOM     62  C   UNL A   1      43.987  32.750  29.416  1.00  0.00     0.034 A 
BRANCH  49  63
ATOM     63  C   UNL A   1      47.127  28.253  26.494  1.00  0.00     0.023 A 
ATOM     64  C   UNL A   1      47.312  28.290  25.100  1.00  0.00     0.031 A 
ATOM     65  C   UNL A   1      48.178  27.746  27.279  1.00  0.00     0.131 A 
ATOM     66  C   UNL A   1      48.480  27.760  24.530  1.00  0.00     0.055 A 
ATOM     67  C   UNL A   1      49.374  27.299  26.713  1.00  0.00     0.041 A 
ATOM     68  F   UNL A   1      48.056  27.663  28.614  1.00  0.00    -0.206 F 
ATOM     69  C   UNL A   1      49.525  27.290  25.329  1.00  0.00     0.022 A 
BRANCH  66  70
ATOM     70  S   UNL A   1      48.551  27.555  22.730  1.00  0.00     0.124 S 
ATOM     71  O   UNL A   1      47.336  28.248  22.306  1.00  0.00    -0.237 OA
ATOM     72  O   UNL A   1      49.811  28.207  22.388  1.00  0.00    -0.237 OA
ATOM     73  O   UNL A   1      48.528  26.106  22.548  1.00  0.00    -0.744 OA
ENDBRANCH  66  70
ENDBRANCH  49  63
BRANCH  50  74
ATOM     74  C   UNL A   1      38.502  30.700  31.014  1.00  0.00     0.023 A 
ATOM     75  C   UNL A   1      37.461  31.358  30.340  1.00  0.00     0.031 A 
ATOM     76  C   UNL A   1      38.333  30.429  32.384  1.00  0.00     0.131 A 
ATOM     77  C   UNL A   1      36.320  31.770  31.047  1.00  0.00     0.055 A 
ATOM     78  C   UNL A   1      37.171  30.788  33.070  1.00  0.00     0.041 A 
ATOM     79  F   UNL A   1      39.294  29.795  33.075  1.00  0.00    -0.206 F 
ATOM     80  C   UNL A   1      36.163  31.477  32.404  1.00  0.00     0.022 A 
BRANCH  77  81
ATOM     81  S   UNL A   1      35.081  32.777  30.185  1.00  0.00     0.124 S 
ATOM     82  O   UNL A   1      34.083  32.978  31.230  1.00  0.00    -0.237 OA
ATOM     83  O   UNL A   1      35.857  33.951  29.804  1.00  0.00    -0.237 OA
ATOM     84  O   UNL A   1      34.661  31.923  29.075  1.00  0.00    -0.744 OA
ENDBRANCH  77  81
ENDBRANCH  50  74
BRANCH  62  85
ATOM     85  C   UNL A   1      44.397  34.176  29.703  1.00  0.00     0.023 A 
ATOM     86  C   UNL A   1      44.106  35.221  28.807  1.00  0.00     0.031 A 
ATOM     87  C   UNL A   1      45.136  34.486  30.858  1.00  0.00     0.131 A 
ATOM     88  C   UNL A   1      44.627  36.503  29.035  1.00  0.00     0.055 A 
ATOM     89  C   UNL A   1      45.585  35.781  31.119  1.00  0.00     0.041 A 
ATOM     90  F   UNL A   1      45.448  33.531  31.749  1.00  0.00    -0.206 F 
ATOM     91  C   UNL A   1      45.350  36.794  30.194  1.00  0.00     0.022 A 
BRANCH  88  92
ATOM     92  S   UNL A   1      44.473  37.747  27.723  1.00  0.00     0.124 S 
ATOM     93  O   UNL A   1      45.743  37.602  27.018  1.00  0.00    -0.237 OA
ATOM     94  O   UNL A   1      43.288  37.293  27.002  1.00  0.00    -0.237 OA
ATOM     95  O   UNL A   1      44.310  39.001  28.457  1.00  0.00    -0.744 OA
ENDBRANCH  88  92
ENDBRANCH  62  85
ENDBRANCH  36  37
ENDBRANCH  28  31
ENDBRANCH  26  27
ENDBRANCH  25  26
ENDBRANCH   1  25
TORSDOF 18
ENDMDL
MODEL 2
REMARK VINA RESULT:     -11.5      4.849     10.025
REMARK SMILES COc1ccc(CCn2cc(C(=O)NCCCNC(=O)c3ccc(-c4c5nc(c(-c6cc(S(=O)(=O)[O-])ccc6F)c6ccc([nH]6)c(-c6cc(S(=O)(=O)[O-])ccc6F)c6nc(c(-c7cc(S(=O)(=O)[O-])ccc7F)c7ccc4[nH]7)C=C6)C=C5)cc3)ccc2=O)cc1OC
REMARK SMILES IDX 15 1 14 2 12 3 13 4 11 6 9 7 10 8 86 9 85 10 87 11 84 12
REMARK SMILES IDX 8 13 7 14 6 15 3 16 4 17 89 18 5 19 88 20 2 21 1 22 90 23
REMARK SMILES IDX 91 24 16 25 17 26 18 27 19 28 20 30 21 31 22 32 83 33 23 34
REMARK SMILES IDX 82 35 24 36 25 37 26 38 76 39 27 40 81 41 75 42 77 43 28 44
REMARK SMILES IDX 80 45 74 46 73 47 29 49 61 50 41 51 60 52 42 53 45 54 59 55
REMARK SMILES IDX 78 56 43 57 44 58 58 60 79 61 46 62 30 63 31 64 39 65 32 66
REMARK SMILES IDX 38 67 40 68 37 69 33 70 34 71 35 72 36 73 62 74 63 75 71 76
REMARK SMILES IDX 64 77 70 78 72 79 69 80 65 81 66 82 67 83 68 84 47 85 48 86
REMARK SMILES IDX 56 87 49 88 55 89 57 90 54 91 50 92 51 93 52 94 53 95
REMARK H PARENT 14 5 18 29 77 48 45 59
REMARK Flexibility Score: inf
ROOT
ATOM      1  C   UNL A   1      31.667  28.690  27.118  1.00  0.00     0.118 C 
ENDROOT
BRANCH   1   2
ATOM      2  N   UNL A   1      30.972  27.413  27.085  1.00  0.00    -0.352 N 
ATOM      3  C   UNL A   1      30.889  26.434  26.144  1.00  0.00     0.252 C 
ATOM      4  O   UNL A   1      30.158  25.470  26.378  1.00  0.00    -0.269 OA
ATOM      5  H   UNL A   1      30.460  27.219  27.903  1.00  0.00     0.163 HD
BRANCH   3   6
ATOM      6  C   UNL A   1      31.765  26.431  24.930  1.00  0.00     0.056 A 
ATOM      7  N   UNL A   1      33.589  25.616  23.607  1.00  0.00    -0.314 N 
ATOM      8  C   UNL A   1      32.929  25.767  24.829  1.00  0.00     0.103 A 
ATOM      9  C   UNL A   1      33.047  26.136  22.426  1.00  0.00     0.250 A 
ATOM     10  C   UNL A   1      31.946  27.118  22.608  1.00  0.00     0.072 A 
ATOM     11  O   UNL A   1      33.421  25.884  21.291  1.00  0.00    -0.269 OA
ATOM     12  C   UNL A   1      31.346  27.234  23.795  1.00  0.00     0.021 A 
BRANCH   7  13
ATOM     13  C   UNL A   1      34.717  24.672  23.556  1.00  0.00     0.130 C 
BRANCH  13  14
ATOM     14  C   UNL A   1      34.865  23.637  24.684  1.00  0.00     0.057 C 
BRANCH  14  15
ATOM     15  C   UNL A   1      34.246  22.274  24.471  1.00  0.00    -0.042 A 
ATOM     16  C   UNL A   1      33.131  19.689  24.323  1.00  0.00     0.160 A 
ATOM     17  C   UNL A   1      32.347  20.819  24.068  1.00  0.00     0.051 A 
ATOM     18  C   UNL A   1      34.489  19.833  24.620  1.00  0.00     0.160 A 
ATOM     19  C   UNL A   1      32.897  22.099  24.157  1.00  0.00     0.008 A 
ATOM     20  C   UNL A   1      35.026  21.128  24.697  1.00  0.00     0.054 A 
BRANCH  16  21
ATOM     21  O   UNL A   1      32.537  18.460  24.220  1.00  0.00    -0.493 OA
ATOM     22  C   UNL A   1      32.423  18.055  22.855  1.00  0.00     0.278 C 
ENDBRANCH  16  21
BRANCH  18  23
ATOM     23  O   UNL A   1      35.418  18.863  24.878  1.00  0.00    -0.493 OA
ATOM     24  C   UNL A   1      36.791  19.211  24.835  1.00  0.00     0.278 C 
ENDBRANCH  18  23
ENDBRANCH  14  15
ENDBRANCH  13  14
ENDBRANCH   7  13
ENDBRANCH   3   6
ENDBRANCH   1   2
BRANCH   1  25
ATOM     25  C   UNL A   1      33.177  28.465  27.203  1.00  0.00     0.042 C 
BRANCH  25  26
ATOM     26  C   UNL A   1      33.974  29.522  26.439  1.00  0.00     0.118 C 
BRANCH  26  27
ATOM     27  N   UNL A   1      33.825  30.836  27.043  1.00  0.00    -0.352 N 
ATOM     28  C   UNL A   1      34.511  31.418  28.076  1.00  0.00     0.251 C 
ATOM     29  H   UNL A   1      33.120  31.397  26.646  1.00  0.00     0.163 HD
ATOM     30  O   UNL A   1      34.041  32.423  28.603  1.00  0.00    -0.269 OA
BRANCH  28  31
ATOM     31  C   UNL A   1      35.789  30.849  28.558  1.00  0.00     0.039 A 
ATOM     32  C   UNL A   1      36.982  31.379  28.058  1.00  0.00     0.014 A 
ATOM     33  C   UNL A   1      35.825  29.762  29.437  1.00  0.00     0.014 A 
ATOM     34  C   UNL A   1      38.204  30.840  28.462  1.00  0.00     0.010 A 
ATOM     35  C   UNL A   1      37.047  29.276  29.899  1.00  0.00     0.010 A 
ATOM     36  C   UNL A   1      38.249  29.799  29.404  1.00  0.00    -0.014 A 
BRANCH  36  37
ATOM     37  C   UNL A   1      39.555  29.261  29.863  1.00  0.00     0.031 A 
ATOM     38  C   UNL A   1      40.265  29.872  31.041  1.00  0.00     0.074 A 
ATOM     39  C   UNL A   1      40.104  28.223  29.203  1.00  0.00     0.049 A 
ATOM     40  N   UNL A   1      41.393  29.519  31.602  1.00  0.00    -0.248 NA
ATOM     41  C   UNL A   1      39.638  31.054  31.651  1.00  0.00     0.031 C 
ATOM     42  C   UNL A   1      39.532  27.583  28.015  1.00  0.00     0.029 A 
ATOM     43  N   UNL A   1      41.255  27.513  29.437  1.00  0.00    -0.354 N 
ATOM     44  C   UNL A   1      41.613  30.431  32.628  1.00  0.00     0.074 A 
ATOM     45  C   UNL A   1      40.536  31.397  32.564  1.00  0.00     0.031 C 
ATOM     46  C   UNL A   1      40.309  26.551  27.654  1.00  0.00     0.029 A 
ATOM     47  C   UNL A   1      41.455  26.478  28.554  1.00  0.00     0.049 A 
ATOM     48  H   UNL A   1      41.879  27.727  30.168  1.00  0.00     0.167 HD
ATOM     49  C   UNL A   1      42.605  30.448  33.554  1.00  0.00     0.034 A 
ATOM     50  C   UNL A   1      42.446  25.570  28.480  1.00  0.00     0.034 A 
ATOM     51  C   UNL A   1      43.670  29.473  33.601  1.00  0.00     0.049 A 
ATOM     52  C   UNL A   1      43.541  25.612  29.516  1.00  0.00     0.074 A 
ATOM     53  C   UNL A   1      44.703  29.365  34.517  1.00  0.00     0.029 A 
ATOM     54  N   UNL A   1      43.847  28.442  32.686  1.00  0.00    -0.354 N 
ATOM     55  N   UNL A   1      43.699  26.446  30.519  1.00  0.00    -0.248 NA
ATOM     56  C   UNL A   1      44.576  24.578  29.420  1.00  0.00     0.031 C 
ATOM     57  C   UNL A   1      45.539  28.318  34.116  1.00  0.00     0.029 A 
ATOM     58  C   UNL A   1      44.987  27.714  32.998  1.00  0.00     0.049 A 
ATOM     59  H   UNL A   1      43.250  28.255  31.925  1.00  0.00     0.167 HD
ATOM     60  C   UNL A   1      44.842  26.017  31.189  1.00  0.00     0.074 A 
ATOM     61  C   UNL A   1      45.306  24.833  30.494  1.00  0.00     0.031 C 
ATOM     62  C   UNL A   1      45.453  26.550  32.279  1.00  0.00     0.034 A 
BRANCH  49  63
ATOM     63  C   UNL A   1      42.592  31.569  34.570  1.00  0.00     0.023 A 
ATOM     64  C   UNL A   1      41.730  31.551  35.681  1.00  0.00     0.031 A 
ATOM     65  C   UNL A   1      43.433  32.686  34.413  1.00  0.00     0.131 A 
ATOM     66  C   UNL A   1      41.671  32.657  36.544  1.00  0.00     0.055 A 
ATOM     67  C   UNL A   1      43.431  33.745  35.323  1.00  0.00     0.041 A 
ATOM     68  F   UNL A   1      44.263  32.774  33.361  1.00  0.00    -0.206 F 
ATOM     69  C   UNL A   1      42.535  33.743  36.388  1.00  0.00     0.022 A 
BRANCH  66  70
ATOM     70  S   UNL A   1      40.346  32.723  37.781  1.00  0.00     0.124 S 
ATOM     71  O   UNL A   1      39.969  34.134  37.733  1.00  0.00    -0.237 OA
ATOM     72  O   UNL A   1      39.368  31.782  37.245  1.00  0.00    -0.237 OA
ATOM     73  O   UNL A   1      41.006  32.303  39.015  1.00  0.00    -0.744 OA
ENDBRANCH  66  70
ENDBRANCH  49  63
BRANCH  50  74
ATOM     74  C   UNL A   1      42.454  24.543  27.399  1.00  0.00     0.023 A 
ATOM     75  C   UNL A   1      41.641  23.400  27.479  1.00  0.00     0.031 A 
ATOM     76  C   UNL A   1      43.306  24.668  26.287  1.00  0.00     0.131 A 
ATOM     77  C   UNL A   1      41.734  22.404  26.494  1.00  0.00     0.055 A 
ATOM     78  C   UNL A   1      43.353  23.703  25.280  1.00  0.00     0.041 A 
ATOM     79  F   UNL A   1      44.099  25.744  26.157  1.00  0.00    -0.206 F 
ATOM     80  C   UNL A   1      42.575  22.555  25.389  1.00  0.00     0.022 A 
BRANCH  77  81
ATOM     81  S   UNL A   1      40.806  20.863  26.726  1.00  0.00     0.124 S 
ATOM     82  O   UNL A   1      41.645  19.902  26.020  1.00  0.00    -0.237 OA
ATOM     83  O   UNL A   1      40.777  20.744  28.180  1.00  0.00    -0.237 OA
ATOM     84  O   UNL A   1      39.516  21.146  26.101  1.00  0.00    -0.744 OA
ENDBRANCH  77  81
ENDBRANCH  50  74
BRANCH  62  85
ATOM     85  C   UNL A   1      46.677  25.825  32.791  1.00  0.00     0.023 A 
ATOM     86  C   UNL A   1      46.574  24.741  33.680  1.00  0.00     0.031 A 
ATOM     87  C   UNL A   1      47.964  26.261  32.430  1.00  0.00     0.131 A 
ATOM     88  C   UNL A   1      47.731  24.187  34.246  1.00  0.00     0.055 A 
ATOM     89  C   UNL A   1      49.115  25.654  32.936  1.00  0.00     0.041 A 
ATOM     90  F   UNL A   1      48.128  27.293  31.587  1.00  0.00    -0.206 F 
ATOM     91  C   UNL A   1      49.002  24.625  33.867  1.00  0.00     0.022 A 
BRANCH  88  92
ATOM     92  S   UNL A   1      47.548  22.989  35.596  1.00  0.00     0.124 S 
ATOM     93  O   UNL A   1      48.119  23.717  36.726  1.00  0.00    -0.237 OA
ATOM     94  O   UNL A   1      46.104  22.784  35.636  1.00  0.00    -0.237 OA
ATOM     95  O   UNL A   1      48.327  21.839  35.142  1.00  0.00    -0.744 OA
ENDBRANCH  88  92
ENDBRANCH  62  85
ENDBRANCH  36  37
ENDBRANCH  28  31
ENDBRANCH  26  27
ENDBRANCH  25  26
ENDBRANCH   1  25
TORSDOF 18
ENDMDL
MODEL 3
REMARK VINA RESULT:     -11.5      5.524      8.897
REMARK SMILES COc1ccc(CCn2cc(C(=O)NCCCNC(=O)c3ccc(-c4c5nc(c(-c6cc(S(=O)(=O)[O-])ccc6F)c6ccc([nH]6)c(-c6cc(S(=O)(=O)[O-])ccc6F)c6nc(c(-c7cc(S(=O)(=O)[O-])ccc7F)c7ccc4[nH]7)C=C6)C=C5)cc3)ccc2=O)cc1OC
REMARK SMILES IDX 15 1 14 2 12 3 13 4 11 6 9 7 10 8 86 9 85 10 87 11 84 12
REMARK SMILES IDX 8 13 7 14 6 15 3 16 4 17 89 18 5 19 88 20 2 21 1 22 90 23
REMARK SMILES IDX 91 24 16 25 17 26 18 27 19 28 20 30 21 31 22 32 83 33 23 34
REMARK SMILES IDX 82 35 24 36 25 37 26 38 76 39 27 40 81 41 75 42 77 43 28 44
REMARK SMILES IDX 80 45 74 46 73 47 29 49 61 50 41 51 60 52 42 53 45 54 59 55
REMARK SMILES IDX 78 56 43 57 44 58 58 60 79 61 46 62 30 63 31 64 39 65 32 66
REMARK SMILES IDX 38 67 40 68 37 69 33 70 34 71 35 72 36 73 62 74 63 75 71 76
REMARK SMILES IDX 64 77 70 78 72 79 69 80 65 81 66 82 67 83 68 84 47 85 48 86
REMARK SMILES IDX 56 87 49 88 55 89 57 90 54 91 50 92 51 93 52 94 53 95
REMARK H PARENT 14 5 18 29 77 48 45 59
REMARK Flexibility Score: inf
ROOT
ATOM      1  C   UNL A   1      31.399  30.703  25.790  1.00  0.00     0.118 C 
ENDROOT
BRANCH   1   2
ATOM      2  N   UNL A   1      30.622  30.745  24.562  1.00  0.00    -0.352 N 
ATOM      3  C   UNL A   1      30.286  29.792  23.652  1.00  0.00     0.252 C 
ATOM      4  O   UNL A   1      29.652  30.143  22.656  1.00  0.00    -0.269 OA
ATOM      5  H   UNL A   1      30.269  31.638  24.347  1.00  0.00     0.163 HD
BRANCH   3   6
ATOM      6  C   UNL A   1      30.531  28.337  23.907  1.00  0.00     0.056 A 
ATOM      7  N   UNL A   1      31.888  26.478  24.573  1.00  0.00    -0.314 N 
ATOM      8  C   UNL A   1      31.740  27.792  24.121  1.00  0.00     0.103 A 
ATOM      9  C   UNL A   1      30.771  25.680  24.846  1.00  0.00     0.250 A 
ATOM     10  C   UNL A   1      29.480  26.186  24.312  1.00  0.00     0.072 A 
ATOM     11  O   UNL A   1      30.777  24.612  25.440  1.00  0.00    -0.269 OA
ATOM     12  C   UNL A   1      29.384  27.447  23.884  1.00  0.00     0.021 A 
BRANCH   7  13
ATOM     13  C   UNL A   1      33.229  26.056  25.009  1.00  0.00     0.130 C 
BRANCH  13  14
ATOM     14  C   UNL A   1      34.122  25.295  24.016  1.00  0.00     0.057 C 
BRANCH  14  15
ATOM     15  C   UNL A   1      34.175  23.788  24.132  1.00  0.00    -0.042 A 
ATOM     16  C   UNL A   1      34.253  21.009  24.601  1.00  0.00     0.160 A 
ATOM     17  C   UNL A   1      33.197  21.581  23.885  1.00  0.00     0.051 A 
ATOM     18  C   UNL A   1      35.301  21.811  25.060  1.00  0.00     0.160 A 
ATOM     19  C   UNL A   1      33.152  22.959  23.667  1.00  0.00     0.008 A 
ATOM     20  C   UNL A   1      35.243  23.193  24.824  1.00  0.00     0.054 A 
BRANCH  16  21
ATOM     21  O   UNL A   1      34.245  19.652  24.783  1.00  0.00    -0.493 OA
ATOM     22  C   UNL A   1      33.012  19.081  24.343  1.00  0.00     0.278 C 
ENDBRANCH  16  21
BRANCH  18  23
ATOM     23  O   UNL A   1      36.422  21.443  25.754  1.00  0.00    -0.493 OA
ATOM     24  C   UNL A   1      37.651  22.078  25.440  1.00  0.00     0.278 C 
ENDBRANCH  18  23
ENDBRANCH  14  15
ENDBRANCH  13  14
ENDBRANCH   7  13
ENDBRANCH   3   6
ENDBRANCH   1   2
BRANCH   1  25
ATOM     25  C   UNL A   1      31.335  32.055  26.501  1.00  0.00     0.042 C 
BRANCH  25  26
ATOM     26  C   UNL A   1      32.634  32.403  27.226  1.00  0.00     0.118 C 
BRANCH  26  27
ATOM     27  N   UNL A   1      32.703  33.821  27.538  1.00  0.00    -0.352 N 
ATOM     28  C   UNL A   1      33.393  34.477  28.524  1.00  0.00     0.251 C 
ATOM     29  H   UNL A   1      32.172  34.402  26.948  1.00  0.00     0.163 HD
ATOM     30  O   UNL A   1      33.092  35.641  28.778  1.00  0.00    -0.269 OA
BRANCH  28  31
ATOM     31  C   UNL A   1      34.473  33.802  29.277  1.00  0.00     0.039 A 
ATOM     32  C   UNL A   1      35.798  34.126  28.973  1.00  0.00     0.014 A 
ATOM     33  C   UNL A   1      34.199  32.810  30.225  1.00  0.00     0.014 A 
ATOM     34  C   UNL A   1      36.840  33.481  29.637  1.00  0.00     0.010 A 
ATOM     35  C   UNL A   1      35.239  32.221  30.942  1.00  0.00     0.010 A 
ATOM     36  C   UNL A   1      36.571  32.539  30.644  1.00  0.00    -0.014 A 
BRANCH  36  37
ATOM     37  C   UNL A   1      37.687  31.888  31.378  1.00  0.00     0.031 A 
ATOM     38  C   UNL A   1      38.498  30.799  30.731  1.00  0.00     0.074 A 
ATOM     39  C   UNL A   1      37.957  32.279  32.639  1.00  0.00     0.049 A 
ATOM     40  N   UNL A   1      39.526  30.140  31.204  1.00  0.00    -0.248 NA
ATOM     41  C   UNL A   1      38.084  30.375  29.385  1.00  0.00     0.031 C 
ATOM     42  C   UNL A   1      37.204  33.289  33.387  1.00  0.00     0.029 A 
ATOM     43  N   UNL A   1      38.941  31.888  33.512  1.00  0.00    -0.354 N 
ATOM     44  C   UNL A   1      39.880  29.225  30.218  1.00  0.00     0.074 A 
ATOM     45  C   UNL A   1      38.911  29.366  29.151  1.00  0.00     0.031 C 
ATOM     46  C   UNL A   1      37.779  33.469  34.586  1.00  0.00     0.029 A 
ATOM     47  C   UNL A   1      38.915  32.561  34.711  1.00  0.00     0.049 A 
ATOM     48  H   UNL A   1      39.602  31.190  33.300  1.00  0.00     0.167 HD
ATOM     49  C   UNL A   1      40.929  28.365  30.193  1.00  0.00     0.034 A 
ATOM     50  C   UNL A   1      39.716  32.462  35.788  1.00  0.00     0.034 A 
ATOM     51  C   UNL A   1      41.886  28.240  31.268  1.00  0.00     0.049 A 
ATOM     52  C   UNL A   1      40.872  31.496  35.740  1.00  0.00     0.074 A 
ATOM     53  C   UNL A   1      43.011  27.437  31.335  1.00  0.00     0.029 A 
ATOM     54  N   UNL A   1      41.824  28.932  32.473  1.00  0.00    -0.354 N 
ATOM     55  N   UNL A   1      41.230  30.681  34.772  1.00  0.00    -0.248 NA
ATOM     56  C   UNL A   1      41.743  31.453  36.919  1.00  0.00     0.031 C 
ATOM     57  C   UNL A   1      43.586  27.589  32.602  1.00  0.00     0.029 A 
ATOM     58  C   UNL A   1      42.872  28.550  33.298  1.00  0.00     0.049 A 
ATOM     59  H   UNL A   1      41.136  29.596  32.707  1.00  0.00     0.167 HD
ATOM     60  C   UNL A   1      42.386  30.048  35.221  1.00  0.00     0.074 A 
ATOM     61  C   UNL A   1      42.678  30.602  36.527  1.00  0.00     0.031 C 
ATOM     62  C   UNL A   1      43.137  29.094  34.611  1.00  0.00     0.034 A 
BRANCH  49  63
ATOM     63  C   UNL A   1      41.076  27.480  28.975  1.00  0.00     0.023 A 
ATOM     64  C   UNL A   1      42.070  27.712  28.007  1.00  0.00     0.031 A 
ATOM     65  C   UNL A   1      40.196  26.404  28.762  1.00  0.00     0.131 A 
ATOM     66  C   UNL A   1      42.110  26.935  26.838  1.00  0.00     0.055 A 
ATOM     67  C   UNL A   1      40.294  25.580  27.639  1.00  0.00     0.041 A 
ATOM     68  F   UNL A   1      39.212  26.143  29.638  1.00  0.00    -0.206 F 
ATOM     69  C   UNL A   1      41.245  25.853  26.660  1.00  0.00     0.022 A 
BRANCH  66  70
ATOM     70  S   UNL A   1      43.205  27.453  25.489  1.00  0.00     0.124 S 
ATOM     71  O   UNL A   1      42.282  28.186  24.625  1.00  0.00    -0.237 OA
ATOM     72  O   UNL A   1      44.204  28.257  26.184  1.00  0.00    -0.237 OA
ATOM     73  O   UNL A   1      43.692  26.190  24.938  1.00  0.00    -0.744 OA
ENDBRANCH  66  70
ENDBRANCH  49  63
BRANCH  50  74
ATOM     74  C   UNL A   1      39.467  33.297  36.998  1.00  0.00     0.023 A 
ATOM     75  C   UNL A   1      38.831  32.762  38.130  1.00  0.00     0.031 A 
ATOM     76  C   UNL A   1      39.825  34.657  37.025  1.00  0.00     0.131 A 
ATOM     77  C   UNL A   1      38.526  33.592  39.220  1.00  0.00     0.055 A 
ATOM     78  C   UNL A   1      39.571  35.466  38.134  1.00  0.00     0.041 A 
ATOM     79  F   UNL A   1      40.441  35.218  35.973  1.00  0.00    -0.206 F 
ATOM     80  C   UNL A   1      38.904  34.937  39.235  1.00  0.00     0.022 A 
BRANCH  77  81
ATOM     81  S   UNL A   1      37.543  32.910  40.584  1.00  0.00     0.124 S 
ATOM     82  O   UNL A   1      37.819  33.862  41.654  1.00  0.00    -0.237 OA
ATOM     83  O   UNL A   1      36.195  32.940  40.029  1.00  0.00    -0.237 OA
ATOM     84  O   UNL A   1      38.106  31.575  40.773  1.00  0.00    -0.744 OA
ENDBRANCH  77  81
ENDBRANCH  50  74
BRANCH  62  85
ATOM     85  C   UNL A   1      44.365  28.622  35.356  1.00  0.00     0.023 A 
ATOM     86  C   UNL A   1      44.298  27.595  36.315  1.00  0.00     0.031 A 
ATOM     87  C   UNL A   1      45.608  29.246  35.145  1.00  0.00     0.131 A 
ATOM     88  C   UNL A   1      45.426  27.285  37.088  1.00  0.00     0.055 A 
ATOM     89  C   UNL A   1      46.747  28.878  35.863  1.00  0.00     0.041 A 
ATOM     90  F   UNL A   1      45.735  30.234  34.246  1.00  0.00    -0.206 F 
ATOM     91  C   UNL A   1      46.655  27.907  36.857  1.00  0.00     0.022 A 
BRANCH  88  92
ATOM     92  S   UNL A   1      45.227  26.162  38.500  1.00  0.00     0.124 S 
ATOM     93  O   UNL A   1      46.314  26.586  39.378  1.00  0.00    -0.237 OA
ATOM     94  O   UNL A   1      43.878  26.477  38.959  1.00  0.00    -0.237 OA
ATOM     95  O   UNL A   1      45.388  24.835  37.908  1.00  0.00    -0.744 OA
ENDBRANCH  88  92
ENDBRANCH  62  85
ENDBRANCH  36  37
ENDBRANCH  28  31
ENDBRANCH  26  27
ENDBRANCH  25  26
ENDBRANCH   1  25
TORSDOF 18
ENDMDL
