MODEL 1
REMARK VINA RESULT:     -13.1      0.000      0.000
REMARK SMILES O=C(NCCCNC(=O)[C@H](CC1=c2ccccc2=NC1)NC(=O)c1ccc(N2CCCCC2=O)cc1)c1ccc(-c2c3nc(c(-c4cc(S(=O)(=O)[O-])ccc4F)c4ccc([nH]4)c(-c4cc(S(=O)(=O)[O-])ccc4F)c4nc(c(-c5cc(S(=O)(=O)[O-])ccc5F)c5ccc2[nH]5)C=C4)C=C3)cc1
REMARK SMILES IDX 5 1 4 2 3 3 1 4 2 5 37 7 38 8 99 9 39 10 98 11 40 12 41 13
REMARK SMILES IDX 42 14 92 15 43 16 97 17 91 18 93 19 44 20 96 21 90 22 89 23
REMARK SMILES IDX 45 25 77 26 57 27 76 28 58 29 61 30 75 31 94 32 59 33 60 34
REMARK SMILES IDX 74 36 95 37 62 38 46 39 47 40 55 41 48 42 54 43 56 44 53 45
REMARK SMILES IDX 49 46 50 47 51 48 52 49 78 50 79 51 87 52 80 53 86 54 88 55
REMARK SMILES IDX 85 56 81 57 82 58 83 59 84 60 63 61 64 62 72 63 65 64 71 65
REMARK SMILES IDX 73 66 70 67 66 68 67 69 68 70 69 71 6 72 7 73 8 74 9 76
REMARK SMILES IDX 10 77 21 78 22 79 23 81 24 82 25 83 36 84 26 85 35 86 27 87
REMARK SMILES IDX 28 88 29 89 33 90 30 91 32 92 34 93 31 94 11 95 12 96 13 97
REMARK SMILES IDX 20 98 14 99 18 100 19 101 15 102 17 103 16 104
REMARK H PARENT 3 6 93 24 61 35 7 75 21 80
REMARK Flexibility Score: inf
ROOT
ATOM      1  C   UNL A   1      37.227  20.772  24.642  1.00  0.00     0.042 C 
ENDROOT
BRANCH   1   2
ATOM      2  C   UNL A   1      38.094  21.460  25.701  1.00  0.00     0.118 C 
BRANCH   2   3
ATOM      3  N   UNL A   1      39.216  20.630  26.097  1.00  0.00    -0.352 N 
ATOM      4  O   UNL A   1      41.352  20.141  26.542  1.00  0.00    -0.269 OA
ATOM      5  C   UNL A   1      40.456  20.986  26.568  1.00  0.00     0.251 C 
ATOM      6  H   UNL A   1      39.065  19.661  26.014  1.00  0.00     0.163 HD
BRANCH   5   7
ATOM      7  C   UNL A   1      40.746  22.336  27.123  1.00  0.00     0.039 A 
ATOM      8  C   UNL A   1      40.286  23.453  26.417  1.00  0.00     0.014 A 
ATOM      9  C   UNL A   1      41.577  22.529  28.233  1.00  0.00     0.014 A 
ATOM     10  C   UNL A   1      40.665  24.744  26.805  1.00  0.00     0.010 A 
ATOM     11  C   UNL A   1      41.905  23.825  28.658  1.00  0.00     0.010 A 
ATOM     12  C   UNL A   1      41.486  24.947  27.927  1.00  0.00    -0.014 A 
BRANCH  12  13
ATOM     13  C   UNL A   1      41.945  26.322  28.283  1.00  0.00     0.031 A 
ATOM     14  C   UNL A   1      43.308  26.817  27.865  1.00  0.00     0.074 A 
ATOM     15  C   UNL A   1      41.129  27.152  28.964  1.00  0.00     0.049 A 
ATOM     16  N   UNL A   1      43.843  28.002  28.024  1.00  0.00    -0.248 NA
ATOM     17  C   UNL A   1      44.194  25.848  27.202  1.00  0.00     0.031 C 
ATOM     18  C   UNL A   1      39.806  26.792  29.468  1.00  0.00     0.029 A 
ATOM     19  N   UNL A   1      41.284  28.466  29.336  1.00  0.00    -0.354 N 
ATOM     20  C   UNL A   1      45.118  27.924  27.474  1.00  0.00     0.074 A 
ATOM     21  C   UNL A   1      45.306  26.552  27.055  1.00  0.00     0.031 C 
ATOM     22  C   UNL A   1      39.250  27.868  30.044  1.00  0.00     0.029 A 
ATOM     23  C   UNL A   1      40.186  28.991  29.979  1.00  0.00     0.049 A 
ATOM     24  H   UNL A   1      42.103  28.984  29.158  1.00  0.00     0.167 HD
ATOM     25  C   UNL A   1      46.035  28.906  27.295  1.00  0.00     0.034 A 
ATOM     26  C   UNL A   1      39.946  30.233  30.453  1.00  0.00     0.034 A 
ATOM     27  C   UNL A   1      45.842  30.277  27.702  1.00  0.00     0.049 A 
ATOM     28  C   UNL A   1      40.974  31.317  30.244  1.00  0.00     0.074 A 
ATOM     29  C   UNL A   1      46.699  31.351  27.529  1.00  0.00     0.029 A 
ATOM     30  N   UNL A   1      44.720  30.767  28.356  1.00  0.00    -0.354 N 
ATOM     31  N   UNL A   1      42.142  31.242  29.649  1.00  0.00    -0.248 NA
ATOM     32  C   UNL A   1      40.650  32.656  30.757  1.00  0.00     0.031 C 
ATOM     33  C   UNL A   1      46.122  32.474  28.127  1.00  0.00     0.029 A 
ATOM     34  C   UNL A   1      44.875  32.120  28.617  1.00  0.00     0.049 A 
ATOM     35  H   UNL A   1      43.931  30.232  28.599  1.00  0.00     0.167 HD
ATOM     36  C   UNL A   1      42.689  32.522  29.711  1.00  0.00     0.074 A 
ATOM     37  C   UNL A   1      41.704  33.361  30.363  1.00  0.00     0.031 C 
ATOM     38  C   UNL A   1      43.901  32.956  29.279  1.00  0.00     0.034 A 
BRANCH  25  39
ATOM     39  C   UNL A   1      47.327  28.555  26.592  1.00  0.00     0.023 A 
ATOM     40  C   UNL A   1      47.351  28.340  25.202  1.00  0.00     0.031 A 
ATOM     41  C   UNL A   1      48.517  28.339  27.315  1.00  0.00     0.131 A 
ATOM     42  C   UNL A   1      48.532  27.909  24.583  1.00  0.00     0.055 A 
ATOM     43  C   UNL A   1      49.701  27.954  26.688  1.00  0.00     0.041 A 
ATOM     44  F   UNL A   1      48.548  28.523  28.646  1.00  0.00    -0.206 F 
ATOM     45  C   UNL A   1      49.709  27.726  25.316  1.00  0.00     0.022 A 
BRANCH  42  46
ATOM     46  S   UNL A   1      48.578  27.510  22.814  1.00  0.00     0.124 S 
ATOM     47  O   UNL A   1      49.910  27.981  22.437  1.00  0.00    -0.237 OA
ATOM     48  O   UNL A   1      48.408  26.061  22.824  1.00  0.00    -0.237 OA
ATOM     49  O   UNL A   1      47.467  28.273  22.254  1.00  0.00    -0.744 OA
ENDBRANCH  42  46
ENDBRANCH  25  39
BRANCH  26  50
ATOM     50  C   UNL A   1      38.632  30.509  31.103  1.00  0.00     0.023 A 
ATOM     51  C   UNL A   1      37.577  31.080  30.370  1.00  0.00     0.031 A 
ATOM     52  C   UNL A   1      38.457  30.333  32.486  1.00  0.00     0.131 A 
ATOM     53  C   UNL A   1      36.433  31.537  31.037  1.00  0.00     0.055 A 
ATOM     54  C   UNL A   1      37.281  30.717  33.135  1.00  0.00     0.041 A 
ATOM     55  F   UNL A   1      39.439  29.800  33.230  1.00  0.00    -0.206 F 
ATOM     56  C   UNL A   1      36.271  31.344  32.412  1.00  0.00     0.022 A 
BRANCH  53  57
ATOM     57  S   UNL A   1      35.195  32.538  30.166  1.00  0.00     0.124 S 
ATOM     58  O   UNL A   1      34.200  32.765  31.207  1.00  0.00    -0.237 OA
ATOM     59  O   UNL A   1      35.982  33.705  29.776  1.00  0.00    -0.237 OA
ATOM     60  O   UNL A   1      34.774  31.677  29.065  1.00  0.00    -0.744 OA
ENDBRANCH  53  57
ENDBRANCH  26  50
BRANCH  38  61
ATOM     61  C   UNL A   1      44.276  34.402  29.523  1.00  0.00     0.023 A 
ATOM     62  C   UNL A   1      43.772  35.422  28.692  1.00  0.00     0.031 A 
ATOM     63  C   UNL A   1      45.231  34.753  30.493  1.00  0.00     0.131 A 
ATOM     64  C   UNL A   1      44.248  36.733  28.826  1.00  0.00     0.055 A 
ATOM     65  C   UNL A   1      45.668  36.069  30.656  1.00  0.00     0.041 A 
ATOM     66  F   UNL A   1      45.755  33.818  31.303  1.00  0.00    -0.206 F 
ATOM     67  C   UNL A   1      45.185  37.063  29.811  1.00  0.00     0.022 A 
BRANCH  64  68
ATOM     68  S   UNL A   1      43.740  38.042  27.676  1.00  0.00     0.124 S 
ATOM     69  O   UNL A   1      43.105  37.274  26.608  1.00  0.00    -0.237 OA
ATOM     70  O   UNL A   1      42.831  38.838  28.498  1.00  0.00    -0.237 OA
ATOM     71  O   UNL A   1      44.993  38.697  27.314  1.00  0.00    -0.744 OA
ENDBRANCH  64  68
ENDBRANCH  38  61
ENDBRANCH  12  13
ENDBRANCH   5   7
ENDBRANCH   2   3
ENDBRANCH   1   2
BRANCH   1  72
ATOM     72  C   UNL A   1      35.800  21.299  24.435  1.00  0.00     0.117 C 
BRANCH  72  73
ATOM     73  N   UNL A   1      34.694  20.537  25.008  1.00  0.00    -0.354 N 
ATOM     74  C   UNL A   1      33.349  20.757  25.132  1.00  0.00     0.242 C 
ATOM     75  H   UNL A   1      34.979  19.674  25.389  1.00  0.00     0.163 HD
ATOM     76  O   UNL A   1      32.673  19.740  25.336  1.00  0.00    -0.273 OA
BRANCH  74  77
ATOM     77  C   UNL A   1      32.732  22.170  25.328  1.00  0.00     0.175 C 
BRANCH  77  78
ATOM     78  N   UNL A   1      31.706  22.237  26.366  1.00  0.00    -0.340 N 
ATOM     79  C   UNL A   1      30.732  23.170  26.626  1.00  0.00     0.251 C 
ATOM     80  H   UNL A   1      31.714  21.477  26.992  1.00  0.00     0.164 HD
ATOM     81  O   UNL A   1      30.040  23.017  27.631  1.00  0.00    -0.269 OA
BRANCH  79  82
ATOM     82  C   UNL A   1      30.508  24.345  25.745  1.00  0.00     0.039 A 
ATOM     83  C   UNL A   1      30.488  25.655  26.231  1.00  0.00     0.016 A 
ATOM     84  C   UNL A   1      30.334  24.137  24.377  1.00  0.00     0.016 A 
ATOM     85  C   UNL A   1      30.213  26.731  25.398  1.00  0.00     0.027 A 
ATOM     86  C   UNL A   1      30.042  25.220  23.537  1.00  0.00     0.027 A 
ATOM     87  C   UNL A   1      29.959  26.522  24.046  1.00  0.00     0.044 A 
BRANCH  87  88
ATOM     88  N   UNL A   1      29.549  27.628  23.255  1.00  0.00    -0.312 N 
ATOM     89  C   UNL A   1      30.561  28.247  22.387  1.00  0.00     0.125 C 
ATOM     90  C   UNL A   1      28.205  28.004  23.204  1.00  0.00     0.226 C 
ATOM     91  C   UNL A   1      30.328  29.729  22.178  1.00  0.00     0.022 C 
ATOM     92  C   UNL A   1      27.916  29.389  22.649  1.00  0.00     0.101 C 
ATOM     93  O   UNL A   1      27.284  27.388  23.747  1.00  0.00    -0.275 OA
ATOM     94  C   UNL A   1      28.921  29.917  21.645  1.00  0.00     0.012 C 
ENDBRANCH  87  88
ENDBRANCH  79  82
ENDBRANCH  77  78
BRANCH  77  95
ATOM     95  C   UNL A   1      33.793  23.305  25.492  1.00  0.00     0.068 C 
BRANCH  95  96
ATOM     96  C   UNL A   1      33.751  24.422  24.465  1.00  0.00    -0.037 C 
ATOM     97  C   UNL A   1      33.782  25.739  24.687  1.00  0.00     0.001 A 
ATOM     98  C   UNL A   1      33.747  24.171  22.979  1.00  0.00     0.174 C 
ATOM     99  C   UNL A   1      33.831  26.581  25.840  1.00  0.00     0.010 A 
ATOM    100  C   UNL A   1      33.821  26.312  23.328  1.00  0.00     0.065 A 
ATOM    101  N   UNL A   1      33.835  25.492  22.327  1.00  0.00    -0.280 NA
ATOM    102  C   UNL A   1      33.884  27.913  25.668  1.00  0.00     0.001 A 
ATOM    103  C   UNL A   1      33.863  27.783  23.219  1.00  0.00     0.028 A 
ATOM    104  C   UNL A   1      33.890  28.514  24.344  1.00  0.00     0.002 A 
ENDBRANCH  95  96
ENDBRANCH  77  95
ENDBRANCH  74  77
ENDBRANCH  72  73
ENDBRANCH   1  72
TORSDOF 18
ENDMDL
MODEL 2
REMARK VINA RESULT:     -13.0      4.592      9.684
REMARK SMILES O=C(NCCCNC(=O)[C@H](CC1=c2ccccc2=NC1)NC(=O)c1ccc(N2CCCCC2=O)cc1)c1ccc(-c2c3nc(c(-c4cc(S(=O)(=O)[O-])ccc4F)c4ccc([nH]4)c(-c4cc(S(=O)(=O)[O-])ccc4F)c4nc(c(-c5cc(S(=O)(=O)[O-])ccc5F)c5ccc2[nH]5)C=C4)C=C3)cc1
REMARK SMILES IDX 5 1 4 2 3 3 1 4 2 5 37 7 38 8 99 9 39 10 98 11 40 12 41 13
REMARK SMILES IDX 42 14 92 15 43 16 97 17 91 18 93 19 44 20 96 21 90 22 89 23
REMARK SMILES IDX 45 25 77 26 57 27 76 28 58 29 61 30 75 31 94 32 59 33 60 34
REMARK SMILES IDX 74 36 95 37 62 38 46 39 47 40 55 41 48 42 54 43 56 44 53 45
REMARK SMILES IDX 49 46 50 47 51 48 52 49 78 50 79 51 87 52 80 53 86 54 88 55
REMARK SMILES IDX 85 56 81 57 82 58 83 59 84 60 63 61 64 62 72 63 65 64 71 65
REMARK SMILES IDX 73 66 70 67 66 68 67 69 68 70 69 71 6 72 7 73 8 74 9 76
REMARK SMILES IDX 10 77 21 78 22 79 23 81 24 82 25 83 36 84 26 85 35 86 27 87
REMARK SMILES IDX 28 88 29 89 33 90 30 91 32 92 34 93 31 94 11 95 12 96 13 97
REMARK SMILES IDX 20 98 14 99 18 100 19 101 15 102 17 103 16 104
REMARK H PARENT 3 6 93 24 61 35 7 75 21 80
REMARK Flexibility Score: inf
ROOT
ATOM      1  C   UNL A   1      32.398  30.059  25.621  1.00  0.00     0.042 C 
ENDROOT
BRANCH   1   2
ATOM      2  C   UNL A   1      31.856  30.668  26.917  1.00  0.00     0.118 C 
BRANCH   2   3
ATOM      3  N   UNL A   1      31.975  32.115  26.920  1.00  0.00    -0.352 N 
ATOM      4  O   UNL A   1      32.656  34.117  27.647  1.00  0.00    -0.269 OA
ATOM      5  C   UNL A   1      32.921  32.923  27.504  1.00  0.00     0.251 C 
ATOM      6  H   UNL A   1      31.268  32.590  26.428  1.00  0.00     0.163 HD
BRANCH   5   7
ATOM      7  C   UNL A   1      34.248  32.414  27.947  1.00  0.00     0.039 A 
ATOM      8  C   UNL A   1      34.321  31.110  28.450  1.00  0.00     0.014 A 
ATOM      9  C   UNL A   1      35.381  33.233  28.013  1.00  0.00     0.014 A 
ATOM     10  C   UNL A   1      35.506  30.638  29.027  1.00  0.00     0.010 A 
ATOM     11  C   UNL A   1      36.585  32.737  28.534  1.00  0.00     0.010 A 
ATOM     12  C   UNL A   1      36.653  31.448  29.083  1.00  0.00    -0.014 A 
BRANCH  12  13
ATOM     13  C   UNL A   1      37.885  30.959  29.770  1.00  0.00     0.031 A 
ATOM     14  C   UNL A   1      38.203  31.380  31.183  1.00  0.00     0.074 A 
ATOM     15  C   UNL A   1      38.718  30.108  29.138  1.00  0.00     0.049 A 
ATOM     16  N   UNL A   1      39.189  30.998  31.958  1.00  0.00    -0.248 NA
ATOM     17  C   UNL A   1      37.313  32.376  31.798  1.00  0.00     0.031 C 
ATOM     18  C   UNL A   1      38.557  29.653  27.759  1.00  0.00     0.029 A 
ATOM     19  N   UNL A   1      39.852  29.464  29.573  1.00  0.00    -0.354 N 
ATOM     20  C   UNL A   1      39.031  31.698  33.150  1.00  0.00     0.074 A 
ATOM     21  C   UNL A   1      37.906  32.588  32.964  1.00  0.00     0.031 C 
ATOM     22  C   UNL A   1      39.527  28.771  27.473  1.00  0.00     0.029 A 
ATOM     23  C   UNL A   1      40.400  28.617  28.637  1.00  0.00     0.049 A 
ATOM     24  H   UNL A   1      40.236  29.596  30.470  1.00  0.00     0.167 HD
ATOM     25  C   UNL A   1      39.727  31.584  34.308  1.00  0.00     0.034 A 
ATOM     26  C   UNL A   1      41.472  27.798  28.703  1.00  0.00     0.034 A 
ATOM     27  C   UNL A   1      40.841  30.687  34.497  1.00  0.00     0.049 A 
ATOM     28  C   UNL A   1      42.235  27.679  29.997  1.00  0.00     0.074 A 
ATOM     29  C   UNL A   1      41.584  30.475  35.646  1.00  0.00     0.029 A 
ATOM     30  N   UNL A   1      41.369  29.851  33.524  1.00  0.00    -0.354 N 
ATOM     31  N   UNL A   1      42.021  28.290  31.140  1.00  0.00    -0.248 NA
ATOM     32  C   UNL A   1      43.377  26.753  30.021  1.00  0.00     0.031 C 
ATOM     33  C   UNL A   1      42.595  29.557  35.352  1.00  0.00     0.029 A 
ATOM     34  C   UNL A   1      42.445  29.142  34.038  1.00  0.00     0.049 A 
ATOM     35  H   UNL A   1      41.030  29.773  32.603  1.00  0.00     0.167 HD
ATOM     36  C   UNL A   1      42.996  27.819  32.017  1.00  0.00     0.074 A 
ATOM     37  C   UNL A   1      43.772  26.840  31.285  1.00  0.00     0.031 C 
ATOM     38  C   UNL A   1      43.231  28.176  33.306  1.00  0.00     0.034 A 
BRANCH  25  39
ATOM     39  C   UNL A   1      39.289  32.422  35.488  1.00  0.00     0.023 A 
ATOM     40  C   UNL A   1      39.760  33.739  35.645  1.00  0.00     0.031 A 
ATOM     41  C   UNL A   1      38.481  31.883  36.508  1.00  0.00     0.131 A 
ATOM     42  C   UNL A   1      39.433  34.464  36.799  1.00  0.00     0.055 A 
ATOM     43  C   UNL A   1      38.120  32.624  37.633  1.00  0.00     0.041 A 
ATOM     44  F   UNL A   1      38.010  30.628  36.411  1.00  0.00    -0.206 F 
ATOM     45  C   UNL A   1      38.606  33.918  37.788  1.00  0.00     0.022 A 
BRANCH  42  46
ATOM     46  S   UNL A   1      40.109  36.120  37.097  1.00  0.00     0.124 S 
ATOM     47  O   UNL A   1      39.875  36.774  35.811  1.00  0.00    -0.237 OA
ATOM     48  O   UNL A   1      39.278  36.595  38.199  1.00  0.00    -0.237 OA
ATOM     49  O   UNL A   1      41.510  35.873  37.424  1.00  0.00    -0.744 OA
ENDBRANCH  42  46
ENDBRANCH  25  39
BRANCH  26  50
ATOM     50  C   UNL A   1      41.819  26.976  27.506  1.00  0.00     0.023 A 
ATOM     51  C   UNL A   1      41.647  25.581  27.522  1.00  0.00     0.031 A 
ATOM     52  C   UNL A   1      42.448  27.553  26.390  1.00  0.00     0.131 A 
ATOM     53  C   UNL A   1      42.179  24.802  26.487  1.00  0.00     0.055 A 
ATOM     54  C   UNL A   1      42.906  26.779  25.321  1.00  0.00     0.041 A 
ATOM     55  F   UNL A   1      42.642  28.879  26.333  1.00  0.00    -0.206 F 
ATOM     56  C   UNL A   1      42.793  25.393  25.377  1.00  0.00     0.022 A 
BRANCH  53  57
ATOM     57  S   UNL A   1      42.233  22.994  26.626  1.00  0.00     0.124 S 
ATOM     58  O   UNL A   1      41.053  22.715  27.437  1.00  0.00    -0.237 OA
ATOM     59  O   UNL A   1      42.149  22.588  25.226  1.00  0.00    -0.237 OA
ATOM     60  O   UNL A   1      43.518  22.739  27.270  1.00  0.00    -0.744 OA
ENDBRANCH  53  57
ENDBRANCH  26  50
BRANCH  38  61
ATOM     61  C   UNL A   1      44.404  27.546  34.025  1.00  0.00     0.023 A 
ATOM     62  C   UNL A   1      44.255  26.314  34.692  1.00  0.00     0.031 A 
ATOM     63  C   UNL A   1      45.627  28.226  34.159  1.00  0.00     0.131 A 
ATOM     64  C   UNL A   1      45.299  25.817  35.485  1.00  0.00     0.055 A 
ATOM     65  C   UNL A   1      46.682  27.705  34.911  1.00  0.00     0.041 A 
ATOM     66  F   UNL A   1      45.817  29.411  33.556  1.00  0.00    -0.206 F 
ATOM     67  C   UNL A   1      46.515  26.502  35.589  1.00  0.00     0.022 A 
BRANCH  64  68
ATOM     68  S   UNL A   1      45.092  24.315  36.481  1.00  0.00     0.124 S 
ATOM     69  O   UNL A   1      43.869  23.748  35.920  1.00  0.00    -0.237 OA
ATOM     70  O   UNL A   1      46.317  23.576  36.183  1.00  0.00    -0.237 OA
ATOM     71  O   UNL A   1      44.979  24.813  37.849  1.00  0.00    -0.744 OA
ENDBRANCH  64  68
ENDBRANCH  38  61
ENDBRANCH  12  13
ENDBRANCH   5   7
ENDBRANCH   2   3
ENDBRANCH   1   2
BRANCH   1  72
ATOM     72  C   UNL A   1      32.590  28.537  25.573  1.00  0.00     0.117 C 
BRANCH  72  73
ATOM     73  N   UNL A   1      31.461  27.688  25.940  1.00  0.00    -0.354 N 
ATOM     74  C   UNL A   1      31.324  26.359  26.236  1.00  0.00     0.242 C 
ATOM     75  H   UNL A   1      30.608  28.181  25.983  1.00  0.00     0.163 HD
ATOM     76  O   UNL A   1      30.294  26.068  26.857  1.00  0.00    -0.273 OA
BRANCH  74  77
ATOM     77  C   UNL A   1      32.198  25.248  25.589  1.00  0.00     0.175 C 
BRANCH  77  78
ATOM     78  N   UNL A   1      31.480  24.395  24.644  1.00  0.00    -0.340 N 
ATOM     79  C   UNL A   1      30.562  24.690  23.667  1.00  0.00     0.251 C 
ATOM     80  H   UNL A   1      31.694  23.437  24.722  1.00  0.00     0.164 HD
ATOM     81  O   UNL A   1      30.045  23.755  23.058  1.00  0.00    -0.269 OA
BRANCH  79  82
ATOM     82  C   UNL A   1      30.173  26.087  23.342  1.00  0.00     0.039 A 
ATOM     83  C   UNL A   1      31.009  26.954  22.634  1.00  0.00     0.016 A 
ATOM     84  C   UNL A   1      28.916  26.545  23.738  1.00  0.00     0.016 A 
ATOM     85  C   UNL A   1      30.648  28.274  22.399  1.00  0.00     0.027 A 
ATOM     86  C   UNL A   1      28.556  27.880  23.513  1.00  0.00     0.027 A 
ATOM     87  C   UNL A   1      29.429  28.760  22.861  1.00  0.00     0.044 A 
BRANCH  87  88
ATOM     88  N   UNL A   1      29.155  30.146  22.720  1.00  0.00    -0.312 N 
ATOM     89  C   UNL A   1      29.774  31.057  23.694  1.00  0.00     0.125 C 
ATOM     90  C   UNL A   1      28.451  30.621  21.611  1.00  0.00     0.226 C 
ATOM     91  C   UNL A   1      28.934  32.289  23.961  1.00  0.00     0.022 C 
ATOM     92  C   UNL A   1      27.891  32.029  21.725  1.00  0.00     0.101 C 
ATOM     93  O   UNL A   1      28.093  29.924  20.658  1.00  0.00    -0.275 OA
ATOM     94  C   UNL A   1      28.656  32.969  22.634  1.00  0.00     0.012 C 
ENDBRANCH  87  88
ENDBRANCH  79  82
ENDBRANCH  77  78
BRANCH  77  95
ATOM     95  C   UNL A   1      33.541  25.772  24.986  1.00  0.00     0.068 C 
BRANCH  95  96
ATOM     96  C   UNL A   1      34.382  24.761  24.228  1.00  0.00    -0.037 C 
ATOM     97  C   UNL A   1      35.430  24.067  24.678  1.00  0.00     0.001 A 
ATOM     98  C   UNL A   1      34.075  24.332  22.816  1.00  0.00     0.174 C 
ATOM     99  C   UNL A   1      36.157  23.994  25.906  1.00  0.00     0.010 A 
ATOM    100  C   UNL A   1      35.764  23.181  23.546  1.00  0.00     0.065 A 
ATOM    101  N   UNL A   1      35.028  23.256  22.485  1.00  0.00    -0.280 NA
ATOM    102  C   UNL A   1      37.175  23.122  26.006  1.00  0.00     0.001 A 
ATOM    103  C   UNL A   1      36.904  22.262  23.724  1.00  0.00     0.028 A 
ATOM    104  C   UNL A   1      37.553  22.258  24.899  1.00  0.00     0.002 A 
ENDBRANCH  95  96
ENDBRANCH  77  95
ENDBRANCH  74  77
ENDBRANCH  72  73
ENDBRANCH   1  72
TORSDOF 18
ENDMDL
MODEL 3
REMARK VINA RESULT:     -12.9      2.393      7.590
REMARK SMILES O=C(NCCCNC(=O)[C@H](CC1=c2ccccc2=NC1)NC(=O)c1ccc(N2CCCCC2=O)cc1)c1ccc(-c2c3nc(c(-c4cc(S(=O)(=O)[O-])ccc4F)c4ccc([nH]4)c(-c4cc(S(=O)(=O)[O-])ccc4F)c4nc(c(-c5cc(S(=O)(=O)[O-])ccc5F)c5ccc2[nH]5)C=C4)C=C3)cc1
REMARK SMILES IDX 5 1 4 2 3 3 1 4 2 5 37 7 38 8 99 9 39 10 98 11 40 12 41 13
REMARK SMILES IDX 42 14 92 15 43 16 97 17 91 18 93 19 44 20 96 21 90 22 89 23
REMARK SMILES IDX 45 25 77 26 57 27 76 28 58 29 61 30 75 31 94 32 59 33 60 34
REMARK SMILES IDX 74 36 95 37 62 38 46 39 47 40 55 41 48 42 54 43 56 44 53 45
REMARK SMILES IDX 49 46 50 47 51 48 52 49 78 50 79 51 87 52 80 53 86 54 88 55
REMARK SMILES IDX 85 56 81 57 82 58 83 59 84 60 63 61 64 62 72 63 65 64 71 65
REMARK SMILES IDX 73 66 70 67 66 68 67 69 68 70 69 71 6 72 7 73 8 74 9 76
REMARK SMILES IDX 10 77 21 78 22 79 23 81 24 82 25 83 36 84 26 85 35 86 27 87
REMARK SMILES IDX 28 88 29 89 33 90 30 91 32 92 34 93 31 94 11 95 12 96 13 97
REMARK SMILES IDX 20 98 14 99 18 100 19 101 15 102 17 103 16 104
REMARK H PARENT 3 6 93 24 61 35 7 75 21 80
REMARK Flexibility Score: inf
ROOT
ATOM      1  C   UNL A   1      37.694  20.069  25.057  1.00  0.00     0.042 C 
ENDROOT
BRANCH   1   2
ATOM      2  C   UNL A   1      38.923  20.659  25.756  1.00  0.00     0.118 C 
BRANCH   2   3
ATOM      3  N   UNL A   1      39.929  19.646  26.016  1.00  0.00    -0.352 N 
ATOM      4  O   UNL A   1      41.963  18.718  25.988  1.00  0.00    -0.269 OA
ATOM      5  C   UNL A   1      41.298  19.751  26.065  1.00  0.00     0.251 C 
ATOM      6  H   UNL A   1      39.575  18.743  26.182  1.00  0.00     0.163 HD
BRANCH   5   7
ATOM      7  C   UNL A   1      41.996  21.056  26.228  1.00  0.00     0.039 A 
ATOM      8  C   UNL A   1      42.147  21.568  27.522  1.00  0.00     0.014 A 
ATOM      9  C   UNL A   1      42.370  21.848  25.136  1.00  0.00     0.014 A 
ATOM     10  C   UNL A   1      42.651  22.859  27.720  1.00  0.00     0.010 A 
ATOM     11  C   UNL A   1      42.933  23.116  25.339  1.00  0.00     0.010 A 
ATOM     12  C   UNL A   1      43.044  23.654  26.630  1.00  0.00    -0.014 A 
BRANCH  12  13
ATOM     13  C   UNL A   1      43.506  25.057  26.851  1.00  0.00     0.031 A 
ATOM     14  C   UNL A   1      42.571  26.101  27.410  1.00  0.00     0.074 A 
ATOM     15  C   UNL A   1      44.780  25.399  26.578  1.00  0.00     0.049 A 
ATOM     16  N   UNL A   1      42.820  27.346  27.733  1.00  0.00    -0.248 NA
ATOM     17  C   UNL A   1      41.170  25.703  27.610  1.00  0.00     0.031 C 
ATOM     18  C   UNL A   1      45.777  24.505  25.994  1.00  0.00     0.029 A 
ATOM     19  N   UNL A   1      45.459  26.580  26.765  1.00  0.00    -0.354 N 
ATOM     20  C   UNL A   1      41.614  27.874  28.182  1.00  0.00     0.074 A 
ATOM     21  C   UNL A   1      40.618  26.839  28.009  1.00  0.00     0.031 C 
ATOM     22  C   UNL A   1      46.950  25.151  25.912  1.00  0.00     0.029 A 
ATOM     23  C   UNL A   1      46.786  26.518  26.408  1.00  0.00     0.049 A 
ATOM     24  H   UNL A   1      45.034  27.394  27.123  1.00  0.00     0.167 HD
ATOM     25  C   UNL A   1      41.360  29.090  28.727  1.00  0.00     0.034 A 
ATOM     26  C   UNL A   1      47.767  27.443  26.480  1.00  0.00     0.034 A 
ATOM     27  C   UNL A   1      42.357  30.116  28.910  1.00  0.00     0.049 A 
ATOM     28  C   UNL A   1      47.472  28.790  27.090  1.00  0.00     0.074 A 
ATOM     29  C   UNL A   1      42.203  31.365  29.487  1.00  0.00     0.029 A 
ATOM     30  N   UNL A   1      43.688  30.017  28.530  1.00  0.00    -0.354 N 
ATOM     31  N   UNL A   1      46.343  29.242  27.584  1.00  0.00    -0.248 NA
ATOM     32  C   UNL A   1      48.584  29.749  27.167  1.00  0.00     0.031 C 
ATOM     33  C   UNL A   1      43.423  32.042  29.404  1.00  0.00     0.029 A 
ATOM     34  C   UNL A   1      44.359  31.192  28.835  1.00  0.00     0.049 A 
ATOM     35  H   UNL A   1      44.096  29.229  28.105  1.00  0.00     0.167 HD
ATOM     36  C   UNL A   1      46.609  30.534  28.034  1.00  0.00     0.074 A 
ATOM     37  C   UNL A   1      48.017  30.773  27.794  1.00  0.00     0.031 C 
ATOM     38  C   UNL A   1      45.760  31.440  28.583  1.00  0.00     0.034 A 
BRANCH  25  39
ATOM     39  C   UNL A   1      39.955  29.377  29.205  1.00  0.00     0.023 A 
ATOM     40  C   UNL A   1      39.641  29.325  30.575  1.00  0.00     0.031 A 
ATOM     41  C   UNL A   1      38.907  29.609  28.294  1.00  0.00     0.131 A 
ATOM     42  C   UNL A   1      38.312  29.485  30.993  1.00  0.00     0.055 A 
ATOM     43  C   UNL A   1      37.593  29.813  28.718  1.00  0.00     0.041 A 
ATOM     44  F   UNL A   1      39.150  29.662  26.974  1.00  0.00    -0.206 F 
ATOM     45  C   UNL A   1      37.290  29.741  30.073  1.00  0.00     0.022 A 
BRANCH  42  46
ATOM     46  S   UNL A   1      37.844  29.312  32.737  1.00  0.00     0.124 S 
ATOM     47  O   UNL A   1      37.768  27.860  32.883  1.00  0.00    -0.237 OA
ATOM     48  O   UNL A   1      38.966  29.950  33.419  1.00  0.00    -0.237 OA
ATOM     49  O   UNL A   1      36.568  30.015  32.828  1.00  0.00    -0.744 OA
ENDBRANCH  42  46
ENDBRANCH  25  39
BRANCH  26  50
ATOM     50  C   UNL A   1      49.137  27.070  26.019  1.00  0.00     0.023 A 
ATOM     51  C   UNL A   1      50.144  26.754  26.949  1.00  0.00     0.031 A 
ATOM     52  C   UNL A   1      49.493  27.155  24.663  1.00  0.00     0.131 A 
ATOM     53  C   UNL A   1      51.470  26.625  26.521  1.00  0.00     0.055 A 
ATOM     54  C   UNL A   1      50.805  26.945  24.231  1.00  0.00     0.041 A 
ATOM     55  F   UNL A   1      48.569  27.462  23.739  1.00  0.00    -0.206 F 
ATOM     56  C   UNL A   1      51.806  26.701  25.166  1.00  0.00     0.022 A 
BRANCH  53  57
ATOM     57  S   UNL A   1      52.822  26.513  27.727  1.00  0.00     0.124 S 
ATOM     58  O   UNL A   1      53.572  25.362  27.238  1.00  0.00    -0.237 OA
ATOM     59  O   UNL A   1      53.472  27.811  27.561  1.00  0.00    -0.237 OA
ATOM     60  O   UNL A   1      52.130  26.324  28.998  1.00  0.00    -0.744 OA
ENDBRANCH  53  57
ENDBRANCH  26  50
BRANCH  38  61
ATOM     61  C   UNL A   1      46.298  32.809  28.937  1.00  0.00     0.023 A 
ATOM     62  C   UNL A   1      46.278  33.852  27.991  1.00  0.00     0.031 A 
ATOM     63  C   UNL A   1      46.948  33.041  30.163  1.00  0.00     0.131 A 
ATOM     64  C   UNL A   1      46.920  35.066  28.273  1.00  0.00     0.055 A 
ATOM     65  C   UNL A   1      47.545  34.268  30.459  1.00  0.00     0.041 A 
ATOM     66  F   UNL A   1      47.009  32.077  31.095  1.00  0.00    -0.206 F 
ATOM     67  C   UNL A   1      47.544  35.282  29.506  1.00  0.00     0.022 A 
BRANCH  64  68
ATOM     68  S   UNL A   1      47.049  36.376  27.024  1.00  0.00     0.124 S 
ATOM     69  O   UNL A   1      48.484  36.648  27.020  1.00  0.00    -0.237 OA
ATOM     70  O   UNL A   1      46.536  35.713  25.828  1.00  0.00    -0.237 OA
ATOM     71  O   UNL A   1      46.213  37.449  27.553  1.00  0.00    -0.744 OA
ENDBRANCH  64  68
ENDBRANCH  38  61
ENDBRANCH  12  13
ENDBRANCH   5   7
ENDBRANCH   2   3
ENDBRANCH   1   2
BRANCH   1  72
ATOM     72  C   UNL A   1      36.384  20.868  25.121  1.00  0.00     0.117 C 
BRANCH  72  73
ATOM     73  N   UNL A   1      35.126  20.142  24.977  1.00  0.00    -0.354 N 
ATOM     74  C   UNL A   1      33.852  20.503  24.629  1.00  0.00     0.242 C 
ATOM     75  H   UNL A   1      35.213  19.181  25.175  1.00  0.00     0.163 HD
ATOM     76  O   UNL A   1      33.132  19.569  24.255  1.00  0.00    -0.273 OA
BRANCH  74  77
ATOM     77  C   UNL A   1      33.238  21.890  24.966  1.00  0.00     0.175 C 
BRANCH  77  78
ATOM     78  N   UNL A   1      32.388  21.896  26.155  1.00  0.00    -0.340 N 
ATOM     79  C   UNL A   1      31.422  22.775  26.580  1.00  0.00     0.251 C 
ATOM     80  H   UNL A   1      32.533  21.132  26.759  1.00  0.00     0.164 HD
ATOM     81  O   UNL A   1      30.906  22.579  27.679  1.00  0.00    -0.269 OA
BRANCH  79  82
ATOM     82  C   UNL A   1      31.002  23.944  25.765  1.00  0.00     0.039 A 
ATOM     83  C   UNL A   1      30.913  25.234  26.293  1.00  0.00     0.016 A 
ATOM     84  C   UNL A   1      30.708  23.752  24.415  1.00  0.00     0.016 A 
ATOM     85  C   UNL A   1      30.457  26.299  25.527  1.00  0.00     0.027 A 
ATOM     86  C   UNL A   1      30.235  24.822  23.644  1.00  0.00     0.027 A 
ATOM     87  C   UNL A   1      30.086  26.098  24.201  1.00  0.00     0.044 A 
BRANCH  87  88
ATOM     88  N   UNL A   1      29.498  27.179  23.492  1.00  0.00    -0.312 N 
ATOM     89  C   UNL A   1      30.370  27.949  22.594  1.00  0.00     0.125 C 
ATOM     90  C   UNL A   1      28.119  27.394  23.542  1.00  0.00     0.226 C 
ATOM     91  C   UNL A   1      29.953  29.401  22.472  1.00  0.00     0.022 C 
ATOM     92  C   UNL A   1      27.635  28.756  23.073  1.00  0.00     0.101 C 
ATOM     93  O   UNL A   1      27.315  26.650  24.110  1.00  0.00    -0.275 OA
ATOM     94  C   UNL A   1      28.502  29.440  22.036  1.00  0.00     0.012 C 
ENDBRANCH  87  88
ENDBRANCH  79  82
ENDBRANCH  77  78
BRANCH  77  95
ATOM     95  C   UNL A   1      34.282  23.052  25.000  1.00  0.00     0.068 C 
BRANCH  95  96
ATOM     96  C   UNL A   1      34.044  24.202  24.037  1.00  0.00    -0.037 C 
ATOM     97  C   UNL A   1      33.971  25.505  24.321  1.00  0.00     0.001 A 
ATOM     98  C   UNL A   1      33.931  24.014  22.546  1.00  0.00     0.174 C 
ATOM     99  C   UNL A   1      34.043  26.298  25.507  1.00  0.00     0.010 A 
ATOM    100  C   UNL A   1      33.834  26.136  22.995  1.00  0.00     0.065 A 
ATOM    101  N   UNL A   1      33.836  25.363  21.956  1.00  0.00    -0.280 NA
ATOM    102  C   UNL A   1      33.955  27.635  25.399  1.00  0.00     0.001 A 
ATOM    103  C   UNL A   1      33.727  27.607  22.957  1.00  0.00     0.028 A 
ATOM    104  C   UNL A   1      33.786  28.289  24.111  1.00  0.00     0.002 A 
ENDBRANCH  95  96
ENDBRANCH  77  95
ENDBRANCH  74  77
ENDBRANCH  72  73
ENDBRANCH   1  72
TORSDOF 18
ENDMDL
