MODEL 1
REMARK VINA RESULT:     -12.4      0.000      0.000
REMARK SMILES O=C(NCCCNC(=O)c1nn(-c2ccc(Br)cc2F)cc1CCCO)c1ccc(-c2c3nc(c(-c4cc(S(=O)(=O)[O-])ccc4F)c4ccc([nH]4)c(-c4cc(S(=O)(=O)[O-])ccc4F)c4nc(c(-c5cc(S(=O)(=O)[O-])ccc5F)c5ccc2[nH]5)C=C4)C=C3)cc1
REMARK SMILES IDX 5 1 4 2 3 3 1 4 2 5 27 7 28 8 89 9 29 10 88 11 30 12 31 13
REMARK SMILES IDX 32 14 82 15 33 16 87 17 81 18 83 19 34 20 86 21 80 22 79 23
REMARK SMILES IDX 35 25 67 26 47 27 66 28 48 29 51 30 65 31 84 32 49 33 50 34
REMARK SMILES IDX 64 36 85 37 52 38 36 39 37 40 45 41 38 42 44 43 46 44 43 45
REMARK SMILES IDX 39 46 40 47 41 48 42 49 68 50 69 51 77 52 70 53 76 54 78 55
REMARK SMILES IDX 75 56 71 57 72 58 73 59 74 60 53 61 54 62 62 63 55 64 61 65
REMARK SMILES IDX 63 66 60 67 56 68 57 69 58 70 59 71 6 72 7 73 8 74 9 76
REMARK SMILES IDX 10 77 11 78 22 79 12 80 21 81 23 82 24 83 25 84 26 85 13 87
REMARK SMILES IDX 14 88 19 89 15 90 18 91 20 92 16 93 17 94
REMARK H PARENT 3 6 83 24 51 35 7 75 26 86
REMARK Flexibility Score: inf
ROOT
ATOM      1  C   UNL A   1      38.106  21.104  25.279  1.00  0.00     0.042 C 
ENDROOT
BRANCH   1   2
ATOM      2  C   UNL A   1      38.946  22.085  26.098  1.00  0.00     0.118 C 
BRANCH   2   3
ATOM      3  N   UNL A   1      40.382  21.958  25.944  1.00  0.00    -0.352 N 
ATOM      4  O   UNL A   1      42.571  22.201  26.093  1.00  0.00    -0.269 OA
ATOM      5  C   UNL A   1      41.466  22.673  26.375  1.00  0.00     0.251 C 
ATOM      6  H   UNL A   1      40.636  21.175  25.403  1.00  0.00     0.163 HD
BRANCH   5   7
ATOM      7  C   UNL A   1      41.402  23.965  27.111  1.00  0.00     0.039 A 
ATOM      8  C   UNL A   1      42.258  24.347  28.144  1.00  0.00     0.014 A 
ATOM      9  C   UNL A   1      40.419  24.878  26.684  1.00  0.00     0.014 A 
ATOM     10  C   UNL A   1      42.103  25.585  28.770  1.00  0.00     0.010 A 
ATOM     11  C   UNL A   1      40.279  26.127  27.290  1.00  0.00     0.010 A 
ATOM     12  C   UNL A   1      41.116  26.478  28.347  1.00  0.00    -0.014 A 
BRANCH  12  13
ATOM     13  C   UNL A   1      41.107  27.822  28.937  1.00  0.00     0.031 A 
ATOM     14  C   UNL A   1      42.127  28.781  28.411  1.00  0.00     0.074 A 
ATOM     15  C   UNL A   1      40.152  28.292  29.765  1.00  0.00     0.049 A 
ATOM     16  N   UNL A   1      43.004  29.472  29.066  1.00  0.00    -0.248 NA
ATOM     17  C   UNL A   1      42.196  28.964  26.953  1.00  0.00     0.031 C 
ATOM     18  C   UNL A   1      38.897  27.641  30.141  1.00  0.00     0.029 A 
ATOM     19  N   UNL A   1      40.061  29.522  30.357  1.00  0.00    -0.354 N 
ATOM     20  C   UNL A   1      43.616  30.313  28.137  1.00  0.00     0.074 A 
ATOM     21  C   UNL A   1      43.157  29.881  26.842  1.00  0.00     0.031 C 
ATOM     22  C   UNL A   1      38.081  28.555  30.710  1.00  0.00     0.029 A 
ATOM     23  C   UNL A   1      38.798  29.813  30.852  1.00  0.00     0.049 A 
ATOM     24  H   UNL A   1      40.821  30.143  30.424  1.00  0.00     0.167 HD
ATOM     25  C   UNL A   1      44.345  31.405  28.500  1.00  0.00     0.034 A 
ATOM     26  C   UNL A   1      38.338  31.013  31.286  1.00  0.00     0.034 A 
ATOM     27  C   UNL A   1      44.787  31.326  29.869  1.00  0.00     0.049 A 
ATOM     28  C   UNL A   1      39.505  31.850  31.648  1.00  0.00     0.074 A 
ATOM     29  C   UNL A   1      45.545  30.425  30.591  1.00  0.00     0.029 A 
ATOM     30  N   UNL A   1      44.189  32.129  30.810  1.00  0.00    -0.354 N 
ATOM     31  N   UNL A   1      40.305  31.596  32.644  1.00  0.00    -0.248 NA
ATOM     32  C   UNL A   1      40.020  32.795  30.669  1.00  0.00     0.031 C 
ATOM     33  C   UNL A   1      44.964  30.409  31.893  1.00  0.00     0.029 A 
ATOM     34  C   UNL A   1      43.912  31.327  31.889  1.00  0.00     0.049 A 
ATOM     35  H   UNL A   1      43.998  33.092  30.726  1.00  0.00     0.167 HD
ATOM     36  C   UNL A   1      41.556  32.006  32.217  1.00  0.00     0.074 A 
ATOM     37  C   UNL A   1      41.296  32.850  31.056  1.00  0.00     0.031 C 
ATOM     38  C   UNL A   1      42.693  31.402  32.672  1.00  0.00     0.034 A 
BRANCH  25  39
ATOM     39  C   UNL A   1      44.465  32.675  27.686  1.00  0.00     0.023 A 
ATOM     40  C   UNL A   1      43.736  33.811  28.097  1.00  0.00     0.031 A 
ATOM     41  C   UNL A   1      45.041  32.749  26.398  1.00  0.00     0.131 A 
ATOM     42  C   UNL A   1      43.567  34.914  27.239  1.00  0.00     0.055 A 
ATOM     43  C   UNL A   1      44.931  33.876  25.578  1.00  0.00     0.041 A 
ATOM     44  F   UNL A   1      45.656  31.704  25.829  1.00  0.00    -0.206 F 
ATOM     45  C   UNL A   1      44.173  34.959  25.986  1.00  0.00     0.022 A 
BRANCH  42  46
ATOM     46  S   UNL A   1      42.394  36.215  27.711  1.00  0.00     0.124 S 
ATOM     47  O   UNL A   1      41.145  35.468  27.817  1.00  0.00    -0.237 OA
ATOM     48  O   UNL A   1      42.967  36.695  28.966  1.00  0.00    -0.237 OA
ATOM     49  O   UNL A   1      42.462  37.156  26.596  1.00  0.00    -0.744 OA
ENDBRANCH  42  46
ENDBRANCH  25  39
BRANCH  26  50
ATOM     50  C   UNL A   1      36.958  31.545  31.155  1.00  0.00     0.023 A 
ATOM     51  C   UNL A   1      36.273  32.149  32.227  1.00  0.00     0.031 A 
ATOM     52  C   UNL A   1      36.369  31.665  29.875  1.00  0.00     0.131 A 
ATOM     53  C   UNL A   1      35.050  32.818  32.000  1.00  0.00     0.055 A 
ATOM     54  C   UNL A   1      35.152  32.311  29.659  1.00  0.00     0.041 A 
ATOM     55  F   UNL A   1      37.002  31.227  28.775  1.00  0.00    -0.206 F 
ATOM     56  C   UNL A   1      34.488  32.898  30.723  1.00  0.00     0.022 A 
BRANCH  53  57
ATOM     57  S   UNL A   1      34.225  33.703  33.361  1.00  0.00     0.124 S 
ATOM     58  O   UNL A   1      35.085  33.394  34.497  1.00  0.00    -0.237 OA
ATOM     59  O   UNL A   1      34.241  35.085  32.892  1.00  0.00    -0.237 OA
ATOM     60  O   UNL A   1      32.897  33.091  33.408  1.00  0.00    -0.744 OA
ENDBRANCH  53  57
ENDBRANCH  26  50
BRANCH  38  61
ATOM     61  C   UNL A   1      42.611  30.527  33.906  1.00  0.00     0.023 A 
ATOM     62  C   UNL A   1      42.459  29.123  33.879  1.00  0.00     0.031 A 
ATOM     63  C   UNL A   1      42.820  31.135  35.157  1.00  0.00     0.131 A 
ATOM     64  C   UNL A   1      42.501  28.384  35.077  1.00  0.00     0.055 A 
ATOM     65  C   UNL A   1      42.880  30.398  36.340  1.00  0.00     0.041 A 
ATOM     66  F   UNL A   1      43.007  32.462  35.247  1.00  0.00    -0.206 F 
ATOM     67  C   UNL A   1      42.714  29.018  36.304  1.00  0.00     0.022 A 
BRANCH  64  68
ATOM     68  S   UNL A   1      42.275  26.577  35.054  1.00  0.00     0.124 S 
ATOM     69  O   UNL A   1      42.699  26.161  36.385  1.00  0.00    -0.237 OA
ATOM     70  O   UNL A   1      40.849  26.441  34.763  1.00  0.00    -0.237 OA
ATOM     71  O   UNL A   1      43.156  26.139  33.969  1.00  0.00    -0.744 OA
ENDBRANCH  64  68
ENDBRANCH  38  61
ENDBRANCH  12  13
ENDBRANCH   5   7
ENDBRANCH   2   3
ENDBRANCH   1   2
BRANCH   1  72
ATOM     72  C   UNL A   1      36.645  21.514  25.076  1.00  0.00     0.118 C 
BRANCH  72  73
ATOM     73  N   UNL A   1      35.811  21.166  26.217  1.00  0.00    -0.351 N 
ATOM     74  C   UNL A   1      34.683  21.780  26.692  1.00  0.00     0.272 C 
ATOM     75  H   UNL A   1      36.101  20.373  26.722  1.00  0.00     0.163 HD
ATOM     76  O   UNL A   1      34.279  21.452  27.816  1.00  0.00    -0.267 OA
BRANCH  74  77
ATOM     77  C   UNL A   1      34.039  22.827  25.894  1.00  0.00     0.153 A 
ATOM     78  N   UNL A   1      34.215  24.132  26.184  1.00  0.00    -0.162 NA
ATOM     79  C   UNL A   1      33.210  22.669  24.744  1.00  0.00     0.004 A 
ATOM     80  N   UNL A   1      33.273  24.775  25.457  1.00  0.00    -0.237 N 
ATOM     81  C   UNL A   1      32.697  23.935  24.534  1.00  0.00     0.119 A 
BRANCH  79  82
ATOM     82  C   UNL A   1      32.833  21.424  24.010  1.00  0.00     0.042 C 
BRANCH  82  83
ATOM     83  C   UNL A   1      32.097  20.373  24.853  1.00  0.00     0.033 C 
BRANCH  83  84
ATOM     84  C   UNL A   1      32.875  19.098  25.155  1.00  0.00     0.156 C 
BRANCH  84  85
ATOM     85  O   UNL A   1      32.624  18.644  26.478  1.00  0.00    -0.396 OA
ATOM     86  H   UNL A   1      32.468  17.687  26.466  1.00  0.00     0.210 HD
ENDBRANCH  84  85
ENDBRANCH  83  84
ENDBRANCH  82  83
ENDBRANCH  79  82
BRANCH  80  87
ATOM     87  C   UNL A   1      32.984  26.134  25.705  1.00  0.00     0.100 A 
ATOM     88  C   UNL A   1      34.013  27.084  25.652  1.00  0.00     0.032 A 
ATOM     89  C   UNL A   1      31.692  26.532  26.054  1.00  0.00     0.149 A 
ATOM     90  C   UNL A   1      33.732  28.427  25.915  1.00  0.00     0.018 A 
ATOM     91  C   UNL A   1      31.420  27.861  26.371  1.00  0.00     0.057 A 
ATOM     92  F   UNL A   1      30.698  25.639  26.167  1.00  0.00    -0.205 F 
ATOM     93  C   UNL A   1      32.441  28.806  26.285  1.00  0.00     0.021 A 
ATOM     94  Br  UNL A   1      32.076  30.620  26.673  1.00  0.00    -0.051 Br
ENDBRANCH  80  87
ENDBRANCH  74  77
ENDBRANCH  72  73
ENDBRANCH   1  72
TORSDOF 18
ENDMDL
MODEL 2
REMARK VINA RESULT:     -12.4      3.847      9.556
REMARK SMILES O=C(NCCCNC(=O)c1nn(-c2ccc(Br)cc2F)cc1CCCO)c1ccc(-c2c3nc(c(-c4cc(S(=O)(=O)[O-])ccc4F)c4ccc([nH]4)c(-c4cc(S(=O)(=O)[O-])ccc4F)c4nc(c(-c5cc(S(=O)(=O)[O-])ccc5F)c5ccc2[nH]5)C=C4)C=C3)cc1
REMARK SMILES IDX 5 1 4 2 3 3 1 4 2 5 27 7 28 8 89 9 29 10 88 11 30 12 31 13
REMARK SMILES IDX 32 14 82 15 33 16 87 17 81 18 83 19 34 20 86 21 80 22 79 23
REMARK SMILES IDX 35 25 67 26 47 27 66 28 48 29 51 30 65 31 84 32 49 33 50 34
REMARK SMILES IDX 64 36 85 37 52 38 36 39 37 40 45 41 38 42 44 43 46 44 43 45
REMARK SMILES IDX 39 46 40 47 41 48 42 49 68 50 69 51 77 52 70 53 76 54 78 55
REMARK SMILES IDX 75 56 71 57 72 58 73 59 74 60 53 61 54 62 62 63 55 64 61 65
REMARK SMILES IDX 63 66 60 67 56 68 57 69 58 70 59 71 6 72 7 73 8 74 9 76
REMARK SMILES IDX 10 77 11 78 22 79 12 80 21 81 23 82 24 83 25 84 26 85 13 87
REMARK SMILES IDX 14 88 19 89 15 90 18 91 20 92 16 93 17 94
REMARK H PARENT 3 6 83 24 51 35 7 75 26 86
REMARK Flexibility Score: inf
ROOT
ATOM      1  C   UNL A   1      33.799  29.282  26.130  1.00  0.00     0.042 C 
ENDROOT
BRANCH   1   2
ATOM      2  C   UNL A   1      33.533  30.047  27.426  1.00  0.00     0.118 C 
BRANCH   2   3
ATOM      3  N   UNL A   1      34.115  31.373  27.500  1.00  0.00    -0.352 N 
ATOM      4  O   UNL A   1      35.496  33.088  27.664  1.00  0.00    -0.269 OA
ATOM      5  C   UNL A   1      35.365  31.864  27.765  1.00  0.00     0.251 C 
ATOM      6  H   UNL A   1      33.459  32.084  27.319  1.00  0.00     0.163 HD
BRANCH   5   7
ATOM      7  C   UNL A   1      36.535  31.047  28.187  1.00  0.00     0.039 A 
ATOM      8  C   UNL A   1      36.708  29.689  27.921  1.00  0.00     0.014 A 
ATOM      9  C   UNL A   1      37.558  31.731  28.872  1.00  0.00     0.014 A 
ATOM     10  C   UNL A   1      37.847  29.019  28.370  1.00  0.00     0.010 A 
ATOM     11  C   UNL A   1      38.710  31.070  29.299  1.00  0.00     0.010 A 
ATOM     12  C   UNL A   1      38.851  29.704  29.060  1.00  0.00    -0.014 A 
BRANCH  12  13
ATOM     13  C   UNL A   1      40.090  28.981  29.366  1.00  0.00     0.031 A 
ATOM     14  C   UNL A   1      40.462  28.890  30.811  1.00  0.00     0.074 A 
ATOM     15  C   UNL A   1      40.798  28.258  28.475  1.00  0.00     0.049 A 
ATOM     16  N   UNL A   1      41.573  29.228  31.386  1.00  0.00    -0.248 NA
ATOM     17  C   UNL A   1      39.442  28.386  31.743  1.00  0.00     0.031 C 
ATOM     18  C   UNL A   1      40.434  27.938  27.094  1.00  0.00     0.029 A 
ATOM     19  N   UNL A   1      41.954  27.553  28.670  1.00  0.00    -0.354 N 
ATOM     20  C   UNL A   1      41.469  28.816  32.715  1.00  0.00     0.074 A 
ATOM     21  C   UNL A   1      40.102  28.405  32.901  1.00  0.00     0.031 C 
ATOM     22  C   UNL A   1      41.227  26.938  26.651  1.00  0.00     0.029 A 
ATOM     23  C   UNL A   1      42.229  26.637  27.663  1.00  0.00     0.049 A 
ATOM     24  H   UNL A   1      42.537  27.683  29.452  1.00  0.00     0.167 HD
ATOM     25  C   UNL A   1      42.550  28.700  33.536  1.00  0.00     0.034 A 
ATOM     26  C   UNL A   1      43.162  25.653  27.674  1.00  0.00     0.034 A 
ATOM     27  C   UNL A   1      43.675  29.460  33.055  1.00  0.00     0.049 A 
ATOM     28  C   UNL A   1      44.191  26.007  28.679  1.00  0.00     0.074 A 
ATOM     29  C   UNL A   1      43.888  30.792  32.758  1.00  0.00     0.029 A 
ATOM     30  N   UNL A   1      44.744  28.793  32.506  1.00  0.00    -0.354 N 
ATOM     31  N   UNL A   1      45.003  27.019  28.566  1.00  0.00    -0.248 NA
ATOM     32  C   UNL A   1      44.088  25.445  30.016  1.00  0.00     0.031 C 
ATOM     33  C   UNL A   1      44.769  30.787  31.637  1.00  0.00     0.029 A 
ATOM     34  C   UNL A   1      45.063  29.454  31.345  1.00  0.00     0.049 A 
ATOM     35  H   UNL A   1      45.194  27.998  32.875  1.00  0.00     0.167 HD
ATOM     36  C   UNL A   1      45.186  27.480  29.859  1.00  0.00     0.074 A 
ATOM     37  C   UNL A   1      44.708  26.400  30.713  1.00  0.00     0.031 C 
ATOM     38  C   UNL A   1      45.447  28.797  30.110  1.00  0.00     0.034 A 
BRANCH  25  39
ATOM     39  C   UNL A   1      42.675  27.699  34.664  1.00  0.00     0.023 A 
ATOM     40  C   UNL A   1      43.380  26.499  34.426  1.00  0.00     0.031 A 
ATOM     41  C   UNL A   1      41.925  27.743  35.860  1.00  0.00     0.131 A 
ATOM     42  C   UNL A   1      43.283  25.413  35.316  1.00  0.00     0.055 A 
ATOM     43  C   UNL A   1      41.891  26.688  36.777  1.00  0.00     0.041 A 
ATOM     44  F   UNL A   1      41.114  28.765  36.157  1.00  0.00    -0.206 F 
ATOM     45  C   UNL A   1      42.553  25.505  36.498  1.00  0.00     0.022 A 
BRANCH  42  46
ATOM     46  S   UNL A   1      43.979  23.814  34.818  1.00  0.00     0.124 S 
ATOM     47  O   UNL A   1      44.791  24.186  33.665  1.00  0.00    -0.237 OA
ATOM     48  O   UNL A   1      44.708  23.415  36.019  1.00  0.00    -0.237 OA
ATOM     49  O   UNL A   1      42.798  23.009  34.512  1.00  0.00    -0.744 OA
ENDBRANCH  42  46
ENDBRANCH  25  39
BRANCH  26  50
ATOM     50  C   UNL A   1      43.059  24.313  27.044  1.00  0.00     0.023 A 
ATOM     51  C   UNL A   1      43.968  23.863  26.068  1.00  0.00     0.031 A 
ATOM     52  C   UNL A   1      42.167  23.352  27.575  1.00  0.00     0.131 A 
ATOM     53  C   UNL A   1      43.950  22.513  25.650  1.00  0.00     0.055 A 
ATOM     54  C   UNL A   1      42.141  22.025  27.146  1.00  0.00     0.041 A 
ATOM     55  F   UNL A   1      41.345  23.655  28.592  1.00  0.00    -0.206 F 
ATOM     56  C   UNL A   1      43.039  21.598  26.183  1.00  0.00     0.022 A 
BRANCH  53  57
ATOM     57  S   UNL A   1      45.203  21.901  24.479  1.00  0.00     0.124 S 
ATOM     58  O   UNL A   1      45.327  23.016  23.549  1.00  0.00    -0.237 OA
ATOM     59  O   UNL A   1      46.347  21.648  25.348  1.00  0.00    -0.237 OA
ATOM     60  O   UNL A   1      44.585  20.698  23.920  1.00  0.00    -0.744 OA
ENDBRANCH  53  57
ENDBRANCH  26  50
BRANCH  38  61
ATOM     61  C   UNL A   1      45.887  29.686  28.965  1.00  0.00     0.023 A 
ATOM     62  C   UNL A   1      45.071  30.664  28.355  1.00  0.00     0.031 A 
ATOM     63  C   UNL A   1      47.234  29.619  28.562  1.00  0.00     0.131 A 
ATOM     64  C   UNL A   1      45.605  31.515  27.369  1.00  0.00     0.055 A 
ATOM     65  C   UNL A   1      47.764  30.477  27.598  1.00  0.00     0.041 A 
ATOM     66  F   UNL A   1      48.071  28.734  29.128  1.00  0.00    -0.206 F 
ATOM     67  C   UNL A   1      46.948  31.425  26.993  1.00  0.00     0.022 A 
BRANCH  64  68
ATOM     68  S   UNL A   1      44.550  32.757  26.555  1.00  0.00     0.124 S 
ATOM     69  O   UNL A   1      43.786  31.978  25.588  1.00  0.00    -0.237 OA
ATOM     70  O   UNL A   1      43.793  33.312  27.674  1.00  0.00    -0.237 OA
ATOM     71  O   UNL A   1      45.515  33.685  25.961  1.00  0.00    -0.744 OA
ENDBRANCH  64  68
ENDBRANCH  38  61
ENDBRANCH  12  13
ENDBRANCH   5   7
ENDBRANCH   2   3
ENDBRANCH   1   2
BRANCH   1  72
ATOM     72  C   UNL A   1      32.843  29.605  24.978  1.00  0.00     0.118 C 
BRANCH  72  73
ATOM     73  N   UNL A   1      33.455  29.388  23.676  1.00  0.00    -0.351 N 
ATOM     74  C   UNL A   1      33.397  28.292  22.857  1.00  0.00     0.272 C 
ATOM     75  H   UNL A   1      33.991  30.140  23.333  1.00  0.00     0.163 HD
ATOM     76  O   UNL A   1      34.192  28.240  21.908  1.00  0.00    -0.267 OA
BRANCH  74  77
ATOM     77  C   UNL A   1      32.455  27.211  23.161  1.00  0.00     0.153 A 
ATOM     78  N   UNL A   1      32.863  26.086  23.780  1.00  0.00    -0.162 NA
ATOM     79  C   UNL A   1      31.052  27.174  22.910  1.00  0.00     0.004 A 
ATOM     80  N   UNL A   1      31.833  25.222  23.635  1.00  0.00    -0.237 N 
ATOM     81  C   UNL A   1      30.707  25.862  23.176  1.00  0.00     0.119 A 
BRANCH  79  82
ATOM     82  C   UNL A   1      30.162  28.231  22.343  1.00  0.00     0.042 C 
BRANCH  82  83
ATOM     83  C   UNL A   1      29.609  29.232  23.367  1.00  0.00     0.033 C 
BRANCH  83  84
ATOM     84  C   UNL A   1      28.955  30.481  22.789  1.00  0.00     0.156 C 
BRANCH  84  85
ATOM     85  O   UNL A   1      29.870  31.219  21.991  1.00  0.00    -0.396 OA
ATOM     86  H   UNL A   1      29.579  32.143  21.936  1.00  0.00     0.210 HD
ENDBRANCH  84  85
ENDBRANCH  83  84
ENDBRANCH  82  83
ENDBRANCH  79  82
BRANCH  80  87
ATOM     87  C   UNL A   1      32.001  23.852  23.931  1.00  0.00     0.100 A 
ATOM     88  C   UNL A   1      31.435  23.320  25.098  1.00  0.00     0.032 A 
ATOM     89  C   UNL A   1      32.771  23.036  23.100  1.00  0.00     0.149 A 
ATOM     90  C   UNL A   1      31.616  21.968  25.402  1.00  0.00     0.018 A 
ATOM     91  C   UNL A   1      32.999  21.702  23.430  1.00  0.00     0.057 A 
ATOM     92  F   UNL A   1      33.370  23.529  22.007  1.00  0.00    -0.205 F 
ATOM     93  C   UNL A   1      32.407  21.170  24.574  1.00  0.00     0.021 A 
ATOM     94  Br  UNL A   1      32.676  19.350  25.011  1.00  0.00    -0.051 Br
ENDBRANCH  80  87
ENDBRANCH  74  77
ENDBRANCH  72  73
ENDBRANCH   1  72
TORSDOF 18
ENDMDL
MODEL 3
REMARK VINA RESULT:     -12.4      3.882      8.739
REMARK SMILES O=C(NCCCNC(=O)c1nn(-c2ccc(Br)cc2F)cc1CCCO)c1ccc(-c2c3nc(c(-c4cc(S(=O)(=O)[O-])ccc4F)c4ccc([nH]4)c(-c4cc(S(=O)(=O)[O-])ccc4F)c4nc(c(-c5cc(S(=O)(=O)[O-])ccc5F)c5ccc2[nH]5)C=C4)C=C3)cc1
REMARK SMILES IDX 5 1 4 2 3 3 1 4 2 5 27 7 28 8 89 9 29 10 88 11 30 12 31 13
REMARK SMILES IDX 32 14 82 15 33 16 87 17 81 18 83 19 34 20 86 21 80 22 79 23
REMARK SMILES IDX 35 25 67 26 47 27 66 28 48 29 51 30 65 31 84 32 49 33 50 34
REMARK SMILES IDX 64 36 85 37 52 38 36 39 37 40 45 41 38 42 44 43 46 44 43 45
REMARK SMILES IDX 39 46 40 47 41 48 42 49 68 50 69 51 77 52 70 53 76 54 78 55
REMARK SMILES IDX 75 56 71 57 72 58 73 59 74 60 53 61 54 62 62 63 55 64 61 65
REMARK SMILES IDX 63 66 60 67 56 68 57 69 58 70 59 71 6 72 7 73 8 74 9 76
REMARK SMILES IDX 10 77 11 78 22 79 12 80 21 81 23 82 24 83 25 84 26 85 13 87
REMARK SMILES IDX 14 88 19 89 15 90 18 91 20 92 16 93 17 94
REMARK H PARENT 3 6 83 24 51 35 7 75 26 86
REMARK Flexibility Score: inf
ROOT
ATOM      1  C   UNL A   1      33.064  28.168  26.948  1.00  0.00     0.042 C 
ENDROOT
BRANCH   1   2
ATOM      2  C   UNL A   1      34.504  28.662  27.075  1.00  0.00     0.118 C 
BRANCH   2   3
ATOM      3  N   UNL A   1      34.756  29.579  28.171  1.00  0.00    -0.352 N 
ATOM      4  O   UNL A   1      35.692  30.868  29.698  1.00  0.00    -0.269 OA
ATOM      5  C   UNL A   1      35.873  29.998  28.841  1.00  0.00     0.251 C 
ATOM      6  H   UNL A   1      33.931  29.995  28.511  1.00  0.00     0.163 HD
BRANCH   5   7
ATOM      7  C   UNL A   1      37.247  29.465  28.634  1.00  0.00     0.039 A 
ATOM      8  C   UNL A   1      38.045  29.708  27.517  1.00  0.00     0.014 A 
ATOM      9  C   UNL A   1      37.780  28.691  29.683  1.00  0.00     0.014 A 
ATOM     10  C   UNL A   1      39.322  29.151  27.425  1.00  0.00     0.010 A 
ATOM     11  C   UNL A   1      39.066  28.156  29.606  1.00  0.00     0.010 A 
ATOM     12  C   UNL A   1      39.837  28.374  28.466  1.00  0.00    -0.014 A 
BRANCH  12  13
ATOM     13  C   UNL A   1      41.239  27.951  28.378  1.00  0.00     0.031 A 
ATOM     14  C   UNL A   1      41.491  26.632  27.721  1.00  0.00     0.074 A 
ATOM     15  C   UNL A   1      42.297  28.731  28.676  1.00  0.00     0.049 A 
ATOM     16  N   UNL A   1      42.143  25.610  28.176  1.00  0.00    -0.248 NA
ATOM     17  C   UNL A   1      40.904  26.415  26.389  1.00  0.00     0.031 C 
ATOM     18  C   UNL A   1      42.291  30.155  29.014  1.00  0.00     0.029 A 
ATOM     19  N   UNL A   1      43.630  28.424  28.622  1.00  0.00    -0.354 N 
ATOM     20  C   UNL A   1      42.210  24.689  27.130  1.00  0.00     0.074 A 
ATOM     21  C   UNL A   1      41.342  25.191  26.098  1.00  0.00     0.031 C 
ATOM     22  C   UNL A   1      43.550  30.635  28.920  1.00  0.00     0.029 A 
ATOM     23  C   UNL A   1      44.462  29.535  28.642  1.00  0.00     0.049 A 
ATOM     24  H   UNL A   1      43.967  27.501  28.572  1.00  0.00     0.167 HD
ATOM     25  C   UNL A   1      43.091  23.649  27.121  1.00  0.00     0.034 A 
ATOM     26  C   UNL A   1      45.793  29.575  28.384  1.00  0.00     0.034 A 
ATOM     27  C   UNL A   1      43.579  23.346  28.442  1.00  0.00     0.049 A 
ATOM     28  C   UNL A   1      46.341  28.214  28.583  1.00  0.00     0.074 A 
ATOM     29  C   UNL A   1      42.984  22.993  29.637  1.00  0.00     0.029 A 
ATOM     30  N   UNL A   1      44.871  23.683  28.768  1.00  0.00    -0.354 N 
ATOM     31  N   UNL A   1      46.403  27.614  29.738  1.00  0.00    -0.248 NA
ATOM     32  C   UNL A   1      46.496  27.344  27.427  1.00  0.00     0.031 C 
ATOM     33  C   UNL A   1      43.773  23.621  30.645  1.00  0.00     0.029 A 
ATOM     34  C   UNL A   1      44.818  24.286  30.000  1.00  0.00     0.049 A 
ATOM     35  H   UNL A   1      45.676  23.522  28.225  1.00  0.00     0.167 HD
ATOM     36  C   UNL A   1      46.187  26.275  29.461  1.00  0.00     0.074 A 
ATOM     37  C   UNL A   1      46.382  26.154  28.021  1.00  0.00     0.031 C 
ATOM     38  C   UNL A   1      45.601  25.448  30.376  1.00  0.00     0.034 A 
BRANCH  25  39
ATOM     39  C   UNL A   1      43.704  23.046  25.876  1.00  0.00     0.023 A 
ATOM     40  C   UNL A   1      43.722  21.641  25.745  1.00  0.00     0.031 A 
ATOM     41  C   UNL A   1      44.496  23.758  24.948  1.00  0.00     0.131 A 
ATOM     42  C   UNL A   1      44.525  21.014  24.775  1.00  0.00     0.055 A 
ATOM     43  C   UNL A   1      45.236  23.133  23.940  1.00  0.00     0.041 A 
ATOM     44  F   UNL A   1      44.672  25.083  25.027  1.00  0.00    -0.206 F 
ATOM     45  C   UNL A   1      45.273  21.752  23.862  1.00  0.00     0.022 A 
BRANCH  42  46
ATOM     46  S   UNL A   1      44.722  19.211  24.840  1.00  0.00     0.124 S 
ATOM     47  O   UNL A   1      44.928  18.881  23.434  1.00  0.00    -0.237 OA
ATOM     48  O   UNL A   1      45.883  19.066  25.713  1.00  0.00    -0.237 OA
ATOM     49  O   UNL A   1      43.456  18.751  25.407  1.00  0.00    -0.744 OA
ENDBRANCH  42  46
ENDBRANCH  25  39
BRANCH  26  50
ATOM     50  C   UNL A   1      46.546  30.673  27.727  1.00  0.00     0.023 A 
ATOM     51  C   UNL A   1      45.909  31.724  27.041  1.00  0.00     0.031 A 
ATOM     52  C   UNL A   1      47.932  30.816  27.966  1.00  0.00     0.131 A 
ATOM     53  C   UNL A   1      46.654  32.846  26.613  1.00  0.00     0.055 A 
ATOM     54  C   UNL A   1      48.667  31.916  27.525  1.00  0.00     0.041 A 
ATOM     55  F   UNL A   1      48.605  29.925  28.714  1.00  0.00    -0.206 F 
ATOM     56  C   UNL A   1      48.028  32.942  26.849  1.00  0.00     0.022 A 
BRANCH  53  57
ATOM     57  S   UNL A   1      45.812  34.261  25.835  1.00  0.00     0.124 S 
ATOM     58  O   UNL A   1      46.794  34.703  24.853  1.00  0.00    -0.237 OA
ATOM     59  O   UNL A   1      44.596  33.652  25.308  1.00  0.00    -0.237 OA
ATOM     60  O   UNL A   1      45.598  35.183  26.951  1.00  0.00    -0.744 OA
ENDBRANCH  53  57
ENDBRANCH  26  50
BRANCH  38  61
ATOM     61  C   UNL A   1      45.509  25.904  31.819  1.00  0.00     0.023 A 
ATOM     62  C   UNL A   1      44.364  26.491  32.398  1.00  0.00     0.031 A 
ATOM     63  C   UNL A   1      46.593  25.613  32.669  1.00  0.00     0.131 A 
ATOM     64  C   UNL A   1      44.338  26.783  33.776  1.00  0.00     0.055 A 
ATOM     65  C   UNL A   1      46.557  25.886  34.036  1.00  0.00     0.041 A 
ATOM     66  F   UNL A   1      47.698  25.022  32.186  1.00  0.00    -0.206 F 
ATOM     67  C   UNL A   1      45.430  26.479  34.594  1.00  0.00     0.022 A 
BRANCH  64  68
ATOM     68  S   UNL A   1      42.877  27.570  34.524  1.00  0.00     0.124 S 
ATOM     69  O   UNL A   1      42.549  26.692  35.642  1.00  0.00    -0.237 OA
ATOM     70  O   UNL A   1      43.377  28.896  34.877  1.00  0.00    -0.237 OA
ATOM     71  O   UNL A   1      41.894  27.564  33.438  1.00  0.00    -0.744 OA
ENDBRANCH  64  68
ENDBRANCH  38  61
ENDBRANCH  12  13
ENDBRANCH   5   7
ENDBRANCH   2   3
ENDBRANCH   1   2
BRANCH   1  72
ATOM     72  C   UNL A   1      32.889  26.881  26.137  1.00  0.00     0.118 C 
BRANCH  72  73
ATOM     73  N   UNL A   1      31.819  26.042  26.655  1.00  0.00    -0.351 N 
ATOM     74  C   UNL A   1      31.522  24.734  26.378  1.00  0.00     0.272 C 
ATOM     75  H   UNL A   1      31.217  26.481  27.300  1.00  0.00     0.163 HD
ATOM     76  O   UNL A   1      30.424  24.302  26.752  1.00  0.00    -0.267 OA
BRANCH  74  77
ATOM     77  C   UNL A   1      32.473  23.925  25.611  1.00  0.00     0.153 A 
ATOM     78  N   UNL A   1      33.547  23.365  26.202  1.00  0.00    -0.162 NA
ATOM     79  C   UNL A   1      32.420  23.584  24.227  1.00  0.00     0.004 A 
ATOM     80  N   UNL A   1      34.331  22.959  25.178  1.00  0.00    -0.237 N 
ATOM     81  C   UNL A   1      33.656  23.016  23.982  1.00  0.00     0.119 A 
BRANCH  79  82
ATOM     82  C   UNL A   1      31.366  23.894  23.214  1.00  0.00     0.042 C 
BRANCH  82  83
ATOM     83  C   UNL A   1      31.120  25.389  22.971  1.00  0.00     0.033 C 
BRANCH  83  84
ATOM     84  C   UNL A   1      31.634  25.941  21.647  1.00  0.00     0.156 C 
BRANCH  84  85
ATOM     85  O   UNL A   1      31.311  27.317  21.504  1.00  0.00    -0.396 OA
ATOM     86  H   UNL A   1      31.548  27.791  22.316  1.00  0.00     0.210 HD
ENDBRANCH  84  85
ENDBRANCH  83  84
ENDBRANCH  82  83
ENDBRANCH  79  82
BRANCH  80  87
ATOM     87  C   UNL A   1      35.664  22.560  25.412  1.00  0.00     0.100 A 
ATOM     88  C   UNL A   1      36.612  23.510  25.817  1.00  0.00     0.032 A 
ATOM     89  C   UNL A   1      36.059  21.239  25.191  1.00  0.00     0.149 A 
ATOM     90  C   UNL A   1      37.936  23.121  26.031  1.00  0.00     0.018 A 
ATOM     91  C   UNL A   1      37.390  20.861  25.350  1.00  0.00     0.057 A 
ATOM     92  F   UNL A   1      35.188  20.321  24.750  1.00  0.00    -0.205 F 
ATOM     93  C   UNL A   1      38.321  21.802  25.784  1.00  0.00     0.021 A 
ATOM     94  Br  UNL A   1      40.123  21.291  26.042  1.00  0.00    -0.051 Br
ENDBRANCH  80  87
ENDBRANCH  74  77
ENDBRANCH  72  73
ENDBRANCH   1  72
TORSDOF 18
ENDMDL
