MODEL 1
REMARK VINA RESULT:     -10.7      0.000      0.000
REMARK SMILES O=C(NCCCNC(=O)c1noc(-c2ccccc2Cl)n1)c1ccc(-c2c3nc(c(-c4cc(S(=O)(=O)[O-])ccc4F)c4ccc([nH]4)c(-c4cc(S(=O)(=O)[O-])ccc4F)c4nc(c(-c5cc(S(=O)(=O)[O-])ccc5F)c5ccc2[nH]5)C=C4)C=C3)cc1
REMARK SMILES IDX 4 1 3 2 1 3 2 4 22 6 23 7 84 8 24 9 83 10 25 11 26 12 27 13
REMARK SMILES IDX 77 14 28 15 82 16 76 17 78 18 29 19 81 20 75 21 74 22 30 24
REMARK SMILES IDX 62 25 42 26 61 27 43 28 46 29 60 30 79 31 44 32 45 33 59 35
REMARK SMILES IDX 80 36 47 37 31 38 32 39 40 40 33 41 39 42 41 43 38 44 34 45
REMARK SMILES IDX 35 46 36 47 37 48 63 49 64 50 72 51 65 52 71 53 73 54 70 55
REMARK SMILES IDX 66 56 67 57 68 58 69 59 48 60 49 61 57 62 50 63 56 64 58 65
REMARK SMILES IDX 55 66 51 67 52 68 53 69 54 70 5 71 6 72 7 73 8 74 9 76 10 77
REMARK SMILES IDX 11 78 21 79 12 80 13 81 14 82 15 83 19 84 16 85 18 86 20 87
REMARK SMILES IDX 17 88
REMARK H PARENT 3 5 78 23 46 34 7 75
REMARK Flexibility Score: inf
ROOT
ATOM      1  C   UNL A   1      34.414  33.408  28.871  1.00  0.00     0.118 C 
ENDROOT
BRANCH   1   2
ATOM      2  N   UNL A   1      33.813  32.419  27.987  1.00  0.00    -0.352 N 
ATOM      3  O   UNL A   1      33.703  30.613  26.657  1.00  0.00    -0.269 OA
ATOM      4  C   UNL A   1      34.292  31.206  27.557  1.00  0.00     0.251 C 
ATOM      5  H   UNL A   1      32.923  32.659  27.642  1.00  0.00     0.163 HD
BRANCH   4   6
ATOM      6  C   UNL A   1      35.511  30.619  28.157  1.00  0.00     0.039 A 
ATOM      7  C   UNL A   1      35.432  29.711  29.217  1.00  0.00     0.014 A 
ATOM      8  C   UNL A   1      36.756  30.953  27.616  1.00  0.00     0.014 A 
ATOM      9  C   UNL A   1      36.596  29.246  29.822  1.00  0.00     0.010 A 
ATOM     10  C   UNL A   1      37.921  30.421  28.174  1.00  0.00     0.010 A 
ATOM     11  C   UNL A   1      37.853  29.585  29.302  1.00  0.00    -0.014 A 
BRANCH  11  12
ATOM     12  C   UNL A   1      39.093  29.043  29.917  1.00  0.00     0.031 A 
ATOM     13  C   UNL A   1      39.614  29.607  31.208  1.00  0.00     0.074 A 
ATOM     14  C   UNL A   1      39.758  28.052  29.294  1.00  0.00     0.049 A 
ATOM     15  N   UNL A   1      40.723  29.328  31.847  1.00  0.00    -0.248 NA
ATOM     16  C   UNL A   1      38.785  30.629  31.860  1.00  0.00     0.031 C 
ATOM     17  C   UNL A   1      39.344  27.417  28.040  1.00  0.00     0.029 A 
ATOM     18  N   UNL A   1      40.927  27.410  29.621  1.00  0.00    -0.354 N 
ATOM     19  C   UNL A   1      40.736  30.154  32.966  1.00  0.00     0.074 A 
ATOM     20  C   UNL A   1      39.541  30.971  32.892  1.00  0.00     0.031 C 
ATOM     21  C   UNL A   1      40.235  26.471  27.712  1.00  0.00     0.029 A 
ATOM     22  C   UNL A   1      41.320  26.480  28.688  1.00  0.00     0.049 A 
ATOM     23  H   UNL A   1      41.434  27.597  30.443  1.00  0.00     0.167 HD
ATOM     24  C   UNL A   1      41.656  30.217  33.962  1.00  0.00     0.034 A 
ATOM     25  C   UNL A   1      42.445  25.745  28.600  1.00  0.00     0.034 A 
ATOM     26  C   UNL A   1      42.847  29.398  34.007  1.00  0.00     0.049 A 
ATOM     27  C   UNL A   1      43.489  25.879  29.676  1.00  0.00     0.074 A 
ATOM     28  C   UNL A   1      43.832  29.360  34.979  1.00  0.00     0.029 A 
ATOM     29  N   UNL A   1      43.224  28.485  33.028  1.00  0.00    -0.354 N 
ATOM     30  N   UNL A   1      43.487  26.656  30.733  1.00  0.00    -0.248 NA
ATOM     31  C   UNL A   1      44.682  25.034  29.551  1.00  0.00     0.031 C 
ATOM     32  C   UNL A   1      44.839  28.488  34.551  1.00  0.00     0.029 A 
ATOM     33  C   UNL A   1      44.442  27.908  33.356  1.00  0.00     0.049 A 
ATOM     34  H   UNL A   1      42.702  28.278  32.219  1.00  0.00     0.167 HD
ATOM     35  C   UNL A   1      44.664  26.369  31.419  1.00  0.00     0.074 A 
ATOM     36  C   UNL A   1      45.349  25.347  30.653  1.00  0.00     0.031 C 
ATOM     37  C   UNL A   1      45.124  26.894  32.583  1.00  0.00     0.034 A 
BRANCH  24  38
ATOM     38  C   UNL A   1      41.434  31.247  35.047  1.00  0.00     0.023 A 
ATOM     39  C   UNL A   1      40.324  31.190  35.910  1.00  0.00     0.031 A 
ATOM     40  C   UNL A   1      42.315  32.335  35.188  1.00  0.00     0.131 A 
ATOM     41  C   UNL A   1      40.074  32.244  36.803  1.00  0.00     0.055 A 
ATOM     42  C   UNL A   1      42.111  33.332  36.145  1.00  0.00     0.041 A 
ATOM     43  F   UNL A   1      43.381  32.460  34.383  1.00  0.00    -0.206 F 
ATOM     44  C   UNL A   1      40.974  33.302  36.946  1.00  0.00     0.022 A 
BRANCH  41  45
ATOM     45  S   UNL A   1      38.463  32.304  37.638  1.00  0.00     0.124 S 
ATOM     46  O   UNL A   1      37.902  33.547  37.112  1.00  0.00    -0.237 OA
ATOM     47  O   UNL A   1      37.826  31.074  37.184  1.00  0.00    -0.237 OA
ATOM     48  O   UNL A   1      38.812  32.341  39.056  1.00  0.00    -0.744 OA
ENDBRANCH  41  45
ENDBRANCH  24  38
BRANCH  25  49
ATOM     49  C   UNL A   1      42.653  24.851  27.426  1.00  0.00     0.023 A 
ATOM     50  C   UNL A   1      42.182  23.530  27.423  1.00  0.00     0.031 A 
ATOM     51  C   UNL A   1      43.325  25.317  26.280  1.00  0.00     0.131 A 
ATOM     52  C   UNL A   1      42.412  22.711  26.307  1.00  0.00     0.055 A 
ATOM     53  C   UNL A   1      43.505  24.515  25.154  1.00  0.00     0.041 A 
ATOM     54  F   UNL A   1      43.789  26.576  26.231  1.00  0.00    -0.206 F 
ATOM     55  C   UNL A   1      43.055  23.200  25.167  1.00  0.00     0.022 A 
BRANCH  52  56
ATOM     56  S   UNL A   1      41.903  20.973  26.387  1.00  0.00     0.124 S 
ATOM     57  O   UNL A   1      42.777  20.363  25.391  1.00  0.00    -0.237 OA
ATOM     58  O   UNL A   1      42.183  20.637  27.779  1.00  0.00    -0.237 OA
ATOM     59  O   UNL A   1      40.486  21.016  26.032  1.00  0.00    -0.744 OA
ENDBRANCH  52  56
ENDBRANCH  25  49
BRANCH  37  60
ATOM     60  C   UNL A   1      46.407  26.322  33.139  1.00  0.00     0.023 A 
ATOM     61  C   UNL A   1      46.423  25.194  33.977  1.00  0.00     0.031 A 
ATOM     62  C   UNL A   1      47.637  26.917  32.806  1.00  0.00     0.131 A 
ATOM     63  C   UNL A   1      47.644  24.720  34.486  1.00  0.00     0.055 A 
ATOM     64  C   UNL A   1      48.850  26.408  33.268  1.00  0.00     0.041 A 
ATOM     65  F   UNL A   1      47.679  28.001  32.014  1.00  0.00    -0.206 F 
ATOM     66  C   UNL A   1      48.858  25.308  34.121  1.00  0.00     0.022 A 
BRANCH  63  67
ATOM     67  S   UNL A   1      47.624  23.366  35.693  1.00  0.00     0.124 S 
ATOM     68  O   UNL A   1      48.762  22.561  35.264  1.00  0.00    -0.237 OA
ATOM     69  O   UNL A   1      47.783  24.074  36.959  1.00  0.00    -0.237 OA
ATOM     70  O   UNL A   1      46.315  22.746  35.491  1.00  0.00    -0.744 OA
ENDBRANCH  63  67
ENDBRANCH  37  60
ENDBRANCH  11  12
ENDBRANCH   4   6
ENDBRANCH   1   2
BRANCH   1  71
ATOM     71  C   UNL A   1      33.567  34.668  29.002  1.00  0.00     0.042 C 
BRANCH  71  72
ATOM     72  C   UNL A   1      33.694  35.366  30.352  1.00  0.00     0.118 C 
BRANCH  72  73
ATOM     73  N   UNL A   1      33.304  34.495  31.454  1.00  0.00    -0.349 N 
ATOM     74  C   UNL A   1      34.100  33.901  32.410  1.00  0.00     0.292 C 
ATOM     75  H   UNL A   1      32.341  34.305  31.524  1.00  0.00     0.163 HD
ATOM     76  O   UNL A   1      33.590  33.031  33.129  1.00  0.00    -0.266 OA
BRANCH  74  77
ATOM     77  C   UNL A   1      35.495  34.331  32.547  1.00  0.00     0.260 A 
ATOM     78  N   UNL A   1      35.905  35.207  33.482  1.00  0.00    -0.051 NA
ATOM     79  N   UNL A   1      36.507  33.887  31.718  1.00  0.00    -0.182 NA
ATOM     80  O   UNL A   1      37.288  35.276  33.284  1.00  0.00    -0.333 OA
ATOM     81  C   UNL A   1      37.566  34.472  32.218  1.00  0.00     0.259 A 
BRANCH  81  82
ATOM     82  C   UNL A   1      38.957  34.348  31.830  1.00  0.00     0.058 A 
ATOM     83  C   UNL A   1      39.956  34.428  32.817  1.00  0.00     0.015 A 
ATOM     84  C   UNL A   1      39.338  34.082  30.505  1.00  0.00     0.053 A 
ATOM     85  C   UNL A   1      41.300  34.238  32.488  1.00  0.00     0.001 A 
ATOM     86  C   UNL A   1      40.686  33.899  30.180  1.00  0.00     0.021 A 
ATOM     87  Cl  UNL A   1      38.195  33.997  29.208  1.00  0.00    -0.083 Cl
ATOM     88  C   UNL A   1      41.664  33.972  31.171  1.00  0.00     0.002 A 
ENDBRANCH  81  82
ENDBRANCH  74  77
ENDBRANCH  72  73
ENDBRANCH  71  72
ENDBRANCH   1  71
TORSDOF 14
ENDMDL
MODEL 2
REMARK VINA RESULT:     -10.6      1.405      1.797
REMARK SMILES O=C(NCCCNC(=O)c1noc(-c2ccccc2Cl)n1)c1ccc(-c2c3nc(c(-c4cc(S(=O)(=O)[O-])ccc4F)c4ccc([nH]4)c(-c4cc(S(=O)(=O)[O-])ccc4F)c4nc(c(-c5cc(S(=O)(=O)[O-])ccc5F)c5ccc2[nH]5)C=C4)C=C3)cc1
REMARK SMILES IDX 4 1 3 2 1 3 2 4 22 6 23 7 84 8 24 9 83 10 25 11 26 12 27 13
REMARK SMILES IDX 77 14 28 15 82 16 76 17 78 18 29 19 81 20 75 21 74 22 30 24
REMARK SMILES IDX 62 25 42 26 61 27 43 28 46 29 60 30 79 31 44 32 45 33 59 35
REMARK SMILES IDX 80 36 47 37 31 38 32 39 40 40 33 41 39 42 41 43 38 44 34 45
REMARK SMILES IDX 35 46 36 47 37 48 63 49 64 50 72 51 65 52 71 53 73 54 70 55
REMARK SMILES IDX 66 56 67 57 68 58 69 59 48 60 49 61 57 62 50 63 56 64 58 65
REMARK SMILES IDX 55 66 51 67 52 68 53 69 54 70 5 71 6 72 7 73 8 74 9 76 10 77
REMARK SMILES IDX 11 78 21 79 12 80 13 81 14 82 15 83 19 84 16 85 18 86 20 87
REMARK SMILES IDX 17 88
REMARK H PARENT 3 5 78 23 46 34 7 75
REMARK Flexibility Score: inf
ROOT
ATOM      1  C   UNL A   1      34.515  33.174  28.587  1.00  0.00     0.118 C 
ENDROOT
BRANCH   1   2
ATOM      2  N   UNL A   1      33.893  32.116  27.804  1.00  0.00    -0.352 N 
ATOM      3  O   UNL A   1      33.754  30.215  26.617  1.00  0.00    -0.269 OA
ATOM      4  C   UNL A   1      34.371  30.879  27.447  1.00  0.00     0.251 C 
ATOM      5  H   UNL A   1      32.987  32.320  27.478  1.00  0.00     0.163 HD
BRANCH   4   6
ATOM      6  C   UNL A   1      35.619  30.349  28.041  1.00  0.00     0.039 A 
ATOM      7  C   UNL A   1      36.845  30.474  27.381  1.00  0.00     0.014 A 
ATOM      8  C   UNL A   1      35.564  29.754  29.304  1.00  0.00     0.014 A 
ATOM      9  C   UNL A   1      37.986  29.886  27.919  1.00  0.00     0.010 A 
ATOM     10  C   UNL A   1      36.727  29.235  29.879  1.00  0.00     0.010 A 
ATOM     11  C   UNL A   1      37.944  29.271  29.178  1.00  0.00    -0.014 A 
BRANCH  11  12
ATOM     12  C   UNL A   1      39.177  28.692  29.773  1.00  0.00     0.031 A 
ATOM     13  C   UNL A   1      39.769  29.279  31.023  1.00  0.00     0.074 A 
ATOM     14  C   UNL A   1      39.773  27.646  29.170  1.00  0.00     0.049 A 
ATOM     15  N   UNL A   1      40.884  28.971  31.636  1.00  0.00    -0.248 NA
ATOM     16  C   UNL A   1      39.012  30.365  31.660  1.00  0.00     0.031 C 
ATOM     17  C   UNL A   1      39.285  26.985  27.957  1.00  0.00     0.029 A 
ATOM     18  N   UNL A   1      40.920  26.962  29.484  1.00  0.00    -0.354 N 
ATOM     19  C   UNL A   1      40.975  29.838  32.720  1.00  0.00     0.074 A 
ATOM     20  C   UNL A   1      39.819  30.709  32.653  1.00  0.00     0.031 C 
ATOM     21  C   UNL A   1      40.119  25.984  27.638  1.00  0.00     0.029 A 
ATOM     22  C   UNL A   1      41.236  25.978  28.576  1.00  0.00     0.049 A 
ATOM     23  H   UNL A   1      41.463  27.155  30.281  1.00  0.00     0.167 HD
ATOM     24  C   UNL A   1      41.931  29.894  33.683  1.00  0.00     0.034 A 
ATOM     25  C   UNL A   1      42.321  25.186  28.481  1.00  0.00     0.034 A 
ATOM     26  C   UNL A   1      43.082  29.021  33.721  1.00  0.00     0.049 A 
ATOM     27  C   UNL A   1      43.406  25.310  29.517  1.00  0.00     0.074 A 
ATOM     28  C   UNL A   1      44.097  28.972  34.662  1.00  0.00     0.029 A 
ATOM     29  N   UNL A   1      43.382  28.054  32.769  1.00  0.00    -0.354 N 
ATOM     30  N   UNL A   1      43.478  26.127  30.542  1.00  0.00    -0.248 NA
ATOM     31  C   UNL A   1      44.553  24.403  29.387  1.00  0.00     0.031 C 
ATOM     32  C   UNL A   1      45.046  28.036  34.237  1.00  0.00     0.029 A 
ATOM     33  C   UNL A   1      44.581  27.430  33.080  1.00  0.00     0.049 A 
ATOM     34  H   UNL A   1      42.823  27.841  31.986  1.00  0.00     0.167 HD
ATOM     35  C   UNL A   1      44.663  25.809  31.200  1.00  0.00     0.074 A 
ATOM     36  C   UNL A   1      45.272  24.726  30.454  1.00  0.00     0.031 C 
ATOM     37  C   UNL A   1      45.188  26.355  32.326  1.00  0.00     0.034 A 
BRANCH  24  38
ATOM     38  C   UNL A   1      41.795  30.976  34.732  1.00  0.00     0.023 A 
ATOM     39  C   UNL A   1      40.696  31.026  35.609  1.00  0.00     0.031 A 
ATOM     40  C   UNL A   1      42.751  32.004  34.824  1.00  0.00     0.131 A 
ATOM     41  C   UNL A   1      40.532  32.126  36.466  1.00  0.00     0.055 A 
ATOM     42  C   UNL A   1      42.630  33.045  35.746  1.00  0.00     0.041 A 
ATOM     43  F   UNL A   1      43.813  32.025  34.003  1.00  0.00    -0.206 F 
ATOM     44  C   UNL A   1      41.505  33.123  36.560  1.00  0.00     0.022 A 
BRANCH  41  45
ATOM     45  S   UNL A   1      38.941  32.328  37.316  1.00  0.00     0.124 S 
ATOM     46  O   UNL A   1      38.312  31.029  37.083  1.00  0.00    -0.237 OA
ATOM     47  O   UNL A   1      39.348  32.602  38.689  1.00  0.00    -0.237 OA
ATOM     48  O   UNL A   1      38.316  33.447  36.614  1.00  0.00    -0.744 OA
ENDBRANCH  41  45
ENDBRANCH  24  38
BRANCH  25  49
ATOM     49  C   UNL A   1      42.446  24.238  27.339  1.00  0.00     0.023 A 
ATOM     50  C   UNL A   1      41.872  22.960  27.386  1.00  0.00     0.031 A 
ATOM     51  C   UNL A   1      43.141  24.610  26.172  1.00  0.00     0.131 A 
ATOM     52  C   UNL A   1      42.024  22.087  26.297  1.00  0.00     0.055 A 
ATOM     53  C   UNL A   1      43.246  23.757  25.074  1.00  0.00     0.041 A 
ATOM     54  F   UNL A   1      43.703  25.825  26.075  1.00  0.00    -0.206 F 
ATOM     55  C   UNL A   1      42.693  22.483  25.136  1.00  0.00     0.022 A 
BRANCH  52  56
ATOM     56  S   UNL A   1      41.381  20.398  26.442  1.00  0.00     0.124 S 
ATOM     57  O   UNL A   1      41.781  20.044  27.799  1.00  0.00    -0.237 OA
ATOM     58  O   UNL A   1      39.951  20.598  26.226  1.00  0.00    -0.237 OA
ATOM     59  O   UNL A   1      42.074  19.678  25.376  1.00  0.00    -0.744 OA
ENDBRANCH  52  56
ENDBRANCH  25  49
BRANCH  37  60
ATOM     60  C   UNL A   1      46.460  25.743  32.863  1.00  0.00     0.023 A 
ATOM     61  C   UNL A   1      47.728  26.098  32.372  1.00  0.00     0.031 A 
ATOM     62  C   UNL A   1      46.392  24.794  33.899  1.00  0.00     0.131 A 
ATOM     63  C   UNL A   1      48.876  25.477  32.892  1.00  0.00     0.055 A 
ATOM     64  C   UNL A   1      47.539  24.223  34.451  1.00  0.00     0.041 A 
ATOM     65  F   UNL A   1      45.206  24.414  34.401  1.00  0.00    -0.206 F 
ATOM     66  C   UNL A   1      48.790  24.557  33.941  1.00  0.00     0.022 A 
BRANCH  63  67
ATOM     67  S   UNL A   1      50.484  25.831  32.132  1.00  0.00     0.124 S 
ATOM     68  O   UNL A   1      51.374  25.828  33.288  1.00  0.00    -0.237 OA
ATOM     69  O   UNL A   1      50.642  24.719  31.202  1.00  0.00    -0.237 OA
ATOM     70  O   UNL A   1      50.288  27.138  31.506  1.00  0.00    -0.744 OA
ENDBRANCH  63  67
ENDBRANCH  37  60
ENDBRANCH  11  12
ENDBRANCH   4   6
ENDBRANCH   1   2
BRANCH   1  71
ATOM     71  C   UNL A   1      33.667  34.439  28.641  1.00  0.00     0.042 C 
BRANCH  71  72
ATOM     72  C   UNL A   1      33.856  35.262  29.911  1.00  0.00     0.118 C 
BRANCH  72  73
ATOM     73  N   UNL A   1      33.336  34.576  31.087  1.00  0.00    -0.349 N 
ATOM     74  C   UNL A   1      34.025  34.073  32.170  1.00  0.00     0.292 C 
ATOM     75  H   UNL A   1      32.360  34.456  31.111  1.00  0.00     0.163 HD
ATOM     76  O   UNL A   1      33.410  33.342  32.959  1.00  0.00    -0.266 OA
BRANCH  74  77
ATOM     77  C   UNL A   1      35.434  34.433  32.352  1.00  0.00     0.260 A 
ATOM     78  N   UNL A   1      35.853  35.321  33.271  1.00  0.00    -0.051 NA
ATOM     79  N   UNL A   1      36.453  33.904  31.583  1.00  0.00    -0.182 NA
ATOM     80  O   UNL A   1      37.244  35.308  33.131  1.00  0.00    -0.333 OA
ATOM     81  C   UNL A   1      37.522  34.451  32.107  1.00  0.00     0.259 A 
BRANCH  81  82
ATOM     82  C   UNL A   1      38.919  34.238  31.784  1.00  0.00     0.058 A 
ATOM     83  C   UNL A   1      39.890  34.407  32.787  1.00  0.00     0.015 A 
ATOM     84  C   UNL A   1      39.330  33.802  30.514  1.00  0.00     0.053 A 
ATOM     85  C   UNL A   1      41.236  34.138  32.529  1.00  0.00     0.001 A 
ATOM     86  C   UNL A   1      40.680  33.540  30.259  1.00  0.00     0.021 A 
ATOM     87  Cl  UNL A   1      38.223  33.595  29.199  1.00  0.00    -0.083 Cl
ATOM     88  C   UNL A   1      41.630  33.703  31.266  1.00  0.00     0.002 A 
ENDBRANCH  81  82
ENDBRANCH  74  77
ENDBRANCH  72  73
ENDBRANCH  71  72
ENDBRANCH   1  71
TORSDOF 14
ENDMDL
MODEL 3
REMARK VINA RESULT:     -10.6      4.813     11.973
REMARK SMILES O=C(NCCCNC(=O)c1noc(-c2ccccc2Cl)n1)c1ccc(-c2c3nc(c(-c4cc(S(=O)(=O)[O-])ccc4F)c4ccc([nH]4)c(-c4cc(S(=O)(=O)[O-])ccc4F)c4nc(c(-c5cc(S(=O)(=O)[O-])ccc5F)c5ccc2[nH]5)C=C4)C=C3)cc1
REMARK SMILES IDX 4 1 3 2 1 3 2 4 22 6 23 7 84 8 24 9 83 10 25 11 26 12 27 13
REMARK SMILES IDX 77 14 28 15 82 16 76 17 78 18 29 19 81 20 75 21 74 22 30 24
REMARK SMILES IDX 62 25 42 26 61 27 43 28 46 29 60 30 79 31 44 32 45 33 59 35
REMARK SMILES IDX 80 36 47 37 31 38 32 39 40 40 33 41 39 42 41 43 38 44 34 45
REMARK SMILES IDX 35 46 36 47 37 48 63 49 64 50 72 51 65 52 71 53 73 54 70 55
REMARK SMILES IDX 66 56 67 57 68 58 69 59 48 60 49 61 57 62 50 63 56 64 58 65
REMARK SMILES IDX 55 66 51 67 52 68 53 69 54 70 5 71 6 72 7 73 8 74 9 76 10 77
REMARK SMILES IDX 11 78 21 79 12 80 13 81 14 82 15 83 19 84 16 85 18 86 20 87
REMARK SMILES IDX 17 88
REMARK H PARENT 3 5 78 23 46 34 7 75
REMARK Flexibility Score: inf
ROOT
ATOM      1  C   UNL A   1      41.071  21.519  27.509  1.00  0.00     0.118 C 
ENDROOT
BRANCH   1   2
ATOM      2  N   UNL A   1      39.836  21.619  26.745  1.00  0.00    -0.352 N 
ATOM      3  O   UNL A   1      37.909  22.513  26.015  1.00  0.00    -0.269 OA
ATOM      4  C   UNL A   1      39.007  22.695  26.536  1.00  0.00     0.251 C 
ATOM      5  H   UNL A   1      39.548  20.784  26.311  1.00  0.00     0.163 HD
BRANCH   4   6
ATOM      6  C   UNL A   1      39.418  24.057  26.943  1.00  0.00     0.039 A 
ATOM      7  C   UNL A   1      39.909  24.975  26.010  1.00  0.00     0.014 A 
ATOM      8  C   UNL A   1      39.268  24.434  28.280  1.00  0.00     0.014 A 
ATOM      9  C   UNL A   1      40.375  26.216  26.435  1.00  0.00     0.010 A 
ATOM     10  C   UNL A   1      39.661  25.711  28.690  1.00  0.00     0.010 A 
ATOM     11  C   UNL A   1      40.246  26.603  27.776  1.00  0.00    -0.014 A 
BRANCH  11  12
ATOM     12  C   UNL A   1      40.694  27.951  28.215  1.00  0.00     0.031 A 
ATOM     13  C   UNL A   1      42.153  28.306  28.220  1.00  0.00     0.074 A 
ATOM     14  C   UNL A   1      39.778  28.847  28.630  1.00  0.00     0.049 A 
ATOM     15  N   UNL A   1      42.741  29.393  28.654  1.00  0.00    -0.248 NA
ATOM     16  C   UNL A   1      43.075  27.299  27.677  1.00  0.00     0.031 C 
ATOM     17  C   UNL A   1      38.331  28.620  28.661  1.00  0.00     0.029 A 
ATOM     18  N   UNL A   1      39.925  30.123  29.115  1.00  0.00    -0.354 N 
ATOM     19  C   UNL A   1      44.103  29.194  28.456  1.00  0.00     0.074 A 
ATOM     20  C   UNL A   1      44.252  27.865  27.900  1.00  0.00     0.031 C 
ATOM     21  C   UNL A   1      37.724  29.721  29.125  1.00  0.00     0.029 A 
ATOM     22  C   UNL A   1      38.738  30.704  29.494  1.00  0.00     0.049 A 
ATOM     23  H   UNL A   1      40.795  30.577  29.183  1.00  0.00     0.167 HD
ATOM     24  C   UNL A   1      45.129  30.047  28.709  1.00  0.00     0.034 A 
ATOM     25  C   UNL A   1      38.491  31.877  30.109  1.00  0.00     0.034 A 
ATOM     26  C   UNL A   1      44.955  31.365  29.276  1.00  0.00     0.049 A 
ATOM     27  C   UNL A   1      39.647  32.779  30.448  1.00  0.00     0.074 A 
ATOM     28  C   UNL A   1      45.919  32.321  29.550  1.00  0.00     0.029 A 
ATOM     29  N   UNL A   1      43.739  31.909  29.673  1.00  0.00    -0.354 N 
ATOM     30  N   UNL A   1      40.930  32.585  30.248  1.00  0.00    -0.248 NA
ATOM     31  C   UNL A   1      39.323  34.059  31.088  1.00  0.00     0.031 C 
ATOM     32  C   UNL A   1      45.298  33.403  30.183  1.00  0.00     0.029 A 
ATOM     33  C   UNL A   1      43.932  33.168  30.221  1.00  0.00     0.049 A 
ATOM     34  H   UNL A   1      42.865  31.464  29.578  1.00  0.00     0.167 HD
ATOM     35  C   UNL A   1      41.564  33.736  30.708  1.00  0.00     0.074 A 
ATOM     36  C   UNL A   1      40.521  34.616  31.195  1.00  0.00     0.031 C 
ATOM     37  C   UNL A   1      42.887  34.038  30.712  1.00  0.00     0.034 A 
BRANCH  24  38
ATOM     38  C   UNL A   1      46.530  29.548  28.428  1.00  0.00     0.023 A 
ATOM     39  C   UNL A   1      47.321  28.954  29.429  1.00  0.00     0.031 A 
ATOM     40  C   UNL A   1      47.105  29.717  27.155  1.00  0.00     0.131 A 
ATOM     41  C   UNL A   1      48.665  28.642  29.168  1.00  0.00     0.055 A 
ATOM     42  C   UNL A   1      48.413  29.315  26.876  1.00  0.00     0.041 A 
ATOM     43  F   UNL A   1      46.411  30.295  26.163  1.00  0.00    -0.206 F 
ATOM     44  C   UNL A   1      49.209  28.793  27.891  1.00  0.00     0.022 A 
BRANCH  41  45
ATOM     45  S   UNL A   1      49.739  28.212  30.566  1.00  0.00     0.124 S 
ATOM     46  O   UNL A   1      48.936  28.654  31.705  1.00  0.00    -0.237 OA
ATOM     47  O   UNL A   1      49.893  26.771  30.415  1.00  0.00    -0.237 OA
ATOM     48  O   UNL A   1      50.947  28.999  30.326  1.00  0.00    -0.744 OA
ENDBRANCH  41  45
ENDBRANCH  24  38
BRANCH  25  49
ATOM     49  C   UNL A   1      37.093  32.237  30.477  1.00  0.00     0.023 A 
ATOM     50  C   UNL A   1      36.237  32.865  29.561  1.00  0.00     0.031 A 
ATOM     51  C   UNL A   1      36.592  31.946  31.760  1.00  0.00     0.131 A 
ATOM     52  C   UNL A   1      34.932  33.206  29.948  1.00  0.00     0.055 A 
ATOM     53  C   UNL A   1      35.278  32.241  32.122  1.00  0.00     0.041 A 
ATOM     54  F   UNL A   1      37.370  31.339  32.671  1.00  0.00    -0.206 F 
ATOM     55  C   UNL A   1      34.442  32.883  31.216  1.00  0.00     0.022 A 
BRANCH  52  56
ATOM     56  S   UNL A   1      33.895  34.131  28.784  1.00  0.00     0.124 S 
ATOM     57  O   UNL A   1      34.805  35.184  28.349  1.00  0.00    -0.237 OA
ATOM     58  O   UNL A   1      33.569  33.113  27.791  1.00  0.00    -0.237 OA
ATOM     59  O   UNL A   1      32.772  34.576  29.607  1.00  0.00    -0.744 OA
ENDBRANCH  52  56
ENDBRANCH  25  49
BRANCH  37  60
ATOM     60  C   UNL A   1      43.281  35.412  31.201  1.00  0.00     0.023 A 
ATOM     61  C   UNL A   1      43.423  36.506  30.330  1.00  0.00     0.031 A 
ATOM     62  C   UNL A   1      43.502  35.626  32.574  1.00  0.00     0.131 A 
ATOM     63  C   UNL A   1      43.815  37.755  30.838  1.00  0.00     0.055 A 
ATOM     64  C   UNL A   1      43.837  36.882  33.079  1.00  0.00     0.041 A 
ATOM     65  F   UNL A   1      43.387  34.614  33.450  1.00  0.00    -0.206 F 
ATOM     66  C   UNL A   1      44.004  37.954  32.208  1.00  0.00     0.022 A 
BRANCH  63  67
ATOM     67  S   UNL A   1      44.149  39.107  29.676  1.00  0.00     0.124 S 
ATOM     68  O   UNL A   1      45.581  38.960  29.441  1.00  0.00    -0.237 OA
ATOM     69  O   UNL A   1      43.280  38.775  28.552  1.00  0.00    -0.237 OA
ATOM     70  O   UNL A   1      43.764  40.305  30.421  1.00  0.00    -0.744 OA
ENDBRANCH  63  67
ENDBRANCH  37  60
ENDBRANCH  11  12
ENDBRANCH   4   6
ENDBRANCH   1   2
BRANCH   1  71
ATOM     71  C   UNL A   1      41.687  20.126  27.446  1.00  0.00     0.042 C 
BRANCH  71  72
ATOM     72  C   UNL A   1      42.077  19.681  26.040  1.00  0.00     0.118 C 
BRANCH  72  73
ATOM     73  N   UNL A   1      43.261  18.831  26.046  1.00  0.00    -0.349 N 
ATOM     74  C   UNL A   1      44.468  19.025  25.410  1.00  0.00     0.292 C 
ATOM     75  H   UNL A   1      43.187  18.006  26.578  1.00  0.00     0.163 HD
ATOM     76  O   UNL A   1      45.264  18.077  25.378  1.00  0.00    -0.266 OA
BRANCH  74  77
ATOM     77  C   UNL A   1      44.764  20.333  24.820  1.00  0.00     0.260 A 
ATOM     78  N   UNL A   1      44.528  20.627  23.528  1.00  0.00    -0.051 NA
ATOM     79  N   UNL A   1      45.325  21.374  25.534  1.00  0.00    -0.182 NA
ATOM     80  O   UNL A   1      44.898  21.972  23.424  1.00  0.00    -0.333 OA
ATOM     81  C   UNL A   1      45.366  22.340  24.651  1.00  0.00     0.259 A 
BRANCH  81  82
ATOM     82  C   UNL A   1      45.788  23.718  24.811  1.00  0.00     0.058 A 
ATOM     83  C   UNL A   1      47.142  24.048  24.630  1.00  0.00     0.015 A 
ATOM     84  C   UNL A   1      44.872  24.749  25.076  1.00  0.00     0.053 A 
ATOM     85  C   UNL A   1      47.569  25.376  24.703  1.00  0.00     0.001 A 
ATOM     86  C   UNL A   1      45.305  26.077  25.154  1.00  0.00     0.021 A 
ATOM     87  Cl  UNL A   1      43.189  24.450  25.349  1.00  0.00    -0.083 Cl
ATOM     88  C   UNL A   1      46.650  26.390  24.963  1.00  0.00     0.002 A 
ENDBRANCH  81  82
ENDBRANCH  74  77
ENDBRANCH  72  73
ENDBRANCH  71  72
ENDBRANCH   1  71
TORSDOF 14
ENDMDL
