MODEL 1
REMARK VINA RESULT:     -11.4      0.000      0.000
REMARK SMILES C[C@H]([NH2+][C@@H](C)[C@]12C[C@H]3C[C@H](C[C@H](C3)C1)C2)[C@@H](C)C(=O)NCCCNC(=O)c1ccc(-c2c3nc(c(-c4cc(S(=O)(=O)[O-])ccc4F)c4ccc([nH]4)c(-c4cc(S(=O)(=O)[O-])ccc4F)c4nc(c(-c5cc(S(=O)(=O)[O-])ccc5F)c5ccc2[nH]5)C=C4)C=C3)cc1
REMARK SMILES IDX 21 1 20 2 18 3 19 4 16 6 17 7 2 8 1 9 3 10 4 13 5 14 6 15
REMARK SMILES IDX 7 16 14 17 15 18 8 19 12 20 10 21 9 22 13 23 11 24 22 25
REMARK SMILES IDX 23 26 24 27 25 28 26 30 27 31 28 32 89 33 29 34 88 35 30 36
REMARK SMILES IDX 31 37 32 38 82 39 33 40 87 41 81 42 83 43 34 44 86 45 80 46
REMARK SMILES IDX 79 47 35 49 67 50 47 51 66 52 48 53 51 54 65 55 84 56 49 57
REMARK SMILES IDX 50 58 64 60 85 61 52 62 36 63 37 64 45 65 38 66 44 67 46 68
REMARK SMILES IDX 43 69 39 70 40 71 41 72 42 73 68 74 69 75 77 76 70 77 76 78
REMARK SMILES IDX 78 79 75 80 71 81 72 82 73 83 74 84 53 85 54 86 62 87 55 88
REMARK SMILES IDX 61 89 63 90 60 91 56 92 57 93 58 94 59 95
REMARK H PARENT 20 5 3 11 3 12 24 29 83 48 51 59
REMARK Flexibility Score: inf
ROOT
ATOM      1  C   UNL A   1      31.119  30.874  25.493  1.00  0.00     0.117 C 
ENDROOT
BRANCH   1   2
ATOM      2  N   UNL A   1      32.356  30.112  25.429  1.00  0.00    -0.356 N 
ATOM      3  C   UNL A   1      32.586  28.776  25.278  1.00  0.00     0.228 C 
ATOM      4  O   UNL A   1      33.760  28.414  25.164  1.00  0.00    -0.275 OA
ATOM      5  H   UNL A   1      33.172  30.656  25.509  1.00  0.00     0.163 HD
BRANCH   3   6
ATOM      6  C   UNL A   1      31.460  27.734  25.304  1.00  0.00     0.133 C 
ATOM      7  C   UNL A   1      31.571  26.815  26.516  1.00  0.00     0.024 C 
BRANCH   6   8
ATOM      8  C   UNL A   1      31.338  27.085  23.898  1.00  0.00     0.191 C 
ATOM      9  C   UNL A   1      30.256  25.985  24.012  1.00  0.00     0.076 C 
BRANCH   8  10
ATOM     10  N   UNL A   1      32.585  26.512  23.371  1.00  0.00    -0.341 N 
ATOM     11  H   UNL A   1      33.328  26.728  24.035  1.00  0.00     0.346 HD
ATOM     12  H   UNL A   1      32.699  26.929  22.448  1.00  0.00     0.346 HD
BRANCH  10  13
ATOM     13  C   UNL A   1      32.604  25.040  23.136  1.00  0.00     0.185 C 
ATOM     14  C   UNL A   1      32.878  24.899  21.626  1.00  0.00     0.076 C 
BRANCH  13  15
ATOM     15  C   UNL A   1      33.579  24.141  24.016  1.00  0.00     0.023 C 
ATOM     16  C   UNL A   1      32.805  23.069  24.829  1.00  0.00     0.016 C 
ATOM     17  C   UNL A   1      34.380  24.976  25.076  1.00  0.00     0.016 C 
ATOM     18  C   UNL A   1      34.680  23.485  23.128  1.00  0.00     0.016 C 
ATOM     19  C   UNL A   1      33.767  22.145  25.594  1.00  0.00    -0.010 C 
ATOM     20  C   UNL A   1      35.346  24.080  25.893  1.00  0.00    -0.010 C 
ATOM     21  C   UNL A   1      35.605  22.564  23.924  1.00  0.00    -0.010 C 
ATOM     22  C   UNL A   1      34.752  21.490  24.613  1.00  0.00     0.007 C 
ATOM     23  C   UNL A   1      34.548  22.983  26.616  1.00  0.00     0.007 C 
ATOM     24  C   UNL A   1      36.357  23.403  24.957  1.00  0.00     0.007 C 
ENDBRANCH  13  15
ENDBRANCH  10  13
ENDBRANCH   8  10
ENDBRANCH   6   8
ENDBRANCH   3   6
ENDBRANCH   1   2
BRANCH   1  25
ATOM     25  C   UNL A   1      31.142  31.992  26.528  1.00  0.00     0.042 C 
BRANCH  25  26
ATOM     26  C   UNL A   1      32.527  32.469  26.939  1.00  0.00     0.118 C 
BRANCH  26  27
ATOM     27  N   UNL A   1      32.519  33.808  27.504  1.00  0.00    -0.352 N 
ATOM     28  C   UNL A   1      33.277  34.365  28.508  1.00  0.00     0.251 C 
ATOM     29  H   UNL A   1      31.862  34.420  27.101  1.00  0.00     0.163 HD
ATOM     30  O   UNL A   1      32.956  35.464  28.949  1.00  0.00    -0.269 OA
BRANCH  28  31
ATOM     31  C   UNL A   1      34.445  33.649  29.076  1.00  0.00     0.039 A 
ATOM     32  C   UNL A   1      35.729  34.095  28.748  1.00  0.00     0.014 A 
ATOM     33  C   UNL A   1      34.292  32.526  29.892  1.00  0.00     0.014 A 
ATOM     34  C   UNL A   1      36.849  33.462  29.294  1.00  0.00     0.010 A 
ATOM     35  C   UNL A   1      35.405  31.951  30.506  1.00  0.00     0.010 A 
ATOM     36  C   UNL A   1      36.696  32.409  30.212  1.00  0.00    -0.014 A 
BRANCH  36  37
ATOM     37  C   UNL A   1      37.874  31.776  30.866  1.00  0.00     0.031 A 
ATOM     38  C   UNL A   1      38.665  30.717  30.143  1.00  0.00     0.074 A 
ATOM     39  C   UNL A   1      38.196  32.110  32.132  1.00  0.00     0.049 A 
ATOM     40  N   UNL A   1      39.666  29.993  30.572  1.00  0.00    -0.248 NA
ATOM     41  C   UNL A   1      38.254  30.413  28.764  1.00  0.00     0.031 C 
ATOM     42  C   UNL A   1      37.487  33.097  32.951  1.00  0.00     0.029 A 
ATOM     43  N   UNL A   1      39.195  31.655  32.957  1.00  0.00    -0.354 N 
ATOM     44  C   UNL A   1      39.997  29.140  29.524  1.00  0.00     0.074 A 
ATOM     45  C   UNL A   1      39.045  29.395  28.464  1.00  0.00     0.031 C 
ATOM     46  C   UNL A   1      38.089  33.191  34.146  1.00  0.00     0.029 A 
ATOM     47  C   UNL A   1      39.190  32.237  34.205  1.00  0.00     0.049 A 
ATOM     48  H   UNL A   1      39.852  30.976  32.682  1.00  0.00     0.167 HD
ATOM     49  C   UNL A   1      41.013  28.244  29.444  1.00  0.00     0.034 A 
ATOM     50  C   UNL A   1      39.973  32.016  35.280  1.00  0.00     0.034 A 
ATOM     51  C   UNL A   1      41.960  28.009  30.507  1.00  0.00     0.049 A 
ATOM     52  C   UNL A   1      41.073  30.988  35.180  1.00  0.00     0.074 A 
ATOM     53  C   UNL A   1      43.057  27.164  30.514  1.00  0.00     0.029 A 
ATOM     54  N   UNL A   1      41.920  28.611  31.760  1.00  0.00    -0.354 N 
ATOM     55  N   UNL A   1      41.401  30.224  34.164  1.00  0.00    -0.248 NA
ATOM     56  C   UNL A   1      41.915  30.801  36.370  1.00  0.00     0.031 C 
ATOM     57  C   UNL A   1      43.631  27.198  31.789  1.00  0.00     0.029 A 
ATOM     58  C   UNL A   1      42.949  28.130  32.554  1.00  0.00     0.049 A 
ATOM     59  H   UNL A   1      41.256  29.283  32.041  1.00  0.00     0.167 HD
ATOM     60  C   UNL A   1      42.510  29.491  34.583  1.00  0.00     0.074 A 
ATOM     61  C   UNL A   1      42.800  29.917  35.936  1.00  0.00     0.031 C 
ATOM     62  C   UNL A   1      43.224  28.555  33.907  1.00  0.00     0.034 A 
BRANCH  49  63
ATOM     63  C   UNL A   1      41.132  27.436  28.172  1.00  0.00     0.023 A 
ATOM     64  C   UNL A   1      40.827  26.064  28.136  1.00  0.00     0.031 A 
ATOM     65  C   UNL A   1      41.575  28.041  26.981  1.00  0.00     0.131 A 
ATOM     66  C   UNL A   1      41.043  25.328  26.961  1.00  0.00     0.055 A 
ATOM     67  C   UNL A   1      41.704  27.320  25.792  1.00  0.00     0.041 A 
ATOM     68  F   UNL A   1      41.901  29.343  26.956  1.00  0.00    -0.206 F 
ATOM     69  C   UNL A   1      41.454  25.951  25.781  1.00  0.00     0.022 A 
BRANCH  66  70
ATOM     70  S   UNL A   1      40.926  23.519  27.039  1.00  0.00     0.124 S 
ATOM     71  O   UNL A   1      39.494  23.308  26.838  1.00  0.00    -0.237 OA
ATOM     72  O   UNL A   1      41.793  23.099  25.945  1.00  0.00    -0.237 OA
ATOM     73  O   UNL A   1      41.413  23.201  28.380  1.00  0.00    -0.744 OA
ENDBRANCH  66  70
ENDBRANCH  49  63
BRANCH  50  74
ATOM     74  C   UNL A   1      39.744  32.764  36.551  1.00  0.00     0.023 A 
ATOM     75  C   UNL A   1      38.816  32.310  37.501  1.00  0.00     0.031 A 
ATOM     76  C   UNL A   1      40.416  33.971  36.814  1.00  0.00     0.131 A 
ATOM     77  C   UNL A   1      38.547  33.082  38.642  1.00  0.00     0.055 A 
ATOM     78  C   UNL A   1      40.190  34.706  37.978  1.00  0.00     0.041 A 
ATOM     79  F   UNL A   1      41.317  34.451  35.940  1.00  0.00    -0.206 F 
ATOM     80  C   UNL A   1      39.238  34.269  38.895  1.00  0.00     0.022 A 
BRANCH  77  81
ATOM     81  S   UNL A   1      37.206  32.561  39.747  1.00  0.00     0.124 S 
ATOM     82  O   UNL A   1      37.694  31.270  40.217  1.00  0.00    -0.237 OA
ATOM     83  O   UNL A   1      37.190  33.639  40.731  1.00  0.00    -0.237 OA
ATOM     84  O   UNL A   1      36.042  32.507  38.866  1.00  0.00    -0.744 OA
ENDBRANCH  77  81
ENDBRANCH  50  74
BRANCH  62  85
ATOM     85  C   UNL A   1      44.424  27.966  34.611  1.00  0.00     0.023 A 
ATOM     86  C   UNL A   1      44.342  26.770  35.347  1.00  0.00     0.031 A 
ATOM     87  C   UNL A   1      45.669  28.618  34.550  1.00  0.00     0.131 A 
ATOM     88  C   UNL A   1      45.467  26.297  36.040  1.00  0.00     0.055 A 
ATOM     89  C   UNL A   1      46.800  28.107  35.185  1.00  0.00     0.041 A 
ATOM     90  F   UNL A   1      45.806  29.765  33.866  1.00  0.00    -0.206 F 
ATOM     91  C   UNL A   1      46.700  26.947  35.948  1.00  0.00     0.022 A 
BRANCH  88  92
ATOM     92  S   UNL A   1      45.273  24.872  37.145  1.00  0.00     0.124 S 
ATOM     93  O   UNL A   1      43.918  25.063  37.652  1.00  0.00    -0.237 OA
ATOM     94  O   UNL A   1      45.461  23.744  36.238  1.00  0.00    -0.237 OA
ATOM     95  O   UNL A   1      46.336  25.057  38.132  1.00  0.00    -0.744 OA
ENDBRANCH  88  92
ENDBRANCH  62  85
ENDBRANCH  36  37
ENDBRANCH  28  31
ENDBRANCH  26  27
ENDBRANCH  25  26
ENDBRANCH   1  25
TORSDOF 17
ENDMDL
MODEL 2
REMARK VINA RESULT:     -11.3      3.310      8.348
REMARK SMILES C[C@H]([NH2+][C@@H](C)[C@]12C[C@H]3C[C@H](C[C@H](C3)C1)C2)[C@@H](C)C(=O)NCCCNC(=O)c1ccc(-c2c3nc(c(-c4cc(S(=O)(=O)[O-])ccc4F)c4ccc([nH]4)c(-c4cc(S(=O)(=O)[O-])ccc4F)c4nc(c(-c5cc(S(=O)(=O)[O-])ccc5F)c5ccc2[nH]5)C=C4)C=C3)cc1
REMARK SMILES IDX 21 1 20 2 18 3 19 4 16 6 17 7 2 8 1 9 3 10 4 13 5 14 6 15
REMARK SMILES IDX 7 16 14 17 15 18 8 19 12 20 10 21 9 22 13 23 11 24 22 25
REMARK SMILES IDX 23 26 24 27 25 28 26 30 27 31 28 32 89 33 29 34 88 35 30 36
REMARK SMILES IDX 31 37 32 38 82 39 33 40 87 41 81 42 83 43 34 44 86 45 80 46
REMARK SMILES IDX 79 47 35 49 67 50 47 51 66 52 48 53 51 54 65 55 84 56 49 57
REMARK SMILES IDX 50 58 64 60 85 61 52 62 36 63 37 64 45 65 38 66 44 67 46 68
REMARK SMILES IDX 43 69 39 70 40 71 41 72 42 73 68 74 69 75 77 76 70 77 76 78
REMARK SMILES IDX 78 79 75 80 71 81 72 82 73 83 74 84 53 85 54 86 62 87 55 88
REMARK SMILES IDX 61 89 63 90 60 91 56 92 57 93 58 94 59 95
REMARK H PARENT 20 5 3 11 3 12 24 29 83 48 51 59
REMARK Flexibility Score: inf
ROOT
ATOM      1  C   UNL A   1      31.776  28.417  26.936  1.00  0.00     0.117 C 
ENDROOT
BRANCH   1   2
ATOM      2  N   UNL A   1      31.168  27.097  27.010  1.00  0.00    -0.356 N 
ATOM      3  C   UNL A   1      30.576  26.323  26.057  1.00  0.00     0.228 C 
ATOM      4  O   UNL A   1      30.223  25.188  26.391  1.00  0.00    -0.275 OA
ATOM      5  H   UNL A   1      31.186  26.692  27.907  1.00  0.00     0.163 HD
BRANCH   3   6
ATOM      6  C   UNL A   1      30.293  26.829  24.637  1.00  0.00     0.133 C 
ATOM      7  C   UNL A   1      28.928  26.367  24.137  1.00  0.00     0.024 C 
BRANCH   6   8
ATOM      8  C   UNL A   1      31.535  26.556  23.744  1.00  0.00     0.191 C 
ATOM      9  C   UNL A   1      31.173  27.046  22.322  1.00  0.00     0.076 C 
BRANCH   8  10
ATOM     10  N   UNL A   1      31.966  25.151  23.697  1.00  0.00    -0.341 N 
ATOM     11  H   UNL A   1      31.688  24.773  22.792  1.00  0.00     0.346 HD
ATOM     12  H   UNL A   1      31.521  24.710  24.501  1.00  0.00     0.346 HD
BRANCH  10  13
ATOM     13  C   UNL A   1      33.423  24.888  23.868  1.00  0.00     0.185 C 
ATOM     14  C   UNL A   1      33.987  26.211  24.421  1.00  0.00     0.076 C 
BRANCH  13  15
ATOM     15  C   UNL A   1      33.873  23.629  24.733  1.00  0.00     0.023 C 
ATOM     16  C   UNL A   1      35.026  23.980  25.712  1.00  0.00     0.016 C 
ATOM     17  C   UNL A   1      34.415  22.451  23.851  1.00  0.00     0.016 C 
ATOM     18  C   UNL A   1      32.658  23.017  25.493  1.00  0.00     0.016 C 
ATOM     19  C   UNL A   1      35.380  22.783  26.610  1.00  0.00    -0.010 C 
ATOM     20  C   UNL A   1      34.812  21.228  24.717  1.00  0.00    -0.010 C 
ATOM     21  C   UNL A   1      33.055  21.840  26.385  1.00  0.00    -0.010 C 
ATOM     22  C   UNL A   1      34.130  22.315  27.372  1.00  0.00     0.007 C 
ATOM     23  C   UNL A   1      35.896  21.639  25.727  1.00  0.00     0.007 C 
ATOM     24  C   UNL A   1      33.594  20.717  25.498  1.00  0.00     0.007 C 
ENDBRANCH  13  15
ENDBRANCH  10  13
ENDBRANCH   8  10
ENDBRANCH   6   8
ENDBRANCH   3   6
ENDBRANCH   1   2
BRANCH   1  25
ATOM     25  C   UNL A   1      33.271  28.419  27.231  1.00  0.00     0.042 C 
BRANCH  25  26
ATOM     26  C   UNL A   1      34.079  29.472  26.488  1.00  0.00     0.118 C 
BRANCH  26  27
ATOM     27  N   UNL A   1      33.903  30.808  27.032  1.00  0.00    -0.352 N 
ATOM     28  C   UNL A   1      34.587  31.473  28.023  1.00  0.00     0.251 C 
ATOM     29  H   UNL A   1      33.171  31.324  26.624  1.00  0.00     0.163 HD
ATOM     30  O   UNL A   1      34.131  32.529  28.448  1.00  0.00    -0.269 OA
BRANCH  28  31
ATOM     31  C   UNL A   1      35.840  30.922  28.593  1.00  0.00     0.039 A 
ATOM     32  C   UNL A   1      35.754  29.863  29.503  1.00  0.00     0.014 A 
ATOM     33  C   UNL A   1      37.090  31.457  28.274  1.00  0.00     0.014 A 
ATOM     34  C   UNL A   1      36.918  29.300  30.033  1.00  0.00     0.010 A 
ATOM     35  C   UNL A   1      38.253  30.838  28.733  1.00  0.00     0.010 A 
ATOM     36  C   UNL A   1      38.182  29.755  29.620  1.00  0.00    -0.014 A 
BRANCH  36  37
ATOM     37  C   UNL A   1      39.433  29.115  30.111  1.00  0.00     0.031 A 
ATOM     38  C   UNL A   1      40.134  29.656  31.329  1.00  0.00     0.074 A 
ATOM     39  C   UNL A   1      39.970  28.086  29.425  1.00  0.00     0.049 A 
ATOM     40  N   UNL A   1      41.272  29.290  31.860  1.00  0.00    -0.248 NA
ATOM     41  C   UNL A   1      39.482  30.776  32.023  1.00  0.00     0.031 C 
ATOM     42  C   UNL A   1      39.404  27.493  28.210  1.00  0.00     0.029 A 
ATOM     43  N   UNL A   1      41.114  27.357  29.644  1.00  0.00    -0.354 N 
ATOM     44  C   UNL A   1      41.480  30.141  32.941  1.00  0.00     0.074 A 
ATOM     45  C   UNL A   1      40.379  31.082  32.947  1.00  0.00     0.031 C 
ATOM     46  C   UNL A   1      40.186  26.479  27.810  1.00  0.00     0.029 A 
ATOM     47  C   UNL A   1      41.337  26.380  28.701  1.00  0.00     0.049 A 
ATOM     48  H   UNL A   1      41.718  27.520  30.404  1.00  0.00     0.167 HD
ATOM     49  C   UNL A   1      42.481  30.126  33.857  1.00  0.00     0.034 A 
ATOM     50  C   UNL A   1      42.359  25.513  28.559  1.00  0.00     0.034 A 
ATOM     51  C   UNL A   1      43.566  29.174  33.843  1.00  0.00     0.049 A 
ATOM     52  C   UNL A   1      43.481  25.539  29.568  1.00  0.00     0.074 A 
ATOM     53  C   UNL A   1      44.603  29.035  34.750  1.00  0.00     0.029 A 
ATOM     54  N   UNL A   1      43.762  28.203  32.868  1.00  0.00    -0.354 N 
ATOM     55  N   UNL A   1      43.635  26.320  30.612  1.00  0.00    -0.248 NA
ATOM     56  C   UNL A   1      44.559  24.558  29.385  1.00  0.00     0.031 C 
ATOM     57  C   UNL A   1      45.464  28.036  34.284  1.00  0.00     0.029 A 
ATOM     58  C   UNL A   1      44.920  27.488  33.133  1.00  0.00     0.049 A 
ATOM     59  H   UNL A   1      43.165  28.045  32.100  1.00  0.00     0.167 HD
ATOM     60  C   UNL A   1      44.812  25.900  31.228  1.00  0.00     0.074 A 
ATOM     61  C   UNL A   1      45.315  24.789  30.447  1.00  0.00     0.031 C 
ATOM     62  C   UNL A   1      45.419  26.387  32.342  1.00  0.00     0.034 A 
BRANCH  49  63
ATOM     63  C   UNL A   1      42.459  31.187  34.932  1.00  0.00     0.023 A 
ATOM     64  C   UNL A   1      43.003  32.467  34.722  1.00  0.00     0.031 A 
ATOM     65  C   UNL A   1      41.903  30.912  36.196  1.00  0.00     0.131 A 
ATOM     66  C   UNL A   1      43.051  33.391  35.775  1.00  0.00     0.055 A 
ATOM     67  C   UNL A   1      41.876  31.867  37.214  1.00  0.00     0.041 A 
ATOM     68  F   UNL A   1      41.387  29.703  36.466  1.00  0.00    -0.206 F 
ATOM     69  C   UNL A   1      42.467  33.111  37.012  1.00  0.00     0.022 A 
BRANCH  66  70
ATOM     70  S   UNL A   1      44.023  34.908  35.552  1.00  0.00     0.124 S 
ATOM     71  O   UNL A   1      44.234  34.911  34.106  1.00  0.00    -0.237 OA
ATOM     72  O   UNL A   1      43.127  35.935  36.069  1.00  0.00    -0.237 OA
ATOM     73  O   UNL A   1      45.224  34.666  36.349  1.00  0.00    -0.744 OA
ENDBRANCH  66  70
ENDBRANCH  49  63
BRANCH  50  74
ATOM     74  C   UNL A   1      42.388  24.556  27.414  1.00  0.00     0.023 A 
ATOM     75  C   UNL A   1      41.608  23.389  27.427  1.00  0.00     0.031 A 
ATOM     76  C   UNL A   1      43.233  24.769  26.310  1.00  0.00     0.131 A 
ATOM     77  C   UNL A   1      41.726  22.456  26.384  1.00  0.00     0.055 A 
ATOM     78  C   UNL A   1      43.304  23.868  25.247  1.00  0.00     0.041 A 
ATOM     79  F   UNL A   1      44.001  25.870  26.246  1.00  0.00    -0.206 F 
ATOM     80  C   UNL A   1      42.557  22.695  25.287  1.00  0.00     0.022 A 
BRANCH  77  81
ATOM     81  S   UNL A   1      40.849  20.875  26.529  1.00  0.00     0.124 S 
ATOM     82  O   UNL A   1      41.711  19.986  25.759  1.00  0.00    -0.237 OA
ATOM     83  O   UNL A   1      40.839  20.668  27.974  1.00  0.00    -0.237 OA
ATOM     84  O   UNL A   1      39.545  21.153  25.933  1.00  0.00    -0.744 OA
ENDBRANCH  77  81
ENDBRANCH  50  74
BRANCH  62  85
ATOM     85  C   UNL A   1      46.671  25.681  32.807  1.00  0.00     0.023 A 
ATOM     86  C   UNL A   1      47.909  25.864  32.167  1.00  0.00     0.031 A 
ATOM     87  C   UNL A   1      46.619  24.804  33.905  1.00  0.00     0.131 A 
ATOM     88  C   UNL A   1      49.031  25.136  32.593  1.00  0.00     0.055 A 
ATOM     89  C   UNL A   1      47.752  24.133  34.366  1.00  0.00     0.041 A 
ATOM     90  F   UNL A   1      45.463  24.586  34.552  1.00  0.00    -0.206 F 
ATOM     91  C   UNL A   1      48.964  24.286  33.700  1.00  0.00     0.022 A 
BRANCH  88  92
ATOM     92  S   UNL A   1      50.557  25.237  31.617  1.00  0.00     0.124 S 
ATOM     93  O   UNL A   1      51.047  23.863  31.678  1.00  0.00    -0.237 OA
ATOM     94  O   UNL A   1      50.067  25.681  30.316  1.00  0.00    -0.237 OA
ATOM     95  O   UNL A   1      51.363  26.216  32.343  1.00  0.00    -0.744 OA
ENDBRANCH  88  92
ENDBRANCH  62  85
ENDBRANCH  36  37
ENDBRANCH  28  31
ENDBRANCH  26  27
ENDBRANCH  25  26
ENDBRANCH   1  25
TORSDOF 17
ENDMDL
MODEL 3
REMARK VINA RESULT:     -11.3      3.041      8.270
REMARK SMILES C[C@H]([NH2+][C@@H](C)[C@]12C[C@H]3C[C@H](C[C@H](C3)C1)C2)[C@@H](C)C(=O)NCCCNC(=O)c1ccc(-c2c3nc(c(-c4cc(S(=O)(=O)[O-])ccc4F)c4ccc([nH]4)c(-c4cc(S(=O)(=O)[O-])ccc4F)c4nc(c(-c5cc(S(=O)(=O)[O-])ccc5F)c5ccc2[nH]5)C=C4)C=C3)cc1
REMARK SMILES IDX 21 1 20 2 18 3 19 4 16 6 17 7 2 8 1 9 3 10 4 13 5 14 6 15
REMARK SMILES IDX 7 16 14 17 15 18 8 19 12 20 10 21 9 22 13 23 11 24 22 25
REMARK SMILES IDX 23 26 24 27 25 28 26 30 27 31 28 32 89 33 29 34 88 35 30 36
REMARK SMILES IDX 31 37 32 38 82 39 33 40 87 41 81 42 83 43 34 44 86 45 80 46
REMARK SMILES IDX 79 47 35 49 67 50 47 51 66 52 48 53 51 54 65 55 84 56 49 57
REMARK SMILES IDX 50 58 64 60 85 61 52 62 36 63 37 64 45 65 38 66 44 67 46 68
REMARK SMILES IDX 43 69 39 70 40 71 41 72 42 73 68 74 69 75 77 76 70 77 76 78
REMARK SMILES IDX 78 79 75 80 71 81 72 82 73 83 74 84 53 85 54 86 62 87 55 88
REMARK SMILES IDX 61 89 63 90 60 91 56 92 57 93 58 94 59 95
REMARK H PARENT 20 5 3 11 3 12 24 29 83 48 51 59
REMARK Flexibility Score: inf
ROOT
ATOM      1  C   UNL A   1      33.145  27.176  25.113  1.00  0.00     0.117 C 
ENDROOT
BRANCH   1   2
ATOM      2  N   UNL A   1      33.714  26.887  23.806  1.00  0.00    -0.356 N 
ATOM      3  C   UNL A   1      33.127  26.672  22.595  1.00  0.00     0.228 C 
ATOM      4  O   UNL A   1      33.874  26.537  21.621  1.00  0.00    -0.275 OA
ATOM      5  H   UNL A   1      34.697  26.836  23.794  1.00  0.00     0.163 HD
BRANCH   3   6
ATOM      6  C   UNL A   1      31.608  26.541  22.422  1.00  0.00     0.133 C 
ATOM      7  C   UNL A   1      30.855  27.570  23.260  1.00  0.00     0.024 C 
BRANCH   6   8
ATOM      8  C   UNL A   1      31.209  25.046  22.562  1.00  0.00     0.191 C 
ATOM      9  C   UNL A   1      30.623  24.876  23.983  1.00  0.00     0.076 C 
BRANCH   8  10
ATOM     10  N   UNL A   1      32.306  24.090  22.352  1.00  0.00    -0.341 N 
ATOM     11  H   UNL A   1      33.181  24.615  22.375  1.00  0.00     0.346 HD
ATOM     12  H   UNL A   1      32.099  23.640  21.462  1.00  0.00     0.346 HD
BRANCH  10  13
ATOM     13  C   UNL A   1      32.425  22.974  23.333  1.00  0.00     0.185 C 
ATOM     14  C   UNL A   1      32.068  21.714  22.521  1.00  0.00     0.076 C 
BRANCH  13  15
ATOM     15  C   UNL A   1      33.788  22.810  24.139  1.00  0.00     0.023 C 
ATOM     16  C   UNL A   1      34.109  21.321  24.439  1.00  0.00     0.016 C 
ATOM     17  C   UNL A   1      33.756  23.524  25.535  1.00  0.00     0.016 C 
ATOM     18  C   UNL A   1      34.965  23.497  23.381  1.00  0.00     0.016 C 
ATOM     19  C   UNL A   1      35.477  21.173  25.127  1.00  0.00    -0.010 C 
ATOM     20  C   UNL A   1      35.107  23.377  26.280  1.00  0.00    -0.010 C 
ATOM     21  C   UNL A   1      36.307  23.312  24.090  1.00  0.00    -0.010 C 
ATOM     22  C   UNL A   1      36.571  21.809  24.256  1.00  0.00     0.007 C 
ATOM     23  C   UNL A   1      35.427  21.886  26.484  1.00  0.00     0.007 C 
ATOM     24  C   UNL A   1      36.237  24.003  25.452  1.00  0.00     0.007 C 
ENDBRANCH  13  15
ENDBRANCH  10  13
ENDBRANCH   8  10
ENDBRANCH   6   8
ENDBRANCH   3   6
ENDBRANCH   1   2
BRANCH   1  25
ATOM     25  C   UNL A   1      33.975  28.150  25.941  1.00  0.00     0.042 C 
BRANCH  25  26
ATOM     26  C   UNL A   1      33.237  28.822  27.089  1.00  0.00     0.118 C 
BRANCH  26  27
ATOM     27  N   UNL A   1      33.461  30.256  27.144  1.00  0.00    -0.352 N 
ATOM     28  C   UNL A   1      34.490  30.985  27.694  1.00  0.00     0.251 C 
ATOM     29  H   UNL A   1      32.760  30.798  26.716  1.00  0.00     0.163 HD
ATOM     30  O   UNL A   1      34.365  32.202  27.790  1.00  0.00    -0.269 OA
BRANCH  28  31
ATOM     31  C   UNL A   1      35.719  30.323  28.192  1.00  0.00     0.039 A 
ATOM     32  C   UNL A   1      36.858  30.325  27.380  1.00  0.00     0.014 A 
ATOM     33  C   UNL A   1      35.754  29.670  29.427  1.00  0.00     0.014 A 
ATOM     34  C   UNL A   1      38.042  29.738  27.835  1.00  0.00     0.010 A 
ATOM     35  C   UNL A   1      36.957  29.163  29.916  1.00  0.00     0.010 A 
ATOM     36  C   UNL A   1      38.115  29.188  29.126  1.00  0.00    -0.014 A 
BRANCH  36  37
ATOM     37  C   UNL A   1      39.388  28.632  29.659  1.00  0.00     0.031 A 
ATOM     38  C   UNL A   1      40.029  29.239  30.880  1.00  0.00     0.074 A 
ATOM     39  C   UNL A   1      40.000  27.621  29.010  1.00  0.00     0.049 A 
ATOM     40  N   UNL A   1      41.173  28.951  31.445  1.00  0.00    -0.248 NA
ATOM     41  C   UNL A   1      39.297  30.335  31.534  1.00  0.00     0.031 C 
ATOM     42  C   UNL A   1      39.498  26.971  27.796  1.00  0.00     0.029 A 
ATOM     43  N   UNL A   1      41.178  26.965  29.271  1.00  0.00    -0.354 N 
ATOM     44  C   UNL A   1      41.306  29.836  32.510  1.00  0.00     0.074 A 
ATOM     45  C   UNL A   1      40.153  30.712  32.470  1.00  0.00     0.031 C 
ATOM     46  C   UNL A   1      40.347  25.995  27.437  1.00  0.00     0.029 A 
ATOM     47  C   UNL A   1      41.480  25.982  28.355  1.00  0.00     0.049 A 
ATOM     48  H   UNL A   1      41.754  27.179  30.040  1.00  0.00     0.167 HD
ATOM     49  C   UNL A   1      42.284  29.899  33.449  1.00  0.00     0.034 A 
ATOM     50  C   UNL A   1      42.553  25.173  28.257  1.00  0.00     0.034 A 
ATOM     51  C   UNL A   1      43.421  29.011  33.481  1.00  0.00     0.049 A 
ATOM     52  C   UNL A   1      43.647  25.286  29.290  1.00  0.00     0.074 A 
ATOM     53  C   UNL A   1      44.443  28.952  34.414  1.00  0.00     0.029 A 
ATOM     54  N   UNL A   1      43.697  28.032  32.533  1.00  0.00    -0.354 N 
ATOM     55  N   UNL A   1      43.732  26.097  30.319  1.00  0.00    -0.248 NA
ATOM     56  C   UNL A   1      44.784  24.365  29.154  1.00  0.00     0.031 C 
ATOM     57  C   UNL A   1      45.371  27.995  33.990  1.00  0.00     0.029 A 
ATOM     58  C   UNL A   1      44.887  27.391  32.840  1.00  0.00     0.049 A 
ATOM     59  H   UNL A   1      43.128  27.824  31.756  1.00  0.00     0.167 HD
ATOM     60  C   UNL A   1      44.916  25.759  30.971  1.00  0.00     0.074 A 
ATOM     61  C   UNL A   1      45.500  24.662  30.227  1.00  0.00     0.031 C 
ATOM     62  C   UNL A   1      45.467  26.304  32.086  1.00  0.00     0.034 A 
BRANCH  49  63
ATOM     63  C   UNL A   1      42.175  30.980  34.499  1.00  0.00     0.023 A 
ATOM     64  C   UNL A   1      42.741  32.254  34.311  1.00  0.00     0.031 A 
ATOM     65  C   UNL A   1      41.514  30.730  35.715  1.00  0.00     0.131 A 
ATOM     66  C   UNL A   1      42.703  33.198  35.348  1.00  0.00     0.055 A 
ATOM     67  C   UNL A   1      41.404  31.704  36.710  1.00  0.00     0.041 A 
ATOM     68  F   UNL A   1      40.971  29.527  35.964  1.00  0.00    -0.206 F 
ATOM     69  C   UNL A   1      42.016  32.942  36.536  1.00  0.00     0.022 A 
BRANCH  66  70
ATOM     70  S   UNL A   1      43.697  34.707  35.180  1.00  0.00     0.124 S 
ATOM     71  O   UNL A   1      44.091  34.644  33.774  1.00  0.00    -0.237 OA
ATOM     72  O   UNL A   1      42.743  35.753  35.530  1.00  0.00    -0.237 OA
ATOM     73  O   UNL A   1      44.786  34.509  36.135  1.00  0.00    -0.744 OA
ENDBRANCH  66  70
ENDBRANCH  49  63
BRANCH  50  74
ATOM     74  C   UNL A   1      42.664  24.194  27.135  1.00  0.00     0.023 A 
ATOM     75  C   UNL A   1      42.058  22.931  27.215  1.00  0.00     0.031 A 
ATOM     76  C   UNL A   1      43.419  24.490  25.986  1.00  0.00     0.131 A 
ATOM     77  C   UNL A   1      42.258  21.992  26.190  1.00  0.00     0.055 A 
ATOM     78  C   UNL A   1      43.567  23.576  24.942  1.00  0.00     0.041 A 
ATOM     79  F   UNL A   1      44.019  25.685  25.856  1.00  0.00    -0.206 F 
ATOM     80  C   UNL A   1      42.996  22.311  25.047  1.00  0.00     0.022 A 
BRANCH  77  81
ATOM     81  S   UNL A   1      41.621  20.309  26.417  1.00  0.00     0.124 S 
ATOM     82  O   UNL A   1      42.019  20.025  27.792  1.00  0.00    -0.237 OA
ATOM     83  O   UNL A   1      40.192  20.494  26.187  1.00  0.00    -0.237 OA
ATOM     84  O   UNL A   1      42.321  19.539  25.392  1.00  0.00    -0.744 OA
ENDBRANCH  77  81
ENDBRANCH  50  74
BRANCH  62  85
ATOM     85  C   UNL A   1      46.746  25.682  32.596  1.00  0.00     0.023 A 
ATOM     86  C   UNL A   1      46.745  24.700  33.602  1.00  0.00     0.031 A 
ATOM     87  C   UNL A   1      47.985  26.087  32.069  1.00  0.00     0.131 A 
ATOM     88  C   UNL A   1      47.962  24.199  34.090  1.00  0.00     0.055 A 
ATOM     89  C   UNL A   1      49.188  25.537  32.512  1.00  0.00     0.041 A 
ATOM     90  F   UNL A   1      48.047  27.025  31.110  1.00  0.00    -0.206 F 
ATOM     91  C   UNL A   1      49.182  24.598  33.539  1.00  0.00     0.022 A 
BRANCH  88  92
ATOM     92  S   UNL A   1      47.935  23.093  35.527  1.00  0.00     0.124 S 
ATOM     93  O   UNL A   1      46.596  22.517  35.441  1.00  0.00    -0.237 OA
ATOM     94  O   UNL A   1      49.039  22.183  35.242  1.00  0.00    -0.237 OA
ATOM     95  O   UNL A   1      48.150  23.994  36.658  1.00  0.00    -0.744 OA
ENDBRANCH  88  92
ENDBRANCH  62  85
ENDBRANCH  36  37
ENDBRANCH  28  31
ENDBRANCH  26  27
ENDBRANCH  25  26
ENDBRANCH   1  25
TORSDOF 17
ENDMDL
