MODEL 1
REMARK VINA RESULT:     -12.2      0.000      0.000
REMARK SMILES C[C@H](C(=O)NCCCNC(=O)c1ccc(-c2c3nc(c(-c4cc(S(=O)(=O)[O-])ccc4F)c4ccc([nH]4)c(-c4cc(S(=O)(=O)[O-])ccc4F)c4nc(c(-c5cc(S(=O)(=O)[O-])ccc5F)c5ccc2[nH]5)C=C4)C=C3)cc1)c1ccc(C[C@@H]2CCC[C@H]2O)cc1
REMARK SMILES IDX 6 1 5 2 3 3 4 4 2 6 1 7 75 8 76 9 87 10 77 11 86 12 78 13
REMARK SMILES IDX 79 14 80 15 81 16 84 17 82 18 83 19 85 20 7 22 8 23 9 24
REMARK SMILES IDX 10 25 11 27 12 28 13 29 74 30 14 31 73 32 15 33 16 34 17 35
REMARK SMILES IDX 67 36 18 37 72 38 66 39 68 40 19 41 71 42 65 43 64 44 20 46
REMARK SMILES IDX 52 47 32 48 51 49 33 50 36 51 50 52 69 53 34 54 35 55 49 57
REMARK SMILES IDX 70 58 37 59 21 60 22 61 30 62 23 63 29 64 31 65 28 66 24 67
REMARK SMILES IDX 25 68 26 69 27 70 53 71 54 72 62 73 55 74 61 75 63 76 60 77
REMARK SMILES IDX 56 78 57 79 58 80 59 81 38 82 39 83 47 84 40 85 46 86 48 87
REMARK SMILES IDX 45 88 41 89 42 90 43 91 44 92
REMARK H PARENT 5 5 85 21 9 26 68 45 36 56
REMARK Flexibility Score: inf
ROOT
ATOM      1  C   UNL A   1      35.372  19.943  25.002  1.00  0.00     0.117 C 
ENDROOT
BRANCH   1   2
ATOM      2  N   UNL A   1      33.949  19.848  25.259  1.00  0.00    -0.356 N 
ATOM      3  C   UNL A   1      32.903  20.531  24.714  1.00  0.00     0.227 C 
ATOM      4  O   UNL A   1      31.804  20.308  25.226  1.00  0.00    -0.274 OA
ATOM      5  H   UNL A   1      33.697  19.181  25.936  1.00  0.00     0.163 HD
BRANCH   3   6
ATOM      6  C   UNL A   1      33.146  21.553  23.588  1.00  0.00     0.105 C 
ATOM      7  C   UNL A   1      32.148  21.419  22.423  1.00  0.00     0.023 C 
BRANCH   6   8
ATOM      8  C   UNL A   1      33.168  23.022  24.006  1.00  0.00    -0.036 A 
ATOM      9  C   UNL A   1      32.977  23.329  25.364  1.00  0.00     0.005 A 
ATOM     10  C   UNL A   1      33.485  24.072  23.134  1.00  0.00     0.005 A 
ATOM     11  C   UNL A   1      33.086  24.640  25.825  1.00  0.00     0.004 A 
ATOM     12  C   UNL A   1      33.536  25.392  23.587  1.00  0.00     0.004 A 
ATOM     13  C   UNL A   1      33.325  25.692  24.936  1.00  0.00    -0.048 A 
BRANCH  13  14
ATOM     14  C   UNL A   1      33.351  27.122  25.407  1.00  0.00     0.041 C 
BRANCH  14  15
ATOM     15  C   UNL A   1      32.059  27.695  26.026  1.00  0.00     0.022 C 
ATOM     16  C   UNL A   1      31.411  28.828  25.221  1.00  0.00     0.007 C 
ATOM     17  C   UNL A   1      32.217  28.292  27.428  1.00  0.00     0.117 C 
ATOM     18  C   UNL A   1      31.788  30.140  25.909  1.00  0.00     0.003 C 
ATOM     19  C   UNL A   1      32.493  29.777  27.214  1.00  0.00     0.032 C 
BRANCH  17  20
ATOM     20  O   UNL A   1      30.987  28.141  28.143  1.00  0.00    -0.393 OA
ATOM     21  H   UNL A   1      31.176  27.949  29.074  1.00  0.00     0.210 HD
ENDBRANCH  17  20
ENDBRANCH  14  15
ENDBRANCH  13  14
ENDBRANCH   6   8
ENDBRANCH   3   6
ENDBRANCH   1   2
BRANCH   1  22
ATOM     22  C   UNL A   1      35.982  21.211  25.579  1.00  0.00     0.042 C 
BRANCH  22  23
ATOM     23  C   UNL A   1      37.408  21.499  25.126  1.00  0.00     0.118 C 
BRANCH  23  24
ATOM     24  N   UNL A   1      38.361  20.477  25.535  1.00  0.00    -0.352 N 
ATOM     25  C   UNL A   1      39.574  20.608  26.169  1.00  0.00     0.251 C 
ATOM     26  H   UNL A   1      38.098  19.552  25.324  1.00  0.00     0.163 HD
ATOM     27  O   UNL A   1      40.306  19.626  26.281  1.00  0.00    -0.269 OA
BRANCH  25  28
ATOM     28  C   UNL A   1      40.011  21.928  26.673  1.00  0.00     0.039 A 
ATOM     29  C   UNL A   1      41.013  21.983  27.646  1.00  0.00     0.014 A 
ATOM     30  C   UNL A   1      39.459  23.108  26.174  1.00  0.00     0.014 A 
ATOM     31  C   UNL A   1      41.526  23.222  28.040  1.00  0.00     0.010 A 
ATOM     32  C   UNL A   1      40.034  24.333  26.496  1.00  0.00     0.010 A 
ATOM     33  C   UNL A   1      41.080  24.404  27.428  1.00  0.00    -0.014 A 
BRANCH  33  34
ATOM     34  C   UNL A   1      41.706  25.719  27.733  1.00  0.00     0.031 A 
ATOM     35  C   UNL A   1      40.933  26.766  28.491  1.00  0.00     0.074 A 
ATOM     36  C   UNL A   1      42.938  25.997  27.260  1.00  0.00     0.049 A 
ATOM     37  N   UNL A   1      41.267  28.000  28.769  1.00  0.00    -0.248 NA
ATOM     38  C   UNL A   1      39.595  26.384  28.971  1.00  0.00     0.031 C 
ATOM     39  C   UNL A   1      43.768  25.082  26.469  1.00  0.00     0.029 A 
ATOM     40  N   UNL A   1      43.708  27.130  27.362  1.00  0.00    -0.354 N 
ATOM     41  C   UNL A   1      40.177  28.547  29.439  1.00  0.00     0.074 A 
ATOM     42  C   UNL A   1      39.151  27.526  29.474  1.00  0.00     0.031 C 
ATOM     43  C   UNL A   1      44.935  25.680  26.184  1.00  0.00     0.029 A 
ATOM     44  C   UNL A   1      44.923  27.036  26.721  1.00  0.00     0.049 A 
ATOM     45  H   UNL A   1      43.417  27.935  27.848  1.00  0.00     0.167 HD
ATOM     46  C   UNL A   1      40.052  29.778  29.991  1.00  0.00     0.034 A 
ATOM     47  C   UNL A   1      45.909  27.944  26.569  1.00  0.00     0.034 A 
ATOM     48  C   UNL A   1      41.092  30.776  29.971  1.00  0.00     0.049 A 
ATOM     49  C   UNL A   1      45.737  29.310  27.184  1.00  0.00     0.074 A 
ATOM     50  C   UNL A   1      41.096  32.028  30.563  1.00  0.00     0.029 A 
ATOM     51  N   UNL A   1      42.312  30.642  29.322  1.00  0.00    -0.354 N 
ATOM     52  N   UNL A   1      44.723  29.787  27.867  1.00  0.00    -0.248 NA
ATOM     53  C   UNL A   1      46.849  30.256  27.017  1.00  0.00     0.031 C 
ATOM     54  C   UNL A   1      42.288  32.673  30.217  1.00  0.00     0.029 A 
ATOM     55  C   UNL A   1      43.062  31.798  29.472  1.00  0.00     0.049 A 
ATOM     56  H   UNL A   1      42.603  29.840  28.828  1.00  0.00     0.167 HD
ATOM     57  C   UNL A   1      45.089  31.078  28.237  1.00  0.00     0.074 A 
ATOM     58  C   UNL A   1      46.424  31.296  27.719  1.00  0.00     0.031 C 
ATOM     59  C   UNL A   1      44.389  32.002  28.942  1.00  0.00     0.034 A 
BRANCH  46  60
ATOM     60  C   UNL A   1      38.735  30.121  30.647  1.00  0.00     0.023 A 
ATOM     61  C   UNL A   1      37.746  30.862  29.979  1.00  0.00     0.031 A 
ATOM     62  C   UNL A   1      38.466  29.697  31.961  1.00  0.00     0.131 A 
ATOM     63  C   UNL A   1      36.561  31.210  30.646  1.00  0.00     0.055 A 
ATOM     64  C   UNL A   1      37.255  29.982  32.593  1.00  0.00     0.041 A 
ATOM     65  F   UNL A   1      39.381  29.003  32.656  1.00  0.00    -0.206 F 
ATOM     66  C   UNL A   1      36.298  30.752  31.939  1.00  0.00     0.022 A 
BRANCH  63  67
ATOM     67  S   UNL A   1      35.420  32.366  29.840  1.00  0.00     0.124 S 
ATOM     68  O   UNL A   1      35.007  31.602  28.666  1.00  0.00    -0.237 OA
ATOM     69  O   UNL A   1      34.400  32.568  30.863  1.00  0.00    -0.237 OA
ATOM     70  O   UNL A   1      36.257  33.530  29.556  1.00  0.00    -0.744 OA
ENDBRANCH  63  67
ENDBRANCH  46  60
BRANCH  47  71
ATOM     71  C   UNL A   1      47.139  27.612  25.791  1.00  0.00     0.023 A 
ATOM     72  C   UNL A   1      47.233  27.918  24.424  1.00  0.00     0.031 A 
ATOM     73  C   UNL A   1      48.213  26.926  26.387  1.00  0.00     0.131 A 
ATOM     74  C   UNL A   1      48.345  27.486  23.684  1.00  0.00     0.055 A 
ATOM     75  C   UNL A   1      49.343  26.549  25.659  1.00  0.00     0.041 A 
ATOM     76  F   UNL A   1      48.179  26.611  27.691  1.00  0.00    -0.206 F 
ATOM     77  C   UNL A   1      49.406  26.815  24.294  1.00  0.00     0.022 A 
BRANCH  74  78
ATOM     78  S   UNL A   1      48.331  27.717  21.884  1.00  0.00     0.124 S 
ATOM     79  O   UNL A   1      46.997  28.264  21.666  1.00  0.00    -0.237 OA
ATOM     80  O   UNL A   1      49.443  28.641  21.691  1.00  0.00    -0.237 OA
ATOM     81  O   UNL A   1      48.545  26.367  21.367  1.00  0.00    -0.744 OA
ENDBRANCH  74  78
ENDBRANCH  47  71
BRANCH  59  82
ATOM     82  C   UNL A   1      45.079  33.311  29.229  1.00  0.00     0.023 A 
ATOM     83  C   UNL A   1      44.954  34.416  28.369  1.00  0.00     0.031 A 
ATOM     84  C   UNL A   1      45.887  33.450  30.373  1.00  0.00     0.131 A 
ATOM     85  C   UNL A   1      45.673  35.592  28.634  1.00  0.00     0.055 A 
ATOM     86  C   UNL A   1      46.549  34.644  30.664  1.00  0.00     0.041 A 
ATOM     87  F   UNL A   1      46.042  32.426  31.227  1.00  0.00    -0.206 F 
ATOM     88  C   UNL A   1      46.455  35.718  29.785  1.00  0.00     0.022 A 
BRANCH  85  89
ATOM     89  S   UNL A   1      45.644  36.925  27.404  1.00  0.00     0.124 S 
ATOM     90  O   UNL A   1      46.552  37.903  27.995  1.00  0.00    -0.237 OA
ATOM     91  O   UNL A   1      46.128  36.252  26.202  1.00  0.00    -0.237 OA
ATOM     92  O   UNL A   1      44.240  37.327  27.365  1.00  0.00    -0.744 OA
ENDBRANCH  85  89
ENDBRANCH  59  82
ENDBRANCH  33  34
ENDBRANCH  25  28
ENDBRANCH  23  24
ENDBRANCH  22  23
ENDBRANCH   1  22
TORSDOF 17
ENDMDL
MODEL 2
REMARK VINA RESULT:     -12.0      5.863     10.961
REMARK SMILES C[C@H](C(=O)NCCCNC(=O)c1ccc(-c2c3nc(c(-c4cc(S(=O)(=O)[O-])ccc4F)c4ccc([nH]4)c(-c4cc(S(=O)(=O)[O-])ccc4F)c4nc(c(-c5cc(S(=O)(=O)[O-])ccc5F)c5ccc2[nH]5)C=C4)C=C3)cc1)c1ccc(C[C@@H]2CCC[C@H]2O)cc1
REMARK SMILES IDX 6 1 5 2 3 3 4 4 2 6 1 7 75 8 76 9 87 10 77 11 86 12 78 13
REMARK SMILES IDX 79 14 80 15 81 16 84 17 82 18 83 19 85 20 7 22 8 23 9 24
REMARK SMILES IDX 10 25 11 27 12 28 13 29 74 30 14 31 73 32 15 33 16 34 17 35
REMARK SMILES IDX 67 36 18 37 72 38 66 39 68 40 19 41 71 42 65 43 64 44 20 46
REMARK SMILES IDX 52 47 32 48 51 49 33 50 36 51 50 52 69 53 34 54 35 55 49 57
REMARK SMILES IDX 70 58 37 59 21 60 22 61 30 62 23 63 29 64 31 65 28 66 24 67
REMARK SMILES IDX 25 68 26 69 27 70 53 71 54 72 62 73 55 74 61 75 63 76 60 77
REMARK SMILES IDX 56 78 57 79 58 80 59 81 38 82 39 83 47 84 40 85 46 86 48 87
REMARK SMILES IDX 45 88 41 89 42 90 43 91 44 92
REMARK H PARENT 5 5 85 21 9 26 68 45 36 56
REMARK Flexibility Score: inf
ROOT
ATOM      1  C   UNL A   1      32.128  29.944  26.050  1.00  0.00     0.117 C 
ENDROOT
BRANCH   1   2
ATOM      2  N   UNL A   1      31.779  30.002  24.644  1.00  0.00    -0.356 N 
ATOM      3  C   UNL A   1      31.249  29.052  23.824  1.00  0.00     0.227 C 
ATOM      4  O   UNL A   1      31.173  29.366  22.635  1.00  0.00    -0.274 OA
ATOM      5  H   UNL A   1      31.953  30.869  24.213  1.00  0.00     0.163 HD
BRANCH   3   6
ATOM      6  C   UNL A   1      30.857  27.672  24.385  1.00  0.00     0.105 C 
ATOM      7  C   UNL A   1      29.579  27.100  23.747  1.00  0.00     0.023 C 
BRANCH   6   8
ATOM      8  C   UNL A   1      31.931  26.588  24.313  1.00  0.00    -0.036 A 
ATOM      9  C   UNL A   1      31.764  25.547  23.385  1.00  0.00     0.005 A 
ATOM     10  C   UNL A   1      33.130  26.635  25.037  1.00  0.00     0.005 A 
ATOM     11  C   UNL A   1      32.754  24.584  23.201  1.00  0.00     0.004 A 
ATOM     12  C   UNL A   1      34.096  25.638  24.894  1.00  0.00     0.004 A 
ATOM     13  C   UNL A   1      33.913  24.594  23.982  1.00  0.00    -0.048 A 
BRANCH  13  14
ATOM     14  C   UNL A   1      34.947  23.505  23.858  1.00  0.00     0.041 C 
BRANCH  14  15
ATOM     15  C   UNL A   1      35.611  22.999  25.156  1.00  0.00     0.022 C 
ATOM     16  C   UNL A   1      37.144  23.032  25.146  1.00  0.00     0.007 C 
ATOM     17  C   UNL A   1      35.284  21.550  25.532  1.00  0.00     0.117 C 
ATOM     18  C   UNL A   1      37.623  21.606  24.876  1.00  0.00     0.003 C 
ATOM     19  C   UNL A   1      36.391  20.703  24.913  1.00  0.00     0.032 C 
BRANCH  17  20
ATOM     20  O   UNL A   1      35.329  21.415  26.956  1.00  0.00    -0.393 OA
ATOM     21  H   UNL A   1      34.891  20.589  27.216  1.00  0.00     0.210 HD
ENDBRANCH  17  20
ENDBRANCH  14  15
ENDBRANCH  13  14
ENDBRANCH   6   8
ENDBRANCH   3   6
ENDBRANCH   1   2
BRANCH   1  22
ATOM     22  C   UNL A   1      31.782  31.227  26.788  1.00  0.00     0.042 C 
BRANCH  22  23
ATOM     23  C   UNL A   1      32.982  32.049  27.240  1.00  0.00     0.118 C 
BRANCH  23  24
ATOM     24  N   UNL A   1      32.671  33.455  27.456  1.00  0.00    -0.352 N 
ATOM     25  C   UNL A   1      33.194  34.343  28.367  1.00  0.00     0.251 C 
ATOM     26  H   UNL A   1      31.980  33.825  26.862  1.00  0.00     0.163 HD
ATOM     27  O   UNL A   1      32.677  35.451  28.496  1.00  0.00    -0.269 OA
BRANCH  25  28
ATOM     28  C   UNL A   1      34.342  33.951  29.212  1.00  0.00     0.039 A 
ATOM     29  C   UNL A   1      34.112  33.166  30.345  1.00  0.00     0.014 A 
ATOM     30  C   UNL A   1      35.645  34.329  28.880  1.00  0.00     0.014 A 
ATOM     31  C   UNL A   1      35.195  32.681  31.083  1.00  0.00     0.010 A 
ATOM     32  C   UNL A   1      36.723  33.768  29.557  1.00  0.00     0.010 A 
ATOM     33  C   UNL A   1      36.511  32.931  30.662  1.00  0.00    -0.014 A 
BRANCH  33  34
ATOM     34  C   UNL A   1      37.677  32.314  31.352  1.00  0.00     0.031 A 
ATOM     35  C   UNL A   1      38.427  31.183  30.702  1.00  0.00     0.074 A 
ATOM     36  C   UNL A   1      38.007  32.721  32.595  1.00  0.00     0.049 A 
ATOM     37  N   UNL A   1      39.403  30.455  31.181  1.00  0.00    -0.248 NA
ATOM     38  C   UNL A   1      38.002  30.798  29.346  1.00  0.00     0.031 C 
ATOM     39  C   UNL A   1      37.324  33.776  33.351  1.00  0.00     0.029 A 
ATOM     40  N   UNL A   1      38.993  32.293  33.450  1.00  0.00    -0.354 N 
ATOM     41  C   UNL A   1      39.696  29.516  30.196  1.00  0.00     0.074 A 
ATOM     42  C   UNL A   1      38.756  29.733  29.117  1.00  0.00     0.031 C 
ATOM     43  C   UNL A   1      37.928  33.928  34.540  1.00  0.00     0.029 A 
ATOM     44  C   UNL A   1      39.005  32.952  34.659  1.00  0.00     0.049 A 
ATOM     45  H   UNL A   1      39.633  31.581  33.220  1.00  0.00     0.167 HD
ATOM     46  C   UNL A   1      40.672  28.576  30.185  1.00  0.00     0.034 A 
ATOM     47  C   UNL A   1      39.784  32.779  35.746  1.00  0.00     0.034 A 
ATOM     48  C   UNL A   1      41.619  28.389  31.256  1.00  0.00     0.049 A 
ATOM     49  C   UNL A   1      40.854  31.718  35.710  1.00  0.00     0.074 A 
ATOM     50  C   UNL A   1      42.691  27.516  31.315  1.00  0.00     0.029 A 
ATOM     51  N   UNL A   1      41.606  29.081  32.460  1.00  0.00    -0.354 N 
ATOM     52  N   UNL A   1      41.156  30.881  34.744  1.00  0.00    -0.248 NA
ATOM     53  C   UNL A   1      41.697  31.585  36.906  1.00  0.00     0.031 C 
ATOM     54  C   UNL A   1      43.285  27.633  32.576  1.00  0.00     0.029 A 
ATOM     55  C   UNL A   1      42.631  28.632  33.279  1.00  0.00     0.049 A 
ATOM     56  H   UNL A   1      40.963  29.789  32.697  1.00  0.00     0.167 HD
ATOM     57  C   UNL A   1      42.243  30.144  35.207  1.00  0.00     0.074 A 
ATOM     58  C   UNL A   1      42.555  30.650  36.527  1.00  0.00     0.031 C 
ATOM     59  C   UNL A   1      42.924  29.142  34.597  1.00  0.00     0.034 A 
BRANCH  46  60
ATOM     60  C   UNL A   1      40.753  27.665  28.984  1.00  0.00     0.023 A 
ATOM     61  C   UNL A   1      41.705  27.862  27.968  1.00  0.00     0.031 A 
ATOM     62  C   UNL A   1      39.866  26.581  28.854  1.00  0.00     0.131 A 
ATOM     63  C   UNL A   1      41.707  27.027  26.840  1.00  0.00     0.055 A 
ATOM     64  C   UNL A   1      39.923  25.709  27.766  1.00  0.00     0.041 A 
ATOM     65  F   UNL A   1      38.923  26.355  29.783  1.00  0.00    -0.206 F 
ATOM     66  C   UNL A   1      40.840  25.936  26.744  1.00  0.00     0.022 A 
BRANCH  63  67
ATOM     67  S   UNL A   1      42.784  27.459  25.445  1.00  0.00     0.124 S 
ATOM     68  O   UNL A   1      42.061  28.581  24.852  1.00  0.00    -0.237 OA
ATOM     69  O   UNL A   1      44.042  27.786  26.107  1.00  0.00    -0.237 OA
ATOM     70  O   UNL A   1      42.802  26.241  24.638  1.00  0.00    -0.744 OA
ENDBRANCH  63  67
ENDBRANCH  46  60
BRANCH  47  71
ATOM     71  C   UNL A   1      39.581  33.609  36.971  1.00  0.00     0.023 A 
ATOM     72  C   UNL A   1      40.378  34.738  37.217  1.00  0.00     0.031 A 
ATOM     73  C   UNL A   1      38.632  33.248  37.945  1.00  0.00     0.131 A 
ATOM     74  C   UNL A   1      40.256  35.430  38.433  1.00  0.00     0.055 A 
ATOM     75  C   UNL A   1      38.474  33.974  39.126  1.00  0.00     0.041 A 
ATOM     76  F   UNL A   1      37.840  32.180  37.760  1.00  0.00    -0.206 F 
ATOM     77  C   UNL A   1      39.301  35.063  39.384  1.00  0.00     0.022 A 
BRANCH  74  78
ATOM     78  S   UNL A   1      41.443  36.752  38.801  1.00  0.00     0.124 S 
ATOM     79  O   UNL A   1      40.559  37.846  39.184  1.00  0.00    -0.237 OA
ATOM     80  O   UNL A   1      42.233  36.157  39.873  1.00  0.00    -0.237 OA
ATOM     81  O   UNL A   1      42.151  36.934  37.535  1.00  0.00    -0.744 OA
ENDBRANCH  74  78
ENDBRANCH  47  71
BRANCH  59  82
ATOM     82  C   UNL A   1      44.102  28.564  35.341  1.00  0.00     0.023 A 
ATOM     83  C   UNL A   1      43.948  27.517  36.267  1.00  0.00     0.031 A 
ATOM     84  C   UNL A   1      45.394  29.079  35.131  1.00  0.00     0.131 A 
ATOM     85  C   UNL A   1      45.059  27.058  36.992  1.00  0.00     0.055 A 
ATOM     86  C   UNL A   1      46.504  28.575  35.810  1.00  0.00     0.041 A 
ATOM     87  F   UNL A   1      45.596  30.080  34.259  1.00  0.00    -0.206 F 
ATOM     88  C   UNL A   1      46.338  27.569  36.756  1.00  0.00     0.022 A 
BRANCH  85  89
ATOM     89  S   UNL A   1      44.794  25.847  38.316  1.00  0.00     0.124 S 
ATOM     90  O   UNL A   1      46.160  25.458  38.649  1.00  0.00    -0.237 OA
ATOM     91  O   UNL A   1      44.091  26.635  39.324  1.00  0.00    -0.237 OA
ATOM     92  O   UNL A   1      43.992  24.807  37.674  1.00  0.00    -0.744 OA
ENDBRANCH  85  89
ENDBRANCH  59  82
ENDBRANCH  33  34
ENDBRANCH  25  28
ENDBRANCH  23  24
ENDBRANCH  22  23
ENDBRANCH   1  22
TORSDOF 17
ENDMDL
MODEL 3
REMARK VINA RESULT:     -12.0      1.527      7.719
REMARK SMILES C[C@H](C(=O)NCCCNC(=O)c1ccc(-c2c3nc(c(-c4cc(S(=O)(=O)[O-])ccc4F)c4ccc([nH]4)c(-c4cc(S(=O)(=O)[O-])ccc4F)c4nc(c(-c5cc(S(=O)(=O)[O-])ccc5F)c5ccc2[nH]5)C=C4)C=C3)cc1)c1ccc(C[C@@H]2CCC[C@H]2O)cc1
REMARK SMILES IDX 6 1 5 2 3 3 4 4 2 6 1 7 75 8 76 9 87 10 77 11 86 12 78 13
REMARK SMILES IDX 79 14 80 15 81 16 84 17 82 18 83 19 85 20 7 22 8 23 9 24
REMARK SMILES IDX 10 25 11 27 12 28 13 29 74 30 14 31 73 32 15 33 16 34 17 35
REMARK SMILES IDX 67 36 18 37 72 38 66 39 68 40 19 41 71 42 65 43 64 44 20 46
REMARK SMILES IDX 52 47 32 48 51 49 33 50 36 51 50 52 69 53 34 54 35 55 49 57
REMARK SMILES IDX 70 58 37 59 21 60 22 61 30 62 23 63 29 64 31 65 28 66 24 67
REMARK SMILES IDX 25 68 26 69 27 70 53 71 54 72 62 73 55 74 61 75 63 76 60 77
REMARK SMILES IDX 56 78 57 79 58 80 59 81 38 82 39 83 47 84 40 85 46 86 48 87
REMARK SMILES IDX 45 88 41 89 42 90 43 91 44 92
REMARK H PARENT 5 5 85 21 9 26 68 45 36 56
REMARK Flexibility Score: inf
ROOT
ATOM      1  C   UNL A   1      35.237  19.942  24.958  1.00  0.00     0.117 C 
ENDROOT
BRANCH   1   2
ATOM      2  N   UNL A   1      33.835  20.000  25.321  1.00  0.00    -0.356 N 
ATOM      3  C   UNL A   1      32.823  20.767  24.826  1.00  0.00     0.227 C 
ATOM      4  O   UNL A   1      31.750  20.674  25.425  1.00  0.00    -0.274 OA
ATOM      5  H   UNL A   1      33.571  19.385  26.042  1.00  0.00     0.163 HD
BRANCH   3   6
ATOM      6  C   UNL A   1      33.079  21.721  23.644  1.00  0.00     0.105 C 
ATOM      7  C   UNL A   1      32.078  21.537  22.490  1.00  0.00     0.023 C 
BRANCH   6   8
ATOM      8  C   UNL A   1      33.124  23.210  23.980  1.00  0.00    -0.036 A 
ATOM      9  C   UNL A   1      32.635  24.121  23.029  1.00  0.00     0.005 A 
ATOM     10  C   UNL A   1      33.515  23.712  25.228  1.00  0.00     0.005 A 
ATOM     11  C   UNL A   1      32.556  25.483  23.314  1.00  0.00     0.004 A 
ATOM     12  C   UNL A   1      33.490  25.083  25.492  1.00  0.00     0.004 A 
ATOM     13  C   UNL A   1      33.021  25.985  24.532  1.00  0.00    -0.048 A 
BRANCH  13  14
ATOM     14  C   UNL A   1      33.028  27.464  24.815  1.00  0.00     0.041 C 
BRANCH  14  15
ATOM     15  C   UNL A   1      31.910  28.025  25.719  1.00  0.00     0.022 C 
ATOM     16  C   UNL A   1      31.433  29.435  25.349  1.00  0.00     0.007 C 
ATOM     17  C   UNL A   1      32.270  28.144  27.203  1.00  0.00     0.117 C 
ATOM     18  C   UNL A   1      32.094  30.404  26.329  1.00  0.00     0.003 C 
ATOM     19  C   UNL A   1      32.804  29.560  27.386  1.00  0.00     0.032 C 
BRANCH  17  20
ATOM     20  O   UNL A   1      31.083  27.984  27.987  1.00  0.00    -0.393 OA
ATOM     21  H   UNL A   1      30.422  28.637  27.708  1.00  0.00     0.210 HD
ENDBRANCH  17  20
ENDBRANCH  14  15
ENDBRANCH  13  14
ENDBRANCH   6   8
ENDBRANCH   3   6
ENDBRANCH   1   2
BRANCH   1  22
ATOM     22  C   UNL A   1      36.032  21.108  25.525  1.00  0.00     0.042 C 
BRANCH  22  23
ATOM     23  C   UNL A   1      37.431  21.271  24.943  1.00  0.00     0.118 C 
BRANCH  23  24
ATOM     24  N   UNL A   1      38.381  20.286  25.440  1.00  0.00    -0.352 N 
ATOM     25  C   UNL A   1      39.551  20.465  26.140  1.00  0.00     0.251 C 
ATOM     26  H   UNL A   1      38.151  19.349  25.243  1.00  0.00     0.163 HD
ATOM     27  O   UNL A   1      40.297  19.506  26.326  1.00  0.00    -0.269 OA
BRANCH  25  28
ATOM     28  C   UNL A   1      39.927  21.810  26.627  1.00  0.00     0.039 A 
ATOM     29  C   UNL A   1      40.959  21.928  27.560  1.00  0.00     0.014 A 
ATOM     30  C   UNL A   1      39.286  22.955  26.148  1.00  0.00     0.014 A 
ATOM     31  C   UNL A   1      41.412  23.196  27.935  1.00  0.00     0.010 A 
ATOM     32  C   UNL A   1      39.799  24.213  26.448  1.00  0.00     0.010 A 
ATOM     33  C   UNL A   1      40.874  24.348  27.339  1.00  0.00    -0.014 A 
BRANCH  33  34
ATOM     34  C   UNL A   1      41.431  25.699  27.621  1.00  0.00     0.031 A 
ATOM     35  C   UNL A   1      42.831  26.045  27.187  1.00  0.00     0.074 A 
ATOM     36  C   UNL A   1      40.704  26.584  28.334  1.00  0.00     0.049 A 
ATOM     37  N   UNL A   1      43.525  27.128  27.422  1.00  0.00    -0.248 NA
ATOM     38  C   UNL A   1      43.557  25.024  26.415  1.00  0.00     0.031 C 
ATOM     39  C   UNL A   1      39.354  26.348  28.853  1.00  0.00     0.029 A 
ATOM     40  N   UNL A   1      40.999  27.857  28.758  1.00  0.00    -0.354 N 
ATOM     41  C   UNL A   1      44.772  26.913  26.845  1.00  0.00     0.074 A 
ATOM     42  C   UNL A   1      44.756  25.573  26.298  1.00  0.00     0.031 C 
ATOM     43  C   UNL A   1      38.930  27.446  29.499  1.00  0.00     0.029 A 
ATOM     44  C   UNL A   1      39.992  28.446  29.489  1.00  0.00     0.049 A 
ATOM     45  H   UNL A   1      41.851  28.306  28.557  1.00  0.00     0.167 HD
ATOM     46  C   UNL A   1      45.825  27.763  26.760  1.00  0.00     0.034 A 
ATOM     47  C   UNL A   1      39.935  29.648  30.097  1.00  0.00     0.034 A 
ATOM     48  C   UNL A   1      45.818  29.105  27.286  1.00  0.00     0.049 A 
ATOM     49  C   UNL A   1      41.126  30.568  29.996  1.00  0.00     0.074 A 
ATOM     50  C   UNL A   1      46.804  30.072  27.191  1.00  0.00     0.029 A 
ATOM     51  N   UNL A   1      44.778  29.670  28.012  1.00  0.00    -0.354 N 
ATOM     52  N   UNL A   1      42.275  30.370  29.392  1.00  0.00    -0.248 NA
ATOM     53  C   UNL A   1      41.008  31.879  30.650  1.00  0.00     0.031 C 
ATOM     54  C   UNL A   1      46.387  31.196  27.913  1.00  0.00     0.029 A 
ATOM     55  C   UNL A   1      45.111  30.960  28.397  1.00  0.00     0.049 A 
ATOM     56  H   UNL A   1      43.926  29.220  28.221  1.00  0.00     0.167 HD
ATOM     57  C   UNL A   1      43.003  31.543  29.568  1.00  0.00     0.074 A 
ATOM     58  C   UNL A   1      42.156  32.449  30.315  1.00  0.00     0.031 C 
ATOM     59  C   UNL A   1      44.257  31.848  29.149  1.00  0.00     0.034 A 
BRANCH  46  60
ATOM     60  C   UNL A   1      47.080  27.258  26.089  1.00  0.00     0.023 A 
ATOM     61  C   UNL A   1      48.045  26.513  26.789  1.00  0.00     0.031 A 
ATOM     62  C   UNL A   1      47.314  27.524  24.728  1.00  0.00     0.131 A 
ATOM     63  C   UNL A   1      49.225  26.113  26.143  1.00  0.00     0.055 A 
ATOM     64  C   UNL A   1      48.454  27.059  24.072  1.00  0.00     0.041 A 
ATOM     65  F   UNL A   1      46.437  28.247  24.014  1.00  0.00    -0.206 F 
ATOM     66  C   UNL A   1      49.424  26.358  24.782  1.00  0.00     0.022 A 
BRANCH  63  67
ATOM     67  S   UNL A   1      50.548  25.369  27.136  1.00  0.00     0.124 S 
ATOM     68  O   UNL A   1      49.842  24.270  27.789  1.00  0.00    -0.237 OA
ATOM     69  O   UNL A   1      51.527  24.989  26.123  1.00  0.00    -0.237 OA
ATOM     70  O   UNL A   1      50.959  26.454  28.025  1.00  0.00    -0.744 OA
ENDBRANCH  63  67
ENDBRANCH  46  60
BRANCH  47  71
ATOM     71  C   UNL A   1      38.726  30.057  30.871  1.00  0.00     0.023 A 
ATOM     72  C   UNL A   1      37.701  30.802  30.267  1.00  0.00     0.031 A 
ATOM     73  C   UNL A   1      38.607  29.765  32.242  1.00  0.00     0.131 A 
ATOM     74  C   UNL A   1      36.634  31.283  31.043  1.00  0.00     0.055 A 
ATOM     75  C   UNL A   1      37.515  30.196  32.997  1.00  0.00     0.041 A 
ATOM     76  F   UNL A   1      39.556  29.053  32.871  1.00  0.00    -0.206 F 
ATOM     77  C   UNL A   1      36.527  30.975  32.401  1.00  0.00     0.022 A 
BRANCH  74  78
ATOM     78  S   UNL A   1      35.442  32.414  30.272  1.00  0.00     0.124 S 
ATOM     79  O   UNL A   1      36.256  33.606  30.065  1.00  0.00    -0.237 OA
ATOM     80  O   UNL A   1      35.063  31.678  29.071  1.00  0.00    -0.237 OA
ATOM     81  O   UNL A   1      34.393  32.541  31.282  1.00  0.00    -0.744 OA
ENDBRANCH  74  78
ENDBRANCH  47  71
BRANCH  59  82
ATOM     82  C   UNL A   1      44.762  33.235  29.454  1.00  0.00     0.023 A 
ATOM     83  C   UNL A   1      44.552  34.309  28.571  1.00  0.00     0.031 A 
ATOM     84  C   UNL A   1      45.478  33.484  30.640  1.00  0.00     0.131 A 
ATOM     85  C   UNL A   1      45.102  35.567  28.858  1.00  0.00     0.055 A 
ATOM     86  C   UNL A   1      45.970  34.752  30.949  1.00  0.00     0.041 A 
ATOM     87  F   UNL A   1      45.709  32.494  31.517  1.00  0.00    -0.206 F 
ATOM     88  C   UNL A   1      45.795  35.799  30.050  1.00  0.00     0.022 A 
BRANCH  85  89
ATOM     89  S   UNL A   1      44.981  36.876  27.608  1.00  0.00     0.124 S 
ATOM     90  O   UNL A   1      44.898  38.077  28.433  1.00  0.00    -0.237 OA
ATOM     91  O   UNL A   1      46.219  36.704  26.855  1.00  0.00    -0.237 OA
ATOM     92  O   UNL A   1      43.761  36.540  26.877  1.00  0.00    -0.744 OA
ENDBRANCH  85  89
ENDBRANCH  59  82
ENDBRANCH  33  34
ENDBRANCH  25  28
ENDBRANCH  23  24
ENDBRANCH  22  23
ENDBRANCH   1  22
TORSDOF 17
ENDMDL
