MODEL 1
REMARK VINA RESULT:     -11.9      0.000      0.000
REMARK SMILES CC[C@](C)(NC(=O)c1cccc2ncccc12)C(=O)NCCCNC(=O)c1ccc(-c2c3nc(c(-c4cc(S(=O)(=O)[O-])ccc4F)c4ccc([nH]4)c(-c4cc(S(=O)(=O)[O-])ccc4F)c4nc(c(-c5cc(S(=O)(=O)[O-])ccc5F)c5ccc2[nH]5)C=C4)C=C3)cc1
REMARK SMILES IDX 22 1 21 2 20 3 18 4 19 5 3 7 4 8 2 9 1 10 5 11 6 12 7 14
REMARK SMILES IDX 8 15 9 16 17 17 10 18 12 19 16 20 11 21 13 22 15 23 14 24
REMARK SMILES IDX 23 25 24 26 25 27 26 29 27 30 28 31 89 32 29 33 88 34 30 35
REMARK SMILES IDX 31 36 32 37 82 38 33 39 87 40 81 41 83 42 34 43 86 44 80 45
REMARK SMILES IDX 79 46 35 48 67 49 47 50 66 51 48 52 51 53 65 54 84 55 49 56
REMARK SMILES IDX 50 57 64 59 85 60 52 61 36 62 37 63 45 64 38 65 44 66 46 67
REMARK SMILES IDX 43 68 39 69 40 70 41 71 42 72 68 73 69 74 77 75 70 76 76 77
REMARK SMILES IDX 78 78 75 79 71 80 72 81 73 82 74 83 53 84 54 85 62 86 55 87
REMARK SMILES IDX 61 88 63 89 60 90 56 91 57 92 58 93 59 94
REMARK H PARENT 20 6 5 13 24 28 83 47 51 58
REMARK Flexibility Score: inf
ROOT
ATOM      1  C   UNL A   1      32.252  28.743  26.969  1.00  0.00     0.042 C 
ENDROOT
BRANCH   1   2
ATOM      2  C   UNL A   1      31.336  27.860  26.114  1.00  0.00     0.117 C 
BRANCH   2   3
ATOM      3  N   UNL A   1      31.367  28.002  24.660  1.00  0.00    -0.354 N 
ATOM      4  C   UNL A   1      31.762  27.193  23.622  1.00  0.00     0.245 C 
ATOM      5  O   UNL A   1      31.520  27.620  22.487  1.00  0.00    -0.272 OA
ATOM      6  H   UNL A   1      31.029  28.876  24.356  1.00  0.00     0.163 HD
BRANCH   4   7
ATOM      7  C   UNL A   1      32.395  25.780  23.834  1.00  0.00     0.116 C 
ATOM      8  C   UNL A   1      31.667  24.927  24.907  1.00  0.00     0.045 C 
BRANCH   7   9
ATOM      9  C   UNL A   1      33.837  26.085  24.385  1.00  0.00     0.035 C 
ATOM     10  C   UNL A   1      34.152  25.441  25.746  1.00  0.00     0.007 C 
ENDBRANCH   7   9
BRANCH   7  11
ATOM     11  N   UNL A   1      32.472  24.949  22.584  1.00  0.00    -0.338 N 
ATOM     12  C   UNL A   1      33.114  23.751  22.247  1.00  0.00     0.252 C 
ATOM     13  H   UNL A   1      31.957  25.331  21.837  1.00  0.00     0.164 HD
ATOM     14  O   UNL A   1      33.419  23.649  21.058  1.00  0.00    -0.269 OA
BRANCH  12  15
ATOM     15  C   UNL A   1      33.369  22.583  23.182  1.00  0.00     0.049 A 
ATOM     16  C   UNL A   1      32.377  21.623  23.306  1.00  0.00     0.014 A 
ATOM     17  C   UNL A   1      34.628  22.255  23.778  1.00  0.00     0.013 A 
ATOM     18  C   UNL A   1      32.467  20.480  24.083  1.00  0.00     0.003 A 
ATOM     19  C   UNL A   1      34.739  21.053  24.546  1.00  0.00     0.071 A 
ATOM     20  C   UNL A   1      35.838  22.972  23.638  1.00  0.00     0.013 A 
ATOM     21  C   UNL A   1      33.656  20.219  24.719  1.00  0.00     0.029 A 
ATOM     22  N   UNL A   1      35.870  20.606  25.101  1.00  0.00    -0.256 NA
ATOM     23  C   UNL A   1      37.032  22.480  24.171  1.00  0.00     0.021 A 
ATOM     24  C   UNL A   1      36.997  21.300  24.881  1.00  0.00     0.112 A 
ENDBRANCH  12  15
ENDBRANCH   7  11
ENDBRANCH   4   7
ENDBRANCH   2   3
ENDBRANCH   1   2
BRANCH   1  25
ATOM     25  C   UNL A   1      33.163  29.759  26.283  1.00  0.00     0.118 C 
BRANCH  25  26
ATOM     26  N   UNL A   1      33.031  31.116  26.770  1.00  0.00    -0.352 N 
ATOM     27  C   UNL A   1      33.869  31.824  27.596  1.00  0.00     0.251 C 
ATOM     28  H   UNL A   1      32.228  31.598  26.466  1.00  0.00     0.163 HD
ATOM     29  O   UNL A   1      33.558  32.969  27.922  1.00  0.00    -0.269 OA
BRANCH  27  30
ATOM     30  C   UNL A   1      35.105  31.210  28.135  1.00  0.00     0.039 A 
ATOM     31  C   UNL A   1      36.294  31.937  28.038  1.00  0.00     0.014 A 
ATOM     32  C   UNL A   1      35.114  29.934  28.709  1.00  0.00     0.014 A 
ATOM     33  C   UNL A   1      37.478  31.415  28.566  1.00  0.00     0.010 A 
ATOM     34  C   UNL A   1      36.291  29.434  29.278  1.00  0.00     0.010 A 
ATOM     35  C   UNL A   1      37.484  30.172  29.221  1.00  0.00    -0.014 A 
BRANCH  35  36
ATOM     36  C   UNL A   1      38.729  29.661  29.863  1.00  0.00     0.031 A 
ATOM     37  C   UNL A   1      39.177  30.187  31.199  1.00  0.00     0.074 A 
ATOM     38  C   UNL A   1      39.475  28.734  29.227  1.00  0.00     0.049 A 
ATOM     39  N   UNL A   1      40.249  29.889  31.890  1.00  0.00    -0.248 NA
ATOM     40  C   UNL A   1      38.311  31.189  31.836  1.00  0.00     0.031 C 
ATOM     41  C   UNL A   1      39.157  28.150  27.922  1.00  0.00     0.029 A 
ATOM     42  N   UNL A   1      40.653  28.121  29.584  1.00  0.00    -0.354 N 
ATOM     43  C   UNL A   1      40.192  30.668  33.041  1.00  0.00     0.074 A 
ATOM     44  C   UNL A   1      39.003  31.488  32.927  1.00  0.00     0.031 C 
ATOM     45  C   UNL A   1      40.103  27.254  27.599  1.00  0.00     0.029 A 
ATOM     46  C   UNL A   1      41.124  27.234  28.643  1.00  0.00     0.049 A 
ATOM     47  H   UNL A   1      41.116  28.300  30.434  1.00  0.00     0.167 HD
ATOM     48  C   UNL A   1      41.041  30.685  34.101  1.00  0.00     0.034 A 
ATOM     49  C   UNL A   1      42.258  26.504  28.608  1.00  0.00     0.034 A 
ATOM     50  C   UNL A   1      42.227  29.868  34.198  1.00  0.00     0.049 A 
ATOM     51  C   UNL A   1      43.224  26.595  29.765  1.00  0.00     0.074 A 
ATOM     52  C   UNL A   1      43.128  29.779  35.246  1.00  0.00     0.029 A 
ATOM     53  N   UNL A   1      42.692  29.011  33.208  1.00  0.00    -0.354 N 
ATOM     54  N   UNL A   1      43.129  27.305  30.865  1.00  0.00    -0.248 NA
ATOM     55  C   UNL A   1      44.447  25.786  29.675  1.00  0.00     0.031 C 
ATOM     56  C   UNL A   1      44.176  28.939  34.858  1.00  0.00     0.029 A 
ATOM     57  C   UNL A   1      43.887  28.427  33.603  1.00  0.00     0.049 A 
ATOM     58  H   UNL A   1      42.239  28.842  32.350  1.00  0.00     0.167 HD
ATOM     59  C   UNL A   1      44.265  27.000  31.611  1.00  0.00     0.074 A 
ATOM     60  C   UNL A   1      45.021  26.033  30.842  1.00  0.00     0.031 C 
ATOM     61  C   UNL A   1      44.646  27.474  32.825  1.00  0.00     0.034 A 
BRANCH  48  62
ATOM     62  C   UNL A   1      40.736  31.649  35.224  1.00  0.00     0.023 A 
ATOM     63  C   UNL A   1      39.618  31.483  36.060  1.00  0.00     0.031 A 
ATOM     64  C   UNL A   1      41.571  32.758  35.459  1.00  0.00     0.131 A 
ATOM     65  C   UNL A   1      39.324  32.444  37.039  1.00  0.00     0.055 A 
ATOM     66  C   UNL A   1      41.319  33.666  36.489  1.00  0.00     0.041 A 
ATOM     67  F   UNL A   1      42.643  32.983  34.684  1.00  0.00    -0.206 F 
ATOM     68  C   UNL A   1      40.182  33.521  37.278  1.00  0.00     0.022 A 
BRANCH  65  69
ATOM     69  S   UNL A   1      37.729  32.347  37.897  1.00  0.00     0.124 S 
ATOM     70  O   UNL A   1      37.536  30.903  38.000  1.00  0.00    -0.237 OA
ATOM     71  O   UNL A   1      38.000  33.048  39.147  1.00  0.00    -0.237 OA
ATOM     72  O   UNL A   1      36.808  33.027  36.988  1.00  0.00    -0.744 OA
ENDBRANCH  65  69
ENDBRANCH  48  62
BRANCH  49  73
ATOM     73  C   UNL A   1      42.569  25.643  27.428  1.00  0.00     0.023 A 
ATOM     74  C   UNL A   1      42.105  24.321  27.349  1.00  0.00     0.031 A 
ATOM     75  C   UNL A   1      43.385  26.117  26.384  1.00  0.00     0.131 A 
ATOM     76  C   UNL A   1      42.498  23.504  26.277  1.00  0.00     0.055 A 
ATOM     77  C   UNL A   1      43.721  25.320  25.288  1.00  0.00     0.041 A 
ATOM     78  F   UNL A   1      43.860  27.373  26.409  1.00  0.00    -0.206 F 
ATOM     79  C   UNL A   1      43.289  24.000  25.239  1.00  0.00     0.022 A 
BRANCH  76  80
ATOM     80  S   UNL A   1      42.042  21.748  26.310  1.00  0.00     0.124 S 
ATOM     81  O   UNL A   1      40.627  21.803  25.960  1.00  0.00    -0.237 OA
ATOM     82  O   UNL A   1      42.932  21.185  25.301  1.00  0.00    -0.237 OA
ATOM     83  O   UNL A   1      42.330  21.347  27.686  1.00  0.00    -0.744 OA
ENDBRANCH  76  80
ENDBRANCH  49  73
BRANCH  61  84
ATOM     84  C   UNL A   1      45.920  26.918  33.419  1.00  0.00     0.023 A 
ATOM     85  C   UNL A   1      45.932  25.734  34.177  1.00  0.00     0.031 A 
ATOM     86  C   UNL A   1      47.142  27.585  33.218  1.00  0.00     0.131 A 
ATOM     87  C   UNL A   1      47.133  25.280  34.746  1.00  0.00     0.055 A 
ATOM     88  C   UNL A   1      48.343  27.094  33.733  1.00  0.00     0.041 A 
ATOM     89  F   UNL A   1      47.191  28.724  32.508  1.00  0.00    -0.206 F 
ATOM     90  C   UNL A   1      48.340  25.942  34.512  1.00  0.00     0.022 A 
BRANCH  87  91
ATOM     91  S   UNL A   1      47.082  23.858  35.872  1.00  0.00     0.124 S 
ATOM     92  O   UNL A   1      46.332  24.392  37.003  1.00  0.00    -0.237 OA
ATOM     93  O   UNL A   1      46.396  22.849  35.071  1.00  0.00    -0.237 OA
ATOM     94  O   UNL A   1      48.492  23.581  36.138  1.00  0.00    -0.744 OA
ENDBRANCH  87  91
ENDBRANCH  61  84
ENDBRANCH  35  36
ENDBRANCH  27  30
ENDBRANCH  25  26
ENDBRANCH   1  25
TORSDOF 16
ENDMDL
MODEL 2
REMARK VINA RESULT:     -11.9      5.514      8.537
REMARK SMILES CC[C@](C)(NC(=O)c1cccc2ncccc12)C(=O)NCCCNC(=O)c1ccc(-c2c3nc(c(-c4cc(S(=O)(=O)[O-])ccc4F)c4ccc([nH]4)c(-c4cc(S(=O)(=O)[O-])ccc4F)c4nc(c(-c5cc(S(=O)(=O)[O-])ccc5F)c5ccc2[nH]5)C=C4)C=C3)cc1
REMARK SMILES IDX 22 1 21 2 20 3 18 4 19 5 3 7 4 8 2 9 1 10 5 11 6 12 7 14
REMARK SMILES IDX 8 15 9 16 17 17 10 18 12 19 16 20 11 21 13 22 15 23 14 24
REMARK SMILES IDX 23 25 24 26 25 27 26 29 27 30 28 31 89 32 29 33 88 34 30 35
REMARK SMILES IDX 31 36 32 37 82 38 33 39 87 40 81 41 83 42 34 43 86 44 80 45
REMARK SMILES IDX 79 46 35 48 67 49 47 50 66 51 48 52 51 53 65 54 84 55 49 56
REMARK SMILES IDX 50 57 64 59 85 60 52 61 36 62 37 63 45 64 38 65 44 66 46 67
REMARK SMILES IDX 43 68 39 69 40 70 41 71 42 72 68 73 69 74 77 75 70 76 76 77
REMARK SMILES IDX 78 78 75 79 71 80 72 81 73 82 74 83 53 84 54 85 62 86 55 87
REMARK SMILES IDX 61 88 63 89 60 90 56 91 57 92 58 93 59 94
REMARK H PARENT 20 6 5 13 24 28 83 47 51 58
REMARK Flexibility Score: inf
ROOT
ATOM      1  C   UNL A   1      37.905  20.005  24.940  1.00  0.00     0.042 C 
ENDROOT
BRANCH   1   2
ATOM      2  C   UNL A   1      36.663  20.901  25.027  1.00  0.00     0.117 C 
BRANCH   2   3
ATOM      3  N   UNL A   1      35.369  20.293  25.324  1.00  0.00    -0.354 N 
ATOM      4  C   UNL A   1      34.094  20.778  25.497  1.00  0.00     0.245 C 
ATOM      5  O   UNL A   1      33.208  19.924  25.619  1.00  0.00    -0.272 OA
ATOM      6  H   UNL A   1      35.422  19.315  25.424  1.00  0.00     0.163 HD
BRANCH   4   7
ATOM      7  C   UNL A   1      33.747  22.301  25.453  1.00  0.00     0.116 C 
ATOM      8  C   UNL A   1      34.384  23.118  26.607  1.00  0.00     0.045 C 
BRANCH   7   9
ATOM      9  C   UNL A   1      32.187  22.344  25.662  1.00  0.00     0.035 C 
ATOM     10  C   UNL A   1      31.725  23.187  26.863  1.00  0.00     0.007 C 
ENDBRANCH   7   9
BRANCH   7  11
ATOM     11  N   UNL A   1      34.126  22.980  24.167  1.00  0.00    -0.338 N 
ATOM     12  C   UNL A   1      33.447  23.807  23.264  1.00  0.00     0.252 C 
ATOM     13  H   UNL A   1      35.057  22.803  23.900  1.00  0.00     0.164 HD
ATOM     14  O   UNL A   1      33.844  23.730  22.100  1.00  0.00    -0.269 OA
BRANCH  12  15
ATOM     15  C   UNL A   1      32.368  24.815  23.616  1.00  0.00     0.049 A 
ATOM     16  C   UNL A   1      31.067  24.532  23.233  1.00  0.00     0.014 A 
ATOM     17  C   UNL A   1      32.525  25.923  24.508  1.00  0.00     0.013 A 
ATOM     18  C   UNL A   1      29.964  25.323  23.510  1.00  0.00     0.003 A 
ATOM     19  C   UNL A   1      31.382  26.719  24.833  1.00  0.00     0.071 A 
ATOM     20  C   UNL A   1      33.709  26.300  25.182  1.00  0.00     0.013 A 
ATOM     21  C   UNL A   1      30.144  26.434  24.298  1.00  0.00     0.029 A 
ATOM     22  N   UNL A   1      31.384  27.739  25.696  1.00  0.00    -0.256 NA
ATOM     23  C   UNL A   1      33.703  27.332  26.124  1.00  0.00     0.021 A 
ATOM     24  C   UNL A   1      32.526  28.009  26.349  1.00  0.00     0.112 A 
ENDBRANCH  12  15
ENDBRANCH   7  11
ENDBRANCH   4   7
ENDBRANCH   2   3
ENDBRANCH   1   2
BRANCH   1  25
ATOM     25  C   UNL A   1      39.143  20.363  25.759  1.00  0.00     0.118 C 
BRANCH  25  26
ATOM     26  N   UNL A   1      40.152  19.327  25.816  1.00  0.00    -0.352 N 
ATOM     27  C   UNL A   1      41.487  19.435  26.121  1.00  0.00     0.251 C 
ATOM     28  H   UNL A   1      39.837  18.417  25.604  1.00  0.00     0.163 HD
ATOM     29  O   UNL A   1      42.191  18.427  26.082  1.00  0.00    -0.269 OA
BRANCH  27  30
ATOM     30  C   UNL A   1      42.090  20.749  26.444  1.00  0.00     0.039 A 
ATOM     31  C   UNL A   1      42.442  21.587  25.384  1.00  0.00     0.014 A 
ATOM     32  C   UNL A   1      42.329  21.155  27.762  1.00  0.00     0.014 A 
ATOM     33  C   UNL A   1      42.980  22.852  25.640  1.00  0.00     0.010 A 
ATOM     34  C   UNL A   1      42.824  22.439  28.017  1.00  0.00     0.010 A 
ATOM     35  C   UNL A   1      43.147  23.306  26.959  1.00  0.00    -0.014 A 
BRANCH  35  36
ATOM     36  C   UNL A   1      43.633  24.689  27.228  1.00  0.00     0.031 A 
ATOM     37  C   UNL A   1      42.689  25.756  27.713  1.00  0.00     0.074 A 
ATOM     38  C   UNL A   1      44.929  24.994  27.010  1.00  0.00     0.049 A 
ATOM     39  N   UNL A   1      42.925  27.020  27.962  1.00  0.00    -0.248 NA
ATOM     40  C   UNL A   1      41.295  25.349  27.935  1.00  0.00     0.031 C 
ATOM     41  C   UNL A   1      45.945  24.055  26.531  1.00  0.00     0.029 A 
ATOM     42  N   UNL A   1      45.617  26.175  27.158  1.00  0.00    -0.354 N 
ATOM     43  C   UNL A   1      41.710  27.564  28.366  1.00  0.00     0.074 A 
ATOM     44  C   UNL A   1      40.731  26.499  28.279  1.00  0.00     0.031 C 
ATOM     45  C   UNL A   1      47.125  24.689  26.442  1.00  0.00     0.029 A 
ATOM     46  C   UNL A   1      46.945  26.092  26.805  1.00  0.00     0.049 A 
ATOM     47  H   UNL A   1      45.198  27.004  27.487  1.00  0.00     0.167 HD
ATOM     48  C   UNL A   1      41.439  28.826  28.787  1.00  0.00     0.034 A 
ATOM     49  C   UNL A   1      47.906  27.038  26.756  1.00  0.00     0.034 A 
ATOM     50  C   UNL A   1      42.424  29.880  28.862  1.00  0.00     0.049 A 
ATOM     51  C   UNL A   1      47.564  28.452  27.158  1.00  0.00     0.074 A 
ATOM     52  C   UNL A   1      42.262  31.179  29.315  1.00  0.00     0.029 A 
ATOM     53  N   UNL A   1      43.749  29.767  28.459  1.00  0.00    -0.354 N 
ATOM     54  N   UNL A   1      46.419  28.936  27.581  1.00  0.00    -0.248 NA
ATOM     55  C   UNL A   1      48.643  29.445  27.080  1.00  0.00     0.031 C 
ATOM     56  C   UNL A   1      43.459  31.871  29.108  1.00  0.00     0.029 A 
ATOM     57  C   UNL A   1      44.400  30.983  28.611  1.00  0.00     0.049 A 
ATOM     58  H   UNL A   1      44.166  28.944  28.116  1.00  0.00     0.167 HD
ATOM     59  C   UNL A   1      46.652  30.283  27.848  1.00  0.00     0.074 A 
ATOM     60  C   UNL A   1      48.049  30.529  27.554  1.00  0.00     0.031 C 
ATOM     61  C   UNL A   1      45.790  31.229  28.302  1.00  0.00     0.034 A 
BRANCH  48  62
ATOM     62  C   UNL A   1      40.011  29.146  29.162  1.00  0.00     0.023 A 
ATOM     63  C   UNL A   1      39.596  29.221  30.503  1.00  0.00     0.031 A 
ATOM     64  C   UNL A   1      39.045  29.373  28.164  1.00  0.00     0.131 A 
ATOM     65  C   UNL A   1      38.244  29.440  30.809  1.00  0.00     0.055 A 
ATOM     66  C   UNL A   1      37.718  29.673  28.476  1.00  0.00     0.041 A 
ATOM     67  F   UNL A   1      39.374  29.297  26.864  1.00  0.00    -0.206 F 
ATOM     68  C   UNL A   1      37.307  29.693  29.804  1.00  0.00     0.022 A 
BRANCH  65  69
ATOM     69  S   UNL A   1      37.702  29.243  32.528  1.00  0.00     0.124 S 
ATOM     70  O   UNL A   1      38.705  30.024  33.246  1.00  0.00    -0.237 OA
ATOM     71  O   UNL A   1      36.355  29.802  32.500  1.00  0.00    -0.237 OA
ATOM     72  O   UNL A   1      37.773  27.800  32.748  1.00  0.00    -0.744 OA
ENDBRANCH  65  69
ENDBRANCH  48  62
BRANCH  49  73
ATOM     73  C   UNL A   1      49.279  26.698  26.278  1.00  0.00     0.023 A 
ATOM     74  C   UNL A   1      49.753  27.156  25.039  1.00  0.00     0.031 A 
ATOM     75  C   UNL A   1      50.120  25.861  27.035  1.00  0.00     0.131 A 
ATOM     76  C   UNL A   1      51.009  26.737  24.571  1.00  0.00     0.055 A 
ATOM     77  C   UNL A   1      51.394  25.498  26.594  1.00  0.00     0.041 A 
ATOM     78  F   UNL A   1      49.718  25.391  28.227  1.00  0.00    -0.206 F 
ATOM     79  C   UNL A   1      51.838  25.925  25.348  1.00  0.00     0.022 A 
BRANCH  76  80
ATOM     80  S   UNL A   1      51.503  27.189  22.885  1.00  0.00     0.124 S 
ATOM     81  O   UNL A   1      50.298  26.868  22.127  1.00  0.00    -0.237 OA
ATOM     82  O   UNL A   1      51.812  28.608  23.030  1.00  0.00    -0.237 OA
ATOM     83  O   UNL A   1      52.654  26.326  22.625  1.00  0.00    -0.744 OA
ENDBRANCH  76  80
ENDBRANCH  49  73
BRANCH  61  84
ATOM     84  C   UNL A   1      46.346  32.612  28.550  1.00  0.00     0.023 A 
ATOM     85  C   UNL A   1      46.268  33.629  27.582  1.00  0.00     0.031 A 
ATOM     86  C   UNL A   1      46.961  32.916  29.778  1.00  0.00     0.131 A 
ATOM     87  C   UNL A   1      46.838  34.886  27.841  1.00  0.00     0.055 A 
ATOM     88  C   UNL A   1      47.469  34.187  30.054  1.00  0.00     0.041 A 
ATOM     89  F   UNL A   1      47.070  31.983  30.738  1.00  0.00    -0.206 F 
ATOM     90  C   UNL A   1      47.420  35.176  29.077  1.00  0.00     0.022 A 
BRANCH  87  91
ATOM     91  S   UNL A   1      46.888  36.113  26.506  1.00  0.00     0.124 S 
ATOM     92  O   UNL A   1      46.390  35.346  25.369  1.00  0.00    -0.237 OA
ATOM     93  O   UNL A   1      46.001  37.158  27.007  1.00  0.00    -0.237 OA
ATOM     94  O   UNL A   1      48.300  36.484  26.433  1.00  0.00    -0.744 OA
ENDBRANCH  87  91
ENDBRANCH  61  84
ENDBRANCH  35  36
ENDBRANCH  27  30
ENDBRANCH  25  26
ENDBRANCH   1  25
TORSDOF 16
ENDMDL
MODEL 3
REMARK VINA RESULT:     -11.9      4.749     10.166
REMARK SMILES CC[C@](C)(NC(=O)c1cccc2ncccc12)C(=O)NCCCNC(=O)c1ccc(-c2c3nc(c(-c4cc(S(=O)(=O)[O-])ccc4F)c4ccc([nH]4)c(-c4cc(S(=O)(=O)[O-])ccc4F)c4nc(c(-c5cc(S(=O)(=O)[O-])ccc5F)c5ccc2[nH]5)C=C4)C=C3)cc1
REMARK SMILES IDX 22 1 21 2 20 3 18 4 19 5 3 7 4 8 2 9 1 10 5 11 6 12 7 14
REMARK SMILES IDX 8 15 9 16 17 17 10 18 12 19 16 20 11 21 13 22 15 23 14 24
REMARK SMILES IDX 23 25 24 26 25 27 26 29 27 30 28 31 89 32 29 33 88 34 30 35
REMARK SMILES IDX 31 36 32 37 82 38 33 39 87 40 81 41 83 42 34 43 86 44 80 45
REMARK SMILES IDX 79 46 35 48 67 49 47 50 66 51 48 52 51 53 65 54 84 55 49 56
REMARK SMILES IDX 50 57 64 59 85 60 52 61 36 62 37 63 45 64 38 65 44 66 46 67
REMARK SMILES IDX 43 68 39 69 40 70 41 71 42 72 68 73 69 74 77 75 70 76 76 77
REMARK SMILES IDX 78 78 75 79 71 80 72 81 73 82 74 83 53 84 54 85 62 86 55 87
REMARK SMILES IDX 61 88 63 89 60 90 56 91 57 92 58 93 59 94
REMARK H PARENT 20 6 5 13 24 28 83 47 51 58
REMARK Flexibility Score: inf
ROOT
ATOM      1  C   UNL A   1      36.337  21.398  25.614  1.00  0.00     0.042 C 
ENDROOT
BRANCH   1   2
ATOM      2  C   UNL A   1      35.326  22.425  25.093  1.00  0.00     0.117 C 
BRANCH   2   3
ATOM      3  N   UNL A   1      33.946  22.008  24.855  1.00  0.00    -0.354 N 
ATOM      4  C   UNL A   1      32.762  22.672  24.644  1.00  0.00     0.245 C 
ATOM      5  O   UNL A   1      31.793  21.961  24.352  1.00  0.00    -0.272 OA
ATOM      6  H   UNL A   1      33.842  21.028  24.844  1.00  0.00     0.163 HD
BRANCH   4   7
ATOM      7  C   UNL A   1      32.638  24.229  24.676  1.00  0.00     0.116 C 
ATOM      8  C   UNL A   1      33.101  24.863  26.014  1.00  0.00     0.045 C 
BRANCH   7   9
ATOM      9  C   UNL A   1      31.092  24.494  24.549  1.00  0.00     0.035 C 
ATOM     10  C   UNL A   1      30.489  25.330  25.691  1.00  0.00     0.007 C 
ENDBRANCH   7   9
BRANCH   7  11
ATOM     11  N   UNL A   1      33.385  24.926  23.573  1.00  0.00    -0.338 N 
ATOM     12  C   UNL A   1      33.092  25.998  22.722  1.00  0.00     0.252 C 
ATOM     13  H   UNL A   1      34.280  24.544  23.415  1.00  0.00     0.164 HD
ATOM     14  O   UNL A   1      33.653  25.952  21.626  1.00  0.00    -0.269 OA
BRANCH  12  15
ATOM     15  C   UNL A   1      32.241  27.205  23.071  1.00  0.00     0.049 A 
ATOM     16  C   UNL A   1      30.979  27.296  22.504  1.00  0.00     0.014 A 
ATOM     17  C   UNL A   1      32.523  28.149  24.108  1.00  0.00     0.013 A 
ATOM     18  C   UNL A   1      30.066  28.308  22.748  1.00  0.00     0.003 A 
ATOM     19  C   UNL A   1      31.565  29.172  24.396  1.00  0.00     0.071 A 
ATOM     20  C   UNL A   1      33.651  28.152  24.960  1.00  0.00     0.013 A 
ATOM     21  C   UNL A   1      30.386  29.258  23.687  1.00  0.00     0.029 A 
ATOM     22  N   UNL A   1      31.682  30.072  25.376  1.00  0.00    -0.256 NA
ATOM     23  C   UNL A   1      33.752  29.058  26.018  1.00  0.00     0.021 A 
ATOM     24  C   UNL A   1      32.748  29.984  26.188  1.00  0.00     0.112 A 
ENDBRANCH  12  15
ENDBRANCH   7  11
ENDBRANCH   4   7
ENDBRANCH   2   3
ENDBRANCH   1   2
BRANCH   1  25
ATOM     25  C   UNL A   1      37.732  21.341  24.995  1.00  0.00     0.118 C 
BRANCH  25  26
ATOM     26  N   UNL A   1      38.640  20.411  25.632  1.00  0.00    -0.352 N 
ATOM     27  C   UNL A   1      39.725  20.673  26.432  1.00  0.00     0.251 C 
ATOM     28  H   UNL A   1      38.454  19.458  25.467  1.00  0.00     0.163 HD
ATOM     29  O   UNL A   1      40.396  19.731  26.854  1.00  0.00    -0.269 OA
BRANCH  27  30
ATOM     30  C   UNL A   1      40.121  22.065  26.747  1.00  0.00     0.039 A 
ATOM     31  C   UNL A   1      41.111  22.262  27.714  1.00  0.00     0.014 A 
ATOM     32  C   UNL A   1      39.525  23.168  26.126  1.00  0.00     0.014 A 
ATOM     33  C   UNL A   1      41.544  23.556  28.018  1.00  0.00     0.010 A 
ATOM     34  C   UNL A   1      39.993  24.459  26.399  1.00  0.00     0.010 A 
ATOM     35  C   UNL A   1      41.014  24.667  27.341  1.00  0.00    -0.014 A 
BRANCH  35  36
ATOM     36  C   UNL A   1      41.544  26.036  27.601  1.00  0.00     0.031 A 
ATOM     37  C   UNL A   1      42.912  26.436  27.120  1.00  0.00     0.074 A 
ATOM     38  C   UNL A   1      40.798  26.918  28.299  1.00  0.00     0.049 A 
ATOM     39  N   UNL A   1      43.552  27.567  27.287  1.00  0.00    -0.248 NA
ATOM     40  C   UNL A   1      43.664  25.427  26.361  1.00  0.00     0.031 C 
ATOM     41  C   UNL A   1      39.460  26.652  28.831  1.00  0.00     0.029 A 
ATOM     42  N   UNL A   1      41.054  28.212  28.684  1.00  0.00    -0.354 N 
ATOM     43  C   UNL A   1      44.783  27.407  26.660  1.00  0.00     0.074 A 
ATOM     44  C   UNL A   1      44.816  26.049  26.153  1.00  0.00     0.031 C 
ATOM     45  C   UNL A   1      39.007  27.751  29.455  1.00  0.00     0.029 A 
ATOM     46  C   UNL A   1      40.039  28.784  29.417  1.00  0.00     0.049 A 
ATOM     47  H   UNL A   1      41.886  28.686  28.457  1.00  0.00     0.167 HD
ATOM     48  C   UNL A   1      45.784  28.311  26.505  1.00  0.00     0.034 A 
ATOM     49  C   UNL A   1      39.952  29.991  30.013  1.00  0.00     0.034 A 
ATOM     50  C   UNL A   1      45.740  29.659  27.022  1.00  0.00     0.049 A 
ATOM     51  C   UNL A   1      41.108  30.954  29.890  1.00  0.00     0.074 A 
ATOM     52  C   UNL A   1      46.682  30.665  26.882  1.00  0.00     0.029 A 
ATOM     53  N   UNL A   1      44.713  30.188  27.792  1.00  0.00    -0.354 N 
ATOM     54  N   UNL A   1      42.246  30.800  29.253  1.00  0.00    -0.248 NA
ATOM     55  C   UNL A   1      40.967  32.252  30.562  1.00  0.00     0.031 C 
ATOM     56  C   UNL A   1      46.265  31.767  27.635  1.00  0.00     0.029 A 
ATOM     57  C   UNL A   1      45.019  31.487  28.172  1.00  0.00     0.049 A 
ATOM     58  H   UNL A   1      43.886  29.710  28.034  1.00  0.00     0.167 HD
ATOM     59  C   UNL A   1      42.941  31.995  29.424  1.00  0.00     0.074 A 
ATOM     60  C   UNL A   1      42.087  32.863  30.209  1.00  0.00     0.031 C 
ATOM     61  C   UNL A   1      44.171  32.345  28.968  1.00  0.00     0.034 A 
BRANCH  48  62
ATOM     62  C   UNL A   1      47.029  27.857  25.779  1.00  0.00     0.023 A 
ATOM     63  C   UNL A   1      47.216  28.101  24.407  1.00  0.00     0.031 A 
ATOM     64  C   UNL A   1      48.042  27.162  26.465  1.00  0.00     0.131 A 
ATOM     65  C   UNL A   1      48.348  27.592  23.752  1.00  0.00     0.055 A 
ATOM     66  C   UNL A   1      49.205  26.731  25.825  1.00  0.00     0.041 A 
ATOM     67  F   UNL A   1      47.913  26.882  27.772  1.00  0.00    -0.206 F 
ATOM     68  C   UNL A   1      49.357  26.932  24.457  1.00  0.00     0.022 A 
BRANCH  65  69
ATOM     69  S   UNL A   1      48.412  27.677  21.942  1.00  0.00     0.124 S 
ATOM     70  O   UNL A   1      48.653  26.280  21.589  1.00  0.00    -0.237 OA
ATOM     71  O   UNL A   1      47.096  28.204  21.603  1.00  0.00    -0.237 OA
ATOM     72  O   UNL A   1      49.532  28.579  21.679  1.00  0.00    -0.744 OA
ENDBRANCH  65  69
ENDBRANCH  48  62
BRANCH  49  73
ATOM     73  C   UNL A   1      38.744  30.358  30.810  1.00  0.00     0.023 A 
ATOM     74  C   UNL A   1      37.675  31.060  30.230  1.00  0.00     0.031 A 
ATOM     75  C   UNL A   1      38.665  30.058  32.182  1.00  0.00     0.131 A 
ATOM     76  C   UNL A   1      36.598  31.479  31.028  1.00  0.00     0.055 A 
ATOM     77  C   UNL A   1      37.564  30.423  32.958  1.00  0.00     0.041 A 
ATOM     78  F   UNL A   1      39.660  29.391  32.790  1.00  0.00    -0.206 F 
ATOM     79  C   UNL A   1      36.528  31.151  32.383  1.00  0.00     0.022 A 
BRANCH  76  80
ATOM     80  S   UNL A   1      35.335  32.550  30.288  1.00  0.00     0.124 S 
ATOM     81  O   UNL A   1      36.108  33.746  29.970  1.00  0.00    -0.237 OA
ATOM     82  O   UNL A   1      34.889  31.753  29.150  1.00  0.00    -0.237 OA
ATOM     83  O   UNL A   1      34.352  32.707  31.359  1.00  0.00    -0.744 OA
ENDBRANCH  76  80
ENDBRANCH  49  73
BRANCH  61  84
ATOM     84  C   UNL A   1      44.650  33.745  29.270  1.00  0.00     0.023 A 
ATOM     85  C   UNL A   1      44.282  34.845  28.475  1.00  0.00     0.031 A 
ATOM     86  C   UNL A   1      45.489  33.982  30.375  1.00  0.00     0.131 A 
ATOM     87  C   UNL A   1      44.789  36.122  28.769  1.00  0.00     0.055 A 
ATOM     88  C   UNL A   1      45.937  35.263  30.699  1.00  0.00     0.041 A 
ATOM     89  F   UNL A   1      45.879  32.969  31.166  1.00  0.00    -0.206 F 
ATOM     90  C   UNL A   1      45.598  36.339  29.887  1.00  0.00     0.022 A 
BRANCH  87  91
ATOM     91  S   UNL A   1      44.448  37.482  27.618  1.00  0.00     0.124 S 
ATOM     92  O   UNL A   1      44.152  38.583  28.528  1.00  0.00    -0.237 OA
ATOM     93  O   UNL A   1      45.701  37.587  26.877  1.00  0.00    -0.237 OA
ATOM     94  O   UNL A   1      43.310  36.996  26.840  1.00  0.00    -0.744 OA
ENDBRANCH  87  91
ENDBRANCH  61  84
ENDBRANCH  35  36
ENDBRANCH  27  30
ENDBRANCH  25  26
ENDBRANCH   1  25
TORSDOF 16
ENDMDL
