MODEL 1
REMARK VINA RESULT:     -11.9      0.000      0.000
REMARK SMILES COc1cc(OC)cc(-n2nnc(C(=O)NCCCNC(=O)c3ccc(-c4c5nc(c(-c6cc(S(=O)(=O)[O-])ccc6F)c6ccc([nH]6)c(-c6cc(S(=O)(=O)[O-])ccc6F)c6nc(c(-c7cc(S(=O)(=O)[O-])ccc7F)c7ccc4[nH]7)C=C6)C=C5)cc3)c2C(C)(C)C)c1
REMARK SMILES IDX 18 1 17 2 16 3 14 4 15 5 13 7 10 8 11 9 86 10 12 11 9 12
REMARK SMILES IDX 3 13 4 14 91 15 5 16 8 17 2 18 1 19 6 20 7 21 87 22 88 23
REMARK SMILES IDX 89 24 90 25 19 26 20 27 21 28 22 30 23 31 24 32 85 33 25 34
REMARK SMILES IDX 84 35 26 36 27 37 28 38 78 39 29 40 83 41 77 42 79 43 30 44
REMARK SMILES IDX 82 45 76 46 75 47 31 49 63 50 43 51 62 52 44 53 47 54 61 55
REMARK SMILES IDX 80 56 45 57 46 58 60 60 81 61 48 62 32 63 33 64 41 65 34 66
REMARK SMILES IDX 40 67 42 68 39 69 35 70 36 71 37 72 38 73 64 74 65 75 73 76
REMARK SMILES IDX 66 77 72 78 74 79 71 80 67 81 68 82 69 83 70 84 49 85 50 86
REMARK SMILES IDX 58 87 51 88 57 89 59 90 56 91 52 92 53 93 54 94 55 95
REMARK H PARENT 16 6 20 29 79 48 47 59
REMARK Flexibility Score: inf
ROOT
ATOM      1  C   UNL A   1      39.680  31.109  33.575  1.00  0.00     0.042 C 
ENDROOT
BRANCH   1   2
ATOM      2  C   UNL A   1      40.620  32.310  33.636  1.00  0.00     0.118 C 
BRANCH   2   3
ATOM      3  N   UNL A   1      39.954  33.573  33.981  1.00  0.00    -0.351 N 
ATOM      4  C   UNL A   1      38.881  34.386  33.712  1.00  0.00     0.273 C 
ATOM      5  O   UNL A   1      38.773  35.260  34.586  1.00  0.00    -0.267 OA
ATOM      6  H   UNL A   1      40.490  34.009  34.682  1.00  0.00     0.163 HD
BRANCH   4   7
ATOM      7  C   UNL A   1      37.901  34.404  32.596  1.00  0.00     0.174 A 
ATOM      8  N   UNL A   1      36.350  34.221  31.046  1.00  0.00    -0.216 N 
ATOM      9  N   UNL A   1      37.529  34.154  30.422  1.00  0.00    -0.061 NA
ATOM     10  C   UNL A   1      36.503  34.346  32.423  1.00  0.00     0.083 A 
ATOM     11  N   UNL A   1      38.470  34.318  31.327  1.00  0.00    -0.124 NA
BRANCH   8  12
ATOM     12  C   UNL A   1      35.173  33.987  30.324  1.00  0.00     0.074 A 
ATOM     13  C   UNL A   1      34.177  32.763  28.519  1.00  0.00     0.124 A 
ATOM     14  C   UNL A   1      33.305  33.842  28.314  1.00  0.00     0.093 A 
ATOM     15  C   UNL A   1      35.093  32.817  29.565  1.00  0.00     0.075 A 
ATOM     16  C   UNL A   1      33.349  34.986  29.126  1.00  0.00     0.124 A 
ATOM     17  C   UNL A   1      34.279  35.053  30.159  1.00  0.00     0.075 A 
BRANCH  13  18
ATOM     18  O   UNL A   1      34.121  31.767  27.580  1.00  0.00    -0.497 OA
ATOM     19  C   UNL A   1      34.913  30.607  27.834  1.00  0.00     0.278 C 
ENDBRANCH  13  18
BRANCH  16  20
ATOM     20  O   UNL A   1      32.500  35.996  28.757  1.00  0.00    -0.497 OA
ATOM     21  C   UNL A   1      33.030  37.318  28.780  1.00  0.00     0.278 C 
ENDBRANCH  16  20
ENDBRANCH   8  12
BRANCH  10  22
ATOM     22  C   UNL A   1      35.383  34.261  33.444  1.00  0.00     0.007 C 
ATOM     23  C   UNL A   1      34.704  35.649  33.379  1.00  0.00     0.017 C 
ATOM     24  C   UNL A   1      34.628  32.951  33.122  1.00  0.00     0.017 C 
ATOM     25  C   UNL A   1      35.631  34.122  34.956  1.00  0.00     0.017 C 
ENDBRANCH  10  22
ENDBRANCH   4   7
ENDBRANCH   2   3
ENDBRANCH   1   2
BRANCH   1  26
ATOM     26  C   UNL A   1      39.047  30.814  32.232  1.00  0.00     0.118 C 
BRANCH  26  27
ATOM     27  N   UNL A   1      37.598  30.605  32.286  1.00  0.00    -0.352 N 
ATOM     28  C   UNL A   1      36.848  29.861  31.377  1.00  0.00     0.251 C 
ATOM     29  H   UNL A   1      37.111  31.027  33.029  1.00  0.00     0.163 HD
ATOM     30  O   UNL A   1      35.647  29.997  31.270  1.00  0.00    -0.269 OA
BRANCH  28  31
ATOM     31  C   UNL A   1      37.614  28.923  30.532  1.00  0.00     0.039 A 
ATOM     32  C   UNL A   1      37.958  29.273  29.226  1.00  0.00     0.014 A 
ATOM     33  C   UNL A   1      38.266  27.900  31.204  1.00  0.00     0.014 A 
ATOM     34  C   UNL A   1      39.098  28.696  28.658  1.00  0.00     0.010 A 
ATOM     35  C   UNL A   1      39.472  27.462  30.696  1.00  0.00     0.010 A 
ATOM     36  C   UNL A   1      39.915  27.848  29.425  1.00  0.00    -0.014 A 
BRANCH  36  37
ATOM     37  C   UNL A   1      41.282  27.509  28.974  1.00  0.00     0.031 A 
ATOM     38  C   UNL A   1      41.464  26.293  28.117  1.00  0.00     0.074 A 
ATOM     39  C   UNL A   1      42.359  28.317  29.100  1.00  0.00     0.049 A 
ATOM     40  N   UNL A   1      42.113  25.216  28.424  1.00  0.00    -0.248 NA
ATOM     41  C   UNL A   1      40.827  26.227  26.794  1.00  0.00     0.031 C 
ATOM     42  C   UNL A   1      42.438  29.659  29.686  1.00  0.00     0.029 A 
ATOM     43  N   UNL A   1      43.618  28.141  28.597  1.00  0.00    -0.354 N 
ATOM     44  C   UNL A   1      42.145  24.411  27.286  1.00  0.00     0.074 A 
ATOM     45  C   UNL A   1      41.224  25.024  26.361  1.00  0.00     0.031 C 
ATOM     46  C   UNL A   1      43.560  30.276  29.265  1.00  0.00     0.029 A 
ATOM     47  C   UNL A   1      44.378  29.300  28.573  1.00  0.00     0.049 A 
ATOM     48  H   UNL A   1      43.952  27.270  28.281  1.00  0.00     0.167 HD
ATOM     49  C   UNL A   1      43.054  23.397  27.153  1.00  0.00     0.034 A 
ATOM     50  C   UNL A   1      45.624  29.481  28.077  1.00  0.00     0.034 A 
ATOM     51  C   UNL A   1      43.716  23.130  28.411  1.00  0.00     0.049 A 
ATOM     52  C   UNL A   1      46.306  28.170  28.142  1.00  0.00     0.074 A 
ATOM     53  C   UNL A   1      43.295  22.776  29.679  1.00  0.00     0.029 A 
ATOM     54  N   UNL A   1      45.013  23.566  28.572  1.00  0.00    -0.354 N 
ATOM     55  N   UNL A   1      46.576  27.569  29.268  1.00  0.00    -0.248 NA
ATOM     56  C   UNL A   1      46.296  27.303  26.974  1.00  0.00     0.031 C 
ATOM     57  C   UNL A   1      44.137  23.519  30.560  1.00  0.00     0.029 A 
ATOM     58  C   UNL A   1      45.063  24.216  29.780  1.00  0.00     0.049 A 
ATOM     59  H   UNL A   1      45.759  23.436  27.942  1.00  0.00     0.167 HD
ATOM     60  C   UNL A   1      46.306  26.231  29.033  1.00  0.00     0.074 A 
ATOM     61  C   UNL A   1      46.287  26.110  27.577  1.00  0.00     0.031 C 
ATOM     62  C   UNL A   1      45.842  25.414  30.027  1.00  0.00     0.034 A 
BRANCH  49  63
ATOM     63  C   UNL A   1      43.593  22.803  25.864  1.00  0.00     0.023 A 
ATOM     64  C   UNL A   1      43.714  21.396  25.794  1.00  0.00     0.031 A 
ATOM     65  C   UNL A   1      44.235  23.517  24.834  1.00  0.00     0.131 A 
ATOM     66  C   UNL A   1      44.520  20.774  24.824  1.00  0.00     0.055 A 
ATOM     67  C   UNL A   1      44.977  22.890  23.822  1.00  0.00     0.041 A 
ATOM     68  F   UNL A   1      44.261  24.854  24.795  1.00  0.00    -0.206 F 
ATOM     69  C   UNL A   1      45.152  21.515  23.832  1.00  0.00     0.022 A 
BRANCH  66  70
ATOM     70  S   UNL A   1      44.891  19.007  25.008  1.00  0.00     0.124 S 
ATOM     71  O   UNL A   1      46.183  19.045  25.685  1.00  0.00    -0.237 OA
ATOM     72  O   UNL A   1      43.759  18.544  25.803  1.00  0.00    -0.237 OA
ATOM     73  O   UNL A   1      44.926  18.523  23.629  1.00  0.00    -0.744 OA
ENDBRANCH  66  70
ENDBRANCH  49  63
BRANCH  50  74
ATOM     74  C   UNL A   1      46.166  30.716  27.471  1.00  0.00     0.023 A 
ATOM     75  C   UNL A   1      45.405  31.560  26.647  1.00  0.00     0.031 A 
ATOM     76  C   UNL A   1      47.437  31.189  27.878  1.00  0.00     0.131 A 
ATOM     77  C   UNL A   1      45.921  32.815  26.255  1.00  0.00     0.055 A 
ATOM     78  C   UNL A   1      47.949  32.422  27.475  1.00  0.00     0.041 A 
ATOM     79  F   UNL A   1      48.190  30.495  28.747  1.00  0.00    -0.206 F 
ATOM     80  C   UNL A   1      47.187  33.247  26.664  1.00  0.00     0.022 A 
BRANCH  77  81
ATOM     81  S   UNL A   1      44.885  33.963  25.298  1.00  0.00     0.124 S 
ATOM     82  O   UNL A   1      44.065  34.579  26.335  1.00  0.00    -0.237 OA
ATOM     83  O   UNL A   1      45.877  34.822  24.659  1.00  0.00    -0.237 OA
ATOM     84  O   UNL A   1      44.161  33.083  24.380  1.00  0.00    -0.744 OA
ENDBRANCH  77  81
ENDBRANCH  50  74
BRANCH  62  85
ATOM     85  C   UNL A   1      45.897  25.909  31.462  1.00  0.00     0.023 A 
ATOM     86  C   UNL A   1      44.788  26.425  32.168  1.00  0.00     0.031 A 
ATOM     87  C   UNL A   1      47.092  25.724  32.180  1.00  0.00     0.131 A 
ATOM     88  C   UNL A   1      44.903  26.754  33.532  1.00  0.00     0.055 A 
ATOM     89  C   UNL A   1      47.197  26.028  33.539  1.00  0.00     0.041 A 
ATOM     90  F   UNL A   1      48.176  25.204  31.580  1.00  0.00    -0.206 F 
ATOM     91  C   UNL A   1      46.104  26.552  34.218  1.00  0.00     0.022 A 
BRANCH  88  92
ATOM     92  S   UNL A   1      43.487  27.465  34.430  1.00  0.00     0.124 S 
ATOM     93  O   UNL A   1      43.984  28.757  34.890  1.00  0.00    -0.237 OA
ATOM     94  O   UNL A   1      42.450  27.511  33.403  1.00  0.00    -0.237 OA
ATOM     95  O   UNL A   1      43.241  26.493  35.498  1.00  0.00    -0.744 OA
ENDBRANCH  88  92
ENDBRANCH  62  85
ENDBRANCH  36  37
ENDBRANCH  28  31
ENDBRANCH  26  27
ENDBRANCH   1  26
TORSDOF 17
ENDMDL
MODEL 2
REMARK VINA RESULT:     -11.3      4.568     10.025
REMARK SMILES COc1cc(OC)cc(-n2nnc(C(=O)NCCCNC(=O)c3ccc(-c4c5nc(c(-c6cc(S(=O)(=O)[O-])ccc6F)c6ccc([nH]6)c(-c6cc(S(=O)(=O)[O-])ccc6F)c6nc(c(-c7cc(S(=O)(=O)[O-])ccc7F)c7ccc4[nH]7)C=C6)C=C5)cc3)c2C(C)(C)C)c1
REMARK SMILES IDX 18 1 17 2 16 3 14 4 15 5 13 7 10 8 11 9 86 10 12 11 9 12
REMARK SMILES IDX 3 13 4 14 91 15 5 16 8 17 2 18 1 19 6 20 7 21 87 22 88 23
REMARK SMILES IDX 89 24 90 25 19 26 20 27 21 28 22 30 23 31 24 32 85 33 25 34
REMARK SMILES IDX 84 35 26 36 27 37 28 38 78 39 29 40 83 41 77 42 79 43 30 44
REMARK SMILES IDX 82 45 76 46 75 47 31 49 63 50 43 51 62 52 44 53 47 54 61 55
REMARK SMILES IDX 80 56 45 57 46 58 60 60 81 61 48 62 32 63 33 64 41 65 34 66
REMARK SMILES IDX 40 67 42 68 39 69 35 70 36 71 37 72 38 73 64 74 65 75 73 76
REMARK SMILES IDX 66 77 72 78 74 79 71 80 67 81 68 82 69 83 70 84 49 85 50 86
REMARK SMILES IDX 58 87 51 88 57 89 59 90 56 91 52 92 53 93 54 94 55 95
REMARK H PARENT 16 6 20 29 79 48 47 59
REMARK Flexibility Score: inf
ROOT
ATOM      1  C   UNL A   1      37.080  22.213  25.266  1.00  0.00     0.042 C 
ENDROOT
BRANCH   1   2
ATOM      2  C   UNL A   1      36.346  21.069  24.571  1.00  0.00     0.118 C 
BRANCH   2   3
ATOM      3  N   UNL A   1      34.882  21.195  24.595  1.00  0.00    -0.351 N 
ATOM      4  C   UNL A   1      33.820  22.000  24.268  1.00  0.00     0.273 C 
ATOM      5  O   UNL A   1      32.757  21.365  24.348  1.00  0.00    -0.267 OA
ATOM      6  H   UNL A   1      34.521  20.379  25.009  1.00  0.00     0.163 HD
BRANCH   4   7
ATOM      7  C   UNL A   1      33.738  23.432  23.880  1.00  0.00     0.174 A 
ATOM      8  N   UNL A   1      33.366  25.528  23.323  1.00  0.00    -0.216 N 
ATOM      9  N   UNL A   1      34.006  24.965  22.296  1.00  0.00    -0.061 NA
ATOM     10  C   UNL A   1      33.132  24.616  24.347  1.00  0.00     0.083 A 
ATOM     11  N   UNL A   1      34.288  23.723  22.632  1.00  0.00    -0.124 NA
BRANCH   8  12
ATOM     12  C   UNL A   1      32.869  26.831  23.196  1.00  0.00     0.074 A 
ATOM     13  C   UNL A   1      32.708  28.990  24.226  1.00  0.00     0.124 A 
ATOM     14  C   UNL A   1      31.471  29.163  23.590  1.00  0.00     0.093 A 
ATOM     15  C   UNL A   1      33.438  27.829  23.991  1.00  0.00     0.075 A 
ATOM     16  C   UNL A   1      30.939  28.182  22.739  1.00  0.00     0.124 A 
ATOM     17  C   UNL A   1      31.655  27.010  22.519  1.00  0.00     0.075 A 
BRANCH  13  18
ATOM     18  O   UNL A   1      33.052  29.960  25.130  1.00  0.00    -0.497 OA
ATOM     19  C   UNL A   1      33.261  29.531  26.475  1.00  0.00     0.278 C 
ENDBRANCH  13  18
BRANCH  16  20
ATOM     20  O   UNL A   1      29.684  28.446  22.257  1.00  0.00    -0.497 OA
ATOM     21  C   UNL A   1      29.454  29.758  21.753  1.00  0.00     0.278 C 
ENDBRANCH  16  20
ENDBRANCH   8  12
BRANCH  10  22
ATOM     22  C   UNL A   1      32.271  24.869  25.572  1.00  0.00     0.007 C 
ATOM     23  C   UNL A   1      33.040  25.957  26.357  1.00  0.00     0.017 C 
ATOM     24  C   UNL A   1      30.839  25.088  25.033  1.00  0.00     0.017 C 
ATOM     25  C   UNL A   1      32.040  23.816  26.671  1.00  0.00     0.017 C 
ENDBRANCH  10  22
ENDBRANCH   4   7
ENDBRANCH   2   3
ENDBRANCH   1   2
BRANCH   1  26
ATOM     26  C   UNL A   1      38.472  21.910  25.778  1.00  0.00     0.118 C 
BRANCH  26  27
ATOM     27  N   UNL A   1      38.830  20.490  25.735  1.00  0.00    -0.352 N 
ATOM     28  C   UNL A   1      40.117  19.971  25.851  1.00  0.00     0.251 C 
ATOM     29  H   UNL A   1      38.096  19.845  25.611  1.00  0.00     0.163 HD
ATOM     30  O   UNL A   1      40.397  18.851  25.476  1.00  0.00    -0.269 OA
BRANCH  28  31
ATOM     31  C   UNL A   1      41.125  20.882  26.431  1.00  0.00     0.039 A 
ATOM     32  C   UNL A   1      41.643  21.932  25.672  1.00  0.00     0.014 A 
ATOM     33  C   UNL A   1      41.225  20.869  27.815  1.00  0.00     0.014 A 
ATOM     34  C   UNL A   1      42.112  23.069  26.337  1.00  0.00     0.010 A 
ATOM     35  C   UNL A   1      41.539  22.053  28.448  1.00  0.00     0.010 A 
ATOM     36  C   UNL A   1      41.982  23.173  27.733  1.00  0.00    -0.014 A 
BRANCH  36  37
ATOM     37  C   UNL A   1      42.146  24.477  28.408  1.00  0.00     0.031 A 
ATOM     38  C   UNL A   1      41.008  25.452  28.353  1.00  0.00     0.074 A 
ATOM     39  C   UNL A   1      43.159  24.791  29.248  1.00  0.00     0.049 A 
ATOM     40  N   UNL A   1      41.003  26.607  27.771  1.00  0.00    -0.248 NA
ATOM     41  C   UNL A   1      39.716  25.106  28.962  1.00  0.00     0.031 C 
ATOM     42  C   UNL A   1      44.290  23.960  29.673  1.00  0.00     0.029 A 
ATOM     43  N   UNL A   1      43.315  25.913  30.011  1.00  0.00    -0.354 N 
ATOM     44  C   UNL A   1      39.796  27.229  28.091  1.00  0.00     0.074 A 
ATOM     45  C   UNL A   1      38.994  26.204  28.711  1.00  0.00     0.031 C 
ATOM     46  C   UNL A   1      44.835  24.470  30.794  1.00  0.00     0.029 A 
ATOM     47  C   UNL A   1      44.243  25.772  31.031  1.00  0.00     0.049 A 
ATOM     48  H   UNL A   1      42.813  26.745  29.851  1.00  0.00     0.167 HD
ATOM     49  C   UNL A   1      39.631  28.581  27.957  1.00  0.00     0.034 A 
ATOM     50  C   UNL A   1      44.576  26.659  31.997  1.00  0.00     0.034 A 
ATOM     51  C   UNL A   1      40.721  29.162  27.205  1.00  0.00     0.049 A 
ATOM     52  C   UNL A   1      44.295  28.007  31.456  1.00  0.00     0.074 A 
ATOM     53  C   UNL A   1      41.254  28.960  25.945  1.00  0.00     0.029 A 
ATOM     54  N   UNL A   1      41.679  29.877  27.890  1.00  0.00    -0.354 N 
ATOM     55  N   UNL A   1      44.936  28.506  30.434  1.00  0.00    -0.248 NA
ATOM     56  C   UNL A   1      43.017  28.638  31.743  1.00  0.00     0.031 C 
ATOM     57  C   UNL A   1      42.665  29.073  26.128  1.00  0.00     0.029 A 
ATOM     58  C   UNL A   1      42.898  29.410  27.464  1.00  0.00     0.049 A 
ATOM     59  H   UNL A   1      41.521  30.584  28.557  1.00  0.00     0.167 HD
ATOM     60  C   UNL A   1      43.967  29.159  29.691  1.00  0.00     0.074 A 
ATOM     61  C   UNL A   1      42.849  29.335  30.615  1.00  0.00     0.031 C 
ATOM     62  C   UNL A   1      44.051  29.238  28.327  1.00  0.00     0.034 A 
BRANCH  49  63
ATOM     63  C   UNL A   1      38.666  29.473  28.717  1.00  0.00     0.023 A 
ATOM     64  C   UNL A   1      38.815  29.551  30.121  1.00  0.00     0.031 A 
ATOM     65  C   UNL A   1      37.472  30.019  28.205  1.00  0.00     0.131 A 
ATOM     66  C   UNL A   1      37.785  30.037  30.944  1.00  0.00     0.055 A 
ATOM     67  C   UNL A   1      36.477  30.573  29.023  1.00  0.00     0.041 A 
ATOM     68  F   UNL A   1      37.160  29.968  26.905  1.00  0.00    -0.206 F 
ATOM     69  C   UNL A   1      36.613  30.553  30.402  1.00  0.00     0.022 A 
BRANCH  66  70
ATOM     70  S   UNL A   1      37.919  29.791  32.737  1.00  0.00     0.124 S 
ATOM     71  O   UNL A   1      37.187  30.944  33.250  1.00  0.00    -0.237 OA
ATOM     72  O   UNL A   1      37.280  28.491  32.911  1.00  0.00    -0.237 OA
ATOM     73  O   UNL A   1      39.361  29.814  32.975  1.00  0.00    -0.744 OA
ENDBRANCH  66  70
ENDBRANCH  49  63
BRANCH  50  74
ATOM     74  C   UNL A   1      45.019  26.347  33.373  1.00  0.00     0.023 A 
ATOM     75  C   UNL A   1      44.135  26.264  34.459  1.00  0.00     0.031 A 
ATOM     76  C   UNL A   1      46.352  25.921  33.594  1.00  0.00     0.131 A 
ATOM     77  C   UNL A   1      44.591  25.781  35.705  1.00  0.00     0.055 A 
ATOM     78  C   UNL A   1      46.802  25.460  34.830  1.00  0.00     0.041 A 
ATOM     79  F   UNL A   1      47.239  25.869  32.587  1.00  0.00    -0.206 F 
ATOM     80  C   UNL A   1      45.918  25.380  35.894  1.00  0.00     0.022 A 
BRANCH  77  81
ATOM     81  S   UNL A   1      43.417  25.548  37.075  1.00  0.00     0.124 S 
ATOM     82  O   UNL A   1      42.377  24.734  36.457  1.00  0.00    -0.237 OA
ATOM     83  O   UNL A   1      44.241  24.893  38.086  1.00  0.00    -0.237 OA
ATOM     84  O   UNL A   1      43.014  26.914  37.411  1.00  0.00    -0.744 OA
ENDBRANCH  77  81
ENDBRANCH  50  74
BRANCH  62  85
ATOM     85  C   UNL A   1      45.357  28.855  27.654  1.00  0.00     0.023 A 
ATOM     86  C   UNL A   1      45.638  27.573  27.133  1.00  0.00     0.031 A 
ATOM     87  C   UNL A   1      46.300  29.871  27.415  1.00  0.00     0.131 A 
ATOM     88  C   UNL A   1      46.831  27.338  26.423  1.00  0.00     0.055 A 
ATOM     89  C   UNL A   1      47.471  29.643  26.690  1.00  0.00     0.041 A 
ATOM     90  F   UNL A   1      46.081  31.123  27.851  1.00  0.00    -0.206 F 
ATOM     91  C   UNL A   1      47.744  28.372  26.198  1.00  0.00     0.022 A 
BRANCH  88  92
ATOM     92  S   UNL A   1      47.215  25.673  25.794  1.00  0.00     0.124 S 
ATOM     93  O   UNL A   1      48.514  25.372  26.385  1.00  0.00    -0.237 OA
ATOM     94  O   UNL A   1      46.093  24.880  26.287  1.00  0.00    -0.237 OA
ATOM     95  O   UNL A   1      47.236  25.858  24.341  1.00  0.00    -0.744 OA
ENDBRANCH  88  92
ENDBRANCH  62  85
ENDBRANCH  36  37
ENDBRANCH  28  31
ENDBRANCH  26  27
ENDBRANCH   1  26
TORSDOF 17
ENDMDL
MODEL 3
REMARK VINA RESULT:     -11.1      1.743      4.141
REMARK SMILES COc1cc(OC)cc(-n2nnc(C(=O)NCCCNC(=O)c3ccc(-c4c5nc(c(-c6cc(S(=O)(=O)[O-])ccc6F)c6ccc([nH]6)c(-c6cc(S(=O)(=O)[O-])ccc6F)c6nc(c(-c7cc(S(=O)(=O)[O-])ccc7F)c7ccc4[nH]7)C=C6)C=C5)cc3)c2C(C)(C)C)c1
REMARK SMILES IDX 18 1 17 2 16 3 14 4 15 5 13 7 10 8 11 9 86 10 12 11 9 12
REMARK SMILES IDX 3 13 4 14 91 15 5 16 8 17 2 18 1 19 6 20 7 21 87 22 88 23
REMARK SMILES IDX 89 24 90 25 19 26 20 27 21 28 22 30 23 31 24 32 85 33 25 34
REMARK SMILES IDX 84 35 26 36 27 37 28 38 78 39 29 40 83 41 77 42 79 43 30 44
REMARK SMILES IDX 82 45 76 46 75 47 31 49 63 50 43 51 62 52 44 53 47 54 61 55
REMARK SMILES IDX 80 56 45 57 46 58 60 60 81 61 48 62 32 63 33 64 41 65 34 66
REMARK SMILES IDX 40 67 42 68 39 69 35 70 36 71 37 72 38 73 64 74 65 75 73 76
REMARK SMILES IDX 66 77 72 78 74 79 71 80 67 81 68 82 69 83 70 84 49 85 50 86
REMARK SMILES IDX 58 87 51 88 57 89 59 90 56 91 52 92 53 93 54 94 55 95
REMARK H PARENT 16 6 20 29 79 48 47 59
REMARK Flexibility Score: inf
ROOT
ATOM      1  C   UNL A   1      35.231  31.911  28.004  1.00  0.00     0.042 C 
ENDROOT
BRANCH   1   2
ATOM      2  C   UNL A   1      35.986  33.142  28.497  1.00  0.00     0.118 C 
BRANCH   2   3
ATOM      3  N   UNL A   1      35.395  33.770  29.687  1.00  0.00    -0.351 N 
ATOM      4  C   UNL A   1      35.567  34.022  31.026  1.00  0.00     0.273 C 
ATOM      5  O   UNL A   1      34.747  34.869  31.414  1.00  0.00    -0.267 OA
ATOM      6  H   UNL A   1      34.536  34.167  29.417  1.00  0.00     0.163 HD
BRANCH   4   7
ATOM      7  C   UNL A   1      36.504  33.461  32.032  1.00  0.00     0.174 A 
ATOM      8  N   UNL A   1      37.973  32.474  33.340  1.00  0.00    -0.216 N 
ATOM      9  N   UNL A   1      36.773  32.278  33.891  1.00  0.00    -0.061 NA
ATOM     10  C   UNL A   1      37.881  33.184  32.147  1.00  0.00     0.083 A 
ATOM     11  N   UNL A   1      35.885  32.910  33.153  1.00  0.00    -0.124 NA
BRANCH   8  12
ATOM     12  C   UNL A   1      39.093  31.831  33.881  1.00  0.00     0.074 A 
ATOM     13  C   UNL A   1      40.215  29.732  34.167  1.00  0.00     0.124 A 
ATOM     14  C   UNL A   1      40.726  30.209  35.382  1.00  0.00     0.093 A 
ATOM     15  C   UNL A   1      39.426  30.568  33.384  1.00  0.00     0.075 A 
ATOM     16  C   UNL A   1      40.440  31.505  35.840  1.00  0.00     0.124 A 
ATOM     17  C   UNL A   1      39.632  32.337  35.071  1.00  0.00     0.075 A 
BRANCH  13  18
ATOM     18  O   UNL A   1      40.459  28.411  33.898  1.00  0.00    -0.497 OA
ATOM     19  C   UNL A   1      41.473  27.779  34.678  1.00  0.00     0.278 C 
ENDBRANCH  13  18
BRANCH  16  20
ATOM     20  O   UNL A   1      40.932  31.807  37.083  1.00  0.00    -0.497 OA
ATOM     21  C   UNL A   1      42.335  31.649  37.272  1.00  0.00     0.278 C 
ENDBRANCH  16  20
ENDBRANCH   8  12
BRANCH  10  22
ATOM     22  C   UNL A   1      39.022  33.416  31.173  1.00  0.00     0.007 C 
ATOM     23  C   UNL A   1      39.046  32.138  30.303  1.00  0.00     0.017 C 
ATOM     24  C   UNL A   1      38.779  34.822  30.578  1.00  0.00     0.017 C 
ATOM     25  C   UNL A   1      40.496  33.507  31.609  1.00  0.00     0.017 C 
ENDBRANCH  10  22
ENDBRANCH   4   7
ENDBRANCH   2   3
ENDBRANCH   1   2
BRANCH   1  26
ATOM     26  C   UNL A   1      35.581  30.594  28.662  1.00  0.00     0.118 C 
BRANCH  26  27
ATOM     27  N   UNL A   1      35.843  30.695  30.101  1.00  0.00    -0.352 N 
ATOM     28  C   UNL A   1      36.541  29.766  30.868  1.00  0.00     0.251 C 
ATOM     29  H   UNL A   1      35.493  31.489  30.566  1.00  0.00     0.163 HD
ATOM     30  O   UNL A   1      36.438  29.722  32.077  1.00  0.00    -0.269 OA
BRANCH  28  31
ATOM     31  C   UNL A   1      37.388  28.821  30.114  1.00  0.00     0.039 A 
ATOM     32  C   UNL A   1      37.785  29.118  28.810  1.00  0.00     0.014 A 
ATOM     33  C   UNL A   1      38.047  27.863  30.873  1.00  0.00     0.014 A 
ATOM     34  C   UNL A   1      38.976  28.563  28.331  1.00  0.00     0.010 A 
ATOM     35  C   UNL A   1      39.294  27.454  30.449  1.00  0.00     0.010 A 
ATOM     36  C   UNL A   1      39.787  27.794  29.183  1.00  0.00    -0.014 A 
BRANCH  36  37
ATOM     37  C   UNL A   1      41.188  27.493  28.819  1.00  0.00     0.031 A 
ATOM     38  C   UNL A   1      41.454  26.300  27.953  1.00  0.00     0.074 A 
ATOM     39  C   UNL A   1      42.236  28.320  29.034  1.00  0.00     0.049 A 
ATOM     40  N   UNL A   1      42.105  25.230  28.281  1.00  0.00    -0.248 NA
ATOM     41  C   UNL A   1      40.910  26.248  26.588  1.00  0.00     0.031 C 
ATOM     42  C   UNL A   1      42.245  29.650  29.651  1.00  0.00     0.029 A 
ATOM     43  N   UNL A   1      43.529  28.181  28.615  1.00  0.00    -0.354 N 
ATOM     44  C   UNL A   1      42.232  24.450  27.132  1.00  0.00     0.074 A 
ATOM     45  C   UNL A   1      41.362  25.064  26.159  1.00  0.00     0.031 C 
ATOM     46  C   UNL A   1      43.379  30.299  29.320  1.00  0.00     0.029 A 
ATOM     47  C   UNL A   1      44.263  29.356  28.666  1.00  0.00     0.049 A 
ATOM     48  H   UNL A   1      43.904  27.325  28.305  1.00  0.00     0.167 HD
ATOM     49  C   UNL A   1      43.170  23.459  27.041  1.00  0.00     0.034 A 
ATOM     50  C   UNL A   1      45.536  29.573  28.260  1.00  0.00     0.034 A 
ATOM     51  C   UNL A   1      43.752  23.178  28.336  1.00  0.00     0.049 A 
ATOM     52  C   UNL A   1      46.241  28.276  28.344  1.00  0.00     0.074 A 
ATOM     53  C   UNL A   1      43.253  22.788  29.565  1.00  0.00     0.029 A 
ATOM     54  N   UNL A   1      45.025  23.638  28.593  1.00  0.00    -0.354 N 
ATOM     55  N   UNL A   1      46.448  27.657  29.474  1.00  0.00    -0.248 NA
ATOM     56  C   UNL A   1      46.330  27.435  27.161  1.00  0.00     0.031 C 
ATOM     57  C   UNL A   1      44.018  23.530  30.515  1.00  0.00     0.029 A 
ATOM     58  C   UNL A   1      44.979  24.263  29.814  1.00  0.00     0.049 A 
ATOM     59  H   UNL A   1      45.815  23.537  28.013  1.00  0.00     0.167 HD
ATOM     60  C   UNL A   1      46.224  26.319  29.194  1.00  0.00     0.074 A 
ATOM     61  C   UNL A   1      46.306  26.228  27.738  1.00  0.00     0.031 C 
ATOM     62  C   UNL A   1      45.712  25.471  30.139  1.00  0.00     0.034 A 
BRANCH  49  63
ATOM     63  C   UNL A   1      43.808  22.904  25.780  1.00  0.00     0.023 A 
ATOM     64  C   UNL A   1      43.909  21.498  25.663  1.00  0.00     0.031 A 
ATOM     65  C   UNL A   1      44.551  23.643  24.839  1.00  0.00     0.131 A 
ATOM     66  C   UNL A   1      44.784  20.898  24.742  1.00  0.00     0.055 A 
ATOM     67  C   UNL A   1      45.367  23.040  23.871  1.00  0.00     0.041 A 
ATOM     68  F   UNL A   1      44.606  24.980  24.858  1.00  0.00    -0.206 F 
ATOM     69  C   UNL A   1      45.515  21.662  23.839  1.00  0.00     0.022 A 
BRANCH  66  70
ATOM     70  S   UNL A   1      45.105  19.117  24.884  1.00  0.00     0.124 S 
ATOM     71  O   UNL A   1      44.048  18.698  25.799  1.00  0.00    -0.237 OA
ATOM     72  O   UNL A   1      44.973  18.676  23.500  1.00  0.00    -0.237 OA
ATOM     73  O   UNL A   1      46.459  19.060  25.431  1.00  0.00    -0.744 OA
ENDBRANCH  66  70
ENDBRANCH  49  63
BRANCH  50  74
ATOM     74  C   UNL A   1      46.090  30.832  27.717  1.00  0.00     0.023 A 
ATOM     75  C   UNL A   1      45.416  31.618  26.768  1.00  0.00     0.031 A 
ATOM     76  C   UNL A   1      47.253  31.389  28.302  1.00  0.00     0.131 A 
ATOM     77  C   UNL A   1      45.910  32.897  26.432  1.00  0.00     0.055 A 
ATOM     78  C   UNL A   1      47.747  32.646  27.955  1.00  0.00     0.041 A 
ATOM     79  F   UNL A   1      47.904  30.754  29.291  1.00  0.00    -0.206 F 
ATOM     80  C   UNL A   1      47.070  33.412  27.020  1.00  0.00     0.022 A 
BRANCH  77  81
ATOM     81  S   UNL A   1      44.967  33.967  25.304  1.00  0.00     0.124 S 
ATOM     82  O   UNL A   1      44.222  32.999  24.508  1.00  0.00    -0.237 OA
ATOM     83  O   UNL A   1      44.188  34.787  26.226  1.00  0.00    -0.237 OA
ATOM     84  O   UNL A   1      46.008  34.694  24.576  1.00  0.00    -0.744 OA
ENDBRANCH  77  81
ENDBRANCH  50  74
BRANCH  62  85
ATOM     85  C   UNL A   1      45.659  25.936  31.583  1.00  0.00     0.023 A 
ATOM     86  C   UNL A   1      46.745  25.867  32.482  1.00  0.00     0.031 A 
ATOM     87  C   UNL A   1      44.498  26.598  32.021  1.00  0.00     0.131 A 
ATOM     88  C   UNL A   1      46.642  26.428  33.769  1.00  0.00     0.055 A 
ATOM     89  C   UNL A   1      44.405  27.175  33.290  1.00  0.00     0.041 A 
ATOM     90  F   UNL A   1      43.438  26.733  31.206  1.00  0.00    -0.206 F 
ATOM     91  C   UNL A   1      45.475  27.084  34.172  1.00  0.00     0.022 A 
BRANCH  88  92
ATOM     92  S   UNL A   1      48.026  26.295  34.945  1.00  0.00     0.124 S 
ATOM     93  O   UNL A   1      48.906  27.395  34.568  1.00  0.00    -0.237 OA
ATOM     94  O   UNL A   1      47.359  26.429  36.238  1.00  0.00    -0.237 OA
ATOM     95  O   UNL A   1      48.569  24.961  34.678  1.00  0.00    -0.744 OA
ENDBRANCH  88  92
ENDBRANCH  62  85
ENDBRANCH  36  37
ENDBRANCH  28  31
ENDBRANCH  26  27
ENDBRANCH   1  26
TORSDOF 17
ENDMDL
