MODEL 1
REMARK VINA RESULT:     -11.8      0.000      0.000
REMARK SMILES [NH3+]C[C@H]1CC[C@@H](C(=O)NCc2ccc(C(=O)NCCCNC(=O)c3ccc(-c4c5nc(c(-c6cc(S(=O)(=O)[O-])ccc6F)c6ccc([nH]6)c(-c6cc(S(=O)(=O)[O-])ccc6F)c6nc(c(-c7cc(S(=O)(=O)[O-])ccc7F)c7ccc4[nH]7)C=C6)C=C5)cc3)cc2)CC1
REMARK SMILES IDX 18 1 17 2 15 3 16 4 14 6 11 7 12 8 88 9 13 10 87 11 10 12
REMARK SMILES IDX 9 13 7 14 8 15 6 17 3 18 4 19 90 20 5 21 89 22 2 23 1 24
REMARK SMILES IDX 19 28 20 29 21 30 22 31 23 33 24 34 25 35 86 36 26 37 85 38
REMARK SMILES IDX 27 39 28 40 29 41 79 42 30 43 84 44 78 45 80 46 31 47 83 48
REMARK SMILES IDX 77 49 76 50 32 52 64 53 44 54 63 55 45 56 48 57 62 58 81 59
REMARK SMILES IDX 46 60 47 61 61 63 82 64 49 65 33 66 34 67 42 68 35 69 41 70
REMARK SMILES IDX 43 71 40 72 36 73 37 74 38 75 39 76 65 77 66 78 74 79 67 80
REMARK SMILES IDX 73 81 75 82 72 83 68 84 69 85 70 86 71 87 50 88 51 89 59 90
REMARK SMILES IDX 52 91 58 92 60 93 57 94 53 95 54 96 55 97 56 98
REMARK H PARENT 17 5 9 16 1 25 1 26 1 27 21 32 80 51 48 62
REMARK Flexibility Score: inf
ROOT
ATOM      1  C   UNL A   1      31.780  30.804  26.541  1.00  0.00     0.118 C 
ENDROOT
BRANCH   1   2
ATOM      2  N   UNL A   1      33.077  30.351  27.010  1.00  0.00    -0.352 N 
ATOM      3  C   UNL A   1      33.765  29.172  26.905  1.00  0.00     0.251 C 
ATOM      4  O   UNL A   1      34.897  29.147  27.395  1.00  0.00    -0.269 OA
ATOM      5  H   UNL A   1      33.567  31.041  27.512  1.00  0.00     0.163 HD
BRANCH   3   6
ATOM      6  C   UNL A   1      33.257  27.949  26.217  1.00  0.00     0.039 A 
ATOM      7  C   UNL A   1      32.087  25.648  25.030  1.00  0.00    -0.029 A 
ATOM      8  C   UNL A   1      31.564  26.174  26.213  1.00  0.00     0.006 A 
ATOM      9  C   UNL A   1      33.227  26.255  24.483  1.00  0.00     0.006 A 
ATOM     10  C   UNL A   1      32.150  27.303  26.801  1.00  0.00     0.014 A 
ATOM     11  C   UNL A   1      33.759  27.429  25.028  1.00  0.00     0.014 A 
BRANCH   7  12
ATOM     12  C   UNL A   1      31.471  24.499  24.277  1.00  0.00     0.151 C 
BRANCH  12  13
ATOM     13  N   UNL A   1      30.618  23.629  25.046  1.00  0.00    -0.352 N 
ATOM     14  C   UNL A   1      30.845  22.590  25.879  1.00  0.00     0.223 C 
ATOM     15  O   UNL A   1      29.846  22.192  26.498  1.00  0.00    -0.275 OA
ATOM     16  H   UNL A   1      29.661  23.836  24.941  1.00  0.00     0.163 HD
BRANCH  14  17
ATOM     17  C   UNL A   1      32.187  21.875  26.108  1.00  0.00     0.078 C 
ATOM     18  C   UNL A   1      34.918  22.604  25.021  1.00  0.00     0.044 C 
ATOM     19  C   UNL A   1      34.344  23.316  26.254  1.00  0.00     0.010 C 
ATOM     20  C   UNL A   1      33.860  21.903  24.154  1.00  0.00     0.010 C 
ATOM     21  C   UNL A   1      33.225  22.578  26.978  1.00  0.00     0.014 C 
ATOM     22  C   UNL A   1      32.776  21.151  24.904  1.00  0.00     0.014 C 
BRANCH  18  23
ATOM     23  C   UNL A   1      35.713  23.572  24.110  1.00  0.00     0.262 C 
BRANCH  23  24
ATOM     24  N   UNL A   1      37.054  23.135  23.753  1.00  0.00    -0.357 N 
ATOM     25  H   UNL A   1      37.499  22.705  24.563  1.00  0.00     0.344 HD
ATOM     26  H   UNL A   1      37.604  23.939  23.450  1.00  0.00     0.344 HD
ATOM     27  H   UNL A   1      36.999  22.455  22.994  1.00  0.00     0.344 HD
ENDBRANCH  23  24
ENDBRANCH  18  23
ENDBRANCH  14  17
ENDBRANCH  12  13
ENDBRANCH   7  12
ENDBRANCH   3   6
ENDBRANCH   1   2
BRANCH   1  28
ATOM     28  C   UNL A   1      31.571  32.288  26.849  1.00  0.00     0.042 C 
BRANCH  28  29
ATOM     29  C   UNL A   1      32.876  33.004  27.197  1.00  0.00     0.118 C 
BRANCH  29  30
ATOM     30  N   UNL A   1      32.622  34.316  27.779  1.00  0.00    -0.352 N 
ATOM     31  C   UNL A   1      33.134  34.898  28.909  1.00  0.00     0.251 C 
ATOM     32  H   UNL A   1      31.980  34.871  27.281  1.00  0.00     0.163 HD
ATOM     33  O   UNL A   1      32.592  35.906  29.353  1.00  0.00    -0.269 OA
BRANCH  31  34
ATOM     34  C   UNL A   1      34.313  34.323  29.590  1.00  0.00     0.039 A 
ATOM     35  C   UNL A   1      34.121  33.627  30.787  1.00  0.00     0.014 A 
ATOM     36  C   UNL A   1      35.604  34.513  29.090  1.00  0.00     0.014 A 
ATOM     37  C   UNL A   1      35.218  33.086  31.461  1.00  0.00     0.010 A 
ATOM     38  C   UNL A   1      36.690  33.917  29.727  1.00  0.00     0.010 A 
ATOM     39  C   UNL A   1      36.508  33.206  30.923  1.00  0.00    -0.014 A 
BRANCH  39  40
ATOM     40  C   UNL A   1      37.678  32.591  31.600  1.00  0.00     0.031 A 
ATOM     41  C   UNL A   1      38.419  31.454  30.953  1.00  0.00     0.074 A 
ATOM     42  C   UNL A   1      38.022  33.014  32.832  1.00  0.00     0.049 A 
ATOM     43  N   UNL A   1      39.416  30.745  31.415  1.00  0.00    -0.248 NA
ATOM     44  C   UNL A   1      37.950  31.039  29.623  1.00  0.00     0.031 C 
ATOM     45  C   UNL A   1      37.335  34.068  33.581  1.00  0.00     0.029 A 
ATOM     46  N   UNL A   1      39.018  32.598  33.679  1.00  0.00    -0.354 N 
ATOM     47  C   UNL A   1      39.682  29.785  30.443  1.00  0.00     0.074 A 
ATOM     48  C   UNL A   1      38.698  29.970  29.397  1.00  0.00     0.031 C 
ATOM     49  C   UNL A   1      37.936  34.223  34.771  1.00  0.00     0.029 A 
ATOM     50  C   UNL A   1      39.021  33.254  34.888  1.00  0.00     0.049 A 
ATOM     51  H   UNL A   1      39.668  31.898  33.443  1.00  0.00     0.167 HD
ATOM     52  C   UNL A   1      40.665  28.849  30.421  1.00  0.00     0.034 A 
ATOM     53  C   UNL A   1      39.797  33.082  35.975  1.00  0.00     0.034 A 
ATOM     54  C   UNL A   1      41.639  28.694  31.476  1.00  0.00     0.049 A 
ATOM     55  C   UNL A   1      40.888  32.046  35.929  1.00  0.00     0.074 A 
ATOM     56  C   UNL A   1      42.730  27.844  31.525  1.00  0.00     0.029 A 
ATOM     57  N   UNL A   1      41.629  29.393  32.679  1.00  0.00    -0.354 N 
ATOM     58  N   UNL A   1      41.182  31.199  34.971  1.00  0.00    -0.248 NA
ATOM     59  C   UNL A   1      41.762  31.955  37.105  1.00  0.00     0.031 C 
ATOM     60  C   UNL A   1      43.332  27.973  32.782  1.00  0.00     0.029 A 
ATOM     61  C   UNL A   1      42.670  28.963  33.491  1.00  0.00     0.049 A 
ATOM     62  H   UNL A   1      40.979  30.092  32.919  1.00  0.00     0.167 HD
ATOM     63  C   UNL A   1      42.287  30.484  35.420  1.00  0.00     0.074 A 
ATOM     64  C   UNL A   1      42.617  31.016  36.728  1.00  0.00     0.031 C 
ATOM     65  C   UNL A   1      42.970  29.483  34.806  1.00  0.00     0.034 A 
BRANCH  52  66
ATOM     66  C   UNL A   1      40.701  27.907  29.238  1.00  0.00     0.023 A 
ATOM     67  C   UNL A   1      41.644  28.049  28.204  1.00  0.00     0.031 A 
ATOM     68  C   UNL A   1      39.746  26.881  29.116  1.00  0.00     0.131 A 
ATOM     69  C   UNL A   1      41.549  27.252  27.052  1.00  0.00     0.055 A 
ATOM     70  C   UNL A   1      39.717  26.030  28.009  1.00  0.00     0.041 A 
ATOM     71  F   UNL A   1      38.809  26.703  30.059  1.00  0.00    -0.206 F 
ATOM     72  C   UNL A   1      40.608  26.225  26.959  1.00  0.00     0.022 A 
BRANCH  69  73
ATOM     73  S   UNL A   1      42.555  27.696  25.608  1.00  0.00     0.124 S 
ATOM     74  O   UNL A   1      41.853  28.877  25.112  1.00  0.00    -0.237 OA
ATOM     75  O   UNL A   1      43.866  27.933  26.200  1.00  0.00    -0.237 OA
ATOM     76  O   UNL A   1      42.461  26.518  24.749  1.00  0.00    -0.744 OA
ENDBRANCH  69  73
ENDBRANCH  52  66
BRANCH  53  77
ATOM     77  C   UNL A   1      39.552  33.899  37.196  1.00  0.00     0.023 A 
ATOM     78  C   UNL A   1      38.859  33.376  38.298  1.00  0.00     0.031 A 
ATOM     79  C   UNL A   1      40.024  35.221  37.278  1.00  0.00     0.131 A 
ATOM     80  C   UNL A   1      38.632  34.181  39.426  1.00  0.00     0.055 A 
ATOM     81  C   UNL A   1      39.834  36.003  38.418  1.00  0.00     0.041 A 
ATOM     82  F   UNL A   1      40.703  35.764  36.255  1.00  0.00    -0.206 F 
ATOM     83  C   UNL A   1      39.126  35.485  39.498  1.00  0.00     0.022 A 
BRANCH  80  84
ATOM     84  S   UNL A   1      37.637  33.512  40.787  1.00  0.00     0.124 S 
ATOM     85  O   UNL A   1      37.102  34.728  41.390  1.00  0.00    -0.237 OA
ATOM     86  O   UNL A   1      36.678  32.672  40.078  1.00  0.00    -0.237 OA
ATOM     87  O   UNL A   1      38.614  32.790  41.600  1.00  0.00    -0.744 OA
ENDBRANCH  80  84
ENDBRANCH  53  77
BRANCH  65  88
ATOM     88  C   UNL A   1      44.163  28.920  35.541  1.00  0.00     0.023 A 
ATOM     89  C   UNL A   1      44.048  27.810  36.397  1.00  0.00     0.031 A 
ATOM     90  C   UNL A   1      45.431  29.512  35.394  1.00  0.00     0.131 A 
ATOM     91  C   UNL A   1      45.167  27.362  37.114  1.00  0.00     0.055 A 
ATOM     92  C   UNL A   1      46.553  29.022  36.061  1.00  0.00     0.041 A 
ATOM     93  F   UNL A   1      45.598  30.577  34.595  1.00  0.00    -0.206 F 
ATOM     94  C   UNL A   1      46.423  27.949  36.938  1.00  0.00     0.022 A 
BRANCH  91  95
ATOM     95  S   UNL A   1      44.942  26.061  38.358  1.00  0.00     0.124 S 
ATOM     96  O   UNL A   1      43.793  26.557  39.110  1.00  0.00    -0.237 OA
ATOM     97  O   UNL A   1      44.703  24.880  37.536  1.00  0.00    -0.237 OA
ATOM     98  O   UNL A   1      46.207  26.062  39.089  1.00  0.00    -0.744 OA
ENDBRANCH  91  95
ENDBRANCH  65  88
ENDBRANCH  39  40
ENDBRANCH  31  34
ENDBRANCH  29  30
ENDBRANCH  28  29
ENDBRANCH   1  28
TORSDOF 18
ENDMDL
MODEL 2
REMARK VINA RESULT:     -11.8      2.126      2.811
REMARK SMILES [NH3+]C[C@H]1CC[C@@H](C(=O)NCc2ccc(C(=O)NCCCNC(=O)c3ccc(-c4c5nc(c(-c6cc(S(=O)(=O)[O-])ccc6F)c6ccc([nH]6)c(-c6cc(S(=O)(=O)[O-])ccc6F)c6nc(c(-c7cc(S(=O)(=O)[O-])ccc7F)c7ccc4[nH]7)C=C6)C=C5)cc3)cc2)CC1
REMARK SMILES IDX 18 1 17 2 15 3 16 4 14 6 11 7 12 8 88 9 13 10 87 11 10 12
REMARK SMILES IDX 9 13 7 14 8 15 6 17 3 18 4 19 90 20 5 21 89 22 2 23 1 24
REMARK SMILES IDX 19 28 20 29 21 30 22 31 23 33 24 34 25 35 86 36 26 37 85 38
REMARK SMILES IDX 27 39 28 40 29 41 79 42 30 43 84 44 78 45 80 46 31 47 83 48
REMARK SMILES IDX 77 49 76 50 32 52 64 53 44 54 63 55 45 56 48 57 62 58 81 59
REMARK SMILES IDX 46 60 47 61 61 63 82 64 49 65 33 66 34 67 42 68 35 69 41 70
REMARK SMILES IDX 43 71 40 72 36 73 37 74 38 75 39 76 65 77 66 78 74 79 67 80
REMARK SMILES IDX 73 81 75 82 72 83 68 84 69 85 70 86 71 87 50 88 51 89 59 90
REMARK SMILES IDX 52 91 58 92 60 93 57 94 53 95 54 96 55 97 56 98
REMARK H PARENT 17 5 9 16 1 25 1 26 1 27 21 32 80 51 48 62
REMARK Flexibility Score: inf
ROOT
ATOM      1  C   UNL A   1      31.188  30.727  25.496  1.00  0.00     0.118 C 
ENDROOT
BRANCH   1   2
ATOM      2  N   UNL A   1      30.294  30.851  24.360  1.00  0.00    -0.352 N 
ATOM      3  C   UNL A   1      29.812  29.969  23.430  1.00  0.00     0.251 C 
ATOM      4  O   UNL A   1      29.009  30.416  22.608  1.00  0.00    -0.269 OA
ATOM      5  H   UNL A   1      29.961  31.769  24.231  1.00  0.00     0.163 HD
BRANCH   3   6
ATOM      6  C   UNL A   1      30.164  28.519  23.372  1.00  0.00     0.039 A 
ATOM      7  C   UNL A   1      30.603  25.714  23.295  1.00  0.00    -0.029 A 
ATOM      8  C   UNL A   1      29.434  26.229  23.856  1.00  0.00     0.006 A 
ATOM      9  C   UNL A   1      31.565  26.619  22.823  1.00  0.00     0.006 A 
ATOM     10  C   UNL A   1      29.225  27.614  23.902  1.00  0.00     0.014 A 
ATOM     11  C   UNL A   1      31.318  27.996  22.796  1.00  0.00     0.014 A 
BRANCH   7  12
ATOM     12  C   UNL A   1      30.873  24.243  23.117  1.00  0.00     0.151 C 
BRANCH  12  13
ATOM     13  N   UNL A   1      32.188  23.900  22.636  1.00  0.00    -0.352 N 
ATOM     14  C   UNL A   1      33.384  23.705  23.234  1.00  0.00     0.223 C 
ATOM     15  O   UNL A   1      34.266  23.247  22.493  1.00  0.00    -0.275 OA
ATOM     16  H   UNL A   1      32.222  23.782  21.659  1.00  0.00     0.163 HD
BRANCH  14  17
ATOM     17  C   UNL A   1      33.735  24.005  24.701  1.00  0.00     0.078 C 
ATOM     18  C   UNL A   1      32.570  26.129  26.519  1.00  0.00     0.044 C 
ATOM     19  C   UNL A   1      31.836  24.801  26.286  1.00  0.00     0.010 C 
ATOM     20  C   UNL A   1      33.611  26.466  25.440  1.00  0.00     0.010 C 
ATOM     21  C   UNL A   1      32.696  23.657  25.763  1.00  0.00     0.014 C 
ATOM     22  C   UNL A   1      34.473  25.312  24.961  1.00  0.00     0.014 C 
BRANCH  18  23
ATOM     23  C   UNL A   1      31.590  27.324  26.623  1.00  0.00     0.262 C 
BRANCH  23  24
ATOM     24  N   UNL A   1      31.369  27.836  27.966  1.00  0.00    -0.357 N 
ATOM     25  H   UNL A   1      32.083  27.466  28.593  1.00  0.00     0.344 HD
ATOM     26  H   UNL A   1      30.447  27.549  28.292  1.00  0.00     0.344 HD
ATOM     27  H   UNL A   1      31.423  28.855  27.954  1.00  0.00     0.344 HD
ENDBRANCH  23  24
ENDBRANCH  18  23
ENDBRANCH  14  17
ENDBRANCH  12  13
ENDBRANCH   7  12
ENDBRANCH   3   6
ENDBRANCH   1   2
BRANCH   1  28
ATOM     28  C   UNL A   1      31.086  31.948  26.414  1.00  0.00     0.042 C 
BRANCH  28  29
ATOM     29  C   UNL A   1      32.453  32.430  26.901  1.00  0.00     0.118 C 
BRANCH  29  30
ATOM     30  N   UNL A   1      32.407  33.831  27.303  1.00  0.00    -0.352 N 
ATOM     31  C   UNL A   1      33.090  34.492  28.291  1.00  0.00     0.251 C 
ATOM     32  H   UNL A   1      31.788  34.390  26.781  1.00  0.00     0.163 HD
ATOM     33  O   UNL A   1      32.712  35.611  28.624  1.00  0.00    -0.269 OA
BRANCH  31  34
ATOM     34  C   UNL A   1      34.256  33.869  28.953  1.00  0.00     0.039 A 
ATOM     35  C   UNL A   1      34.031  32.851  29.884  1.00  0.00     0.014 A 
ATOM     36  C   UNL A   1      35.556  34.319  28.707  1.00  0.00     0.014 A 
ATOM     37  C   UNL A   1      35.112  32.255  30.537  1.00  0.00     0.010 A 
ATOM     38  C   UNL A   1      36.637  33.680  29.309  1.00  0.00     0.010 A 
ATOM     39  C   UNL A   1      36.425  32.648  30.235  1.00  0.00    -0.014 A 
BRANCH  39  40
ATOM     40  C   UNL A   1      37.587  31.988  30.883  1.00  0.00     0.031 A 
ATOM     41  C   UNL A   1      38.379  30.948  30.140  1.00  0.00     0.074 A 
ATOM     42  C   UNL A   1      37.878  32.277  32.166  1.00  0.00     0.049 A 
ATOM     43  N   UNL A   1      39.379  30.214  30.556  1.00  0.00    -0.248 NA
ATOM     44  C   UNL A   1      37.967  30.674  28.756  1.00  0.00     0.031 C 
ATOM     45  C   UNL A   1      37.139  33.226  33.002  1.00  0.00     0.029 A 
ATOM     46  N   UNL A   1      38.856  31.792  32.996  1.00  0.00    -0.354 N 
ATOM     47  C   UNL A   1      39.702  29.375  29.494  1.00  0.00     0.074 A 
ATOM     48  C   UNL A   1      38.750  29.654  28.440  1.00  0.00     0.031 C 
ATOM     49  C   UNL A   1      37.695  33.260  34.222  1.00  0.00     0.029 A 
ATOM     50  C   UNL A   1      38.801  32.308  34.270  1.00  0.00     0.049 A 
ATOM     51  H   UNL A   1      39.532  31.137  32.709  1.00  0.00     0.167 HD
ATOM     52  C   UNL A   1      40.710  28.470  29.404  1.00  0.00     0.034 A 
ATOM     53  C   UNL A   1      39.544  32.033  35.359  1.00  0.00     0.034 A 
ATOM     54  C   UNL A   1      41.652  28.220  30.470  1.00  0.00     0.049 A 
ATOM     55  C   UNL A   1      40.663  31.034  35.238  1.00  0.00     0.074 A 
ATOM     56  C   UNL A   1      42.763  27.394  30.463  1.00  0.00     0.029 A 
ATOM     57  N   UNL A   1      41.583  28.779  31.742  1.00  0.00    -0.354 N 
ATOM     58  N   UNL A   1      41.011  30.306  34.203  1.00  0.00    -0.248 NA
ATOM     59  C   UNL A   1      41.498  30.831  36.427  1.00  0.00     0.031 C 
ATOM     60  C   UNL A   1      43.319  27.396  31.749  1.00  0.00     0.029 A 
ATOM     61  C   UNL A   1      42.607  28.285  32.539  1.00  0.00     0.049 A 
ATOM     62  H   UNL A   1      40.907  29.431  32.034  1.00  0.00     0.167 HD
ATOM     63  C   UNL A   1      42.119  29.570  34.610  1.00  0.00     0.074 A 
ATOM     64  C   UNL A   1      42.391  29.960  35.980  1.00  0.00     0.031 C 
ATOM     65  C   UNL A   1      42.849  28.660  33.914  1.00  0.00     0.034 A 
BRANCH  52  66
ATOM     66  C   UNL A   1      40.811  27.668  28.126  1.00  0.00     0.023 A 
ATOM     67  C   UNL A   1      40.374  26.332  28.051  1.00  0.00     0.031 A 
ATOM     68  C   UNL A   1      41.398  28.228  26.977  1.00  0.00     0.131 A 
ATOM     69  C   UNL A   1      40.624  25.575  26.897  1.00  0.00     0.055 A 
ATOM     70  C   UNL A   1      41.558  27.495  25.799  1.00  0.00     0.041 A 
ATOM     71  F   UNL A   1      41.851  29.491  26.987  1.00  0.00    -0.206 F 
ATOM     72  C   UNL A   1      41.189  26.154  25.759  1.00  0.00     0.022 A 
BRANCH  69  73
ATOM     73  S   UNL A   1      40.363  23.779  26.966  1.00  0.00     0.124 S 
ATOM     74  O   UNL A   1      40.643  23.495  28.372  1.00  0.00    -0.237 OA
ATOM     75  O   UNL A   1      38.970  23.648  26.553  1.00  0.00    -0.237 OA
ATOM     76  O   UNL A   1      41.347  23.253  26.024  1.00  0.00    -0.744 OA
ENDBRANCH  69  73
ENDBRANCH  52  66
BRANCH  53  77
ATOM     77  C   UNL A   1      39.237  32.702  36.653  1.00  0.00     0.023 A 
ATOM     78  C   UNL A   1      38.370  32.118  37.591  1.00  0.00     0.031 A 
ATOM     79  C   UNL A   1      39.821  33.940  36.975  1.00  0.00     0.131 A 
ATOM     80  C   UNL A   1      38.090  32.786  38.793  1.00  0.00     0.055 A 
ATOM     81  C   UNL A   1      39.574  34.580  38.191  1.00  0.00     0.041 A 
ATOM     82  F   UNL A   1      40.666  34.535  36.117  1.00  0.00    -0.206 F 
ATOM     83  C   UNL A   1      38.697  34.005  39.105  1.00  0.00     0.022 A 
BRANCH  80  84
ATOM     84  S   UNL A   1      36.882  32.058  39.933  1.00  0.00     0.124 S 
ATOM     85  O   UNL A   1      35.820  31.649  39.020  1.00  0.00    -0.237 OA
ATOM     86  O   UNL A   1      37.652  30.981  40.545  1.00  0.00    -0.237 OA
ATOM     87  O   UNL A   1      36.545  33.165  40.826  1.00  0.00    -0.744 OA
ENDBRANCH  80  84
ENDBRANCH  53  77
BRANCH  65  88
ATOM     88  C   UNL A   1      44.031  28.045  34.625  1.00  0.00     0.023 A 
ATOM     89  C   UNL A   1      43.936  26.805  35.281  1.00  0.00     0.031 A 
ATOM     90  C   UNL A   1      45.266  28.717  34.658  1.00  0.00     0.131 A 
ATOM     91  C   UNL A   1      45.038  26.302  35.988  1.00  0.00     0.055 A 
ATOM     92  C   UNL A   1      46.378  28.182  35.309  1.00  0.00     0.041 A 
ATOM     93  F   UNL A   1      45.412  29.907  34.053  1.00  0.00    -0.206 F 
ATOM     94  C   UNL A   1      46.264  26.974  35.991  1.00  0.00     0.022 A 
BRANCH  91  95
ATOM     95  S   UNL A   1      44.823  24.805  36.989  1.00  0.00     0.124 S 
ATOM     96  O   UNL A   1      43.396  24.849  37.295  1.00  0.00    -0.237 OA
ATOM     97  O   UNL A   1      45.246  23.752  36.071  1.00  0.00    -0.237 OA
ATOM     98  O   UNL A   1      45.708  25.025  38.131  1.00  0.00    -0.744 OA
ENDBRANCH  91  95
ENDBRANCH  65  88
ENDBRANCH  39  40
ENDBRANCH  31  34
ENDBRANCH  29  30
ENDBRANCH  28  29
ENDBRANCH   1  28
TORSDOF 18
ENDMDL
MODEL 3
REMARK VINA RESULT:     -11.8      6.161     11.447
REMARK SMILES [NH3+]C[C@H]1CC[C@@H](C(=O)NCc2ccc(C(=O)NCCCNC(=O)c3ccc(-c4c5nc(c(-c6cc(S(=O)(=O)[O-])ccc6F)c6ccc([nH]6)c(-c6cc(S(=O)(=O)[O-])ccc6F)c6nc(c(-c7cc(S(=O)(=O)[O-])ccc7F)c7ccc4[nH]7)C=C6)C=C5)cc3)cc2)CC1
REMARK SMILES IDX 18 1 17 2 15 3 16 4 14 6 11 7 12 8 88 9 13 10 87 11 10 12
REMARK SMILES IDX 9 13 7 14 8 15 6 17 3 18 4 19 90 20 5 21 89 22 2 23 1 24
REMARK SMILES IDX 19 28 20 29 21 30 22 31 23 33 24 34 25 35 86 36 26 37 85 38
REMARK SMILES IDX 27 39 28 40 29 41 79 42 30 43 84 44 78 45 80 46 31 47 83 48
REMARK SMILES IDX 77 49 76 50 32 52 64 53 44 54 63 55 45 56 48 57 62 58 81 59
REMARK SMILES IDX 46 60 47 61 61 63 82 64 49 65 33 66 34 67 42 68 35 69 41 70
REMARK SMILES IDX 43 71 40 72 36 73 37 74 38 75 39 76 65 77 66 78 74 79 67 80
REMARK SMILES IDX 73 81 75 82 72 83 68 84 69 85 70 86 71 87 50 88 51 89 59 90
REMARK SMILES IDX 52 91 58 92 60 93 57 94 53 95 54 96 55 97 56 98
REMARK H PARENT 17 5 9 16 1 25 1 26 1 27 21 32 80 51 48 62
REMARK Flexibility Score: inf
ROOT
ATOM      1  C   UNL A   1      35.898  20.471  25.157  1.00  0.00     0.118 C 
ENDROOT
BRANCH   1   2
ATOM      2  N   UNL A   1      34.742  19.626  25.396  1.00  0.00    -0.352 N 
ATOM      3  C   UNL A   1      33.399  19.768  25.171  1.00  0.00     0.251 C 
ATOM      4  O   UNL A   1      32.685  18.805  25.460  1.00  0.00    -0.269 OA
ATOM      5  H   UNL A   1      34.976  18.763  25.810  1.00  0.00     0.163 HD
BRANCH   3   6
ATOM      6  C   UNL A   1      32.761  20.978  24.575  1.00  0.00     0.039 A 
ATOM      7  C   UNL A   1      31.559  23.383  23.657  1.00  0.00    -0.029 A 
ATOM      8  C   UNL A   1      31.597  23.090  25.022  1.00  0.00     0.006 A 
ATOM      9  C   UNL A   1      32.081  22.437  22.762  1.00  0.00     0.006 A 
ATOM     10  C   UNL A   1      32.181  21.898  25.470  1.00  0.00     0.014 A 
ATOM     11  C   UNL A   1      32.735  21.287  23.219  1.00  0.00     0.014 A 
BRANCH   7  12
ATOM     12  C   UNL A   1      31.038  24.676  23.089  1.00  0.00     0.151 C 
BRANCH  12  13
ATOM     13  N   UNL A   1      31.739  25.184  21.937  1.00  0.00    -0.352 N 
ATOM     14  C   UNL A   1      32.684  26.133  21.757  1.00  0.00     0.223 C 
ATOM     15  O   UNL A   1      33.174  26.168  20.618  1.00  0.00    -0.275 OA
ATOM     16  H   UNL A   1      31.471  24.744  21.098  1.00  0.00     0.163 HD
BRANCH  14  17
ATOM     17  C   UNL A   1      33.177  27.145  22.804  1.00  0.00     0.078 C 
ATOM     18  C   UNL A   1      32.103  27.645  25.591  1.00  0.00     0.044 C 
ATOM     19  C   UNL A   1      33.062  26.480  25.314  1.00  0.00     0.010 C 
ATOM     20  C   UNL A   1      31.393  28.184  24.339  1.00  0.00     0.010 C 
ATOM     21  C   UNL A   1      33.889  26.598  24.038  1.00  0.00     0.014 C 
ATOM     22  C   UNL A   1      32.250  28.318  23.093  1.00  0.00     0.014 C 
BRANCH  18  23
ATOM     23  C   UNL A   1      31.016  27.268  26.628  1.00  0.00     0.262 C 
BRANCH  23  24
ATOM     24  N   UNL A   1      31.203  27.820  27.960  1.00  0.00    -0.357 N 
ATOM     25  H   UNL A   1      30.543  28.583  28.108  1.00  0.00     0.344 HD
ATOM     26  H   UNL A   1      32.156  28.172  28.051  1.00  0.00     0.344 HD
ATOM     27  H   UNL A   1      31.042  27.091  28.656  1.00  0.00     0.344 HD
ENDBRANCH  23  24
ENDBRANCH  18  23
ENDBRANCH  14  17
ENDBRANCH  12  13
ENDBRANCH   7  12
ENDBRANCH   3   6
ENDBRANCH   1   2
BRANCH   1  28
ATOM     28  C   UNL A   1      37.162  19.632  24.957  1.00  0.00     0.042 C 
BRANCH  28  29
ATOM     29  C   UNL A   1      38.429  20.370  25.391  1.00  0.00     0.118 C 
BRANCH  29  30
ATOM     30  N   UNL A   1      39.476  19.436  25.786  1.00  0.00    -0.352 N 
ATOM     31  C   UNL A   1      40.783  19.664  26.132  1.00  0.00     0.251 C 
ATOM     32  H   UNL A   1      39.201  18.491  25.808  1.00  0.00     0.163 HD
ATOM     33  O   UNL A   1      41.557  18.713  26.182  1.00  0.00    -0.269 OA
BRANCH  31  34
ATOM     34  C   UNL A   1      41.258  21.031  26.434  1.00  0.00     0.039 A 
ATOM     35  C   UNL A   1      41.071  21.534  27.725  1.00  0.00     0.014 A 
ATOM     36  C   UNL A   1      41.829  21.836  25.444  1.00  0.00     0.014 A 
ATOM     37  C   UNL A   1      41.496  22.827  28.035  1.00  0.00     0.010 A 
ATOM     38  C   UNL A   1      42.312  23.101  25.772  1.00  0.00     0.010 A 
ATOM     39  C   UNL A   1      42.142  23.612  27.067  1.00  0.00    -0.014 A 
BRANCH  39  40
ATOM     40  C   UNL A   1      42.645  24.969  27.397  1.00  0.00     0.031 A 
ATOM     41  C   UNL A   1      41.738  25.977  28.046  1.00  0.00     0.074 A 
ATOM     42  C   UNL A   1      43.899  25.311  27.042  1.00  0.00     0.049 A 
ATOM     43  N   UNL A   1      41.970  27.230  28.346  1.00  0.00    -0.248 NA
ATOM     44  C   UNL A   1      40.376  25.525  28.365  1.00  0.00     0.031 C 
ATOM     45  C   UNL A   1      44.846  24.433  26.353  1.00  0.00     0.029 A 
ATOM     46  N   UNL A   1      44.585  26.489  27.192  1.00  0.00    -0.354 N 
ATOM     47  C   UNL A   1      40.779  27.721  28.871  1.00  0.00     0.074 A 
ATOM     48  C   UNL A   1      39.813  26.645  28.788  1.00  0.00     0.031 C 
ATOM     49  C   UNL A   1      45.993  25.099  26.149  1.00  0.00     0.029 A 
ATOM     50  C   UNL A   1      45.849  26.461  26.652  1.00  0.00     0.049 A 
ATOM     51  H   UNL A   1      44.208  27.279  27.642  1.00  0.00     0.167 HD
ATOM     52  C   UNL A   1      40.522  28.950  29.388  1.00  0.00     0.034 A 
ATOM     53  C   UNL A   1      46.782  27.429  26.556  1.00  0.00     0.034 A 
ATOM     54  C   UNL A   1      41.510  30.001  29.466  1.00  0.00     0.049 A 
ATOM     55  C   UNL A   1      46.484  28.782  27.142  1.00  0.00     0.074 A 
ATOM     56  C   UNL A   1      41.393  31.253  30.046  1.00  0.00     0.029 A 
ATOM     57  N   UNL A   1      42.792  29.932  28.931  1.00  0.00    -0.354 N 
ATOM     58  N   UNL A   1      45.381  29.211  27.710  1.00  0.00    -0.248 NA
ATOM     59  C   UNL A   1      47.562  29.776  27.089  1.00  0.00     0.031 C 
ATOM     60  C   UNL A   1      42.573  31.965  29.795  1.00  0.00     0.029 A 
ATOM     61  C   UNL A   1      43.460  31.132  29.132  1.00  0.00     0.049 A 
ATOM     62  H   UNL A   1      43.171  29.146  28.477  1.00  0.00     0.167 HD
ATOM     63  C   UNL A   1      45.638  30.522  28.099  1.00  0.00     0.074 A 
ATOM     64  C   UNL A   1      47.008  30.803  27.717  1.00  0.00     0.031 C 
ATOM     65  C   UNL A   1      44.818  31.409  28.720  1.00  0.00     0.034 A 
BRANCH  52  66
ATOM     66  C   UNL A   1      39.114  29.223  29.866  1.00  0.00     0.023 A 
ATOM     67  C   UNL A   1      38.201  29.972  29.101  1.00  0.00     0.031 A 
ATOM     68  C   UNL A   1      38.691  28.770  31.129  1.00  0.00     0.131 A 
ATOM     69  C   UNL A   1      36.958  30.332  29.644  1.00  0.00     0.055 A 
ATOM     70  C   UNL A   1      37.416  29.054  31.625  1.00  0.00     0.041 A 
ATOM     71  F   UNL A   1      39.518  28.066  31.916  1.00  0.00    -0.206 F 
ATOM     72  C   UNL A   1      36.548  29.856  30.890  1.00  0.00     0.022 A 
BRANCH  69  73
ATOM     73  S   UNL A   1      35.963  31.576  28.774  1.00  0.00     0.124 S 
ATOM     74  O   UNL A   1      34.979  31.932  29.795  1.00  0.00    -0.237 OA
ATOM     75  O   UNL A   1      36.950  32.600  28.454  1.00  0.00    -0.237 OA
ATOM     76  O   UNL A   1      35.424  30.846  27.630  1.00  0.00    -0.744 OA
ENDBRANCH  69  73
ENDBRANCH  52  66
BRANCH  53  77
ATOM     77  C   UNL A   1      48.069  27.149  25.862  1.00  0.00     0.023 A 
ATOM     78  C   UNL A   1      48.207  27.325  24.476  1.00  0.00     0.031 A 
ATOM     79  C   UNL A   1      49.191  26.709  26.587  1.00  0.00     0.131 A 
ATOM     80  C   UNL A   1      49.431  27.035  23.854  1.00  0.00     0.055 A 
ATOM     81  C   UNL A   1      50.420  26.464  25.970  1.00  0.00     0.041 A 
ATOM     82  F   UNL A   1      49.115  26.536  27.916  1.00  0.00    -0.206 F 
ATOM     83  C   UNL A   1      50.541  26.619  24.593  1.00  0.00     0.022 A 
BRANCH  80  84
ATOM     84  S   UNL A   1      49.543  27.167  22.048  1.00  0.00     0.124 S 
ATOM     85  O   UNL A   1      49.073  28.528  21.819  1.00  0.00    -0.237 OA
ATOM     86  O   UNL A   1      50.963  26.929  21.814  1.00  0.00    -0.237 OA
ATOM     87  O   UNL A   1      48.650  26.110  21.574  1.00  0.00    -0.744 OA
ENDBRANCH  80  84
ENDBRANCH  53  77
BRANCH  65  88
ATOM     88  C   UNL A   1      45.402  32.763  29.046  1.00  0.00     0.023 A 
ATOM     89  C   UNL A   1      45.241  33.865  28.187  1.00  0.00     0.031 A 
ATOM     90  C   UNL A   1      46.141  32.950  30.229  1.00  0.00     0.131 A 
ATOM     91  C   UNL A   1      45.857  35.087  28.494  1.00  0.00     0.055 A 
ATOM     92  C   UNL A   1      46.698  34.185  30.560  1.00  0.00     0.041 A 
ATOM     93  F   UNL A   1      46.330  31.933  31.083  1.00  0.00    -0.206 F 
ATOM     94  C   UNL A   1      46.570  35.259  29.685  1.00  0.00     0.022 A 
BRANCH  91  95
ATOM     95  S   UNL A   1      45.801  36.425  27.270  1.00  0.00     0.124 S 
ATOM     96  O   UNL A   1      46.120  37.593  28.085  1.00  0.00    -0.237 OA
ATOM     97  O   UNL A   1      46.823  36.016  26.313  1.00  0.00    -0.237 OA
ATOM     98  O   UNL A   1      44.428  36.375  26.771  1.00  0.00    -0.744 OA
ENDBRANCH  91  95
ENDBRANCH  65  88
ENDBRANCH  39  40
ENDBRANCH  31  34
ENDBRANCH  29  30
ENDBRANCH  28  29
ENDBRANCH   1  28
TORSDOF 18
ENDMDL
