MODEL 1
REMARK VINA RESULT:     -12.5      0.000      0.000
REMARK SMILES Cc1ccccc1N(CCC(=O)NCCCNC(=O)c1ccc(-c2c3nc(c(-c4cc(S(=O)(=O)[O-])ccc4F)c4ccc([nH]4)c(-c4cc(S(=O)(=O)[O-])ccc4F)c4nc(c(-c5cc(S(=O)(=O)[O-])ccc5F)c5ccc2[nH]5)C=C4)C=C3)cc1)C(=O)[C@@H]1C=C[C@H]([NH3+])C1
REMARK SMILES IDX 14 1 13 2 11 3 12 4 10 6 9 7 8 8 7 9 1 10 2 11 3 12 4 13
REMARK SMILES IDX 6 14 5 15 83 16 84 17 85 18 86 19 90 20 87 21 88 22 89 23
REMARK SMILES IDX 15 27 16 28 17 29 18 30 19 32 20 33 21 34 82 35 22 36 81 37
REMARK SMILES IDX 23 38 24 39 25 40 75 41 26 42 80 43 74 44 76 45 27 46 79 47
REMARK SMILES IDX 73 48 72 49 28 51 60 52 40 53 59 54 41 55 44 56 58 57 77 58
REMARK SMILES IDX 42 59 43 60 57 62 78 63 45 64 29 65 30 66 38 67 31 68 37 69
REMARK SMILES IDX 39 70 36 71 32 72 33 73 34 74 35 75 61 76 62 77 70 78 63 79
REMARK SMILES IDX 69 80 71 81 68 82 64 83 65 84 66 85 67 86 46 87 47 88 55 89
REMARK SMILES IDX 48 90 54 91 56 92 53 93 49 94 50 95 51 96 52 97
REMARK H PARENT 13 5 89 24 89 25 89 26 17 31 76 50 44 61
REMARK Flexibility Score: inf
ROOT
ATOM      1  C   UNL A   1      33.843  30.448  26.980  1.00  0.00     0.117 C 
ENDROOT
BRANCH   1   2
ATOM      2  N   UNL A   1      32.971  29.515  27.687  1.00  0.00    -0.356 N 
ATOM      3  C   UNL A   1      32.065  28.611  27.219  1.00  0.00     0.221 C 
ATOM      4  O   UNL A   1      31.405  27.922  28.001  1.00  0.00    -0.275 OA
ATOM      5  H   UNL A   1      33.051  29.544  28.667  1.00  0.00     0.163 HD
BRANCH   3   6
ATOM      6  C   UNL A   1      31.819  28.467  25.732  1.00  0.00     0.122 C 
BRANCH   6   7
ATOM      7  C   UNL A   1      32.543  27.268  25.116  1.00  0.00     0.135 C 
BRANCH   7   8
ATOM      8  N   UNL A   1      32.154  27.009  23.708  1.00  0.00    -0.311 N 
BRANCH   8   9
ATOM      9  C   UNL A   1      30.885  27.679  23.246  1.00  0.00     0.047 A 
ATOM     10  C   UNL A   1      28.855  26.245  24.251  1.00  0.00     0.046 C 
ATOM     11  C   UNL A   1      29.523  27.397  23.549  1.00  0.00    -0.027 A 
ATOM     12  C   UNL A   1      28.495  28.314  23.120  1.00  0.00     0.005 A 
ATOM     13  C   UNL A   1      28.736  29.454  22.376  1.00  0.00     0.000 A 
ATOM     14  C   UNL A   1      31.050  28.843  22.424  1.00  0.00     0.026 A 
ATOM     15  C   UNL A   1      30.027  29.705  22.001  1.00  0.00     0.002 A 
ENDBRANCH   8   9
BRANCH   8  16
ATOM     16  C   UNL A   1      32.981  26.130  22.961  1.00  0.00     0.234 C 
ATOM     17  O   UNL A   1      33.419  26.401  21.844  1.00  0.00    -0.274 OA
BRANCH  16  18
ATOM     18  C   UNL A   1      33.476  24.780  23.625  1.00  0.00     0.108 C 
ATOM     19  C   UNL A   1      33.798  23.761  22.556  1.00  0.00    -0.012 C 
ATOM     20  C   UNL A   1      32.429  24.002  24.440  1.00  0.00     0.087 C 
ATOM     21  C   UNL A   1      32.863  22.801  22.488  1.00  0.00     0.033 C 
ATOM     22  C   UNL A   1      31.755  23.046  23.458  1.00  0.00     0.205 C 
BRANCH  22  23
ATOM     23  N   UNL A   1      30.656  23.690  22.752  1.00  0.00    -0.352 N 
ATOM     24  H   UNL A   1      30.880  23.754  21.759  1.00  0.00     0.345 HD
ATOM     25  H   UNL A   1      30.513  24.626  23.130  1.00  0.00     0.345 HD
ATOM     26  H   UNL A   1      29.805  23.141  22.874  1.00  0.00     0.345 HD
ENDBRANCH  22  23
ENDBRANCH  16  18
ENDBRANCH   8  16
ENDBRANCH   7   8
ENDBRANCH   6   7
ENDBRANCH   3   6
ENDBRANCH   1   2
BRANCH   1  27
ATOM     27  C   UNL A   1      33.982  31.790  27.720  1.00  0.00     0.042 C 
BRANCH  27  28
ATOM     28  C   UNL A   1      35.430  32.116  28.066  1.00  0.00     0.118 C 
BRANCH  28  29
ATOM     29  N   UNL A   1      35.802  32.098  29.472  1.00  0.00    -0.352 N 
ATOM     30  C   UNL A   1      36.264  31.140  30.336  1.00  0.00     0.251 C 
ATOM     31  H   UNL A   1      35.699  32.979  29.900  1.00  0.00     0.163 HD
ATOM     32  O   UNL A   1      36.154  31.341  31.538  1.00  0.00    -0.269 OA
BRANCH  30  33
ATOM     33  C   UNL A   1      37.022  29.933  29.889  1.00  0.00     0.039 A 
ATOM     34  C   UNL A   1      37.277  28.954  30.875  1.00  0.00     0.014 A 
ATOM     35  C   UNL A   1      37.572  29.762  28.627  1.00  0.00     0.014 A 
ATOM     36  C   UNL A   1      38.272  27.989  30.690  1.00  0.00     0.010 A 
ATOM     37  C   UNL A   1      38.502  28.753  28.426  1.00  0.00     0.010 A 
ATOM     38  C   UNL A   1      38.956  27.967  29.482  1.00  0.00    -0.014 A 
BRANCH  38  39
ATOM     39  C   UNL A   1      40.307  27.440  29.303  1.00  0.00     0.031 A 
ATOM     40  C   UNL A   1      40.614  26.114  28.751  1.00  0.00     0.074 A 
ATOM     41  C   UNL A   1      41.339  28.283  29.536  1.00  0.00     0.049 A 
ATOM     42  N   UNL A   1      41.608  25.387  29.140  1.00  0.00    -0.248 NA
ATOM     43  C   UNL A   1      39.846  25.532  27.663  1.00  0.00     0.031 C 
ATOM     44  C   UNL A   1      42.750  28.096  29.217  1.00  0.00     0.029 A 
ATOM     45  N   UNL A   1      41.315  29.463  30.265  1.00  0.00    -0.354 N 
ATOM     46  C   UNL A   1      41.794  24.409  28.186  1.00  0.00     0.074 A 
ATOM     47  C   UNL A   1      40.621  24.490  27.338  1.00  0.00     0.031 C 
ATOM     48  C   UNL A   1      43.475  28.975  29.930  1.00  0.00     0.029 A 
ATOM     49  C   UNL A   1      42.572  29.667  30.836  1.00  0.00     0.049 A 
ATOM     50  H   UNL A   1      40.538  30.059  30.363  1.00  0.00     0.167 HD
ATOM     51  C   UNL A   1      42.985  23.744  28.099  1.00  0.00     0.034 A 
ATOM     52  C   UNL A   1      42.694  29.693  32.195  1.00  0.00     0.034 A 
ATOM     53  C   UNL A   1      43.991  24.316  29.001  1.00  0.00     0.049 A 
ATOM     54  C   UNL A   1      43.451  28.508  32.761  1.00  0.00     0.074 A 
ATOM     55  C   UNL A   1      45.080  25.141  28.771  1.00  0.00     0.029 A 
ATOM     56  N   UNL A   1      43.806  24.290  30.377  1.00  0.00    -0.354 N 
ATOM     57  N   UNL A   1      43.845  27.475  32.069  1.00  0.00    -0.248 NA
ATOM     58  C   UNL A   1      43.793  28.387  34.175  1.00  0.00     0.031 C 
ATOM     59  C   UNL A   1      45.516  25.656  30.019  1.00  0.00     0.029 A 
ATOM     60  C   UNL A   1      44.713  25.121  31.012  1.00  0.00     0.049 A 
ATOM     61  H   UNL A   1      43.122  23.753  30.840  1.00  0.00     0.167 HD
ATOM     62  C   UNL A   1      44.371  26.524  32.910  1.00  0.00     0.074 A 
ATOM     63  C   UNL A   1      44.383  27.181  34.206  1.00  0.00     0.031 C 
ATOM     64  C   UNL A   1      44.700  25.270  32.466  1.00  0.00     0.034 A 
BRANCH  51  65
ATOM     65  C   UNL A   1      43.351  22.771  26.992  1.00  0.00     0.023 A 
ATOM     66  C   UNL A   1      42.862  21.446  27.021  1.00  0.00     0.031 A 
ATOM     67  C   UNL A   1      44.150  23.086  25.875  1.00  0.00     0.131 A 
ATOM     68  C   UNL A   1      43.248  20.492  26.060  1.00  0.00     0.055 A 
ATOM     69  C   UNL A   1      44.586  22.124  24.952  1.00  0.00     0.041 A 
ATOM     70  F   UNL A   1      44.494  24.352  25.593  1.00  0.00    -0.206 F 
ATOM     71  C   UNL A   1      44.147  20.814  25.049  1.00  0.00     0.022 A 
BRANCH  68  72
ATOM     72  S   UNL A   1      42.535  18.822  26.127  1.00  0.00     0.124 S 
ATOM     73  O   UNL A   1      41.166  19.049  25.676  1.00  0.00    -0.237 OA
ATOM     74  O   UNL A   1      43.402  18.080  25.217  1.00  0.00    -0.237 OA
ATOM     75  O   UNL A   1      42.665  18.452  27.535  1.00  0.00    -0.744 OA
ENDBRANCH  68  72
ENDBRANCH  51  65
BRANCH  52  76
ATOM     76  C   UNL A   1      41.546  30.373  32.865  1.00  0.00     0.023 A 
ATOM     77  C   UNL A   1      41.459  31.777  32.757  1.00  0.00     0.031 A 
ATOM     78  C   UNL A   1      40.386  29.669  33.225  1.00  0.00     0.131 A 
ATOM     79  C   UNL A   1      40.220  32.426  32.893  1.00  0.00     0.055 A 
ATOM     80  C   UNL A   1      39.158  30.323  33.378  1.00  0.00     0.041 A 
ATOM     81  F   UNL A   1      40.397  28.330  33.304  1.00  0.00    -0.206 F 
ATOM     82  C   UNL A   1      39.062  31.699  33.172  1.00  0.00     0.022 A 
BRANCH  79  83
ATOM     83  S   UNL A   1      40.104  34.192  32.485  1.00  0.00     0.124 S 
ATOM     84  O   UNL A   1      39.562  34.164  31.133  1.00  0.00    -0.237 OA
ATOM     85  O   UNL A   1      39.210  34.705  33.524  1.00  0.00    -0.237 OA
ATOM     86  O   UNL A   1      41.483  34.667  32.600  1.00  0.00    -0.744 OA
ENDBRANCH  79  83
ENDBRANCH  52  76
BRANCH  64  87
ATOM     87  C   UNL A   1      45.096  24.085  33.335  1.00  0.00     0.023 A 
ATOM     88  C   UNL A   1      46.342  23.963  33.966  1.00  0.00     0.031 A 
ATOM     89  C   UNL A   1      44.185  23.032  33.603  1.00  0.00     0.131 A 
ATOM     90  C   UNL A   1      46.681  22.824  34.720  1.00  0.00     0.055 A 
ATOM     91  C   UNL A   1      44.489  21.942  34.428  1.00  0.00     0.041 A 
ATOM     92  F   UNL A   1      42.950  23.011  33.081  1.00  0.00    -0.206 F 
ATOM     93  C   UNL A   1      45.754  21.821  34.978  1.00  0.00     0.022 A 
BRANCH  90  94
ATOM     94  S   UNL A   1      48.394  22.655  35.286  1.00  0.00     0.124 S 
ATOM     95  O   UNL A   1      48.508  21.210  35.468  1.00  0.00    -0.237 OA
ATOM     96  O   UNL A   1      49.150  23.212  34.169  1.00  0.00    -0.237 OA
ATOM     97  O   UNL A   1      48.433  23.440  36.517  1.00  0.00    -0.744 OA
ENDBRANCH  90  94
ENDBRANCH  64  87
ENDBRANCH  38  39
ENDBRANCH  30  33
ENDBRANCH  28  29
ENDBRANCH  27  28
ENDBRANCH   1  27
TORSDOF 19
ENDMDL
MODEL 2
REMARK VINA RESULT:     -12.5      1.925      3.332
REMARK SMILES Cc1ccccc1N(CCC(=O)NCCCNC(=O)c1ccc(-c2c3nc(c(-c4cc(S(=O)(=O)[O-])ccc4F)c4ccc([nH]4)c(-c4cc(S(=O)(=O)[O-])ccc4F)c4nc(c(-c5cc(S(=O)(=O)[O-])ccc5F)c5ccc2[nH]5)C=C4)C=C3)cc1)C(=O)[C@@H]1C=C[C@H]([NH3+])C1
REMARK SMILES IDX 14 1 13 2 11 3 12 4 10 6 9 7 8 8 7 9 1 10 2 11 3 12 4 13
REMARK SMILES IDX 6 14 5 15 83 16 84 17 85 18 86 19 90 20 87 21 88 22 89 23
REMARK SMILES IDX 15 27 16 28 17 29 18 30 19 32 20 33 21 34 82 35 22 36 81 37
REMARK SMILES IDX 23 38 24 39 25 40 75 41 26 42 80 43 74 44 76 45 27 46 79 47
REMARK SMILES IDX 73 48 72 49 28 51 60 52 40 53 59 54 41 55 44 56 58 57 77 58
REMARK SMILES IDX 42 59 43 60 57 62 78 63 45 64 29 65 30 66 38 67 31 68 37 69
REMARK SMILES IDX 39 70 36 71 32 72 33 73 34 74 35 75 61 76 62 77 70 78 63 79
REMARK SMILES IDX 69 80 71 81 68 82 64 83 65 84 66 85 67 86 46 87 47 88 55 89
REMARK SMILES IDX 48 90 54 91 56 92 53 93 49 94 50 95 51 96 52 97
REMARK H PARENT 13 5 89 24 89 25 89 26 17 31 76 50 44 61
REMARK Flexibility Score: inf
ROOT
ATOM      1  C   UNL A   1      33.372  30.585  27.113  1.00  0.00     0.117 C 
ENDROOT
BRANCH   1   2
ATOM      2  N   UNL A   1      32.391  29.593  27.545  1.00  0.00    -0.356 N 
ATOM      3  C   UNL A   1      32.333  28.248  27.341  1.00  0.00     0.221 C 
ATOM      4  O   UNL A   1      31.391  27.585  27.783  1.00  0.00    -0.275 OA
ATOM      5  H   UNL A   1      31.646  29.959  28.073  1.00  0.00     0.163 HD
BRANCH   3   6
ATOM      6  C   UNL A   1      33.401  27.546  26.529  1.00  0.00     0.122 C 
BRANCH   6   7
ATOM      7  C   UNL A   1      33.072  26.080  26.240  1.00  0.00     0.135 C 
BRANCH   7   8
ATOM      8  N   UNL A   1      33.406  25.666  24.856  1.00  0.00    -0.311 N 
BRANCH   8   9
ATOM      9  C   UNL A   1      34.284  24.446  24.731  1.00  0.00     0.047 A 
ATOM     10  C   UNL A   1      32.831  22.587  23.459  1.00  0.00     0.046 C 
ATOM     11  C   UNL A   1      34.059  23.204  24.075  1.00  0.00    -0.027 A 
ATOM     12  C   UNL A   1      35.143  22.262  23.943  1.00  0.00     0.005 A 
ATOM     13  C   UNL A   1      36.410  22.463  24.463  1.00  0.00     0.000 A 
ATOM     14  C   UNL A   1      35.600  24.557  25.292  1.00  0.00     0.026 A 
ATOM     15  C   UNL A   1      36.630  23.612  25.169  1.00  0.00     0.002 A 
ENDBRANCH   8   9
BRANCH   8  16
ATOM     16  C   UNL A   1      32.910  26.476  23.802  1.00  0.00     0.234 C 
ATOM     17  O   UNL A   1      33.633  27.164  23.081  1.00  0.00    -0.274 OA
BRANCH  16  18
ATOM     18  C   UNL A   1      31.370  26.419  23.438  1.00  0.00     0.108 C 
ATOM     19  C   UNL A   1      31.124  27.078  22.101  1.00  0.00    -0.012 C 
ATOM     20  C   UNL A   1      30.433  27.249  24.331  1.00  0.00     0.087 C 
ATOM     21  C   UNL A   1      30.536  28.276  22.239  1.00  0.00     0.033 C 
ATOM     22  C   UNL A   1      30.337  28.626  23.676  1.00  0.00     0.205 C 
BRANCH  22  23
ATOM     23  N   UNL A   1      31.427  29.496  24.097  1.00  0.00    -0.352 N 
ATOM     24  H   UNL A   1      31.064  30.224  24.713  1.00  0.00     0.345 HD
ATOM     25  H   UNL A   1      31.853  29.926  23.276  1.00  0.00     0.345 HD
ATOM     26  H   UNL A   1      32.128  28.946  24.595  1.00  0.00     0.345 HD
ENDBRANCH  22  23
ENDBRANCH  16  18
ENDBRANCH   8  16
ENDBRANCH   7   8
ENDBRANCH   6   7
ENDBRANCH   3   6
ENDBRANCH   1   2
BRANCH   1  27
ATOM     27  C   UNL A   1      34.634  30.577  27.994  1.00  0.00     0.042 C 
BRANCH  27  28
ATOM     28  C   UNL A   1      35.454  31.853  27.844  1.00  0.00     0.118 C 
BRANCH  28  29
ATOM     29  N   UNL A   1      36.445  32.135  28.870  1.00  0.00    -0.352 N 
ATOM     30  C   UNL A   1      37.319  31.376  29.604  1.00  0.00     0.251 C 
ATOM     31  H   UNL A   1      36.503  33.095  29.086  1.00  0.00     0.163 HD
ATOM     32  O   UNL A   1      37.776  31.850  30.635  1.00  0.00    -0.269 OA
BRANCH  30  33
ATOM     33  C   UNL A   1      37.849  30.059  29.138  1.00  0.00     0.039 A 
ATOM     34  C   UNL A   1      37.824  29.007  30.079  1.00  0.00     0.014 A 
ATOM     35  C   UNL A   1      38.450  29.835  27.907  1.00  0.00     0.014 A 
ATOM     36  C   UNL A   1      38.615  27.867  29.903  1.00  0.00     0.010 A 
ATOM     37  C   UNL A   1      39.169  28.666  27.708  1.00  0.00     0.010 A 
ATOM     38  C   UNL A   1      39.372  27.758  28.744  1.00  0.00    -0.014 A 
BRANCH  38  39
ATOM     39  C   UNL A   1      40.598  26.972  28.624  1.00  0.00     0.031 A 
ATOM     40  C   UNL A   1      40.636  25.526  28.375  1.00  0.00     0.074 A 
ATOM     41  C   UNL A   1      41.769  27.649  28.609  1.00  0.00     0.049 A 
ATOM     42  N   UNL A   1      41.528  24.735  28.870  1.00  0.00    -0.248 NA
ATOM     43  C   UNL A   1      39.692  24.869  27.487  1.00  0.00     0.031 C 
ATOM     44  C   UNL A   1      43.099  27.149  28.272  1.00  0.00     0.029 A 
ATOM     45  N   UNL A   1      42.002  28.944  29.049  1.00  0.00    -0.354 N 
ATOM     46  C   UNL A   1      41.469  23.557  28.156  1.00  0.00     0.074 A 
ATOM     47  C   UNL A   1      40.255  23.661  27.370  1.00  0.00     0.031 C 
ATOM     48  C   UNL A   1      44.016  28.018  28.730  1.00  0.00     0.029 A 
ATOM     49  C   UNL A   1      43.320  29.038  29.497  1.00  0.00     0.049 A 
ATOM     50  H   UNL A   1      41.344  29.675  29.047  1.00  0.00     0.167 HD
ATOM     51  C   UNL A   1      42.524  22.688  28.165  1.00  0.00     0.034 A 
ATOM     52  C   UNL A   1      43.563  29.336  30.807  1.00  0.00     0.034 A 
ATOM     53  C   UNL A   1      43.684  23.253  28.862  1.00  0.00     0.049 A 
ATOM     54  C   UNL A   1      44.163  28.185  31.591  1.00  0.00     0.074 A 
ATOM     55  C   UNL A   1      44.869  23.801  28.398  1.00  0.00     0.029 A 
ATOM     56  N   UNL A   1      43.619  23.558  30.216  1.00  0.00    -0.354 N 
ATOM     57  N   UNL A   1      44.323  26.974  31.134  1.00  0.00    -0.248 NA
ATOM     58  C   UNL A   1      44.604  28.314  32.977  1.00  0.00     0.031 C 
ATOM     59  C   UNL A   1      45.490  24.487  29.474  1.00  0.00     0.029 A 
ATOM     60  C   UNL A   1      44.701  24.331  30.600  1.00  0.00     0.049 A 
ATOM     61  H   UNL A   1      42.900  23.264  30.822  1.00  0.00     0.167 HD
ATOM     62  C   UNL A   1      44.758  26.149  32.143  1.00  0.00     0.074 A 
ATOM     63  C   UNL A   1      44.990  27.057  33.253  1.00  0.00     0.031 C 
ATOM     64  C   UNL A   1      44.839  24.790  31.981  1.00  0.00     0.034 A 
BRANCH  51  65
ATOM     65  C   UNL A   1      42.629  21.449  27.292  1.00  0.00     0.023 A 
ATOM     66  C   UNL A   1      43.700  21.313  26.381  1.00  0.00     0.031 A 
ATOM     67  C   UNL A   1      41.732  20.363  27.324  1.00  0.00     0.131 A 
ATOM     68  C   UNL A   1      43.786  20.221  25.495  1.00  0.00     0.055 A 
ATOM     69  C   UNL A   1      41.779  19.307  26.403  1.00  0.00     0.041 A 
ATOM     70  F   UNL A   1      40.807  20.245  28.288  1.00  0.00    -0.206 F 
ATOM     71  C   UNL A   1      42.802  19.238  25.471  1.00  0.00     0.022 A 
BRANCH  68  72
ATOM     72  S   UNL A   1      45.220  20.081  24.390  1.00  0.00     0.124 S 
ATOM     73  O   UNL A   1      46.080  21.165  24.856  1.00  0.00    -0.237 OA
ATOM     74  O   UNL A   1      45.686  18.725  24.658  1.00  0.00    -0.237 OA
ATOM     75  O   UNL A   1      44.646  20.281  23.060  1.00  0.00    -0.744 OA
ENDBRANCH  68  72
ENDBRANCH  51  65
BRANCH  52  76
ATOM     76  C   UNL A   1      42.604  30.337  31.360  1.00  0.00     0.023 A 
ATOM     77  C   UNL A   1      41.583  29.869  32.212  1.00  0.00     0.031 A 
ATOM     78  C   UNL A   1      42.913  31.706  31.395  1.00  0.00     0.131 A 
ATOM     79  C   UNL A   1      40.984  30.731  33.146  1.00  0.00     0.055 A 
ATOM     80  C   UNL A   1      42.299  32.565  32.314  1.00  0.00     0.041 A 
ATOM     81  F   UNL A   1      43.901  32.204  30.636  1.00  0.00    -0.206 F 
ATOM     82  C   UNL A   1      41.361  32.073  33.221  1.00  0.00     0.022 A 
BRANCH  79  83
ATOM     83  S   UNL A   1      39.870  30.032  34.399  1.00  0.00     0.124 S 
ATOM     84  O   UNL A   1      39.551  31.197  35.215  1.00  0.00    -0.237 OA
ATOM     85  O   UNL A   1      38.773  29.494  33.594  1.00  0.00    -0.237 OA
ATOM     86  O   UNL A   1      40.684  29.009  35.057  1.00  0.00    -0.744 OA
ENDBRANCH  79  83
ENDBRANCH  52  76
BRANCH  64  87
ATOM     87  C   UNL A   1      45.111  23.770  33.076  1.00  0.00     0.023 A 
ATOM     88  C   UNL A   1      46.349  23.628  33.718  1.00  0.00     0.031 A 
ATOM     89  C   UNL A   1      44.087  22.916  33.558  1.00  0.00     0.131 A 
ATOM     90  C   UNL A   1      46.568  22.636  34.692  1.00  0.00     0.055 A 
ATOM     91  C   UNL A   1      44.279  21.990  34.591  1.00  0.00     0.041 A 
ATOM     92  F   UNL A   1      42.845  22.941  33.052  1.00  0.00    -0.206 F 
ATOM     93  C   UNL A   1      45.533  21.829  35.154  1.00  0.00     0.022 A 
BRANCH  90  94
ATOM     94  S   UNL A   1      48.262  22.375  35.280  1.00  0.00     0.124 S 
ATOM     95  O   UNL A   1      49.048  22.981  34.208  1.00  0.00    -0.237 OA
ATOM     96  O   UNL A   1      48.269  23.093  36.550  1.00  0.00    -0.237 OA
ATOM     97  O   UNL A   1      48.374  20.922  35.386  1.00  0.00    -0.744 OA
ENDBRANCH  90  94
ENDBRANCH  64  87
ENDBRANCH  38  39
ENDBRANCH  30  33
ENDBRANCH  28  29
ENDBRANCH  27  28
ENDBRANCH   1  27
TORSDOF 19
ENDMDL
MODEL 3
REMARK VINA RESULT:     -12.3      1.023      2.554
REMARK SMILES Cc1ccccc1N(CCC(=O)NCCCNC(=O)c1ccc(-c2c3nc(c(-c4cc(S(=O)(=O)[O-])ccc4F)c4ccc([nH]4)c(-c4cc(S(=O)(=O)[O-])ccc4F)c4nc(c(-c5cc(S(=O)(=O)[O-])ccc5F)c5ccc2[nH]5)C=C4)C=C3)cc1)C(=O)[C@@H]1C=C[C@H]([NH3+])C1
REMARK SMILES IDX 14 1 13 2 11 3 12 4 10 6 9 7 8 8 7 9 1 10 2 11 3 12 4 13
REMARK SMILES IDX 6 14 5 15 83 16 84 17 85 18 86 19 90 20 87 21 88 22 89 23
REMARK SMILES IDX 15 27 16 28 17 29 18 30 19 32 20 33 21 34 82 35 22 36 81 37
REMARK SMILES IDX 23 38 24 39 25 40 75 41 26 42 80 43 74 44 76 45 27 46 79 47
REMARK SMILES IDX 73 48 72 49 28 51 60 52 40 53 59 54 41 55 44 56 58 57 77 58
REMARK SMILES IDX 42 59 43 60 57 62 78 63 45 64 29 65 30 66 38 67 31 68 37 69
REMARK SMILES IDX 39 70 36 71 32 72 33 73 34 74 35 75 61 76 62 77 70 78 63 79
REMARK SMILES IDX 69 80 71 81 68 82 64 83 65 84 66 85 67 86 46 87 47 88 55 89
REMARK SMILES IDX 48 90 54 91 56 92 53 93 49 94 50 95 51 96 52 97
REMARK H PARENT 13 5 89 24 89 25 89 26 17 31 76 50 44 61
REMARK Flexibility Score: inf
ROOT
ATOM      1  C   UNL A   1      33.673  31.644  27.588  1.00  0.00     0.117 C 
ENDROOT
BRANCH   1   2
ATOM      2  N   UNL A   1      34.643  30.603  27.260  1.00  0.00    -0.356 N 
ATOM      3  C   UNL A   1      34.478  29.270  27.032  1.00  0.00     0.221 C 
ATOM      4  O   UNL A   1      35.449  28.551  26.785  1.00  0.00    -0.275 OA
ATOM      5  H   UNL A   1      35.573  30.918  27.192  1.00  0.00     0.163 HD
BRANCH   3   6
ATOM      6  C   UNL A   1      33.105  28.639  27.120  1.00  0.00     0.122 C 
BRANCH   6   7
ATOM      7  C   UNL A   1      33.065  27.207  26.581  1.00  0.00     0.135 C 
BRANCH   7   8
ATOM      8  N   UNL A   1      32.752  27.135  25.133  1.00  0.00    -0.311 N 
BRANCH   8   9
ATOM      9  C   UNL A   1      33.036  25.813  24.467  1.00  0.00     0.047 A 
ATOM     10  C   UNL A   1      33.097  26.284  21.829  1.00  0.00     0.046 C 
ATOM     11  C   UNL A   1      33.259  25.491  23.099  1.00  0.00    -0.027 A 
ATOM     12  C   UNL A   1      33.699  24.165  22.742  1.00  0.00     0.005 A 
ATOM     13  C   UNL A   1      33.881  23.139  23.652  1.00  0.00     0.000 A 
ATOM     14  C   UNL A   1      33.189  24.686  25.342  1.00  0.00     0.026 A 
ATOM     15  C   UNL A   1      33.595  23.398  24.964  1.00  0.00     0.002 A 
ENDBRANCH   8   9
BRANCH   8  16
ATOM     16  C   UNL A   1      32.265  28.318  24.518  1.00  0.00     0.234 C 
ATOM     17  O   UNL A   1      32.976  29.080  23.863  1.00  0.00    -0.274 OA
BRANCH  16  18
ATOM     18  C   UNL A   1      30.713  28.632  24.559  1.00  0.00     0.108 C 
ATOM     19  C   UNL A   1      29.964  27.684  23.651  1.00  0.00    -0.012 C 
ATOM     20  C   UNL A   1      30.280  29.982  23.965  1.00  0.00     0.087 C 
ATOM     21  C   UNL A   1      29.550  28.294  22.530  1.00  0.00     0.033 C 
ATOM     22  C   UNL A   1      29.990  29.720  22.489  1.00  0.00     0.205 C 
BRANCH  22  23
ATOM     23  N   UNL A   1      31.199  29.808  21.681  1.00  0.00    -0.352 N 
ATOM     24  H   UNL A   1      30.948  29.821  20.692  1.00  0.00     0.345 HD
ATOM     25  H   UNL A   1      31.793  29.002  21.871  1.00  0.00     0.345 HD
ATOM     26  H   UNL A   1      31.703  30.664  21.916  1.00  0.00     0.345 HD
ENDBRANCH  22  23
ENDBRANCH  16  18
ENDBRANCH   8  16
ENDBRANCH   7   8
ENDBRANCH   6   7
ENDBRANCH   3   6
ENDBRANCH   1   2
BRANCH   1  27
ATOM     27  C   UNL A   1      34.337  32.877  28.229  1.00  0.00     0.042 C 
BRANCH  27  28
ATOM     28  C   UNL A   1      35.774  32.606  28.657  1.00  0.00     0.118 C 
BRANCH  28  29
ATOM     29  N   UNL A   1      36.008  32.298  30.060  1.00  0.00    -0.352 N 
ATOM     30  C   UNL A   1      36.349  31.168  30.756  1.00  0.00     0.251 C 
ATOM     31  H   UNL A   1      35.896  33.084  30.642  1.00  0.00     0.163 HD
ATOM     32  O   UNL A   1      36.130  31.139  31.960  1.00  0.00    -0.269 OA
BRANCH  30  33
ATOM     33  C   UNL A   1      37.102  30.029  30.149  1.00  0.00     0.039 A 
ATOM     34  C   UNL A   1      37.264  28.884  30.960  1.00  0.00     0.014 A 
ATOM     35  C   UNL A   1      37.730  30.061  28.913  1.00  0.00     0.014 A 
ATOM     36  C   UNL A   1      38.243  27.929  30.667  1.00  0.00     0.010 A 
ATOM     37  C   UNL A   1      38.644  29.068  28.592  1.00  0.00     0.010 A 
ATOM     38  C   UNL A   1      39.005  28.093  29.518  1.00  0.00    -0.014 A 
BRANCH  38  39
ATOM     39  C   UNL A   1      40.350  27.553  29.331  1.00  0.00     0.031 A 
ATOM     40  C   UNL A   1      40.642  26.225  28.777  1.00  0.00     0.074 A 
ATOM     41  C   UNL A   1      41.390  28.388  29.558  1.00  0.00     0.049 A 
ATOM     42  N   UNL A   1      41.631  25.489  29.159  1.00  0.00    -0.248 NA
ATOM     43  C   UNL A   1      39.862  25.651  27.694  1.00  0.00     0.031 C 
ATOM     44  C   UNL A   1      42.798  28.188  29.230  1.00  0.00     0.029 A 
ATOM     45  N   UNL A   1      41.381  29.568  30.287  1.00  0.00    -0.354 N 
ATOM     46  C   UNL A   1      41.804  24.510  28.204  1.00  0.00     0.074 A 
ATOM     47  C   UNL A   1      40.626  24.602  27.363  1.00  0.00     0.031 C 
ATOM     48  C   UNL A   1      43.535  29.061  29.939  1.00  0.00     0.029 A 
ATOM     49  C   UNL A   1      42.644  29.760  30.850  1.00  0.00     0.049 A 
ATOM     50  H   UNL A   1      40.611  30.171  30.390  1.00  0.00     0.167 HD
ATOM     51  C   UNL A   1      42.988  23.835  28.110  1.00  0.00     0.034 A 
ATOM     52  C   UNL A   1      42.774  29.785  32.209  1.00  0.00     0.034 A 
ATOM     53  C   UNL A   1      44.004  24.398  29.005  1.00  0.00     0.049 A 
ATOM     54  C   UNL A   1      43.524  28.593  32.770  1.00  0.00     0.074 A 
ATOM     55  C   UNL A   1      45.100  25.213  28.770  1.00  0.00     0.029 A 
ATOM     56  N   UNL A   1      43.828  24.373  30.383  1.00  0.00    -0.354 N 
ATOM     57  N   UNL A   1      43.905  27.557  32.075  1.00  0.00    -0.248 NA
ATOM     58  C   UNL A   1      43.873  28.469  34.182  1.00  0.00     0.031 C 
ATOM     59  C   UNL A   1      45.548  25.724  30.015  1.00  0.00     0.029 A 
ATOM     60  C   UNL A   1      44.746  25.196  31.013  1.00  0.00     0.049 A 
ATOM     61  H   UNL A   1      43.142  23.841  30.849  1.00  0.00     0.167 HD
ATOM     62  C   UNL A   1      44.427  26.601  32.913  1.00  0.00     0.074 A 
ATOM     63  C   UNL A   1      44.453  27.257  34.210  1.00  0.00     0.031 C 
ATOM     64  C   UNL A   1      44.743  25.344  32.467  1.00  0.00     0.034 A 
BRANCH  51  65
ATOM     65  C   UNL A   1      43.339  22.859  27.000  1.00  0.00     0.023 A 
ATOM     66  C   UNL A   1      42.841  21.537  27.034  1.00  0.00     0.031 A 
ATOM     67  C   UNL A   1      44.131  23.169  25.876  1.00  0.00     0.131 A 
ATOM     68  C   UNL A   1      43.214  20.580  26.071  1.00  0.00     0.055 A 
ATOM     69  C   UNL A   1      44.554  22.203  24.951  1.00  0.00     0.041 A 
ATOM     70  F   UNL A   1      44.481  24.431  25.591  1.00  0.00    -0.206 F 
ATOM     71  C   UNL A   1      44.106  20.896  25.052  1.00  0.00     0.022 A 
BRANCH  68  72
ATOM     72  S   UNL A   1      42.491  18.915  26.144  1.00  0.00     0.124 S 
ATOM     73  O   UNL A   1      43.380  18.151  25.275  1.00  0.00    -0.237 OA
ATOM     74  O   UNL A   1      42.561  18.610  27.570  1.00  0.00    -0.237 OA
ATOM     75  O   UNL A   1      41.138  19.108  25.624  1.00  0.00    -0.744 OA
ENDBRANCH  68  72
ENDBRANCH  51  65
BRANCH  52  76
ATOM     76  C   UNL A   1      41.636  30.475  32.886  1.00  0.00     0.023 A 
ATOM     77  C   UNL A   1      41.616  31.885  32.865  1.00  0.00     0.031 A 
ATOM     78  C   UNL A   1      40.434  29.804  33.165  1.00  0.00     0.131 A 
ATOM     79  C   UNL A   1      40.404  32.581  33.005  1.00  0.00     0.055 A 
ATOM     80  C   UNL A   1      39.233  30.504  33.322  1.00  0.00     0.041 A 
ATOM     81  F   UNL A   1      40.383  28.464  33.159  1.00  0.00    -0.206 F 
ATOM     82  C   UNL A   1      39.205  31.893  33.202  1.00  0.00     0.022 A 
BRANCH  79  83
ATOM     83  S   UNL A   1      40.380  34.373  32.708  1.00  0.00     0.124 S 
ATOM     84  O   UNL A   1      40.664  34.911  34.032  1.00  0.00    -0.237 OA
ATOM     85  O   UNL A   1      41.432  34.548  31.706  1.00  0.00    -0.237 OA
ATOM     86  O   UNL A   1      39.029  34.625  32.204  1.00  0.00    -0.744 OA
ENDBRANCH  79  83
ENDBRANCH  52  76
BRANCH  64  87
ATOM     87  C   UNL A   1      45.133  24.155  33.333  1.00  0.00     0.023 A 
ATOM     88  C   UNL A   1      46.417  23.966  33.864  1.00  0.00     0.031 A 
ATOM     89  C   UNL A   1      44.183  23.170  33.704  1.00  0.00     0.131 A 
ATOM     90  C   UNL A   1      46.745  22.825  34.619  1.00  0.00     0.055 A 
ATOM     91  C   UNL A   1      44.485  22.082  34.531  1.00  0.00     0.041 A 
ATOM     92  F   UNL A   1      42.909  23.219  33.284  1.00  0.00    -0.206 F 
ATOM     93  C   UNL A   1      45.780  21.891  34.979  1.00  0.00     0.022 A 
BRANCH  90  94
ATOM     94  S   UNL A   1      48.485  22.556  35.047  1.00  0.00     0.124 S 
ATOM     95  O   UNL A   1      48.712  21.204  34.542  1.00  0.00    -0.237 OA
ATOM     96  O   UNL A   1      49.157  23.625  34.316  1.00  0.00    -0.237 OA
ATOM     97  O   UNL A   1      48.509  22.686  36.502  1.00  0.00    -0.744 OA
ENDBRANCH  90  94
ENDBRANCH  64  87
ENDBRANCH  38  39
ENDBRANCH  30  33
ENDBRANCH  28  29
ENDBRANCH  27  28
ENDBRANCH   1  27
TORSDOF 19
ENDMDL
