MODEL 1
REMARK VINA RESULT:     -10.7      0.000      0.000
REMARK SMILES C[C@H](C1CCCC1)[N@@H+](CC(=O)NCCCNC(=O)c1ccc(-c2c3nc(c(-c4cc(S(=O)(=O)[O-])ccc4F)c4ccc([nH]4)c(-c4cc(S(=O)(=O)[O-])ccc4F)c4nc(c(-c5cc(S(=O)(=O)[O-])ccc5F)c5ccc2[nH]5)C=C4)C=C3)cc1)CC(F)(F)F
REMARK SMILES IDX 14 1 13 2 12 3 10 4 11 5 9 7 8 8 2 10 1 11 3 12 4 13 7 14
REMARK SMILES IDX 5 15 6 16 82 17 83 18 84 19 85 20 86 21 15 22 16 23 17 24
REMARK SMILES IDX 18 26 19 27 20 28 81 29 21 30 80 31 22 32 23 33 24 34 74 35
REMARK SMILES IDX 25 36 79 37 73 38 75 39 26 40 78 41 72 42 71 43 27 45 59 46
REMARK SMILES IDX 39 47 58 48 40 49 43 50 57 51 76 52 41 53 42 54 56 56 77 57
REMARK SMILES IDX 44 58 28 59 29 60 37 61 30 62 36 63 38 64 35 65 31 66 32 67
REMARK SMILES IDX 33 68 34 69 60 70 61 71 69 72 62 73 68 74 70 75 67 76 63 77
REMARK SMILES IDX 64 78 65 79 66 80 45 81 46 82 54 83 47 84 53 85 55 86 52 87
REMARK SMILES IDX 48 88 49 89 50 90 51 91
REMARK H PARENT 12 6 8 9 16 25 75 44 43 55
REMARK Flexibility Score: inf
ROOT
ATOM      1  C   UNL A   1      31.635  28.925  25.293  1.00  0.00     0.042 C 
ENDROOT
BRANCH   1   2
ATOM      2  C   UNL A   1      31.535  28.887  23.761  1.00  0.00     0.118 C 
BRANCH   2   3
ATOM      3  N   UNL A   1      32.795  28.823  23.041  1.00  0.00    -0.351 N 
ATOM      4  C   UNL A   1      33.441  27.805  22.408  1.00  0.00     0.275 C 
ATOM      5  O   UNL A   1      34.367  28.126  21.658  1.00  0.00    -0.269 OA
ATOM      6  H   UNL A   1      33.274  29.683  23.002  1.00  0.00     0.163 HD
BRANCH   4   7
ATOM      7  C   UNL A   1      33.034  26.341  22.571  1.00  0.00     0.364 C 
BRANCH   7   8
ATOM      8  N   UNL A   1      33.902  25.527  23.444  1.00  0.00    -0.317 N 
ATOM      9  H   UNL A   1      34.812  25.982  23.371  1.00  0.00     0.349 HD
BRANCH   8  10
ATOM     10  C   UNL A   1      34.328  24.235  22.908  1.00  0.00     0.184 C 
ATOM     11  C   UNL A   1      33.189  23.401  22.317  1.00  0.00     0.075 C 
BRANCH  10  12
ATOM     12  C   UNL A   1      35.231  23.350  23.814  1.00  0.00     0.047 C 
ATOM     13  C   UNL A   1      34.640  22.045  24.350  1.00  0.00     0.010 C 
ATOM     14  C   UNL A   1      36.567  22.890  23.231  1.00  0.00     0.010 C 
ATOM     15  C   UNL A   1      35.845  21.342  24.976  1.00  0.00     0.001 C 
ATOM     16  C   UNL A   1      37.072  21.843  24.216  1.00  0.00     0.001 C 
ENDBRANCH  10  12
ENDBRANCH   8  10
BRANCH   8  17
ATOM     17  C   UNL A   1      33.810  25.752  24.900  1.00  0.00     0.379 C 
BRANCH  17  18
ATOM     18  C   UNL A   1      32.749  25.158  25.857  1.00  0.00     0.438 C 
ATOM     19  F   UNL A   1      31.726  24.564  25.214  1.00  0.00    -0.165 F 
ATOM     20  F   UNL A   1      33.336  24.194  26.618  1.00  0.00    -0.165 F 
ATOM     21  F   UNL A   1      32.242  26.059  26.715  1.00  0.00    -0.165 F 
ENDBRANCH  17  18
ENDBRANCH   8  17
ENDBRANCH   7   8
ENDBRANCH   4   7
ENDBRANCH   2   3
ENDBRANCH   1   2
BRANCH   1  22
ATOM     22  C   UNL A   1      32.933  29.471  25.898  1.00  0.00     0.118 C 
BRANCH  22  23
ATOM     23  N   UNL A   1      32.783  30.835  26.363  1.00  0.00    -0.352 N 
ATOM     24  C   UNL A   1      33.507  31.529  27.301  1.00  0.00     0.251 C 
ATOM     25  H   UNL A   1      32.050  31.342  25.943  1.00  0.00     0.163 HD
ATOM     26  O   UNL A   1      33.028  32.570  27.754  1.00  0.00    -0.269 OA
BRANCH  24  27
ATOM     27  C   UNL A   1      34.836  31.066  27.784  1.00  0.00     0.039 A 
ATOM     28  C   UNL A   1      34.951  29.748  28.243  1.00  0.00     0.014 A 
ATOM     29  C   UNL A   1      35.925  31.934  27.923  1.00  0.00     0.014 A 
ATOM     30  C   UNL A   1      36.141  29.301  28.831  1.00  0.00     0.010 A 
ATOM     31  C   UNL A   1      37.129  31.474  28.477  1.00  0.00     0.010 A 
ATOM     32  C   UNL A   1      37.244  30.159  28.959  1.00  0.00    -0.014 A 
BRANCH  32  33
ATOM     33  C   UNL A   1      38.488  29.705  29.648  1.00  0.00     0.031 A 
ATOM     34  C   UNL A   1      38.850  30.254  31.006  1.00  0.00     0.074 A 
ATOM     35  C   UNL A   1      39.309  28.815  29.057  1.00  0.00     0.049 A 
ATOM     36  N   UNL A   1      39.909  30.023  31.742  1.00  0.00    -0.248 NA
ATOM     37  C   UNL A   1      37.898  31.200  31.604  1.00  0.00     0.031 C 
ATOM     38  C   UNL A   1      39.089  28.209  27.744  1.00  0.00     0.029 A 
ATOM     39  N   UNL A   1      40.500  28.272  29.479  1.00  0.00    -0.354 N 
ATOM     40  C   UNL A   1      39.759  30.806  32.885  1.00  0.00     0.074 A 
ATOM     41  C   UNL A   1      38.528  31.550  32.716  1.00  0.00     0.031 C 
ATOM     42  C   UNL A   1      40.110  27.383  27.465  1.00  0.00     0.029 A 
ATOM     43  C   UNL A   1      41.077  27.425  28.560  1.00  0.00     0.049 A 
ATOM     44  H   UNL A   1      40.902  28.471  30.354  1.00  0.00     0.167 HD
ATOM     45  C   UNL A   1      40.560  30.884  33.979  1.00  0.00     0.034 A 
ATOM     46  C   UNL A   1      42.258  26.772  28.583  1.00  0.00     0.034 A 
ATOM     47  C   UNL A   1      41.783  30.132  34.144  1.00  0.00     0.049 A 
ATOM     48  C   UNL A   1      43.153  26.899  29.790  1.00  0.00     0.074 A 
ATOM     49  C   UNL A   1      42.636  30.099  35.235  1.00  0.00     0.029 A 
ATOM     50  N   UNL A   1      42.338  29.291  33.187  1.00  0.00    -0.354 N 
ATOM     51  N   UNL A   1      42.974  27.610  30.880  1.00  0.00    -0.248 NA
ATOM     52  C   UNL A   1      44.404  26.128  29.774  1.00  0.00     0.031 C 
ATOM     53  C   UNL A   1      43.736  29.294  34.914  1.00  0.00     0.029 A 
ATOM     54  C   UNL A   1      43.536  28.764  33.650  1.00  0.00     0.049 A 
ATOM     55  H   UNL A   1      41.938  29.096  32.309  1.00  0.00     0.167 HD
ATOM     56  C   UNL A   1      44.079  27.350  31.688  1.00  0.00     0.074 A 
ATOM     57  C   UNL A   1      44.911  26.410  30.966  1.00  0.00     0.031 C 
ATOM     58  C   UNL A   1      44.371  27.840  32.918  1.00  0.00     0.034 A 
BRANCH  45  59
ATOM     59  C   UNL A   1      40.152  31.849  35.069  1.00  0.00     0.023 A 
ATOM     60  C   UNL A   1      39.323  31.456  36.133  1.00  0.00     0.031 A 
ATOM     61  C   UNL A   1      40.573  33.191  35.026  1.00  0.00     0.131 A 
ATOM     62  C   UNL A   1      38.873  32.408  37.061  1.00  0.00     0.055 A 
ATOM     63  C   UNL A   1      40.189  34.115  36.000  1.00  0.00     0.041 A 
ATOM     64  F   UNL A   1      41.354  33.631  34.027  1.00  0.00    -0.206 F 
ATOM     65  C   UNL A   1      39.319  33.731  37.015  1.00  0.00     0.022 A 
BRANCH  62  66
ATOM     66  S   UNL A   1      37.572  31.930  38.231  1.00  0.00     0.124 S 
ATOM     67  O   UNL A   1      38.268  32.045  39.510  1.00  0.00    -0.237 OA
ATOM     68  O   UNL A   1      36.539  32.932  37.977  1.00  0.00    -0.237 OA
ATOM     69  O   UNL A   1      37.233  30.569  37.833  1.00  0.00    -0.744 OA
ENDBRANCH  62  66
ENDBRANCH  45  59
BRANCH  46  70
ATOM     70  C   UNL A   1      42.684  25.962  27.406  1.00  0.00     0.023 A 
ATOM     71  C   UNL A   1      42.294  24.621  27.263  1.00  0.00     0.031 A 
ATOM     72  C   UNL A   1      43.518  26.518  26.420  1.00  0.00     0.131 A 
ATOM     73  C   UNL A   1      42.768  23.870  26.175  1.00  0.00     0.055 A 
ATOM     74  C   UNL A   1      43.949  25.781  25.317  1.00  0.00     0.041 A 
ATOM     75  F   UNL A   1      43.915  27.798  26.510  1.00  0.00    -0.206 F 
ATOM     76  C   UNL A   1      43.582  24.444  25.195  1.00  0.00     0.022 A 
BRANCH  73  77
ATOM     77  S   UNL A   1      42.356  22.105  26.090  1.00  0.00     0.124 S 
ATOM     78  O   UNL A   1      40.902  22.145  25.975  1.00  0.00    -0.237 OA
ATOM     79  O   UNL A   1      43.082  21.683  24.897  1.00  0.00    -0.237 OA
ATOM     80  O   UNL A   1      42.870  21.574  27.350  1.00  0.00    -0.744 OA
ENDBRANCH  73  77
ENDBRANCH  46  70
BRANCH  58  81
ATOM     81  C   UNL A   1      45.631  27.333  33.581  1.00  0.00     0.023 A 
ATOM     82  C   UNL A   1      45.633  26.178  34.384  1.00  0.00     0.031 A 
ATOM     83  C   UNL A   1      46.845  28.021  33.408  1.00  0.00     0.131 A 
ATOM     84  C   UNL A   1      46.817  25.771  35.020  1.00  0.00     0.055 A 
ATOM     85  C   UNL A   1      48.030  27.582  34.002  1.00  0.00     0.041 A 
ATOM     86  F   UNL A   1      46.900  29.131  32.655  1.00  0.00    -0.206 F 
ATOM     87  C   UNL A   1      48.018  26.457  34.822  1.00  0.00     0.022 A 
BRANCH  84  88
ATOM     88  S   UNL A   1      46.754  24.372  36.174  1.00  0.00     0.124 S 
ATOM     89  O   UNL A   1      46.586  25.045  37.458  1.00  0.00    -0.237 OA
ATOM     90  O   UNL A   1      45.600  23.621  35.692  1.00  0.00    -0.237 OA
ATOM     91  O   UNL A   1      48.045  23.712  35.984  1.00  0.00    -0.744 OA
ENDBRANCH  84  88
ENDBRANCH  58  81
ENDBRANCH  32  33
ENDBRANCH  24  27
ENDBRANCH  22  23
ENDBRANCH   1  22
TORSDOF 18
ENDMDL
MODEL 2
REMARK VINA RESULT:     -10.6      1.146      7.683
REMARK SMILES C[C@H](C1CCCC1)[N@@H+](CC(=O)NCCCNC(=O)c1ccc(-c2c3nc(c(-c4cc(S(=O)(=O)[O-])ccc4F)c4ccc([nH]4)c(-c4cc(S(=O)(=O)[O-])ccc4F)c4nc(c(-c5cc(S(=O)(=O)[O-])ccc5F)c5ccc2[nH]5)C=C4)C=C3)cc1)CC(F)(F)F
REMARK SMILES IDX 14 1 13 2 12 3 10 4 11 5 9 7 8 8 2 10 1 11 3 12 4 13 7 14
REMARK SMILES IDX 5 15 6 16 82 17 83 18 84 19 85 20 86 21 15 22 16 23 17 24
REMARK SMILES IDX 18 26 19 27 20 28 81 29 21 30 80 31 22 32 23 33 24 34 74 35
REMARK SMILES IDX 25 36 79 37 73 38 75 39 26 40 78 41 72 42 71 43 27 45 59 46
REMARK SMILES IDX 39 47 58 48 40 49 43 50 57 51 76 52 41 53 42 54 56 56 77 57
REMARK SMILES IDX 44 58 28 59 29 60 37 61 30 62 36 63 38 64 35 65 31 66 32 67
REMARK SMILES IDX 33 68 34 69 60 70 61 71 69 72 62 73 68 74 70 75 67 76 63 77
REMARK SMILES IDX 64 78 65 79 66 80 45 81 46 82 54 83 47 84 53 85 55 86 52 87
REMARK SMILES IDX 48 88 49 89 50 90 51 91
REMARK H PARENT 12 6 8 9 16 25 75 44 43 55
REMARK Flexibility Score: inf
ROOT
ATOM      1  C   UNL A   1      31.321  29.252  24.916  1.00  0.00     0.042 C 
ENDROOT
BRANCH   1   2
ATOM      2  C   UNL A   1      31.374  29.104  23.388  1.00  0.00     0.118 C 
BRANCH   2   3
ATOM      3  N   UNL A   1      32.697  28.963  22.806  1.00  0.00    -0.351 N 
ATOM      4  C   UNL A   1      33.335  27.916  22.215  1.00  0.00     0.275 C 
ATOM      5  O   UNL A   1      34.357  28.185  21.579  1.00  0.00    -0.269 OA
ATOM      6  H   UNL A   1      33.237  29.786  22.846  1.00  0.00     0.163 HD
BRANCH   4   7
ATOM      7  C   UNL A   1      32.810  26.483  22.287  1.00  0.00     0.364 C 
BRANCH   7   8
ATOM      8  N   UNL A   1      33.561  25.567  23.169  1.00  0.00    -0.317 N 
ATOM      9  H   UNL A   1      34.499  25.560  22.766  1.00  0.00     0.349 HD
BRANCH   8  10
ATOM     10  C   UNL A   1      33.301  24.140  22.991  1.00  0.00     0.184 C 
ATOM     11  C   UNL A   1      31.815  23.773  23.004  1.00  0.00     0.075 C 
BRANCH  10  12
ATOM     12  C   UNL A   1      34.109  23.152  23.880  1.00  0.00     0.047 C 
ATOM     13  C   UNL A   1      33.657  21.691  23.913  1.00  0.00     0.010 C 
ATOM     14  C   UNL A   1      35.607  23.024  23.598  1.00  0.00     0.010 C 
ATOM     15  C   UNL A   1      34.786  20.988  24.667  1.00  0.00     0.001 C 
ATOM     16  C   UNL A   1      36.046  21.814  24.413  1.00  0.00     0.001 C 
ENDBRANCH  10  12
ENDBRANCH   8  10
BRANCH   8  17
ATOM     17  C   UNL A   1      34.030  26.099  24.464  1.00  0.00     0.379 C 
BRANCH  17  18
ATOM     18  C   UNL A   1      33.295  25.990  25.823  1.00  0.00     0.438 C 
ATOM     19  F   UNL A   1      33.619  24.881  26.514  1.00  0.00    -0.165 F 
ATOM     20  F   UNL A   1      33.655  27.048  26.600  1.00  0.00    -0.165 F 
ATOM     21  F   UNL A   1      31.958  26.043  25.709  1.00  0.00    -0.165 F 
ENDBRANCH  17  18
ENDBRANCH   8  17
ENDBRANCH   7   8
ENDBRANCH   4   7
ENDBRANCH   2   3
ENDBRANCH   1   2
BRANCH   1  22
ATOM     22  C   UNL A   1      32.535  29.892  25.600  1.00  0.00     0.118 C 
BRANCH  22  23
ATOM     23  N   UNL A   1      32.256  31.241  26.049  1.00  0.00    -0.352 N 
ATOM     24  C   UNL A   1      32.841  31.972  27.055  1.00  0.00     0.251 C 
ATOM     25  H   UNL A   1      31.538  31.705  25.559  1.00  0.00     0.163 HD
ATOM     26  O   UNL A   1      32.256  32.978  27.459  1.00  0.00    -0.269 OA
BRANCH  24  27
ATOM     27  C   UNL A   1      34.141  31.587  27.666  1.00  0.00     0.039 A 
ATOM     28  C   UNL A   1      34.337  30.246  28.017  1.00  0.00     0.014 A 
ATOM     29  C   UNL A   1      35.107  32.534  28.025  1.00  0.00     0.014 A 
ATOM     30  C   UNL A   1      35.486  29.853  28.716  1.00  0.00     0.010 A 
ATOM     31  C   UNL A   1      36.275  32.134  28.691  1.00  0.00     0.010 A 
ATOM     32  C   UNL A   1      36.468  30.793  29.065  1.00  0.00    -0.014 A 
BRANCH  32  33
ATOM     33  C   UNL A   1      37.658  30.389  29.870  1.00  0.00     0.031 A 
ATOM     34  C   UNL A   1      38.679  29.438  29.295  1.00  0.00     0.074 A 
ATOM     35  C   UNL A   1      37.825  30.854  31.124  1.00  0.00     0.049 A 
ATOM     36  N   UNL A   1      39.751  28.930  29.851  1.00  0.00    -0.248 NA
ATOM     37  C   UNL A   1      38.450  28.990  27.914  1.00  0.00     0.031 C 
ATOM     38  C   UNL A   1      36.914  31.770  31.809  1.00  0.00     0.029 A 
ATOM     39  N   UNL A   1      38.812  30.612  32.049  1.00  0.00    -0.354 N 
ATOM     40  C   UNL A   1      40.318  28.091  28.895  1.00  0.00     0.074 A 
ATOM     41  C   UNL A   1      39.441  28.127  27.743  1.00  0.00     0.031 C 
ATOM     42  C   UNL A   1      37.381  32.010  33.045  1.00  0.00     0.029 A 
ATOM     43  C   UNL A   1      38.604  31.238  33.256  1.00  0.00     0.049 A 
ATOM     44  H   UNL A   1      39.594  30.043  31.865  1.00  0.00     0.167 HD
ATOM     45  C   UNL A   1      41.469  27.373  28.962  1.00  0.00     0.034 A 
ATOM     46  C   UNL A   1      39.302  31.185  34.410  1.00  0.00     0.034 A 
ATOM     47  C   UNL A   1      42.343  27.348  30.113  1.00  0.00     0.049 A 
ATOM     48  C   UNL A   1      40.558  30.352  34.479  1.00  0.00     0.074 A 
ATOM     49  C   UNL A   1      43.557  26.697  30.261  1.00  0.00     0.029 A 
ATOM     50  N   UNL A   1      42.093  27.989  31.319  1.00  0.00    -0.354 N 
ATOM     51  N   UNL A   1      41.102  29.601  33.551  1.00  0.00    -0.248 NA
ATOM     52  C   UNL A   1      41.298  30.371  35.748  1.00  0.00     0.031 C 
ATOM     53  C   UNL A   1      44.006  26.889  31.573  1.00  0.00     0.029 A 
ATOM     54  C   UNL A   1      43.110  27.721  32.225  1.00  0.00     0.049 A 
ATOM     55  H   UNL A   1      41.307  28.554  31.505  1.00  0.00     0.167 HD
ATOM     56  C   UNL A   1      42.262  29.077  34.118  1.00  0.00     0.074 A 
ATOM     57  C   UNL A   1      42.344  29.608  35.463  1.00  0.00     0.031 C 
ATOM     58  C   UNL A   1      43.178  28.240  33.571  1.00  0.00     0.034 A 
BRANCH  45  59
ATOM     59  C   UNL A   1      41.827  26.523  27.764  1.00  0.00     0.023 A 
ATOM     60  C   UNL A   1      41.432  25.179  27.666  1.00  0.00     0.031 A 
ATOM     61  C   UNL A   1      42.602  27.057  26.718  1.00  0.00     0.131 A 
ATOM     62  C   UNL A   1      41.881  24.391  26.595  1.00  0.00     0.055 A 
ATOM     63  C   UNL A   1      42.976  26.291  25.612  1.00  0.00     0.041 A 
ATOM     64  F   UNL A   1      43.022  28.331  26.760  1.00  0.00    -0.206 F 
ATOM     65  C   UNL A   1      42.631  24.944  25.554  1.00  0.00     0.022 A 
BRANCH  62  66
ATOM     66  S   UNL A   1      41.606  22.599  26.661  1.00  0.00     0.124 S 
ATOM     67  O   UNL A   1      42.120  22.173  25.361  1.00  0.00    -0.237 OA
ATOM     68  O   UNL A   1      42.401  22.203  27.820  1.00  0.00    -0.237 OA
ATOM     69  O   UNL A   1      40.162  22.477  26.823  1.00  0.00    -0.744 OA
ENDBRANCH  62  66
ENDBRANCH  45  59
BRANCH  46  70
ATOM     70  C   UNL A   1      38.811  31.915  35.613  1.00  0.00     0.023 A 
ATOM     71  C   UNL A   1      38.208  31.237  36.684  1.00  0.00     0.031 A 
ATOM     72  C   UNL A   1      38.912  33.316  35.690  1.00  0.00     0.131 A 
ATOM     73  C   UNL A   1      37.698  31.964  37.771  1.00  0.00     0.055 A 
ATOM     74  C   UNL A   1      38.445  34.030  36.794  1.00  0.00     0.041 A 
ATOM     75  F   UNL A   1      39.484  34.011  34.693  1.00  0.00    -0.206 F 
ATOM     76  C   UNL A   1      37.824  33.354  37.839  1.00  0.00     0.022 A 
BRANCH  73  77
ATOM     77  S   UNL A   1      36.807  31.070  39.075  1.00  0.00     0.124 S 
ATOM     78  O   UNL A   1      35.559  31.822  39.150  1.00  0.00    -0.237 OA
ATOM     79  O   UNL A   1      36.715  29.727  38.512  1.00  0.00    -0.237 OA
ATOM     80  O   UNL A   1      37.685  31.197  40.235  1.00  0.00    -0.744 OA
ENDBRANCH  73  77
ENDBRANCH  46  70
BRANCH  58  81
ATOM     81  C   UNL A   1      44.376  27.878  34.419  1.00  0.00     0.023 A 
ATOM     82  C   UNL A   1      44.381  26.744  35.251  1.00  0.00     0.031 A 
ATOM     83  C   UNL A   1      45.526  28.687  34.394  1.00  0.00     0.131 A 
ATOM     84  C   UNL A   1      45.498  26.475  36.059  1.00  0.00     0.055 A 
ATOM     85  C   UNL A   1      46.653  28.385  35.162  1.00  0.00     0.041 A 
ATOM     86  F   UNL A   1      45.574  29.783  33.621  1.00  0.00    -0.206 F 
ATOM     87  C   UNL A   1      46.639  27.280  36.008  1.00  0.00     0.022 A 
BRANCH  84  88
ATOM     88  S   UNL A   1      45.413  25.098  37.237  1.00  0.00     0.124 S 
ATOM     89  O   UNL A   1      45.377  25.796  38.518  1.00  0.00    -0.237 OA
ATOM     90  O   UNL A   1      44.181  24.424  36.843  1.00  0.00    -0.237 OA
ATOM     91  O   UNL A   1      46.639  24.346  36.974  1.00  0.00    -0.744 OA
ENDBRANCH  84  88
ENDBRANCH  58  81
ENDBRANCH  32  33
ENDBRANCH  24  27
ENDBRANCH  22  23
ENDBRANCH   1  22
TORSDOF 18
ENDMDL
MODEL 3
REMARK VINA RESULT:     -10.6      2.610      3.288
REMARK SMILES C[C@H](C1CCCC1)[N@@H+](CC(=O)NCCCNC(=O)c1ccc(-c2c3nc(c(-c4cc(S(=O)(=O)[O-])ccc4F)c4ccc([nH]4)c(-c4cc(S(=O)(=O)[O-])ccc4F)c4nc(c(-c5cc(S(=O)(=O)[O-])ccc5F)c5ccc2[nH]5)C=C4)C=C3)cc1)CC(F)(F)F
REMARK SMILES IDX 14 1 13 2 12 3 10 4 11 5 9 7 8 8 2 10 1 11 3 12 4 13 7 14
REMARK SMILES IDX 5 15 6 16 82 17 83 18 84 19 85 20 86 21 15 22 16 23 17 24
REMARK SMILES IDX 18 26 19 27 20 28 81 29 21 30 80 31 22 32 23 33 24 34 74 35
REMARK SMILES IDX 25 36 79 37 73 38 75 39 26 40 78 41 72 42 71 43 27 45 59 46
REMARK SMILES IDX 39 47 58 48 40 49 43 50 57 51 76 52 41 53 42 54 56 56 77 57
REMARK SMILES IDX 44 58 28 59 29 60 37 61 30 62 36 63 38 64 35 65 31 66 32 67
REMARK SMILES IDX 33 68 34 69 60 70 61 71 69 72 62 73 68 74 70 75 67 76 63 77
REMARK SMILES IDX 64 78 65 79 66 80 45 81 46 82 54 83 47 84 53 85 55 86 52 87
REMARK SMILES IDX 48 88 49 89 50 90 51 91
REMARK H PARENT 12 6 8 9 16 25 75 44 43 55
REMARK Flexibility Score: inf
ROOT
ATOM      1  C   UNL A   1      33.226  27.599  26.622  1.00  0.00     0.042 C 
ENDROOT
BRANCH   1   2
ATOM      2  C   UNL A   1      32.073  26.915  25.873  1.00  0.00     0.118 C 
BRANCH   2   3
ATOM      3  N   UNL A   1      31.440  25.800  26.556  1.00  0.00    -0.351 N 
ATOM      4  C   UNL A   1      31.476  24.455  26.349  1.00  0.00     0.275 C 
ATOM      5  O   UNL A   1      31.046  23.749  27.264  1.00  0.00    -0.269 OA
ATOM      6  H   UNL A   1      30.876  26.070  27.317  1.00  0.00     0.163 HD
BRANCH   4   7
ATOM      7  C   UNL A   1      32.053  23.831  25.078  1.00  0.00     0.364 C 
BRANCH   7   8
ATOM      8  N   UNL A   1      33.236  22.969  25.267  1.00  0.00    -0.317 N 
ATOM      9  H   UNL A   1      33.420  22.603  24.333  1.00  0.00     0.349 HD
BRANCH   8  10
ATOM     10  C   UNL A   1      32.997  21.673  25.900  1.00  0.00     0.184 C 
ATOM     11  C   UNL A   1      33.728  21.487  27.232  1.00  0.00     0.075 C 
BRANCH  10  12
ATOM     12  C   UNL A   1      33.158  20.405  25.013  1.00  0.00     0.047 C 
ATOM     13  C   UNL A   1      32.807  19.052  25.634  1.00  0.00     0.010 C 
ATOM     14  C   UNL A   1      32.384  20.372  23.695  1.00  0.00     0.010 C 
ATOM     15  C   UNL A   1      32.850  18.095  24.443  1.00  0.00     0.001 C 
ATOM     16  C   UNL A   1      32.520  18.934  23.210  1.00  0.00     0.001 C 
ENDBRANCH  10  12
ENDBRANCH   8  10
BRANCH   8  17
ATOM     17  C   UNL A   1      34.553  23.629  25.361  1.00  0.00     0.379 C 
BRANCH  17  18
ATOM     18  C   UNL A   1      35.867  23.162  24.688  1.00  0.00     0.438 C 
ATOM     19  F   UNL A   1      36.857  24.071  24.767  1.00  0.00    -0.165 F 
ATOM     20  F   UNL A   1      36.315  22.048  25.329  1.00  0.00    -0.165 F 
ATOM     21  F   UNL A   1      35.710  22.818  23.399  1.00  0.00    -0.165 F 
ENDBRANCH  17  18
ENDBRANCH   8  17
ENDBRANCH   7   8
ENDBRANCH   4   7
ENDBRANCH   2   3
ENDBRANCH   1   2
BRANCH   1  22
ATOM     22  C   UNL A   1      34.054  28.629  25.845  1.00  0.00     0.118 C 
BRANCH  22  23
ATOM     23  N   UNL A   1      33.766  29.985  26.266  1.00  0.00    -0.352 N 
ATOM     24  C   UNL A   1      34.314  30.724  27.286  1.00  0.00     0.251 C 
ATOM     25  H   UNL A   1      33.071  30.447  25.742  1.00  0.00     0.163 HD
ATOM     26  O   UNL A   1      33.720  31.739  27.654  1.00  0.00    -0.269 OA
BRANCH  24  27
ATOM     27  C   UNL A   1      35.585  30.340  27.955  1.00  0.00     0.039 A 
ATOM     28  C   UNL A   1      36.783  30.513  27.250  1.00  0.00     0.014 A 
ATOM     29  C   UNL A   1      35.611  29.691  29.194  1.00  0.00     0.014 A 
ATOM     30  C   UNL A   1      37.994  30.046  27.778  1.00  0.00     0.010 A 
ATOM     31  C   UNL A   1      36.830  29.258  29.740  1.00  0.00     0.010 A 
ATOM     32  C   UNL A   1      38.032  29.409  29.028  1.00  0.00    -0.014 A 
BRANCH  32  33
ATOM     33  C   UNL A   1      39.309  28.849  29.560  1.00  0.00     0.031 A 
ATOM     34  C   UNL A   1      40.007  29.514  30.721  1.00  0.00     0.074 A 
ATOM     35  C   UNL A   1      39.862  27.756  28.998  1.00  0.00     0.049 A 
ATOM     36  N   UNL A   1      41.146  29.210  31.293  1.00  0.00    -0.248 NA
ATOM     37  C   UNL A   1      39.337  30.686  31.302  1.00  0.00     0.031 C 
ATOM     38  C   UNL A   1      39.303  27.018  27.866  1.00  0.00     0.029 A 
ATOM     39  N   UNL A   1      41.023  27.081  29.296  1.00  0.00    -0.354 N 
ATOM     40  C   UNL A   1      41.337  30.161  32.293  1.00  0.00     0.074 A 
ATOM     41  C   UNL A   1      40.217  31.075  32.213  1.00  0.00     0.031 C 
ATOM     42  C   UNL A   1      40.121  25.997  27.561  1.00  0.00     0.029 A 
ATOM     43  C   UNL A   1      41.280  26.026  28.451  1.00  0.00     0.049 A 
ATOM     44  H   UNL A   1      41.613  27.330  30.042  1.00  0.00     0.167 HD
ATOM     45  C   UNL A   1      42.341  30.253  33.204  1.00  0.00     0.034 A 
ATOM     46  C   UNL A   1      42.336  25.189  28.382  1.00  0.00     0.034 A 
ATOM     47  C   UNL A   1      43.452  29.332  33.283  1.00  0.00     0.049 A 
ATOM     48  C   UNL A   1      43.460  25.329  29.377  1.00  0.00     0.074 A 
ATOM     49  C   UNL A   1      44.489  29.308  34.201  1.00  0.00     0.029 A 
ATOM     50  N   UNL A   1      43.681  28.282  32.404  1.00  0.00    -0.354 N 
ATOM     51  N   UNL A   1      43.603  26.207  30.343  1.00  0.00    -0.248 NA
ATOM     52  C   UNL A   1      44.560  24.359  29.279  1.00  0.00     0.031 C 
ATOM     53  C   UNL A   1      45.377  28.288  33.838  1.00  0.00     0.029 A 
ATOM     54  C   UNL A   1      44.859  27.627  32.737  1.00  0.00     0.049 A 
ATOM     55  H   UNL A   1      43.093  28.037  31.653  1.00  0.00     0.167 HD
ATOM     56  C   UNL A   1      44.797  25.878  30.982  1.00  0.00     0.074 A 
ATOM     57  C   UNL A   1      45.327  24.715  30.300  1.00  0.00     0.031 C 
ATOM     58  C   UNL A   1      45.393  26.479  32.042  1.00  0.00     0.034 A 
BRANCH  45  59
ATOM     59  C   UNL A   1      42.298  31.419  34.166  1.00  0.00     0.023 A 
ATOM     60  C   UNL A   1      41.466  31.414  35.298  1.00  0.00     0.031 A 
ATOM     61  C   UNL A   1      43.078  32.566  33.930  1.00  0.00     0.131 A 
ATOM     62  C   UNL A   1      41.367  32.559  36.103  1.00  0.00     0.055 A 
ATOM     63  C   UNL A   1      43.039  33.672  34.782  1.00  0.00     0.041 A 
ATOM     64  F   UNL A   1      43.883  32.638  32.858  1.00  0.00    -0.206 F 
ATOM     65  C   UNL A   1      42.166  33.681  35.866  1.00  0.00     0.022 A 
BRANCH  62  66
ATOM     66  S   UNL A   1      40.067  32.624  37.365  1.00  0.00     0.124 S 
ATOM     67  O   UNL A   1      39.568  33.988  37.207  1.00  0.00    -0.237 OA
ATOM     68  O   UNL A   1      39.161  31.561  36.936  1.00  0.00    -0.237 OA
ATOM     69  O   UNL A   1      40.782  32.369  38.610  1.00  0.00    -0.744 OA
ENDBRANCH  62  66
ENDBRANCH  45  59
BRANCH  46  70
ATOM     70  C   UNL A   1      42.402  24.160  27.306  1.00  0.00     0.023 A 
ATOM     71  C   UNL A   1      41.598  23.009  27.345  1.00  0.00     0.031 A 
ATOM     72  C   UNL A   1      43.299  24.303  26.233  1.00  0.00     0.131 A 
ATOM     73  C   UNL A   1      41.734  22.030  26.349  1.00  0.00     0.055 A 
ATOM     74  C   UNL A   1      43.397  23.348  25.219  1.00  0.00     0.041 A 
ATOM     75  F   UNL A   1      44.086  25.388  26.147  1.00  0.00    -0.206 F 
ATOM     76  C   UNL A   1      42.618  22.197  25.280  1.00  0.00     0.022 A 
BRANCH  73  77
ATOM     77  S   UNL A   1      40.779  20.494  26.501  1.00  0.00     0.124 S 
ATOM     78  O   UNL A   1      40.933  20.187  27.919  1.00  0.00    -0.237 OA
ATOM     79  O   UNL A   1      39.449  20.923  26.078  1.00  0.00    -0.237 OA
ATOM     80  O   UNL A   1      41.456  19.580  25.585  1.00  0.00    -0.744 OA
ENDBRANCH  73  77
ENDBRANCH  46  70
BRANCH  58  81
ATOM     81  C   UNL A   1      46.672  25.860  32.556  1.00  0.00     0.023 A 
ATOM     82  C   UNL A   1      47.920  26.148  31.976  1.00  0.00     0.031 A 
ATOM     83  C   UNL A   1      46.637  24.967  33.641  1.00  0.00     0.131 A 
ATOM     84  C   UNL A   1      49.077  25.511  32.454  1.00  0.00     0.055 A 
ATOM     85  C   UNL A   1      47.797  24.377  34.146  1.00  0.00     0.041 A 
ATOM     86  F   UNL A   1      45.472  24.654  34.231  1.00  0.00    -0.206 F 
ATOM     87  C   UNL A   1      49.025  24.640  33.545  1.00  0.00     0.022 A 
BRANCH  84  88
ATOM     88  S   UNL A   1      50.647  25.780  31.585  1.00  0.00     0.124 S 
ATOM     89  O   UNL A   1      51.592  25.067  32.438  1.00  0.00    -0.237 OA
ATOM     90  O   UNL A   1      50.388  25.181  30.280  1.00  0.00    -0.237 OA
ATOM     91  O   UNL A   1      50.792  27.235  31.579  1.00  0.00    -0.744 OA
ENDBRANCH  84  88
ENDBRANCH  58  81
ENDBRANCH  32  33
ENDBRANCH  24  27
ENDBRANCH  22  23
ENDBRANCH   1  22
TORSDOF 18
ENDMDL
