MODEL 1
REMARK VINA RESULT:     -13.9      0.000      0.000
REMARK SMILES Cc1nc2nc(CNC(=O)OC(C)(C)C)nn2c(C)c1CCC(=O)NCCCNC(=O)c1ccc(-c2c3nc(c(-c4cc(S(=O)(=O)[O-])ccc4F)c4ccc([nH]4)c(-c4cc(S(=O)(=O)[O-])ccc4F)c4nc(c(-c5cc(S(=O)(=O)[O-])ccc5F)c5ccc2[nH]5)C=C4)C=C3)cc1
REMARK SMILES IDX 23 1 24 2 25 3 22 5 21 6 20 7 1 8 2 9 3 10 4 11 18 12 5 13
REMARK SMILES IDX 17 14 19 15 6 16 16 17 7 18 8 19 9 20 10 22 11 23 12 24
REMARK SMILES IDX 13 25 14 26 15 27 26 28 27 29 28 30 29 31 30 32 31 34 32 35
REMARK SMILES IDX 33 36 94 37 34 38 93 39 35 40 36 41 37 42 87 43 38 44 92 45
REMARK SMILES IDX 86 46 88 47 39 48 91 49 85 50 84 51 40 53 72 54 52 55 71 56
REMARK SMILES IDX 53 57 56 58 70 59 89 60 54 61 55 62 69 64 90 65 57 66 41 67
REMARK SMILES IDX 42 68 50 69 43 70 49 71 51 72 48 73 44 74 45 75 46 76 47 77
REMARK SMILES IDX 73 78 74 79 82 80 75 81 81 82 83 83 80 84 76 85 77 86 78 87
REMARK SMILES IDX 79 88 58 89 59 90 67 91 60 92 66 93 68 94 65 95 61 96 62 97
REMARK SMILES IDX 63 98 64 99
REMARK H PARENT 25 4 8 21 29 33 88 52 56 63
REMARK Flexibility Score: inf
ROOT
ATOM      1  C   UNL A   1      30.131  28.857  23.113  1.00  0.00     0.220 C 
ATOM      2  O   UNL A   1      29.820  28.934  21.919  1.00  0.00    -0.275 OA
ATOM      3  N   UNL A   1      30.636  29.973  23.731  1.00  0.00    -0.356 N 
ATOM      4  H   UNL A   1      30.772  30.718  23.101  1.00  0.00     0.163 HD
ENDROOT
BRANCH   1   5
ATOM      5  C   UNL A   1      29.959  27.522  23.824  1.00  0.00     0.105 C 
BRANCH   5   6
ATOM      6  C   UNL A   1      31.303  26.796  24.094  1.00  0.00     0.049 C 
BRANCH   6   7
ATOM      7  C   UNL A   1      31.067  25.543  24.888  1.00  0.00    -0.005 A 
ATOM      8  C   UNL A   1      31.443  26.895  27.106  1.00  0.00     0.067 C 
ATOM      9  C   UNL A   1      31.358  25.557  26.374  1.00  0.00     0.046 A 
ATOM     10  N   UNL A   1      31.504  24.470  27.072  1.00  0.00    -0.216 NA
ATOM     11  C   UNL A   1      31.622  23.315  26.342  1.00  0.00     0.252 A 
ATOM     12  C   UNL A   1      30.825  24.324  24.329  1.00  0.00     0.048 A 
ATOM     13  N   UNL A   1      32.380  22.294  26.611  1.00  0.00    -0.192 NA
ATOM     14  N   UNL A   1      31.295  23.186  25.005  1.00  0.00    -0.201 N 
ATOM     15  C   UNL A   1      30.290  24.068  22.965  1.00  0.00     0.067 C 
ATOM     16  C   UNL A   1      32.628  21.515  25.483  1.00  0.00     0.172 A 
ATOM     17  N   UNL A   1      31.862  21.998  24.469  1.00  0.00    -0.148 NA
BRANCH  16  18
ATOM     18  C   UNL A   1      33.639  20.117  25.473  1.00  0.00     0.199 C 
BRANCH  18  19
ATOM     19  N   UNL A   1      35.280  19.993  25.134  1.00  0.00    -0.314 N 
ATOM     20  C   UNL A   1      36.631  20.452  25.239  1.00  0.00     0.408 C 
ATOM     21  H   UNL A   1      35.346  19.189  24.571  1.00  0.00     0.167 HD
ATOM     22  O   UNL A   1      37.507  19.714  24.751  1.00  0.00    -0.225 OA
BRANCH  20  23
ATOM     23  O   UNL A   1      36.999  21.650  25.795  1.00  0.00    -0.444 OA
BRANCH  23  24
ATOM     24  C   UNL A   1      36.918  23.096  25.330  1.00  0.00     0.106 C 
ATOM     25  C   UNL A   1      38.022  23.981  25.920  1.00  0.00     0.056 C 
ATOM     26  C   UNL A   1      36.884  23.225  23.801  1.00  0.00     0.056 C 
ATOM     27  C   UNL A   1      35.571  23.738  25.817  1.00  0.00     0.056 C 
ENDBRANCH  23  24
ENDBRANCH  20  23
ENDBRANCH  18  19
ENDBRANCH  16  18
ENDBRANCH   6   7
ENDBRANCH   5   6
ENDBRANCH   1   5
BRANCH   3  28
ATOM     28  C   UNL A   1      31.035  30.337  25.138  1.00  0.00     0.117 C 
BRANCH  28  29
ATOM     29  C   UNL A   1      32.528  30.033  25.505  1.00  0.00     0.042 C 
BRANCH  29  30
ATOM     30  C   UNL A   1      33.140  29.796  26.978  1.00  0.00     0.118 C 
BRANCH  30  31
ATOM     31  N   UNL A   1      33.647  31.106  27.950  1.00  0.00    -0.352 N 
ATOM     32  C   UNL A   1      34.687  31.680  28.958  1.00  0.00     0.251 C 
ATOM     33  H   UNL A   1      32.985  31.820  27.808  1.00  0.00     0.163 HD
ATOM     34  O   UNL A   1      34.369  32.814  29.356  1.00  0.00    -0.269 OA
BRANCH  32  35
ATOM     35  C   UNL A   1      36.175  31.099  29.588  1.00  0.00     0.039 A 
ATOM     36  C   UNL A   1      37.427  31.724  29.489  1.00  0.00     0.014 A 
ATOM     37  C   UNL A   1      36.377  29.878  30.228  1.00  0.00     0.014 A 
ATOM     38  C   UNL A   1      38.653  31.043  29.281  1.00  0.00     0.010 A 
ATOM     39  C   UNL A   1      37.579  29.121  29.985  1.00  0.00     0.010 A 
ATOM     40  C   UNL A   1      38.693  29.658  29.320  1.00  0.00    -0.014 A 
BRANCH  40  41
ATOM     41  C   UNL A   1      40.013  28.961  29.187  1.00  0.00     0.031 A 
ATOM     42  C   UNL A   1      40.480  28.812  30.574  1.00  0.00     0.074 A 
ATOM     43  C   UNL A   1      40.811  28.444  28.207  1.00  0.00     0.049 A 
ATOM     44  N   UNL A   1      41.197  29.675  31.215  1.00  0.00    -0.248 NA
ATOM     45  C   UNL A   1      39.763  27.848  31.419  1.00  0.00     0.031 C 
ATOM     46  C   UNL A   1      40.569  28.288  26.768  1.00  0.00     0.029 A 
ATOM     47  N   UNL A   1      42.075  27.871  28.330  1.00  0.00    -0.354 N 
ATOM     48  C   UNL A   1      41.198  29.196  32.509  1.00  0.00     0.074 A 
ATOM     49  C   UNL A   1      40.055  28.333  32.624  1.00  0.00     0.031 C 
ATOM     50  C   UNL A   1      41.512  27.470  26.219  1.00  0.00     0.029 A 
ATOM     51  C   UNL A   1      42.524  27.139  27.216  1.00  0.00     0.049 A 
ATOM     52  H   UNL A   1      42.620  27.971  29.145  1.00  0.00     0.167 HD
ATOM     53  C   UNL A   1      42.343  29.197  33.233  1.00  0.00     0.034 A 
ATOM     54  C   UNL A   1      43.654  26.363  27.106  1.00  0.00     0.034 A 
ATOM     55  C   UNL A   1      43.344  30.046  32.631  1.00  0.00     0.049 A 
ATOM     56  C   UNL A   1      44.646  26.927  28.044  1.00  0.00     0.074 A 
ATOM     57  C   UNL A   1      43.552  31.401  32.481  1.00  0.00     0.029 A 
ATOM     58  N   UNL A   1      44.105  29.415  31.680  1.00  0.00    -0.354 N 
ATOM     59  N   UNL A   1      45.168  28.112  27.905  1.00  0.00    -0.248 NA
ATOM     60  C   UNL A   1      44.836  26.301  29.346  1.00  0.00     0.031 C 
ATOM     61  C   UNL A   1      44.353  31.561  31.311  1.00  0.00     0.029 A 
ATOM     62  C   UNL A   1      44.652  30.305  30.793  1.00  0.00     0.049 A 
ATOM     63  H   UNL A   1      44.241  28.441  31.640  1.00  0.00     0.167 HD
ATOM     64  C   UNL A   1      45.347  28.551  29.198  1.00  0.00     0.074 A 
ATOM     65  C   UNL A   1      45.290  27.354  30.028  1.00  0.00     0.031 C 
ATOM     66  C   UNL A   1      45.181  29.864  29.515  1.00  0.00     0.034 A 
BRANCH  53  67
ATOM     67  C   UNL A   1      42.697  28.066  34.166  1.00  0.00     0.023 A 
ATOM     68  C   UNL A   1      43.568  27.078  33.691  1.00  0.00     0.031 A 
ATOM     69  C   UNL A   1      42.046  27.781  35.395  1.00  0.00     0.131 A 
ATOM     70  C   UNL A   1      43.757  25.890  34.419  1.00  0.00     0.055 A 
ATOM     71  C   UNL A   1      42.293  26.637  36.147  1.00  0.00     0.041 A 
ATOM     72  F   UNL A   1      41.058  28.534  35.891  1.00  0.00    -0.206 F 
ATOM     73  C   UNL A   1      43.141  25.672  35.651  1.00  0.00     0.022 A 
BRANCH  70  74
ATOM     74  S   UNL A   1      44.752  24.576  33.681  1.00  0.00     0.124 S 
ATOM     75  O   UNL A   1      45.921  25.309  33.213  1.00  0.00    -0.237 OA
ATOM     76  O   UNL A   1      44.961  23.683  34.816  1.00  0.00    -0.237 OA
ATOM     77  O   UNL A   1      43.884  24.047  32.630  1.00  0.00    -0.744 OA
ENDBRANCH  70  74
ENDBRANCH  53  67
BRANCH  54  78
ATOM     78  C   UNL A   1      43.891  25.004  26.484  1.00  0.00     0.023 A 
ATOM     79  C   UNL A   1      43.128  23.843  26.824  1.00  0.00     0.031 A 
ATOM     80  C   UNL A   1      44.660  24.903  25.310  1.00  0.00     0.131 A 
ATOM     81  C   UNL A   1      43.126  22.692  25.988  1.00  0.00     0.055 A 
ATOM     82  C   UNL A   1      44.643  23.771  24.483  1.00  0.00     0.041 A 
ATOM     83  F   UNL A   1      45.385  25.942  24.871  1.00  0.00    -0.206 F 
ATOM     84  C   UNL A   1      43.864  22.670  24.806  1.00  0.00     0.022 A 
BRANCH  81  85
ATOM     85  S   UNL A   1      42.056  21.241  26.331  1.00  0.00     0.124 S 
ATOM     86  O   UNL A   1      42.619  20.225  25.447  1.00  0.00    -0.237 OA
ATOM     87  O   UNL A   1      42.242  21.031  27.761  1.00  0.00    -0.237 OA
ATOM     88  O   UNL A   1      40.720  21.707  25.954  1.00  0.00    -0.744 OA
ENDBRANCH  81  85
ENDBRANCH  54  78
BRANCH  66  89
ATOM     89  C   UNL A   1      45.478  30.890  28.453  1.00  0.00     0.023 A 
ATOM     90  C   UNL A   1      46.738  31.464  28.177  1.00  0.00     0.031 A 
ATOM     91  C   UNL A   1      44.394  31.263  27.639  1.00  0.00     0.131 A 
ATOM     92  C   UNL A   1      46.872  32.368  27.101  1.00  0.00     0.055 A 
ATOM     93  C   UNL A   1      44.534  32.137  26.566  1.00  0.00     0.041 A 
ATOM     94  F   UNL A   1      43.170  30.753  27.863  1.00  0.00    -0.206 F 
ATOM     95  C   UNL A   1      45.777  32.694  26.291  1.00  0.00     0.022 A 
BRANCH  92  96
ATOM     96  S   UNL A   1      48.485  33.127  26.721  1.00  0.00     0.124 S 
ATOM     97  O   UNL A   1      48.823  33.829  27.955  1.00  0.00    -0.237 OA
ATOM     98  O   UNL A   1      49.317  31.972  26.395  1.00  0.00    -0.237 OA
ATOM     99  O   UNL A   1      48.194  34.003  25.584  1.00  0.00    -0.744 OA
ENDBRANCH  92  96
ENDBRANCH  66  89
ENDBRANCH  40  41
ENDBRANCH  32  35
ENDBRANCH  30  31
ENDBRANCH  29  30
ENDBRANCH  28  29
ENDBRANCH   3  28
TORSDOF 19
ENDMDL
MODEL 2
REMARK VINA RESULT:     -13.7      1.939      2.568
REMARK SMILES Cc1nc2nc(CNC(=O)OC(C)(C)C)nn2c(C)c1CCC(=O)NCCCNC(=O)c1ccc(-c2c3nc(c(-c4cc(S(=O)(=O)[O-])ccc4F)c4ccc([nH]4)c(-c4cc(S(=O)(=O)[O-])ccc4F)c4nc(c(-c5cc(S(=O)(=O)[O-])ccc5F)c5ccc2[nH]5)C=C4)C=C3)cc1
REMARK SMILES IDX 23 1 24 2 25 3 22 5 21 6 20 7 1 8 2 9 3 10 4 11 18 12 5 13
REMARK SMILES IDX 17 14 19 15 6 16 16 17 7 18 8 19 9 20 10 22 11 23 12 24
REMARK SMILES IDX 13 25 14 26 15 27 26 28 27 29 28 30 29 31 30 32 31 34 32 35
REMARK SMILES IDX 33 36 94 37 34 38 93 39 35 40 36 41 37 42 87 43 38 44 92 45
REMARK SMILES IDX 86 46 88 47 39 48 91 49 85 50 84 51 40 53 72 54 52 55 71 56
REMARK SMILES IDX 53 57 56 58 70 59 89 60 54 61 55 62 69 64 90 65 57 66 41 67
REMARK SMILES IDX 42 68 50 69 43 70 49 71 51 72 48 73 44 74 45 75 46 76 47 77
REMARK SMILES IDX 73 78 74 79 82 80 75 81 81 82 83 83 80 84 76 85 77 86 78 87
REMARK SMILES IDX 79 88 58 89 59 90 67 91 60 92 66 93 68 94 65 95 61 96 62 97
REMARK SMILES IDX 63 98 64 99
REMARK H PARENT 25 4 8 21 29 33 88 52 56 63
REMARK Flexibility Score: inf
ROOT
ATOM      1  C   UNL A   1      29.417  27.522  23.595  1.00  0.00     0.220 C 
ATOM      2  O   UNL A   1      28.274  27.596  23.129  1.00  0.00    -0.275 OA
ATOM      3  N   UNL A   1      30.325  28.493  23.257  1.00  0.00    -0.356 N 
ATOM      4  H   UNL A   1      29.967  29.121  22.588  1.00  0.00     0.163 HD
ENDROOT
BRANCH   1   5
ATOM      5  C   UNL A   1      29.759  26.346  24.498  1.00  0.00     0.105 C 
BRANCH   5   6
ATOM      6  C   UNL A   1      30.414  25.163  23.739  1.00  0.00     0.049 C 
BRANCH   6   7
ATOM      7  C   UNL A   1      31.911  25.255  23.824  1.00  0.00    -0.005 A 
ATOM      8  C   UNL A   1      32.007  25.821  21.262  1.00  0.00     0.067 C 
ATOM      9  C   UNL A   1      32.708  25.363  22.541  1.00  0.00     0.046 A 
ATOM     10  N   UNL A   1      33.983  25.119  22.483  1.00  0.00    -0.216 NA
ATOM     11  C   UNL A   1      34.519  24.522  23.595  1.00  0.00     0.252 A 
ATOM     12  C   UNL A   1      32.624  25.020  24.962  1.00  0.00     0.048 A 
ATOM     13  N   UNL A   1      35.450  23.617  23.625  1.00  0.00    -0.192 NA
ATOM     14  N   UNL A   1      33.903  24.454  24.831  1.00  0.00    -0.201 N 
ATOM     15  C   UNL A   1      32.114  25.106  26.357  1.00  0.00     0.067 C 
ATOM     16  C   UNL A   1      35.442  22.896  24.817  1.00  0.00     0.172 A 
ATOM     17  N   UNL A   1      34.537  23.480  25.648  1.00  0.00    -0.148 NA
BRANCH  16  18
ATOM     18  C   UNL A   1      36.508  21.586  25.167  1.00  0.00     0.199 C 
BRANCH  18  19
ATOM     19  N   UNL A   1      38.142  21.620  25.557  1.00  0.00    -0.314 N 
ATOM     20  C   UNL A   1      39.258  22.145  26.282  1.00  0.00     0.408 C 
ATOM     21  H   UNL A   1      38.535  20.912  24.997  1.00  0.00     0.167 HD
ATOM     22  O   UNL A   1      40.340  21.545  26.145  1.00  0.00    -0.225 OA
BRANCH  20  23
ATOM     23  O   UNL A   1      39.211  23.270  27.064  1.00  0.00    -0.444 OA
BRANCH  23  24
ATOM     24  C   UNL A   1      40.186  24.406  27.334  1.00  0.00     0.106 C 
ATOM     25  C   UNL A   1      41.447  23.953  28.079  1.00  0.00     0.056 C 
ATOM     26  C   UNL A   1      40.561  25.180  26.063  1.00  0.00     0.056 C 
ATOM     27  C   UNL A   1      39.515  25.472  28.270  1.00  0.00     0.056 C 
ENDBRANCH  23  24
ENDBRANCH  20  23
ENDBRANCH  18  19
ENDBRANCH  16  18
ENDBRANCH   6   7
ENDBRANCH   5   6
ENDBRANCH   1   5
BRANCH   3  28
ATOM     28  C   UNL A   1      31.738  28.832  23.657  1.00  0.00     0.117 C 
BRANCH  28  29
ATOM     29  C   UNL A   1      31.907  29.343  25.130  1.00  0.00     0.042 C 
BRANCH  29  30
ATOM     30  C   UNL A   1      33.240  29.280  26.035  1.00  0.00     0.118 C 
BRANCH  30  31
ATOM     31  N   UNL A   1      33.939  30.696  26.686  1.00  0.00    -0.352 N 
ATOM     32  C   UNL A   1      35.037  31.335  27.587  1.00  0.00     0.251 C 
ATOM     33  H   UNL A   1      33.410  31.446  26.332  1.00  0.00     0.163 HD
ATOM     34  O   UNL A   1      34.905  32.568  27.674  1.00  0.00    -0.269 OA
BRANCH  32  35
ATOM     35  C   UNL A   1      36.392  30.704  28.435  1.00  0.00     0.039 A 
ATOM     36  C   UNL A   1      37.481  31.435  28.933  1.00  0.00     0.014 A 
ATOM     37  C   UNL A   1      36.651  29.360  28.688  1.00  0.00     0.014 A 
ATOM     38  C   UNL A   1      38.826  30.988  28.917  1.00  0.00     0.010 A 
ATOM     39  C   UNL A   1      37.998  28.852  28.608  1.00  0.00     0.010 A 
ATOM     40  C   UNL A   1      39.121  29.690  28.528  1.00  0.00    -0.014 A 
BRANCH  40  41
ATOM     41  C   UNL A   1      40.538  29.210  28.603  1.00  0.00     0.031 A 
ATOM     42  C   UNL A   1      40.790  29.059  30.044  1.00  0.00     0.074 A 
ATOM     43  C   UNL A   1      41.558  28.874  27.759  1.00  0.00     0.049 A 
ATOM     44  N   UNL A   1      41.246  29.985  30.822  1.00  0.00    -0.248 NA
ATOM     45  C   UNL A   1      40.107  27.953  30.728  1.00  0.00     0.031 C 
ATOM     46  C   UNL A   1      41.583  28.760  26.296  1.00  0.00     0.029 A 
ATOM     47  N   UNL A   1      42.860  28.493  28.080  1.00  0.00    -0.354 N 
ATOM     48  C   UNL A   1      41.112  29.443  32.083  1.00  0.00     0.074 A 
ATOM     49  C   UNL A   1      40.117  28.412  31.979  1.00  0.00     0.031 C 
ATOM     50  C   UNL A   1      42.721  28.126  25.893  1.00  0.00     0.029 A 
ATOM     51  C   UNL A   1      43.596  27.899  27.038  1.00  0.00     0.049 A 
ATOM     52  H   UNL A   1      43.241  28.631  28.977  1.00  0.00     0.167 HD
ATOM     53  C   UNL A   1      42.108  29.579  32.991  1.00  0.00     0.034 A 
ATOM     54  C   UNL A   1      44.837  27.312  27.101  1.00  0.00     0.034 A 
ATOM     55  C   UNL A   1      43.046  30.601  32.592  1.00  0.00     0.049 A 
ATOM     56  C   UNL A   1      45.560  27.968  28.210  1.00  0.00     0.074 A 
ATOM     57  C   UNL A   1      43.058  31.978  32.517  1.00  0.00     0.029 A 
ATOM     58  N   UNL A   1      44.043  30.145  31.768  1.00  0.00    -0.354 N 
ATOM     59  N   UNL A   1      45.903  29.224  28.194  1.00  0.00    -0.248 NA
ATOM     60  C   UNL A   1      45.631  27.309  29.507  1.00  0.00     0.031 C 
ATOM     61  C   UNL A   1      44.004  32.321  31.505  1.00  0.00     0.029 A 
ATOM     62  C   UNL A   1      44.579  31.154  31.011  1.00  0.00     0.049 A 
ATOM     63  H   UNL A   1      44.336  29.207  31.724  1.00  0.00     0.167 HD
ATOM     64  C   UNL A   1      45.796  29.615  29.510  1.00  0.00     0.074 A 
ATOM     65  C   UNL A   1      45.794  28.380  30.285  1.00  0.00     0.031 C 
ATOM     66  C   UNL A   1      45.374  30.868  29.830  1.00  0.00     0.034 A 
BRANCH  53  67
ATOM     67  C   UNL A   1      42.479  28.467  33.939  1.00  0.00     0.023 A 
ATOM     68  C   UNL A   1      43.348  27.474  33.470  1.00  0.00     0.031 A 
ATOM     69  C   UNL A   1      41.845  28.201  35.182  1.00  0.00     0.131 A 
ATOM     70  C   UNL A   1      43.553  26.300  34.217  1.00  0.00     0.055 A 
ATOM     71  C   UNL A   1      42.107  27.071  35.951  1.00  0.00     0.041 A 
ATOM     72  F   UNL A   1      40.861  28.958  35.678  1.00  0.00    -0.206 F 
ATOM     73  C   UNL A   1      42.954  26.101  35.461  1.00  0.00     0.022 A 
BRANCH  70  74
ATOM     74  S   UNL A   1      44.544  24.977  33.489  1.00  0.00     0.124 S 
ATOM     75  O   UNL A   1      45.899  25.395  33.826  1.00  0.00    -0.237 OA
ATOM     76  O   UNL A   1      44.038  23.802  34.190  1.00  0.00    -0.237 OA
ATOM     77  O   UNL A   1      44.204  25.045  32.069  1.00  0.00    -0.744 OA
ENDBRANCH  70  74
ENDBRANCH  53  67
BRANCH  54  78
ATOM     78  C   UNL A   1      45.386  26.039  26.491  1.00  0.00     0.023 A 
ATOM     79  C   UNL A   1      44.597  24.862  26.293  1.00  0.00     0.031 A 
ATOM     80  C   UNL A   1      46.611  26.074  25.800  1.00  0.00     0.131 A 
ATOM     81  C   UNL A   1      45.024  23.830  25.411  1.00  0.00     0.055 A 
ATOM     82  C   UNL A   1      47.019  25.060  24.922  1.00  0.00     0.041 A 
ATOM     83  F   UNL A   1      47.414  27.144  25.878  1.00  0.00    -0.206 F 
ATOM     84  C   UNL A   1      46.222  23.945  24.708  1.00  0.00     0.022 A 
BRANCH  81  85
ATOM     85  S   UNL A   1      43.974  22.373  25.038  1.00  0.00     0.124 S 
ATOM     86  O   UNL A   1      43.840  21.744  26.348  1.00  0.00    -0.237 OA
ATOM     87  O   UNL A   1      42.768  22.974  24.483  1.00  0.00    -0.237 OA
ATOM     88  O   UNL A   1      44.774  21.614  24.075  1.00  0.00    -0.744 OA
ENDBRANCH  81  85
ENDBRANCH  54  78
BRANCH  66  89
ATOM     89  C   UNL A   1      45.674  31.984  28.863  1.00  0.00     0.023 A 
ATOM     90  C   UNL A   1      44.941  32.297  27.698  1.00  0.00     0.031 A 
ATOM     91  C   UNL A   1      46.763  32.809  29.196  1.00  0.00     0.131 A 
ATOM     92  C   UNL A   1      45.308  33.419  26.924  1.00  0.00     0.055 A 
ATOM     93  C   UNL A   1      47.109  33.926  28.443  1.00  0.00     0.041 A 
ATOM     94  F   UNL A   1      47.500  32.551  30.290  1.00  0.00    -0.206 F 
ATOM     95  C   UNL A   1      46.380  34.237  27.302  1.00  0.00     0.022 A 
BRANCH  92  96
ATOM     96  S   UNL A   1      44.382  33.849  25.413  1.00  0.00     0.124 S 
ATOM     97  O   UNL A   1      45.418  34.355  24.520  1.00  0.00    -0.237 OA
ATOM     98  O   UNL A   1      43.775  32.577  25.033  1.00  0.00    -0.237 OA
ATOM     99  O   UNL A   1      43.428  34.861  25.871  1.00  0.00    -0.744 OA
ENDBRANCH  92  96
ENDBRANCH  66  89
ENDBRANCH  40  41
ENDBRANCH  32  35
ENDBRANCH  30  31
ENDBRANCH  29  30
ENDBRANCH  28  29
ENDBRANCH   3  28
TORSDOF 19
ENDMDL
MODEL 3
REMARK VINA RESULT:     -13.7      3.154      9.258
REMARK SMILES Cc1nc2nc(CNC(=O)OC(C)(C)C)nn2c(C)c1CCC(=O)NCCCNC(=O)c1ccc(-c2c3nc(c(-c4cc(S(=O)(=O)[O-])ccc4F)c4ccc([nH]4)c(-c4cc(S(=O)(=O)[O-])ccc4F)c4nc(c(-c5cc(S(=O)(=O)[O-])ccc5F)c5ccc2[nH]5)C=C4)C=C3)cc1
REMARK SMILES IDX 23 1 24 2 25 3 22 5 21 6 20 7 1 8 2 9 3 10 4 11 18 12 5 13
REMARK SMILES IDX 17 14 19 15 6 16 16 17 7 18 8 19 9 20 10 22 11 23 12 24
REMARK SMILES IDX 13 25 14 26 15 27 26 28 27 29 28 30 29 31 30 32 31 34 32 35
REMARK SMILES IDX 33 36 94 37 34 38 93 39 35 40 36 41 37 42 87 43 38 44 92 45
REMARK SMILES IDX 86 46 88 47 39 48 91 49 85 50 84 51 40 53 72 54 52 55 71 56
REMARK SMILES IDX 53 57 56 58 70 59 89 60 54 61 55 62 69 64 90 65 57 66 41 67
REMARK SMILES IDX 42 68 50 69 43 70 49 71 51 72 48 73 44 74 45 75 46 76 47 77
REMARK SMILES IDX 73 78 74 79 82 80 75 81 81 82 83 83 80 84 76 85 77 86 78 87
REMARK SMILES IDX 79 88 58 89 59 90 67 91 60 92 66 93 68 94 65 95 61 96 62 97
REMARK SMILES IDX 63 98 64 99
REMARK H PARENT 25 4 8 21 29 33 88 52 56 63
REMARK Flexibility Score: inf
ROOT
ATOM      1  C   UNL A   1      32.966  22.752  23.372  1.00  0.00     0.220 C 
ATOM      2  O   UNL A   1      32.921  22.555  22.152  1.00  0.00    -0.275 OA
ATOM      3  N   UNL A   1      34.088  22.359  24.057  1.00  0.00    -0.356 N 
ATOM      4  H   UNL A   1      34.723  21.871  23.483  1.00  0.00     0.163 HD
ENDROOT
BRANCH   1   5
ATOM      5  C   UNL A   1      31.765  23.397  24.049  1.00  0.00     0.105 C 
BRANCH   5   6
ATOM      6  C   UNL A   1      30.856  24.178  23.065  1.00  0.00     0.049 C 
BRANCH   6   7
ATOM      7  C   UNL A   1      31.064  25.657  23.229  1.00  0.00    -0.005 A 
ATOM      8  C   UNL A   1      32.313  25.722  20.920  1.00  0.00     0.067 C 
ATOM      9  C   UNL A   1      31.983  26.374  22.263  1.00  0.00     0.046 A 
ATOM     10  N   UNL A   1      32.482  27.550  22.507  1.00  0.00    -0.216 NA
ATOM     11  C   UNL A   1      32.325  27.998  23.794  1.00  0.00     0.252 A 
ATOM     12  C   UNL A   1      30.664  26.365  24.323  1.00  0.00     0.048 A 
ATOM     13  N   UNL A   1      33.176  28.690  24.490  1.00  0.00    -0.192 NA
ATOM     14  N   UNL A   1      31.446  27.464  24.717  1.00  0.00    -0.201 N 
ATOM     15  C   UNL A   1      29.594  25.979  25.282  1.00  0.00     0.067 C 
ATOM     16  C   UNL A   1      32.939  28.587  25.859  1.00  0.00     0.172 A 
ATOM     17  N   UNL A   1      31.778  27.900  26.028  1.00  0.00    -0.148 NA
BRANCH  16  18
ATOM     18  C   UNL A   1      33.913  29.334  27.072  1.00  0.00     0.199 C 
BRANCH  18  19
ATOM     19  N   UNL A   1      34.301  30.956  27.274  1.00  0.00    -0.314 N 
ATOM     20  C   UNL A   1      35.127  32.003  27.791  1.00  0.00     0.408 C 
ATOM     21  H   UNL A   1      33.593  31.432  26.783  1.00  0.00     0.167 HD
ATOM     22  O   UNL A   1      34.856  33.159  27.416  1.00  0.00    -0.225 OA
BRANCH  20  23
ATOM     23  O   UNL A   1      36.148  31.813  28.686  1.00  0.00    -0.444 OA
BRANCH  23  24
ATOM     24  C   UNL A   1      37.222  30.747  28.848  1.00  0.00     0.106 C 
ATOM     25  C   UNL A   1      37.535  30.006  27.543  1.00  0.00     0.056 C 
ATOM     26  C   UNL A   1      38.509  31.294  29.478  1.00  0.00     0.056 C 
ATOM     27  C   UNL A   1      36.726  29.639  29.843  1.00  0.00     0.056 C 
ENDBRANCH  23  24
ENDBRANCH  20  23
ENDBRANCH  18  19
ENDBRANCH  16  18
ENDBRANCH   6   7
ENDBRANCH   5   6
ENDBRANCH   1   5
BRANCH   3  28
ATOM     28  C   UNL A   1      34.586  22.489  25.473  1.00  0.00     0.117 C 
BRANCH  28  29
ATOM     29  C   UNL A   1      36.091  22.906  25.613  1.00  0.00     0.042 C 
BRANCH  29  30
ATOM     30  C   UNL A   1      37.385  22.024  25.228  1.00  0.00     0.118 C 
BRANCH  30  31
ATOM     31  N   UNL A   1      38.719  21.896  26.286  1.00  0.00    -0.352 N 
ATOM     32  C   UNL A   1      39.852  22.614  27.079  1.00  0.00     0.251 C 
ATOM     33  H   UNL A   1      38.815  20.937  26.486  1.00  0.00     0.163 HD
ATOM     34  O   UNL A   1      40.591  21.805  27.666  1.00  0.00    -0.269 OA
BRANCH  32  35
ATOM     35  C   UNL A   1      40.257  24.263  27.339  1.00  0.00     0.039 A 
ATOM     36  C   UNL A   1      41.464  24.756  27.857  1.00  0.00     0.014 A 
ATOM     37  C   UNL A   1      39.417  25.357  27.146  1.00  0.00     0.014 A 
ATOM     38  C   UNL A   1      41.570  25.858  28.742  1.00  0.00     0.010 A 
ATOM     39  C   UNL A   1      39.444  26.465  28.067  1.00  0.00     0.010 A 
ATOM     40  C   UNL A   1      40.453  26.626  29.031  1.00  0.00    -0.014 A 
BRANCH  40  41
ATOM     41  C   UNL A   1      40.604  27.838  29.898  1.00  0.00     0.031 A 
ATOM     42  C   UNL A   1      41.643  28.633  29.224  1.00  0.00     0.074 A 
ATOM     43  C   UNL A   1      40.058  28.370  31.031  1.00  0.00     0.049 A 
ATOM     44  N   UNL A   1      42.913  28.535  29.440  1.00  0.00    -0.248 NA
ATOM     45  C   UNL A   1      41.275  29.270  27.953  1.00  0.00     0.031 C 
ATOM     46  C   UNL A   1      38.917  27.920  31.837  1.00  0.00     0.029 A 
ATOM     47  N   UNL A   1      40.420  29.534  31.706  1.00  0.00    -0.354 N 
ATOM     48  C   UNL A   1      43.471  29.312  28.446  1.00  0.00     0.074 A 
ATOM     49  C   UNL A   1      42.482  29.416  27.408  1.00  0.00     0.031 C 
ATOM     50  C   UNL A   1      38.543  28.898  32.711  1.00  0.00     0.029 A 
ATOM     51  C   UNL A   1      39.490  30.006  32.650  1.00  0.00     0.049 A 
ATOM     52  H   UNL A   1      41.271  29.998  31.533  1.00  0.00     0.167 HD
ATOM     53  C   UNL A   1      44.499  30.146  28.731  1.00  0.00     0.034 A 
ATOM     54  C   UNL A   1      39.517  31.186  33.355  1.00  0.00     0.034 A 
ATOM     55  C   UNL A   1      45.096  29.826  30.006  1.00  0.00     0.049 A 
ATOM     56  C   UNL A   1      40.939  31.562  33.495  1.00  0.00     0.074 A 
ATOM     57  C   UNL A   1      45.893  28.825  30.518  1.00  0.00     0.029 A 
ATOM     58  N   UNL A   1      44.483  30.436  31.071  1.00  0.00    -0.354 N 
ATOM     59  N   UNL A   1      41.798  30.865  34.183  1.00  0.00    -0.248 NA
ATOM     60  C   UNL A   1      41.508  32.557  32.596  1.00  0.00     0.031 C 
ATOM     61  C   UNL A   1      45.622  28.765  31.918  1.00  0.00     0.029 A 
ATOM     62  C   UNL A   1      44.697  29.754  32.241  1.00  0.00     0.049 A 
ATOM     63  H   UNL A   1      43.954  31.263  31.003  1.00  0.00     0.167 HD
ATOM     64  C   UNL A   1      42.979  31.014  33.490  1.00  0.00     0.074 A 
ATOM     65  C   UNL A   1      42.787  32.182  32.639  1.00  0.00     0.031 C 
ATOM     66  C   UNL A   1      43.870  29.990  33.411  1.00  0.00     0.034 A 
BRANCH  53  67
ATOM     67  C   UNL A   1      44.614  31.512  28.104  1.00  0.00     0.023 A 
ATOM     68  C   UNL A   1      43.904  32.563  28.697  1.00  0.00     0.031 A 
ATOM     69  C   UNL A   1      45.183  31.788  26.833  1.00  0.00     0.131 A 
ATOM     70  C   UNL A   1      43.785  33.800  28.039  1.00  0.00     0.055 A 
ATOM     71  C   UNL A   1      45.125  33.036  26.219  1.00  0.00     0.041 A 
ATOM     72  F   UNL A   1      45.736  30.847  26.059  1.00  0.00    -0.206 F 
ATOM     73  C   UNL A   1      44.406  34.049  26.815  1.00  0.00     0.022 A 
BRANCH  70  74
ATOM     74  S   UNL A   1      42.715  35.062  28.762  1.00  0.00     0.124 S 
ATOM     75  O   UNL A   1      43.648  35.804  29.601  1.00  0.00    -0.237 OA
ATOM     76  O   UNL A   1      42.223  35.755  27.575  1.00  0.00    -0.237 OA
ATOM     77  O   UNL A   1      41.713  34.281  29.483  1.00  0.00    -0.744 OA
ENDBRANCH  70  74
ENDBRANCH  53  67
BRANCH  54  78
ATOM     78  C   UNL A   1      38.435  32.191  33.687  1.00  0.00     0.023 A 
ATOM     79  C   UNL A   1      37.466  32.642  32.737  1.00  0.00     0.031 A 
ATOM     80  C   UNL A   1      38.144  32.477  35.034  1.00  0.00     0.131 A 
ATOM     81  C   UNL A   1      36.271  33.291  33.155  1.00  0.00     0.055 A 
ATOM     82  C   UNL A   1      36.959  33.105  35.440  1.00  0.00     0.041 A 
ATOM     83  F   UNL A   1      38.961  32.068  36.016  1.00  0.00    -0.206 F 
ATOM     84  C   UNL A   1      36.010  33.497  34.508  1.00  0.00     0.022 A 
BRANCH  81  85
ATOM     85  S   UNL A   1      34.952  33.762  31.969  1.00  0.00     0.124 S 
ATOM     86  O   UNL A   1      34.329  34.901  32.634  1.00  0.00    -0.237 OA
ATOM     87  O   UNL A   1      35.698  34.051  30.751  1.00  0.00    -0.237 OA
ATOM     88  O   UNL A   1      34.115  32.562  31.898  1.00  0.00    -0.744 OA
ENDBRANCH  81  85
ENDBRANCH  54  78
BRANCH  66  89
ATOM     89  C   UNL A   1      43.929  29.013  34.556  1.00  0.00     0.023 A 
ATOM     90  C   UNL A   1      43.051  27.929  34.774  1.00  0.00     0.031 A 
ATOM     91  C   UNL A   1      44.996  29.185  35.456  1.00  0.00     0.131 A 
ATOM     92  C   UNL A   1      43.276  27.058  35.861  1.00  0.00     0.055 A 
ATOM     93  C   UNL A   1      45.227  28.311  36.514  1.00  0.00     0.041 A 
ATOM     94  F   UNL A   1      45.857  30.205  35.300  1.00  0.00    -0.206 F 
ATOM     95  C   UNL A   1      44.366  27.241  36.720  1.00  0.00     0.022 A 
BRANCH  92  96
ATOM     96  S   UNL A   1      42.158  25.650  36.170  1.00  0.00     0.124 S 
ATOM     97  O   UNL A   1      42.968  24.494  35.802  1.00  0.00    -0.237 OA
ATOM     98  O   UNL A   1      41.848  25.789  37.590  1.00  0.00    -0.237 OA
ATOM     99  O   UNL A   1      41.026  25.907  35.276  1.00  0.00    -0.744 OA
ENDBRANCH  92  96
ENDBRANCH  66  89
ENDBRANCH  40  41
ENDBRANCH  32  35
ENDBRANCH  30  31
ENDBRANCH  29  30
ENDBRANCH  28  29
ENDBRANCH   3  28
TORSDOF 19
ENDMDL
