MODEL 1
REMARK VINA RESULT:     -11.3      0.000      0.000
REMARK SMILES NS(=O)(=O)c1ccc(C#Cc2cc(Cl)cc3c2O[C@H](C(F)(F)F)C(C(=O)NCCCNC(=O)c2ccc(-c4c5nc(c(-c6cc(S(=O)(=O)[O-])ccc6F)c6ccc([nH]6)c(-c6cc(S(=O)(=O)[O-])ccc6F)c6nc(c(-c7cc(S(=O)(=O)[O-])ccc7F)c7ccc4[nH]7)C=C6)C=C5)cc2)=C3)cc1
REMARK SMILES IDX 28 1 27 2 25 3 26 4 24 6 11 7 12 8 17 9 13 10 16 11 18 12
REMARK SMILES IDX 14 13 15 14 97 15 19 16 10 17 9 18 8 19 5 20 6 21 99 22 7 23
REMARK SMILES IDX 98 24 2 25 3 26 4 27 1 28 20 31 21 32 22 33 23 34 29 35
REMARK SMILES IDX 30 36 31 37 32 38 33 40 34 41 35 42 96 43 36 44 95 45 37 46
REMARK SMILES IDX 38 47 39 48 89 49 40 50 94 51 88 52 90 53 41 54 93 55 87 56
REMARK SMILES IDX 86 57 42 59 74 60 54 61 73 62 55 63 58 64 72 65 91 66 56 67
REMARK SMILES IDX 57 68 71 70 92 71 59 72 43 73 44 74 52 75 45 76 51 77 53 78
REMARK SMILES IDX 50 79 46 80 47 81 48 82 49 83 75 84 76 85 84 86 77 87 83 88
REMARK SMILES IDX 85 89 82 90 78 91 79 92 80 93 81 94 60 95 61 96 69 97 62 98
REMARK SMILES IDX 68 99 70 100 67 101 63 102 64 103 65 104 66 105
REMARK H PARENT 27 5 1 29 1 30 31 39 90 58 58 69
REMARK Flexibility Score: inf
ROOT
ATOM      1  C   UNL A   1      46.405  37.599  27.489  1.00  0.00     0.118 C 
ENDROOT
BRANCH   1   2
ATOM      2  N   UNL A   1      45.096  37.748  28.109  1.00  0.00    -0.352 N 
ATOM      3  C   UNL A   1      44.112  38.676  28.130  1.00  0.00     0.251 C 
ATOM      4  O   UNL A   1      43.108  38.377  28.783  1.00  0.00    -0.270 OA
ATOM      5  H   UNL A   1      44.867  36.966  28.662  1.00  0.00     0.163 HD
BRANCH   3   6
ATOM      6  C   UNL A   1      44.172  39.991  27.429  1.00  0.00     0.067 C 
ATOM      7  C   UNL A   1      44.685  43.639  25.403  1.00  0.00     0.069 A 
ATOM      8  C   UNL A   1      45.193  44.741  26.090  1.00  0.00     0.041 A 
ATOM      9  C   UNL A   1      44.542  42.416  26.071  1.00  0.00     0.143 A 
ATOM     10  C   UNL A   1      45.570  44.609  27.427  1.00  0.00     0.043 A 
ATOM     11  C   UNL A   1      44.937  42.279  27.406  1.00  0.00     0.020 A 
ATOM     12  O   UNL A   1      44.050  41.360  25.356  1.00  0.00    -0.474 OA
ATOM     13  Cl  UNL A   1      46.200  45.972  28.269  1.00  0.00    -0.084 Cl
ATOM     14  C   UNL A   1      45.453  43.385  28.086  1.00  0.00     0.032 A 
ATOM     15  C   UNL A   1      44.852  40.972  28.051  1.00  0.00     0.025 C 
ATOM     16  C   UNL A   1      43.498  40.260  26.117  1.00  0.00     0.314 C 
BRANCH   7  17
ATOM     17  C   UNL A   1      44.322  43.771  24.023  1.00  0.00    -0.058 C 
ATOM     18  C   UNL A   1      44.024  43.871  22.861  1.00  0.00    -0.062 C 
BRANCH  18  19
ATOM     19  C   UNL A   1      43.663  44.016  21.485  1.00  0.00     0.025 A 
ATOM     20  C   UNL A   1      42.944  44.390  18.817  1.00  0.00     0.082 A 
ATOM     21  C   UNL A   1      42.080  43.707  19.676  1.00  0.00     0.023 A 
ATOM     22  C   UNL A   1      44.178  44.862  19.273  1.00  0.00     0.023 A 
ATOM     23  C   UNL A   1      42.443  43.521  21.013  1.00  0.00     0.018 A 
ATOM     24  C   UNL A   1      44.534  44.675  20.611  1.00  0.00     0.018 A 
BRANCH  20  25
ATOM     25  S   UNL A   1      42.471  44.690  17.140  1.00  0.00     0.238 S 
ATOM     26  O   UNL A   1      43.129  45.879  16.653  1.00  0.00    -0.207 OA
ATOM     27  O   UNL A   1      41.053  44.458  17.004  1.00  0.00    -0.207 OA
BRANCH  25  28
ATOM     28  N   UNL A   1      43.225  43.421  16.327  1.00  0.00    -0.225 NA
ATOM     29  H   UNL A   1      43.994  43.065  16.893  1.00  0.00     0.137 HD
ATOM     30  H   UNL A   1      43.586  43.756  15.435  1.00  0.00     0.137 HD
ENDBRANCH  25  28
ENDBRANCH  20  25
ENDBRANCH  18  19
ENDBRANCH   7  17
BRANCH  16  31
ATOM     31  C   UNL A   1      41.976  40.451  26.278  1.00  0.00     0.429 C 
ATOM     32  F   UNL A   1      41.506  41.343  25.372  1.00  0.00    -0.167 F 
ATOM     33  F   UNL A   1      41.280  39.303  26.083  1.00  0.00    -0.167 F 
ATOM     34  F   UNL A   1      41.636  40.901  27.507  1.00  0.00    -0.167 F 
ENDBRANCH  16  31
ENDBRANCH   3   6
ENDBRANCH   1   2
BRANCH   1  35
ATOM     35  C   UNL A   1      46.305  37.120  26.053  1.00  0.00     0.042 C 
BRANCH  35  36
ATOM     36  C   UNL A   1      46.674  35.651  25.928  1.00  0.00     0.118 C 
BRANCH  36  37
ATOM     37  N   UNL A   1      45.850  34.960  24.934  1.00  0.00    -0.352 N 
ATOM     38  C   UNL A   1      44.753  34.145  25.090  1.00  0.00     0.251 C 
ATOM     39  H   UNL A   1      46.126  35.102  24.000  1.00  0.00     0.163 HD
ATOM     40  O   UNL A   1      44.362  33.467  24.146  1.00  0.00    -0.269 OA
BRANCH  38  41
ATOM     41  C   UNL A   1      44.080  34.079  26.401  1.00  0.00     0.039 A 
ATOM     42  C   UNL A   1      43.217  35.101  26.785  1.00  0.00     0.014 A 
ATOM     43  C   UNL A   1      44.341  33.015  27.268  1.00  0.00     0.014 A 
ATOM     44  C   UNL A   1      42.827  35.202  28.108  1.00  0.00     0.010 A 
ATOM     45  C   UNL A   1      43.814  33.043  28.562  1.00  0.00     0.010 A 
ATOM     46  C   UNL A   1      43.108  34.168  29.013  1.00  0.00    -0.014 A 
BRANCH  46  47
ATOM     47  C   UNL A   1      42.632  34.291  30.415  1.00  0.00     0.031 A 
ATOM     48  C   UNL A   1      41.176  34.124  30.754  1.00  0.00     0.074 A 
ATOM     49  C   UNL A   1      43.539  34.502  31.390  1.00  0.00     0.049 A 
ATOM     50  N   UNL A   1      40.597  34.193  31.925  1.00  0.00    -0.248 NA
ATOM     51  C   UNL A   1      40.246  33.852  29.645  1.00  0.00     0.031 C 
ATOM     52  C   UNL A   1      44.977  34.667  31.170  1.00  0.00     0.029 A 
ATOM     53  N   UNL A   1      43.402  34.587  32.753  1.00  0.00    -0.354 N 
ATOM     54  C   UNL A   1      39.240  34.000  31.693  1.00  0.00     0.074 A 
ATOM     55  C   UNL A   1      39.074  33.848  30.265  1.00  0.00     0.031 C 
ATOM     56  C   UNL A   1      45.595  34.769  32.352  1.00  0.00     0.029 A 
ATOM     57  C   UNL A   1      44.593  34.786  33.412  1.00  0.00     0.049 A 
ATOM     58  H   UNL A   1      42.535  34.514  33.213  1.00  0.00     0.167 HD
ATOM     59  C   UNL A   1      38.232  33.941  32.595  1.00  0.00     0.034 A 
ATOM     60  C   UNL A   1      44.857  34.991  34.718  1.00  0.00     0.034 A 
ATOM     61  C   UNL A   1      38.428  34.067  34.019  1.00  0.00     0.049 A 
ATOM     62  C   UNL A   1      43.711  34.960  35.693  1.00  0.00     0.074 A 
ATOM     63  C   UNL A   1      37.475  33.982  35.018  1.00  0.00     0.029 A 
ATOM     64  N   UNL A   1      39.644  34.300  34.646  1.00  0.00    -0.354 N 
ATOM     65  N   UNL A   1      42.441  34.722  35.461  1.00  0.00    -0.248 NA
ATOM     66  C   UNL A   1      44.026  35.216  37.103  1.00  0.00     0.031 C 
ATOM     67  C   UNL A   1      38.095  34.253  36.235  1.00  0.00     0.029 A 
ATOM     68  C   UNL A   1      39.456  34.402  36.016  1.00  0.00     0.049 A 
ATOM     69  H   UNL A   1      40.511  34.382  34.187  1.00  0.00     0.167 HD
ATOM     70  C   UNL A   1      41.809  34.778  36.700  1.00  0.00     0.074 A 
ATOM     71  C   UNL A   1      42.844  35.037  37.679  1.00  0.00     0.031 C 
ATOM     72  C   UNL A   1      40.493  34.638  36.993  1.00  0.00     0.034 A 
BRANCH  59  73
ATOM     73  C   UNL A   1      36.818  33.723  32.110  1.00  0.00     0.023 A 
ATOM     74  C   UNL A   1      35.929  34.813  32.048  1.00  0.00     0.031 A 
ATOM     75  C   UNL A   1      36.304  32.435  31.881  1.00  0.00     0.131 A 
ATOM     76  C   UNL A   1      34.564  34.590  31.830  1.00  0.00     0.055 A 
ATOM     77  C   UNL A   1      34.951  32.224  31.607  1.00  0.00     0.041 A 
ATOM     78  F   UNL A   1      37.108  31.360  31.929  1.00  0.00    -0.206 F 
ATOM     79  C   UNL A   1      34.071  33.303  31.600  1.00  0.00     0.022 A 
BRANCH  76  80
ATOM     80  S   UNL A   1      33.365  35.947  31.939  1.00  0.00     0.124 S 
ATOM     81  O   UNL A   1      33.249  36.358  30.542  1.00  0.00    -0.237 OA
ATOM     82  O   UNL A   1      32.194  35.273  32.491  1.00  0.00    -0.237 OA
ATOM     83  O   UNL A   1      34.010  36.916  32.818  1.00  0.00    -0.744 OA
ENDBRANCH  76  80
ENDBRANCH  59  73
BRANCH  60  84
ATOM     84  C   UNL A   1      46.268  35.216  35.148  1.00  0.00     0.023 A 
ATOM     85  C   UNL A   1      46.824  36.510  35.140  1.00  0.00     0.031 A 
ATOM     86  C   UNL A   1      47.113  34.139  35.458  1.00  0.00     0.131 A 
ATOM     87  C   UNL A   1      48.198  36.681  35.347  1.00  0.00     0.055 A 
ATOM     88  C   UNL A   1      48.465  34.325  35.753  1.00  0.00     0.041 A 
ATOM     89  F   UNL A   1      46.637  32.885  35.464  1.00  0.00    -0.206 F 
ATOM     90  C   UNL A   1      49.018  35.600  35.676  1.00  0.00     0.022 A 
BRANCH  87  91
ATOM     91  S   UNL A   1      48.988  38.285  35.036  1.00  0.00     0.124 S 
ATOM     92  O   UNL A   1      50.259  37.888  34.438  1.00  0.00    -0.237 OA
ATOM     93  O   UNL A   1      48.033  38.916  34.129  1.00  0.00    -0.237 OA
ATOM     94  O   UNL A   1      49.075  38.890  36.361  1.00  0.00    -0.744 OA
ENDBRANCH  87  91
ENDBRANCH  60  84
BRANCH  72  95
ATOM     95  C   UNL A   1      40.056  34.740  38.437  1.00  0.00     0.023 A 
ATOM     96  C   UNL A   1      39.878  33.568  39.198  1.00  0.00     0.031 A 
ATOM     97  C   UNL A   1      39.656  35.964  39.000  1.00  0.00     0.131 A 
ATOM     98  C   UNL A   1      39.260  33.638  40.452  1.00  0.00     0.055 A 
ATOM     99  C   UNL A   1      39.103  36.035  40.279  1.00  0.00     0.041 A 
ATOM    100  F   UNL A   1      39.791  37.109  38.312  1.00  0.00    -0.206 F 
ATOM    101  C   UNL A   1      38.884  34.867  41.003  1.00  0.00     0.022 A 
BRANCH  98 102
ATOM    102  S   UNL A   1      38.819  32.131  41.362  1.00  0.00     0.124 S 
ATOM    103  O   UNL A   1      37.989  31.423  40.390  1.00  0.00    -0.237 OA
ATOM    104  O   UNL A   1      40.127  31.535  41.617  1.00  0.00    -0.237 OA
ATOM    105  O   UNL A   1      38.111  32.624  42.539  1.00  0.00    -0.744 OA
ENDBRANCH  98 102
ENDBRANCH  72  95
ENDBRANCH  46  47
ENDBRANCH  38  41
ENDBRANCH  36  37
ENDBRANCH  35  36
ENDBRANCH   1  35
TORSDOF 18
ENDMDL
MODEL 2
REMARK VINA RESULT:     -11.3      9.261     15.101
REMARK SMILES NS(=O)(=O)c1ccc(C#Cc2cc(Cl)cc3c2O[C@H](C(F)(F)F)C(C(=O)NCCCNC(=O)c2ccc(-c4c5nc(c(-c6cc(S(=O)(=O)[O-])ccc6F)c6ccc([nH]6)c(-c6cc(S(=O)(=O)[O-])ccc6F)c6nc(c(-c7cc(S(=O)(=O)[O-])ccc7F)c7ccc4[nH]7)C=C6)C=C5)cc2)=C3)cc1
REMARK SMILES IDX 28 1 27 2 25 3 26 4 24 6 11 7 12 8 17 9 13 10 16 11 18 12
REMARK SMILES IDX 14 13 15 14 97 15 19 16 10 17 9 18 8 19 5 20 6 21 99 22 7 23
REMARK SMILES IDX 98 24 2 25 3 26 4 27 1 28 20 31 21 32 22 33 23 34 29 35
REMARK SMILES IDX 30 36 31 37 32 38 33 40 34 41 35 42 96 43 36 44 95 45 37 46
REMARK SMILES IDX 38 47 39 48 89 49 40 50 94 51 88 52 90 53 41 54 93 55 87 56
REMARK SMILES IDX 86 57 42 59 74 60 54 61 73 62 55 63 58 64 72 65 91 66 56 67
REMARK SMILES IDX 57 68 71 70 92 71 59 72 43 73 44 74 52 75 45 76 51 77 53 78
REMARK SMILES IDX 50 79 46 80 47 81 48 82 49 83 75 84 76 85 84 86 77 87 83 88
REMARK SMILES IDX 85 89 82 90 78 91 79 92 80 93 81 94 60 95 61 96 69 97 62 98
REMARK SMILES IDX 68 99 70 100 67 101 63 102 64 103 65 104 66 105
REMARK H PARENT 27 5 1 29 1 30 31 39 90 58 58 69
REMARK Flexibility Score: inf
ROOT
ATOM      1  C   UNL A   1      38.096  22.088  25.801  1.00  0.00     0.118 C 
ENDROOT
BRANCH   1   2
ATOM      2  N   UNL A   1      37.220  21.017  25.346  1.00  0.00    -0.352 N 
ATOM      3  C   UNL A   1      35.893  20.839  25.156  1.00  0.00     0.251 C 
ATOM      4  O   UNL A   1      35.560  19.740  24.701  1.00  0.00    -0.270 OA
ATOM      5  H   UNL A   1      37.730  20.207  25.116  1.00  0.00     0.163 HD
BRANCH   3   6
ATOM      6  C   UNL A   1      34.849  21.862  25.452  1.00  0.00     0.067 C 
ATOM      7  C   UNL A   1      31.931  24.651  26.628  1.00  0.00     0.069 A 
ATOM      8  C   UNL A   1      30.618  24.228  26.830  1.00  0.00     0.041 A 
ATOM      9  C   UNL A   1      32.909  23.717  26.265  1.00  0.00     0.143 A 
ATOM     10  C   UNL A   1      30.297  22.878  26.687  1.00  0.00     0.043 A 
ATOM     11  C   UNL A   1      32.591  22.360  26.140  1.00  0.00     0.020 A 
ATOM     12  O   UNL A   1      34.185  24.174  26.087  1.00  0.00    -0.474 OA
ATOM     13  Cl  UNL A   1      28.674  22.360  26.942  1.00  0.00    -0.084 Cl
ATOM     14  C   UNL A   1      31.274  21.941  26.352  1.00  0.00     0.032 A 
ATOM     15  C   UNL A   1      33.647  21.398  25.840  1.00  0.00     0.025 C 
ATOM     16  C   UNL A   1      35.073  23.338  25.308  1.00  0.00     0.314 C 
BRANCH   7  17
ATOM     17  C   UNL A   1      32.264  26.035  26.800  1.00  0.00    -0.058 C 
ATOM     18  C   UNL A   1      32.535  27.200  26.934  1.00  0.00    -0.062 C 
BRANCH  18  19
ATOM     19  C   UNL A   1      32.878  28.577  27.108  1.00  0.00     0.025 A 
ATOM     20  C   UNL A   1      33.551  31.248  27.542  1.00  0.00     0.082 A 
ATOM     21  C   UNL A   1      32.251  30.918  27.152  1.00  0.00     0.023 A 
ATOM     22  C   UNL A   1      34.526  30.257  27.689  1.00  0.00     0.023 A 
ATOM     23  C   UNL A   1      31.916  29.578  26.936  1.00  0.00     0.018 A 
ATOM     24  C   UNL A   1      34.185  28.920  27.473  1.00  0.00     0.018 A 
BRANCH  20  25
ATOM     25  S   UNL A   1      33.972  32.931  27.882  1.00  0.00     0.238 S 
ATOM     26  O   UNL A   1      32.867  33.791  27.531  1.00  0.00    -0.207 OA
ATOM     27  O   UNL A   1      35.329  33.172  27.453  1.00  0.00    -0.207 OA
BRANCH  25  28
ATOM     28  N   UNL A   1      34.012  32.953  29.566  1.00  0.00    -0.225 NA
ATOM     29  H   UNL A   1      34.929  32.642  29.888  1.00  0.00     0.137 HD
ATOM     30  H   UNL A   1      33.294  32.329  29.932  1.00  0.00     0.137 HD
ENDBRANCH  25  28
ENDBRANCH  20  25
ENDBRANCH  18  19
ENDBRANCH   7  17
BRANCH  16  31
ATOM     31  C   UNL A   1      35.046  23.785  23.832  1.00  0.00     0.429 C 
ATOM     32  F   UNL A   1      36.273  23.660  23.271  1.00  0.00    -0.167 F 
ATOM     33  F   UNL A   1      34.201  23.041  23.075  1.00  0.00    -0.167 F 
ATOM     34  F   UNL A   1      34.659  25.073  23.686  1.00  0.00    -0.167 F 
ENDBRANCH  16  31
ENDBRANCH   3   6
ENDBRANCH   1   2
BRANCH   1  35
ATOM     35  C   UNL A   1      39.420  21.559  26.321  1.00  0.00     0.042 C 
BRANCH  35  36
ATOM     36  C   UNL A   1      39.945  20.425  25.458  1.00  0.00     0.118 C 
BRANCH  36  37
ATOM     37  N   UNL A   1      40.700  19.442  26.240  1.00  0.00    -0.352 N 
ATOM     38  C   UNL A   1      41.943  19.525  26.821  1.00  0.00     0.251 C 
ATOM     39  H   UNL A   1      40.241  18.582  26.371  1.00  0.00     0.163 HD
ATOM     40  O   UNL A   1      42.496  18.504  27.218  1.00  0.00    -0.269 OA
BRANCH  38  41
ATOM     41  C   UNL A   1      42.606  20.837  26.932  1.00  0.00     0.039 A 
ATOM     42  C   UNL A   1      42.760  21.427  28.184  1.00  0.00     0.014 A 
ATOM     43  C   UNL A   1      43.040  21.502  25.783  1.00  0.00     0.014 A 
ATOM     44  C   UNL A   1      43.096  22.766  28.268  1.00  0.00     0.010 A 
ATOM     45  C   UNL A   1      43.528  22.807  25.890  1.00  0.00     0.010 A 
ATOM     46  C   UNL A   1      43.498  23.473  27.125  1.00  0.00    -0.014 A 
BRANCH  46  47
ATOM     47  C   UNL A   1      43.897  24.897  27.264  1.00  0.00     0.031 A 
ATOM     48  C   UNL A   1      42.923  25.927  27.767  1.00  0.00     0.074 A 
ATOM     49  C   UNL A   1      45.171  25.242  26.984  1.00  0.00     0.049 A 
ATOM     50  N   UNL A   1      43.113  27.207  27.953  1.00  0.00    -0.248 NA
ATOM     51  C   UNL A   1      41.562  25.472  28.095  1.00  0.00     0.031 C 
ATOM     52  C   UNL A   1      46.199  24.317  26.501  1.00  0.00     0.029 A 
ATOM     53  N   UNL A   1      45.828  26.442  27.086  1.00  0.00    -0.354 N 
ATOM     54  C   UNL A   1      41.896  27.715  28.395  1.00  0.00     0.074 A 
ATOM     55  C   UNL A   1      40.962  26.612  28.413  1.00  0.00     0.031 C 
ATOM     56  C   UNL A   1      47.366  24.965  26.410  1.00  0.00     0.029 A 
ATOM     57  C   UNL A   1      47.153  26.374  26.723  1.00  0.00     0.049 A 
ATOM     58  H   UNL A   1      45.393  27.271  27.389  1.00  0.00     0.167 HD
ATOM     59  C   UNL A   1      41.597  28.983  28.763  1.00  0.00     0.034 A 
ATOM     60  C   UNL A   1      48.091  27.336  26.619  1.00  0.00     0.034 A 
ATOM     61  C   UNL A   1      42.556  30.060  28.764  1.00  0.00     0.049 A 
ATOM     62  C   UNL A   1      47.719  28.744  26.998  1.00  0.00     0.074 A 
ATOM     63  C   UNL A   1      42.359  31.371  29.158  1.00  0.00     0.029 A 
ATOM     64  N   UNL A   1      43.880  29.960  28.359  1.00  0.00    -0.354 N 
ATOM     65  N   UNL A   1      46.578  29.194  27.465  1.00  0.00    -0.248 NA
ATOM     66  C   UNL A   1      48.753  29.773  26.846  1.00  0.00     0.031 C 
ATOM     67  C   UNL A   1      43.530  32.082  28.907  1.00  0.00     0.029 A 
ATOM     68  C   UNL A   1      44.497  31.197  28.456  1.00  0.00     0.049 A 
ATOM     69  H   UNL A   1      44.315  29.133  28.048  1.00  0.00     0.167 HD
ATOM     70  C   UNL A   1      46.764  30.555  27.683  1.00  0.00     0.074 A 
ATOM     71  C   UNL A   1      48.139  30.844  27.330  1.00  0.00     0.031 C 
ATOM     72  C   UNL A   1      45.875  31.478  28.125  1.00  0.00     0.034 A 
BRANCH  59  73
ATOM     73  C   UNL A   1      40.192  29.309  29.212  1.00  0.00     0.023 A 
ATOM     74  C   UNL A   1      39.898  29.365  30.588  1.00  0.00     0.031 A 
ATOM     75  C   UNL A   1      39.123  29.388  28.303  1.00  0.00     0.131 A 
ATOM     76  C   UNL A   1      38.567  29.430  31.016  1.00  0.00     0.055 A 
ATOM     77  C   UNL A   1      37.801  29.511  28.735  1.00  0.00     0.041 A 
ATOM     78  F   UNL A   1      39.346  29.338  26.979  1.00  0.00    -0.206 F 
ATOM     79  C   UNL A   1      37.516  29.513  30.098  1.00  0.00     0.022 A 
BRANCH  76  80
ATOM     80  S   UNL A   1      38.142  29.307  32.776  1.00  0.00     0.124 S 
ATOM     81  O   UNL A   1      37.735  27.908  32.890  1.00  0.00    -0.237 OA
ATOM     82  O   UNL A   1      39.409  29.643  33.418  1.00  0.00    -0.237 OA
ATOM     83  O   UNL A   1      37.069  30.280  32.947  1.00  0.00    -0.744 OA
ENDBRANCH  76  80
ENDBRANCH  59  73
BRANCH  60  84
ATOM     84  C   UNL A   1      49.462  26.968  26.158  1.00  0.00     0.023 A 
ATOM     85  C   UNL A   1      50.494  26.730  27.088  1.00  0.00     0.031 A 
ATOM     86  C   UNL A   1      49.794  26.965  24.795  1.00  0.00     0.131 A 
ATOM     87  C   UNL A   1      51.814  26.589  26.646  1.00  0.00     0.055 A 
ATOM     88  C   UNL A   1      51.099  26.733  24.354  1.00  0.00     0.041 A 
ATOM     89  F   UNL A   1      48.852  27.203  23.869  1.00  0.00    -0.206 F 
ATOM     90  C   UNL A   1      52.120  26.565  25.283  1.00  0.00     0.022 A 
BRANCH  87  91
ATOM     91  S   UNL A   1      53.192  26.592  27.828  1.00  0.00     0.124 S 
ATOM     92  O   UNL A   1      53.863  27.848  27.509  1.00  0.00    -0.237 OA
ATOM     93  O   UNL A   1      52.486  26.560  29.106  1.00  0.00    -0.237 OA
ATOM     94  O   UNL A   1      53.931  25.378  27.500  1.00  0.00    -0.744 OA
ENDBRANCH  87  91
ENDBRANCH  60  84
BRANCH  72  95
ATOM     95  C   UNL A   1      46.332  32.910  28.282  1.00  0.00     0.023 A 
ATOM     96  C   UNL A   1      46.789  33.365  29.534  1.00  0.00     0.031 A 
ATOM     97  C   UNL A   1      46.157  33.855  27.256  1.00  0.00     0.131 A 
ATOM     98  C   UNL A   1      46.997  34.733  29.746  1.00  0.00     0.055 A 
ATOM     99  C   UNL A   1      46.432  35.210  27.454  1.00  0.00     0.041 A 
ATOM    100  F   UNL A   1      45.712  33.477  26.048  1.00  0.00    -0.206 F 
ATOM    101  C   UNL A   1      46.834  35.657  28.709  1.00  0.00     0.022 A 
BRANCH  98 102
ATOM    102  S   UNL A   1      47.374  35.375  31.401  1.00  0.00     0.124 S 
ATOM    103  O   UNL A   1      48.833  35.298  31.429  1.00  0.00    -0.237 OA
ATOM    104  O   UNL A   1      46.822  36.726  31.337  1.00  0.00    -0.237 OA
ATOM    105  O   UNL A   1      46.686  34.456  32.302  1.00  0.00    -0.744 OA
ENDBRANCH  98 102
ENDBRANCH  72  95
ENDBRANCH  46  47
ENDBRANCH  38  41
ENDBRANCH  36  37
ENDBRANCH  35  36
ENDBRANCH   1  35
TORSDOF 18
ENDMDL
MODEL 3
REMARK VINA RESULT:     -11.1      7.738     13.095
REMARK SMILES NS(=O)(=O)c1ccc(C#Cc2cc(Cl)cc3c2O[C@H](C(F)(F)F)C(C(=O)NCCCNC(=O)c2ccc(-c4c5nc(c(-c6cc(S(=O)(=O)[O-])ccc6F)c6ccc([nH]6)c(-c6cc(S(=O)(=O)[O-])ccc6F)c6nc(c(-c7cc(S(=O)(=O)[O-])ccc7F)c7ccc4[nH]7)C=C6)C=C5)cc2)=C3)cc1
REMARK SMILES IDX 28 1 27 2 25 3 26 4 24 6 11 7 12 8 17 9 13 10 16 11 18 12
REMARK SMILES IDX 14 13 15 14 97 15 19 16 10 17 9 18 8 19 5 20 6 21 99 22 7 23
REMARK SMILES IDX 98 24 2 25 3 26 4 27 1 28 20 31 21 32 22 33 23 34 29 35
REMARK SMILES IDX 30 36 31 37 32 38 33 40 34 41 35 42 96 43 36 44 95 45 37 46
REMARK SMILES IDX 38 47 39 48 89 49 40 50 94 51 88 52 90 53 41 54 93 55 87 56
REMARK SMILES IDX 86 57 42 59 74 60 54 61 73 62 55 63 58 64 72 65 91 66 56 67
REMARK SMILES IDX 57 68 71 70 92 71 59 72 43 73 44 74 52 75 45 76 51 77 53 78
REMARK SMILES IDX 50 79 46 80 47 81 48 82 49 83 75 84 76 85 84 86 77 87 83 88
REMARK SMILES IDX 85 89 82 90 78 91 79 92 80 93 81 94 60 95 61 96 69 97 62 98
REMARK SMILES IDX 68 99 70 100 67 101 63 102 64 103 65 104 66 105
REMARK H PARENT 27 5 1 29 1 30 31 39 90 58 58 69
REMARK Flexibility Score: inf
ROOT
ATOM      1  C   UNL A   1      46.236  24.049  26.717  1.00  0.00     0.118 C 
ENDROOT
BRANCH   1   2
ATOM      2  N   UNL A   1      45.808  22.742  26.238  1.00  0.00    -0.352 N 
ATOM      3  C   UNL A   1      44.636  22.091  26.058  1.00  0.00     0.251 C 
ATOM      4  O   UNL A   1      44.722  20.959  25.574  1.00  0.00    -0.270 OA
ATOM      5  H   UNL A   1      46.575  22.183  25.979  1.00  0.00     0.163 HD
BRANCH   3   6
ATOM      6  C   UNL A   1      43.295  22.649  26.395  1.00  0.00     0.067 C 
ATOM      7  C   UNL A   1      39.589  24.493  27.129  1.00  0.00     0.069 A 
ATOM      8  C   UNL A   1      39.511  25.540  28.048  1.00  0.00     0.041 A 
ATOM      9  C   UNL A   1      40.828  23.899  26.864  1.00  0.00     0.143 A 
ATOM     10  C   UNL A   1      40.670  25.996  28.676  1.00  0.00     0.043 A 
ATOM     11  C   UNL A   1      41.994  24.368  27.479  1.00  0.00     0.020 A 
ATOM     12  O   UNL A   1      40.859  22.883  25.949  1.00  0.00    -0.474 OA
ATOM     13  Cl  UNL A   1      40.570  27.291  29.805  1.00  0.00    -0.084 Cl
ATOM     14  C   UNL A   1      41.911  25.423  28.392  1.00  0.00     0.032 A 
ATOM     15  C   UNL A   1      43.282  23.783  27.121  1.00  0.00     0.025 C 
ATOM     16  C   UNL A   1      42.004  21.999  25.996  1.00  0.00     0.314 C 
BRANCH   7  17
ATOM     17  C   UNL A   1      38.399  24.044  26.467  1.00  0.00    -0.058 C 
ATOM     18  C   UNL A   1      37.397  23.678  25.909  1.00  0.00    -0.062 C 
BRANCH  18  19
ATOM     19  C   UNL A   1      36.211  23.220  25.256  1.00  0.00     0.025 A 
ATOM     20  C   UNL A   1      33.855  22.407  24.005  1.00  0.00     0.082 A 
ATOM     21  C   UNL A   1      34.227  21.827  25.220  1.00  0.00     0.023 A 
ATOM     22  C   UNL A   1      34.665  23.369  23.395  1.00  0.00     0.023 A 
ATOM     23  C   UNL A   1      35.409  22.237  25.845  1.00  0.00     0.018 A 
ATOM     24  C   UNL A   1      35.843  23.776  24.026  1.00  0.00     0.018 A 
BRANCH  20  25
ATOM     25  S   UNL A   1      32.332  21.946  23.234  1.00  0.00     0.238 S 
ATOM     26  O   UNL A   1      31.263  22.778  23.732  1.00  0.00    -0.207 OA
ATOM     27  O   UNL A   1      32.252  20.506  23.176  1.00  0.00    -0.207 OA
BRANCH  25  28
ATOM     28  N   UNL A   1      32.569  22.458  21.647  1.00  0.00    -0.225 NA
ATOM     29  H   UNL A   1      33.075  21.739  21.130  1.00  0.00     0.137 HD
ATOM     30  H   UNL A   1      33.110  23.322  21.645  1.00  0.00     0.137 HD
ENDBRANCH  25  28
ENDBRANCH  20  25
ENDBRANCH  18  19
ENDBRANCH   7  17
BRANCH  16  31
ATOM     31  C   UNL A   1      41.679  20.774  26.874  1.00  0.00     0.429 C 
ATOM     32  F   UNL A   1      40.372  20.774  27.233  1.00  0.00    -0.167 F 
ATOM     33  F   UNL A   1      41.901  19.598  26.235  1.00  0.00    -0.167 F 
ATOM     34  F   UNL A   1      42.414  20.738  28.009  1.00  0.00    -0.167 F 
ENDBRANCH  16  31
ENDBRANCH   3   6
ENDBRANCH   1   2
BRANCH   1  35
ATOM     35  C   UNL A   1      46.630  24.972  25.579  1.00  0.00     0.042 C 
BRANCH  35  36
ATOM     36  C   UNL A   1      45.876  26.290  25.645  1.00  0.00     0.118 C 
BRANCH  36  37
ATOM     37  N   UNL A   1      44.583  26.218  24.959  1.00  0.00    -0.352 N 
ATOM     38  C   UNL A   1      43.380  26.814  25.254  1.00  0.00     0.251 C 
ATOM     39  H   UNL A   1      44.575  25.650  24.156  1.00  0.00     0.163 HD
ATOM     40  O   UNL A   1      42.358  26.426  24.697  1.00  0.00    -0.269 OA
BRANCH  38  41
ATOM     41  C   UNL A   1      43.331  27.893  26.257  1.00  0.00     0.039 A 
ATOM     42  C   UNL A   1      42.361  28.887  26.154  1.00  0.00     0.014 A 
ATOM     43  C   UNL A   1      44.279  27.939  27.282  1.00  0.00     0.014 A 
ATOM     44  C   UNL A   1      42.494  30.047  26.896  1.00  0.00     0.010 A 
ATOM     45  C   UNL A   1      44.313  29.046  28.134  1.00  0.00     0.010 A 
ATOM     46  C   UNL A   1      43.463  30.139  27.906  1.00  0.00    -0.014 A 
BRANCH  46  47
ATOM     47  C   UNL A   1      43.543  31.384  28.712  1.00  0.00     0.031 A 
ATOM     48  C   UNL A   1      42.678  31.575  29.928  1.00  0.00     0.074 A 
ATOM     49  C   UNL A   1      44.449  32.321  28.366  1.00  0.00     0.049 A 
ATOM     50  N   UNL A   1      42.630  32.596  30.744  1.00  0.00    -0.248 NA
ATOM     51  C   UNL A   1      41.742  30.492  30.273  1.00  0.00     0.031 C 
ATOM     52  C   UNL A   1      45.346  32.229  27.212  1.00  0.00     0.029 A 
ATOM     53  N   UNL A   1      44.790  33.513  28.953  1.00  0.00    -0.354 N 
ATOM     54  C   UNL A   1      41.648  32.293  31.679  1.00  0.00     0.074 A 
ATOM     55  C   UNL A   1      41.097  31.009  31.310  1.00  0.00     0.031 C 
ATOM     56  C   UNL A   1      46.172  33.281  27.211  1.00  0.00     0.029 A 
ATOM     57  C   UNL A   1      45.800  34.179  28.298  1.00  0.00     0.049 A 
ATOM     58  H   UNL A   1      44.353  33.859  29.765  1.00  0.00     0.167 HD
ATOM     59  C   UNL A   1      41.256  33.018  32.754  1.00  0.00     0.034 A 
ATOM     60  C   UNL A   1      46.349  35.390  28.519  1.00  0.00     0.034 A 
ATOM     61  C   UNL A   1      41.843  34.284  33.117  1.00  0.00     0.049 A 
ATOM     62  C   UNL A   1      45.866  36.190  29.699  1.00  0.00     0.074 A 
ATOM     63  C   UNL A   1      41.542  35.077  34.211  1.00  0.00     0.029 A 
ATOM     64  N   UNL A   1      42.841  34.942  32.411  1.00  0.00    -0.354 N 
ATOM     65  N   UNL A   1      44.974  35.863  30.604  1.00  0.00    -0.248 NA
ATOM     66  C   UNL A   1      46.463  37.516  29.896  1.00  0.00     0.031 C 
ATOM     67  C   UNL A   1      42.288  36.249  34.117  1.00  0.00     0.029 A 
ATOM     68  C   UNL A   1      43.136  36.149  33.025  1.00  0.00     0.049 A 
ATOM     69  H   UNL A   1      43.274  34.602  31.594  1.00  0.00     0.167 HD
ATOM     70  C   UNL A   1      44.918  36.934  31.490  1.00  0.00     0.074 A 
ATOM     71  C   UNL A   1      45.893  37.901  31.030  1.00  0.00     0.031 C 
ATOM     72  C   UNL A   1      44.125  37.102  32.577  1.00  0.00     0.034 A 
BRANCH  59  73
ATOM     73  C   UNL A   1      40.155  32.487  33.641  1.00  0.00     0.023 A 
ATOM     74  C   UNL A   1      38.862  33.038  33.547  1.00  0.00     0.031 A 
ATOM     75  C   UNL A   1      40.414  31.580  34.683  1.00  0.00     0.131 A 
ATOM     76  C   UNL A   1      37.898  32.727  34.514  1.00  0.00     0.055 A 
ATOM     77  C   UNL A   1      39.432  31.230  35.611  1.00  0.00     0.041 A 
ATOM     78  F   UNL A   1      41.631  31.027  34.820  1.00  0.00    -0.206 F 
ATOM     79  C   UNL A   1      38.173  31.819  35.541  1.00  0.00     0.022 A 
BRANCH  76  80
ATOM     80  S   UNL A   1      36.290  33.567  34.536  1.00  0.00     0.124 S 
ATOM     81  O   UNL A   1      35.459  32.644  33.765  1.00  0.00    -0.237 OA
ATOM     82  O   UNL A   1      35.997  33.624  35.965  1.00  0.00    -0.237 OA
ATOM     83  O   UNL A   1      36.554  34.849  33.892  1.00  0.00    -0.744 OA
ENDBRANCH  76  80
ENDBRANCH  59  73
BRANCH  60  84
ATOM     84  C   UNL A   1      47.425  35.878  27.608  1.00  0.00     0.023 A 
ATOM     85  C   UNL A   1      48.776  35.565  27.858  1.00  0.00     0.031 A 
ATOM     86  C   UNL A   1      47.139  36.754  26.550  1.00  0.00     0.131 A 
ATOM     87  C   UNL A   1      49.787  36.193  27.121  1.00  0.00     0.055 A 
ATOM     88  C   UNL A   1      48.147  37.309  25.758  1.00  0.00     0.041 A 
ATOM     89  F   UNL A   1      45.870  37.098  26.280  1.00  0.00    -0.206 F 
ATOM     90  C   UNL A   1      49.480  37.045  26.057  1.00  0.00     0.022 A 
BRANCH  87  91
ATOM     91  S   UNL A   1      51.525  36.050  27.623  1.00  0.00     0.124 S 
ATOM     92  O   UNL A   1      51.903  34.763  27.049  1.00  0.00    -0.237 OA
ATOM     93  O   UNL A   1      52.115  37.224  26.986  1.00  0.00    -0.237 OA
ATOM     94  O   UNL A   1      51.468  36.101  29.080  1.00  0.00    -0.744 OA
ENDBRANCH  87  91
ENDBRANCH  60  84
BRANCH  72  95
ATOM     95  C   UNL A   1      44.262  38.371  33.387  1.00  0.00     0.023 A 
ATOM     96  C   UNL A   1      43.395  39.453  33.143  1.00  0.00     0.031 A 
ATOM     97  C   UNL A   1      45.341  38.569  34.265  1.00  0.00     0.131 A 
ATOM     98  C   UNL A   1      43.657  40.701  33.722  1.00  0.00     0.055 A 
ATOM     99  C   UNL A   1      45.558  39.797  34.893  1.00  0.00     0.041 A 
ATOM    100  F   UNL A   1      46.205  37.575  34.521  1.00  0.00    -0.206 F 
ATOM    101  C   UNL A   1      44.725  40.876  34.607  1.00  0.00     0.022 A 
BRANCH  98 102
ATOM    102  S   UNL A   1      42.691  42.166  33.261  1.00  0.00     0.124 S 
ATOM    103  O   UNL A   1      43.732  43.082  32.803  1.00  0.00    -0.237 OA
ATOM    104  O   UNL A   1      41.818  41.639  32.215  1.00  0.00    -0.237 OA
ATOM    105  O   UNL A   1      42.024  42.554  34.500  1.00  0.00    -0.744 OA
ENDBRANCH  98 102
ENDBRANCH  72  95
ENDBRANCH  46  47
ENDBRANCH  38  41
ENDBRANCH  36  37
ENDBRANCH  35  36
ENDBRANCH   1  35
TORSDOF 18
ENDMDL
