MODEL 1
REMARK VINA RESULT:     -11.6      0.000      0.000
REMARK SMILES CCOc1ccc(-c2csc3ncn([C@H](C)C(=O)NCCCNC(=O)c4ccc(-c5c6nc(c(-c7cc(S(=O)(=O)[O-])ccc7F)c7ccc([nH]7)c(-c7cc(S(=O)(=O)[O-])ccc7F)c7nc(c(-c8cc(S(=O)(=O)[O-])ccc8F)c8ccc5[nH]8)C=C7)C=C6)cc4)c(=O)c23)cc1
REMARK SMILES IDX 20 1 19 2 17 3 18 4 15 6 16 7 14 8 8 9 9 10 91 11 10 12
REMARK SMILES IDX 11 13 89 14 12 15 90 16 13 17 7 18 4 19 5 20 93 21 6 22
REMARK SMILES IDX 92 23 3 24 2 25 1 26 21 27 22 28 23 29 24 30 25 32 26 33
REMARK SMILES IDX 27 34 88 35 28 36 87 37 29 38 30 39 31 40 81 41 32 42 86 43
REMARK SMILES IDX 80 44 82 45 33 46 85 47 79 48 78 49 34 51 66 52 46 53 65 54
REMARK SMILES IDX 47 55 50 56 64 57 83 58 48 59 49 60 63 62 84 63 51 64 35 65
REMARK SMILES IDX 36 66 44 67 37 68 43 69 45 70 42 71 38 72 39 73 40 74 41 75
REMARK SMILES IDX 67 76 68 77 76 78 69 79 75 80 77 81 74 82 70 83 71 84 72 85
REMARK SMILES IDX 73 86 52 87 53 88 61 89 54 90 60 91 62 92 59 93 55 94 56 95
REMARK SMILES IDX 57 96 58 97
REMARK H PARENT 19 5 23 31 82 50 50 61
REMARK Flexibility Score: inf
ROOT
ATOM      1  C   UNL A   1      44.088  40.128  29.779  1.00  0.00     0.117 C 
ENDROOT
BRANCH   1   2
ATOM      2  N   UNL A   1      42.753  40.662  29.529  1.00  0.00    -0.354 N 
ATOM      3  C   UNL A   1      41.990  40.596  28.390  1.00  0.00     0.242 C 
ATOM      4  O   UNL A   1      40.792  40.867  28.471  1.00  0.00    -0.273 OA
ATOM      5  H   UNL A   1      42.340  41.139  30.286  1.00  0.00     0.163 HD
BRANCH   3   6
ATOM      6  C   UNL A   1      42.607  40.148  27.051  1.00  0.00     0.177 C 
ATOM      7  C   UNL A   1      41.899  38.875  26.547  1.00  0.00     0.042 C 
BRANCH   6   8
ATOM      8  N   UNL A   1      42.741  41.200  26.023  1.00  0.00    -0.286 N 
ATOM      9  C   UNL A   1      45.040  43.784  24.487  1.00  0.00     0.007 A 
ATOM     10  C   UNL A   1      44.900  44.207  23.175  1.00  0.00     0.076 A 
ATOM     11  C   UNL A   1      44.090  42.763  24.807  1.00  0.00     0.085 A 
ATOM     12  S   UNL A   1      43.561  43.488  22.400  1.00  0.00    -0.123 S 
ATOM     13  C   UNL A   1      43.134  42.654  23.820  1.00  0.00     0.131 A 
ATOM     14  C   UNL A   1      43.920  41.951  26.003  1.00  0.00     0.263 A 
ATOM     15  N   UNL A   1      41.944  42.027  23.929  1.00  0.00    -0.227 NA
ATOM     16  O   UNL A   1      44.772  41.885  26.884  1.00  0.00    -0.268 OA
ATOM     17  C   UNL A   1      41.786  41.389  25.042  1.00  0.00     0.204 A 
BRANCH   9  18
ATOM     18  C   UNL A   1      45.915  44.516  25.388  1.00  0.00    -0.016 A 
ATOM     19  C   UNL A   1      47.486  45.908  27.235  1.00  0.00     0.119 A 
ATOM     20  C   UNL A   1      48.081  45.296  26.129  1.00  0.00     0.047 A 
ATOM     21  C   UNL A   1      46.107  45.851  27.405  1.00  0.00     0.047 A 
ATOM     22  C   UNL A   1      47.297  44.594  25.205  1.00  0.00     0.012 A 
ATOM     23  C   UNL A   1      45.329  45.141  26.498  1.00  0.00     0.012 A 
BRANCH  19  24
ATOM     24  O   UNL A   1      48.271  46.653  28.069  1.00  0.00    -0.494 OA
BRANCH  24  25
ATOM     25  C   UNL A   1      47.898  48.037  28.121  1.00  0.00     0.226 C 
ATOM     26  C   UNL A   1      48.843  48.860  28.984  1.00  0.00     0.049 C 
ENDBRANCH  24  25
ENDBRANCH  19  24
ENDBRANCH   9  18
ENDBRANCH   6   8
ENDBRANCH   3   6
ENDBRANCH   1   2
BRANCH   1  27
ATOM     27  C   UNL A   1      44.119  38.947  30.738  1.00  0.00     0.042 C 
BRANCH  27  28
ATOM     28  C   UNL A   1      45.215  37.956  30.384  1.00  0.00     0.118 C 
BRANCH  28  29
ATOM     29  N   UNL A   1      45.495  37.903  28.946  1.00  0.00    -0.352 N 
ATOM     30  C   UNL A   1      45.145  36.900  28.062  1.00  0.00     0.251 C 
ATOM     31  H   UNL A   1      45.986  38.668  28.567  1.00  0.00     0.163 HD
ATOM     32  O   UNL A   1      45.693  36.802  26.969  1.00  0.00    -0.269 OA
BRANCH  30  33
ATOM     33  C   UNL A   1      44.110  35.944  28.485  1.00  0.00     0.039 A 
ATOM     34  C   UNL A   1      44.455  34.725  29.072  1.00  0.00     0.014 A 
ATOM     35  C   UNL A   1      42.783  36.361  28.413  1.00  0.00     0.014 A 
ATOM     36  C   UNL A   1      43.458  33.980  29.698  1.00  0.00     0.010 A 
ATOM     37  C   UNL A   1      41.831  35.695  29.146  1.00  0.00     0.010 A 
ATOM     38  C   UNL A   1      42.152  34.491  29.773  1.00  0.00    -0.014 A 
BRANCH  38  39
ATOM     39  C   UNL A   1      41.155  33.855  30.636  1.00  0.00     0.031 A 
ATOM     40  C   UNL A   1      41.521  33.781  32.080  1.00  0.00     0.074 A 
ATOM     41  C   UNL A   1      39.892  33.582  30.243  1.00  0.00     0.049 A 
ATOM     42  N   UNL A   1      41.784  32.728  32.780  1.00  0.00    -0.248 NA
ATOM     43  C   UNL A   1      41.760  35.040  32.804  1.00  0.00     0.031 C 
ATOM     44  C   UNL A   1      39.263  33.888  28.954  1.00  0.00     0.029 A 
ATOM     45  N   UNL A   1      38.853  33.084  30.969  1.00  0.00    -0.354 N 
ATOM     46  C   UNL A   1      41.972  33.167  34.090  1.00  0.00     0.074 A 
ATOM     47  C   UNL A   1      42.161  34.589  33.995  1.00  0.00     0.031 C 
ATOM     48  C   UNL A   1      37.921  33.802  29.071  1.00  0.00     0.029 A 
ATOM     49  C   UNL A   1      37.605  33.259  30.379  1.00  0.00     0.049 A 
ATOM     50  H   UNL A   1      38.974  32.638  31.838  1.00  0.00     0.167 HD
ATOM     51  C   UNL A   1      41.708  32.354  35.153  1.00  0.00     0.034 A 
ATOM     52  C   UNL A   1      36.387  32.998  30.921  1.00  0.00     0.034 A 
ATOM     53  C   UNL A   1      41.591  30.974  34.726  1.00  0.00     0.049 A 
ATOM     54  C   UNL A   1      36.606  32.013  32.006  1.00  0.00     0.074 A 
ATOM     55  C   UNL A   1      42.416  30.097  34.045  1.00  0.00     0.029 A 
ATOM     56  N   UNL A   1      40.331  30.423  34.642  1.00  0.00    -0.354 N 
ATOM     57  N   UNL A   1      37.042  30.801  31.794  1.00  0.00    -0.248 NA
ATOM     58  C   UNL A   1      36.802  32.509  33.360  1.00  0.00     0.031 C 
ATOM     59  C   UNL A   1      41.545  29.390  33.163  1.00  0.00     0.029 A 
ATOM     60  C   UNL A   1      40.236  29.803  33.421  1.00  0.00     0.049 A 
ATOM     61  H   UNL A   1      39.629  30.466  35.331  1.00  0.00     0.167 HD
ATOM     62  C   UNL A   1      37.947  30.561  32.817  1.00  0.00     0.074 A 
ATOM     63  C   UNL A   1      37.669  31.597  33.811  1.00  0.00     0.031 C 
ATOM     64  C   UNL A   1      39.018  29.732  32.635  1.00  0.00     0.034 A 
BRANCH  51  65
ATOM     65  C   UNL A   1      41.179  32.811  36.503  1.00  0.00     0.023 A 
ATOM     66  C   UNL A   1      39.903  32.344  36.881  1.00  0.00     0.031 A 
ATOM     67  C   UNL A   1      41.689  33.873  37.285  1.00  0.00     0.131 A 
ATOM     68  C   UNL A   1      39.148  33.003  37.868  1.00  0.00     0.055 A 
ATOM     69  C   UNL A   1      40.962  34.479  38.316  1.00  0.00     0.041 A 
ATOM     70  F   UNL A   1      42.874  34.445  37.053  1.00  0.00    -0.206 F 
ATOM     71  C   UNL A   1      39.668  34.073  38.586  1.00  0.00     0.022 A 
BRANCH  68  72
ATOM     72  S   UNL A   1      37.401  32.562  38.042  1.00  0.00     0.124 S 
ATOM     73  O   UNL A   1      37.439  31.125  37.790  1.00  0.00    -0.237 OA
ATOM     74  O   UNL A   1      37.125  32.969  39.416  1.00  0.00    -0.237 OA
ATOM     75  O   UNL A   1      36.745  33.361  37.011  1.00  0.00    -0.744 OA
ENDBRANCH  68  72
ENDBRANCH  51  65
BRANCH  52  76
ATOM     76  C   UNL A   1      35.124  33.758  30.722  1.00  0.00     0.023 A 
ATOM     77  C   UNL A   1      34.729  34.818  31.563  1.00  0.00     0.031 A 
ATOM     78  C   UNL A   1      34.388  33.588  29.527  1.00  0.00     0.131 A 
ATOM     79  C   UNL A   1      33.647  35.653  31.194  1.00  0.00     0.055 A 
ATOM     80  C   UNL A   1      33.318  34.411  29.172  1.00  0.00     0.041 A 
ATOM     81  F   UNL A   1      34.743  32.665  28.618  1.00  0.00    -0.206 F 
ATOM     82  C   UNL A   1      32.948  35.456  30.001  1.00  0.00     0.022 A 
BRANCH  79  83
ATOM     83  S   UNL A   1      33.194  37.086  32.227  1.00  0.00     0.124 S 
ATOM     84  O   UNL A   1      32.962  38.126  31.230  1.00  0.00    -0.237 OA
ATOM     85  O   UNL A   1      32.021  36.598  32.943  1.00  0.00    -0.237 OA
ATOM     86  O   UNL A   1      34.377  37.290  33.063  1.00  0.00    -0.744 OA
ENDBRANCH  79  83
ENDBRANCH  52  76
BRANCH  64  87
ATOM     87  C   UNL A   1      39.041  28.830  31.417  1.00  0.00     0.023 A 
ATOM     88  C   UNL A   1      39.573  29.182  30.154  1.00  0.00     0.031 A 
ATOM     89  C   UNL A   1      38.610  27.503  31.592  1.00  0.00     0.131 A 
ATOM     90  C   UNL A   1      39.645  28.221  29.125  1.00  0.00     0.055 A 
ATOM     91  C   UNL A   1      38.703  26.549  30.580  1.00  0.00     0.041 A 
ATOM     92  F   UNL A   1      38.122  27.097  32.777  1.00  0.00    -0.206 F 
ATOM     93  C   UNL A   1      39.215  26.906  29.340  1.00  0.00     0.022 A 
BRANCH  90  94
ATOM     94  S   UNL A   1      40.286  28.663  27.477  1.00  0.00     0.124 S 
ATOM     95  O   UNL A   1      40.455  27.374  26.817  1.00  0.00    -0.237 OA
ATOM     96  O   UNL A   1      39.229  29.520  26.946  1.00  0.00    -0.237 OA
ATOM     97  O   UNL A   1      41.538  29.360  27.777  1.00  0.00    -0.744 OA
ENDBRANCH  90  94
ENDBRANCH  64  87
ENDBRANCH  38  39
ENDBRANCH  30  33
ENDBRANCH  28  29
ENDBRANCH  27  28
ENDBRANCH   1  27
TORSDOF 17
ENDMDL
MODEL 2
REMARK VINA RESULT:     -11.5      7.956     15.846
REMARK SMILES CCOc1ccc(-c2csc3ncn([C@H](C)C(=O)NCCCNC(=O)c4ccc(-c5c6nc(c(-c7cc(S(=O)(=O)[O-])ccc7F)c7ccc([nH]7)c(-c7cc(S(=O)(=O)[O-])ccc7F)c7nc(c(-c8cc(S(=O)(=O)[O-])ccc8F)c8ccc5[nH]8)C=C7)C=C6)cc4)c(=O)c23)cc1
REMARK SMILES IDX 20 1 19 2 17 3 18 4 15 6 16 7 14 8 8 9 9 10 91 11 10 12
REMARK SMILES IDX 11 13 89 14 12 15 90 16 13 17 7 18 4 19 5 20 93 21 6 22
REMARK SMILES IDX 92 23 3 24 2 25 1 26 21 27 22 28 23 29 24 30 25 32 26 33
REMARK SMILES IDX 27 34 88 35 28 36 87 37 29 38 30 39 31 40 81 41 32 42 86 43
REMARK SMILES IDX 80 44 82 45 33 46 85 47 79 48 78 49 34 51 66 52 46 53 65 54
REMARK SMILES IDX 47 55 50 56 64 57 83 58 48 59 49 60 63 62 84 63 51 64 35 65
REMARK SMILES IDX 36 66 44 67 37 68 43 69 45 70 42 71 38 72 39 73 40 74 41 75
REMARK SMILES IDX 67 76 68 77 76 78 69 79 75 80 77 81 74 82 70 83 71 84 72 85
REMARK SMILES IDX 73 86 52 87 53 88 61 89 54 90 60 91 62 92 59 93 55 94 56 95
REMARK SMILES IDX 57 96 58 97
REMARK H PARENT 19 5 23 31 82 50 50 61
REMARK Flexibility Score: inf
ROOT
ATOM      1  C   UNL A   1      33.427  30.148  27.460  1.00  0.00     0.117 C 
ENDROOT
BRANCH   1   2
ATOM      2  N   UNL A   1      32.536  30.324  26.317  1.00  0.00    -0.354 N 
ATOM      3  C   UNL A   1      31.889  29.376  25.566  1.00  0.00     0.242 C 
ATOM      4  O   UNL A   1      30.975  29.739  24.825  1.00  0.00    -0.273 OA
ATOM      5  H   UNL A   1      32.378  31.258  26.046  1.00  0.00     0.163 HD
BRANCH   3   6
ATOM      6  C   UNL A   1      32.265  27.886  25.679  1.00  0.00     0.177 C 
ATOM      7  C   UNL A   1      31.169  27.126  26.451  1.00  0.00     0.042 C 
BRANCH   6   8
ATOM      8  N   UNL A   1      32.669  27.229  24.419  1.00  0.00    -0.286 N 
ATOM      9  C   UNL A   1      32.785  23.969  22.500  1.00  0.00     0.007 A 
ATOM     10  C   UNL A   1      32.795  23.930  21.115  1.00  0.00     0.076 A 
ATOM     11  C   UNL A   1      32.678  25.314  22.980  1.00  0.00     0.085 A 
ATOM     12  S   UNL A   1      32.821  25.489  20.421  1.00  0.00    -0.123 S 
ATOM     13  C   UNL A   1      32.871  26.218  21.959  1.00  0.00     0.131 A 
ATOM     14  C   UNL A   1      32.526  25.841  24.328  1.00  0.00     0.263 A 
ATOM     15  N   UNL A   1      33.139  27.533  22.098  1.00  0.00    -0.227 NA
ATOM     16  O   UNL A   1      32.232  25.133  25.287  1.00  0.00    -0.268 OA
ATOM     17  C   UNL A   1      33.086  27.954  23.319  1.00  0.00     0.204 A 
BRANCH   9  18
ATOM     18  C   UNL A   1      33.081  22.763  23.255  1.00  0.00    -0.016 A 
ATOM     19  C   UNL A   1      33.544  20.367  24.618  1.00  0.00     0.119 A 
ATOM     20  C   UNL A   1      34.513  21.373  24.622  1.00  0.00     0.047 A 
ATOM     21  C   UNL A   1      32.335  20.565  23.961  1.00  0.00     0.047 A 
ATOM     22  C   UNL A   1      34.286  22.573  23.935  1.00  0.00     0.012 A 
ATOM     23  C   UNL A   1      32.114  21.748  23.265  1.00  0.00     0.012 A 
BRANCH  19  24
ATOM     24  O   UNL A   1      33.766  19.245  25.366  1.00  0.00    -0.494 OA
BRANCH  24  25
ATOM     25  C   UNL A   1      32.790  18.215  25.155  1.00  0.00     0.226 C 
ATOM     26  C   UNL A   1      33.338  16.827  25.456  1.00  0.00     0.049 C 
ENDBRANCH  24  25
ENDBRANCH  19  24
ENDBRANCH   9  18
ENDBRANCH   6   8
ENDBRANCH   3   6
ENDBRANCH   1   2
BRANCH   1  27
ATOM     27  C   UNL A   1      34.470  31.245  27.615  1.00  0.00     0.042 C 
BRANCH  27  28
ATOM     28  C   UNL A   1      35.777  30.712  28.178  1.00  0.00     0.118 C 
BRANCH  28  29
ATOM     29  N   UNL A   1      35.785  30.649  29.643  1.00  0.00    -0.352 N 
ATOM     30  C   UNL A   1      36.508  29.782  30.440  1.00  0.00     0.251 C 
ATOM     31  H   UNL A   1      35.210  31.297  30.111  1.00  0.00     0.163 HD
ATOM     32  O   UNL A   1      36.205  29.603  31.615  1.00  0.00    -0.269 OA
BRANCH  30  33
ATOM     33  C   UNL A   1      37.638  29.068  29.825  1.00  0.00     0.039 A 
ATOM     34  C   UNL A   1      38.214  29.521  28.637  1.00  0.00     0.014 A 
ATOM     35  C   UNL A   1      38.199  28.015  30.545  1.00  0.00     0.014 A 
ATOM     36  C   UNL A   1      39.436  28.982  28.241  1.00  0.00     0.010 A 
ATOM     37  C   UNL A   1      39.463  27.585  30.225  1.00  0.00     0.010 A 
ATOM     38  C   UNL A   1      40.082  28.044  29.063  1.00  0.00    -0.014 A 
BRANCH  38  39
ATOM     39  C   UNL A   1      41.469  27.657  28.799  1.00  0.00     0.031 A 
ATOM     40  C   UNL A   1      41.639  26.393  28.026  1.00  0.00     0.074 A 
ATOM     41  C   UNL A   1      42.523  28.479  28.993  1.00  0.00     0.049 A 
ATOM     42  N   UNL A   1      42.134  25.272  28.435  1.00  0.00    -0.248 NA
ATOM     43  C   UNL A   1      41.063  26.320  26.674  1.00  0.00     0.031 C 
ATOM     44  C   UNL A   1      42.507  29.876  29.441  1.00  0.00     0.029 A 
ATOM     45  N   UNL A   1      43.838  28.276  28.702  1.00  0.00    -0.354 N 
ATOM     46  C   UNL A   1      42.168  24.431  27.324  1.00  0.00     0.074 A 
ATOM     47  C   UNL A   1      41.307  25.047  26.351  1.00  0.00     0.031 C 
ATOM     48  C   UNL A   1      43.692  30.457  29.159  1.00  0.00     0.029 A 
ATOM     49  C   UNL A   1      44.607  29.435  28.685  1.00  0.00     0.049 A 
ATOM     50  H   UNL A   1      44.213  27.384  28.520  1.00  0.00     0.167 HD
ATOM     51  C   UNL A   1      43.094  23.435  27.218  1.00  0.00     0.034 A 
ATOM     52  C   UNL A   1      45.902  29.567  28.295  1.00  0.00     0.034 A 
ATOM     53  C   UNL A   1      43.716  23.176  28.500  1.00  0.00     0.049 A 
ATOM     54  C   UNL A   1      46.518  28.223  28.403  1.00  0.00     0.074 A 
ATOM     55  C   UNL A   1      43.246  22.834  29.755  1.00  0.00     0.029 A 
ATOM     56  N   UNL A   1      44.994  23.648  28.711  1.00  0.00    -0.354 N 
ATOM     57  N   UNL A   1      46.669  27.596  29.537  1.00  0.00    -0.248 NA
ATOM     58  C   UNL A   1      46.530  27.373  27.222  1.00  0.00     0.031 C 
ATOM     59  C   UNL A   1      44.034  23.604  30.662  1.00  0.00     0.029 A 
ATOM     60  C   UNL A   1      44.997  24.293  29.922  1.00  0.00     0.049 A 
ATOM     61  H   UNL A   1      45.763  23.540  28.105  1.00  0.00     0.167 HD
ATOM     62  C   UNL A   1      46.345  26.276  29.263  1.00  0.00     0.074 A 
ATOM     63  C   UNL A   1      46.384  26.178  27.804  1.00  0.00     0.031 C 
ATOM     64  C   UNL A   1      45.799  25.466  30.219  1.00  0.00     0.034 A 
BRANCH  51  65
ATOM     65  C   UNL A   1      43.723  22.951  25.921  1.00  0.00     0.023 A 
ATOM     66  C   UNL A   1      43.785  21.555  25.724  1.00  0.00     0.031 A 
ATOM     67  C   UNL A   1      44.506  23.721  25.032  1.00  0.00     0.131 A 
ATOM     68  C   UNL A   1      44.686  20.988  24.805  1.00  0.00     0.055 A 
ATOM     69  C   UNL A   1      45.348  23.154  24.069  1.00  0.00     0.041 A 
ATOM     70  F   UNL A   1      44.576  25.054  25.091  1.00  0.00    -0.206 F 
ATOM     71  C   UNL A   1      45.473  21.780  23.977  1.00  0.00     0.022 A 
BRANCH  68  72
ATOM     72  S   UNL A   1      44.953  19.199  24.865  1.00  0.00     0.124 S 
ATOM     73  O   UNL A   1      46.218  19.120  25.588  1.00  0.00    -0.237 OA
ATOM     74  O   UNL A   1      43.769  18.743  25.584  1.00  0.00    -0.237 OA
ATOM     75  O   UNL A   1      45.013  18.818  23.456  1.00  0.00    -0.744 OA
ENDBRANCH  68  72
ENDBRANCH  51  65
BRANCH  52  76
ATOM     76  C   UNL A   1      46.524  30.719  27.589  1.00  0.00     0.023 A 
ATOM     77  C   UNL A   1      45.782  31.633  26.814  1.00  0.00     0.031 A 
ATOM     78  C   UNL A   1      47.864  31.068  27.872  1.00  0.00     0.131 A 
ATOM     79  C   UNL A   1      46.381  32.833  26.362  1.00  0.00     0.055 A 
ATOM     80  C   UNL A   1      48.452  32.251  27.418  1.00  0.00     0.041 A 
ATOM     81  F   UNL A   1      48.625  30.309  28.677  1.00  0.00    -0.206 F 
ATOM     82  C   UNL A   1      47.707  33.145  26.668  1.00  0.00     0.022 A 
BRANCH  79  83
ATOM     83  S   UNL A   1      45.399  34.065  25.444  1.00  0.00     0.124 S 
ATOM     84  O   UNL A   1      44.671  34.739  26.512  1.00  0.00    -0.237 OA
ATOM     85  O   UNL A   1      46.429  34.844  24.766  1.00  0.00    -0.237 OA
ATOM     86  O   UNL A   1      44.571  33.248  24.557  1.00  0.00    -0.744 OA
ENDBRANCH  79  83
ENDBRANCH  52  76
BRANCH  64  87
ATOM     87  C   UNL A   1      45.839  25.920  31.666  1.00  0.00     0.023 A 
ATOM     88  C   UNL A   1      44.728  26.395  32.400  1.00  0.00     0.031 A 
ATOM     89  C   UNL A   1      47.048  25.740  32.362  1.00  0.00     0.131 A 
ATOM     90  C   UNL A   1      44.859  26.681  33.774  1.00  0.00     0.055 A 
ATOM     91  C   UNL A   1      47.169  26.002  33.725  1.00  0.00     0.041 A 
ATOM     92  F   UNL A   1      48.134  25.264  31.728  1.00  0.00    -0.206 F 
ATOM     93  C   UNL A   1      46.076  26.480  34.436  1.00  0.00     0.022 A 
BRANCH  90  94
ATOM     94  S   UNL A   1      43.453  27.335  34.731  1.00  0.00     0.124 S 
ATOM     95  O   UNL A   1      42.399  26.351  34.510  1.00  0.00    -0.237 OA
ATOM     96  O   UNL A   1      43.994  27.398  36.087  1.00  0.00    -0.237 OA
ATOM     97  O   UNL A   1      43.203  28.641  34.118  1.00  0.00    -0.744 OA
ENDBRANCH  90  94
ENDBRANCH  64  87
ENDBRANCH  38  39
ENDBRANCH  30  33
ENDBRANCH  28  29
ENDBRANCH  27  28
ENDBRANCH   1  27
TORSDOF 17
ENDMDL
MODEL 3
REMARK VINA RESULT:     -11.5      6.044     10.973
REMARK SMILES CCOc1ccc(-c2csc3ncn([C@H](C)C(=O)NCCCNC(=O)c4ccc(-c5c6nc(c(-c7cc(S(=O)(=O)[O-])ccc7F)c7ccc([nH]7)c(-c7cc(S(=O)(=O)[O-])ccc7F)c7nc(c(-c8cc(S(=O)(=O)[O-])ccc8F)c8ccc5[nH]8)C=C7)C=C6)cc4)c(=O)c23)cc1
REMARK SMILES IDX 20 1 19 2 17 3 18 4 15 6 16 7 14 8 8 9 9 10 91 11 10 12
REMARK SMILES IDX 11 13 89 14 12 15 90 16 13 17 7 18 4 19 5 20 93 21 6 22
REMARK SMILES IDX 92 23 3 24 2 25 1 26 21 27 22 28 23 29 24 30 25 32 26 33
REMARK SMILES IDX 27 34 88 35 28 36 87 37 29 38 30 39 31 40 81 41 32 42 86 43
REMARK SMILES IDX 80 44 82 45 33 46 85 47 79 48 78 49 34 51 66 52 46 53 65 54
REMARK SMILES IDX 47 55 50 56 64 57 83 58 48 59 49 60 63 62 84 63 51 64 35 65
REMARK SMILES IDX 36 66 44 67 37 68 43 69 45 70 42 71 38 72 39 73 40 74 41 75
REMARK SMILES IDX 67 76 68 77 76 78 69 79 75 80 77 81 74 82 70 83 71 84 72 85
REMARK SMILES IDX 73 86 52 87 53 88 61 89 54 90 60 91 62 92 59 93 55 94 56 95
REMARK SMILES IDX 57 96 58 97
REMARK H PARENT 19 5 23 31 82 50 50 61
REMARK Flexibility Score: inf
ROOT
ATOM      1  C   UNL A   1      35.736  33.815  32.651  1.00  0.00     0.117 C 
ENDROOT
BRANCH   1   2
ATOM      2  N   UNL A   1      36.433  32.539  32.780  1.00  0.00    -0.354 N 
ATOM      3  C   UNL A   1      37.429  32.178  33.653  1.00  0.00     0.242 C 
ATOM      4  O   UNL A   1      37.690  30.982  33.781  1.00  0.00    -0.273 OA
ATOM      5  H   UNL A   1      36.149  31.837  32.150  1.00  0.00     0.163 HD
BRANCH   3   6
ATOM      6  C   UNL A   1      38.172  33.240  34.488  1.00  0.00     0.177 C 
ATOM      7  C   UNL A   1      37.546  33.334  35.892  1.00  0.00     0.042 C 
BRANCH   6   8
ATOM      8  N   UNL A   1      39.645  33.130  34.499  1.00  0.00    -0.286 N 
ATOM      9  C   UNL A   1      42.874  34.335  32.935  1.00  0.00     0.007 A 
ATOM     10  C   UNL A   1      44.073  34.334  33.629  1.00  0.00     0.076 A 
ATOM     11  C   UNL A   1      41.794  33.890  33.764  1.00  0.00     0.085 A 
ATOM     12  S   UNL A   1      43.917  33.675  35.195  1.00  0.00    -0.123 S 
ATOM     13  C   UNL A   1      42.268  33.342  34.936  1.00  0.00     0.131 A 
ATOM     14  C   UNL A   1      40.361  33.823  33.519  1.00  0.00     0.263 A 
ATOM     15  N   UNL A   1      41.572  32.565  35.791  1.00  0.00    -0.227 NA
ATOM     16  O   UNL A   1      39.826  34.383  32.567  1.00  0.00    -0.268 OA
ATOM     17  C   UNL A   1      40.319  32.449  35.495  1.00  0.00     0.204 A 
BRANCH   9  18
ATOM     18  C   UNL A   1      42.874  34.557  31.498  1.00  0.00    -0.016 A 
ATOM     19  C   UNL A   1      42.966  35.112  28.760  1.00  0.00     0.119 A 
ATOM     20  C   UNL A   1      42.679  33.818  29.203  1.00  0.00     0.047 A 
ATOM     21  C   UNL A   1      43.179  36.133  29.679  1.00  0.00     0.047 A 
ATOM     22  C   UNL A   1      42.638  33.537  30.575  1.00  0.00     0.012 A 
ATOM     23  C   UNL A   1      43.154  35.853  31.040  1.00  0.00     0.012 A 
BRANCH  19  24
ATOM     24  O   UNL A   1      42.917  35.367  27.419  1.00  0.00    -0.494 OA
BRANCH  24  25
ATOM     25  C   UNL A   1      43.908  34.655  26.665  1.00  0.00     0.226 C 
ATOM     26  C   UNL A   1      43.538  34.530  25.194  1.00  0.00     0.049 C 
ENDBRANCH  24  25
ENDBRANCH  19  24
ENDBRANCH   9  18
ENDBRANCH   6   8
ENDBRANCH   3   6
ENDBRANCH   1   2
BRANCH   1  27
ATOM     27  C   UNL A   1      35.096  34.042  31.289  1.00  0.00     0.042 C 
BRANCH  27  28
ATOM     28  C   UNL A   1      34.585  32.749  30.677  1.00  0.00     0.118 C 
BRANCH  28  29
ATOM     29  N   UNL A   1      34.676  32.736  29.213  1.00  0.00    -0.352 N 
ATOM     30  C   UNL A   1      35.738  32.299  28.445  1.00  0.00     0.251 C 
ATOM     31  H   UNL A   1      33.892  33.077  28.724  1.00  0.00     0.163 HD
ATOM     32  O   UNL A   1      35.840  32.623  27.266  1.00  0.00    -0.269 OA
BRANCH  30  33
ATOM     33  C   UNL A   1      36.751  31.454  29.094  1.00  0.00     0.039 A 
ATOM     34  C   UNL A   1      36.612  30.065  29.133  1.00  0.00     0.014 A 
ATOM     35  C   UNL A   1      37.917  32.076  29.537  1.00  0.00     0.014 A 
ATOM     36  C   UNL A   1      37.711  29.295  29.510  1.00  0.00     0.010 A 
ATOM     37  C   UNL A   1      39.034  31.312  29.775  1.00  0.00     0.010 A 
ATOM     38  C   UNL A   1      38.937  29.922  29.788  1.00  0.00    -0.014 A 
BRANCH  38  39
ATOM     39  C   UNL A   1      40.158  29.128  29.936  1.00  0.00     0.031 A 
ATOM     40  C   UNL A   1      40.510  28.761  31.338  1.00  0.00     0.074 A 
ATOM     41  C   UNL A   1      40.795  28.537  28.901  1.00  0.00     0.049 A 
ATOM     42  N   UNL A   1      41.518  29.168  32.037  1.00  0.00    -0.248 NA
ATOM     43  C   UNL A   1      39.552  27.953  32.109  1.00  0.00     0.031 C 
ATOM     44  C   UNL A   1      40.399  28.523  27.489  1.00  0.00     0.029 A 
ATOM     45  N   UNL A   1      41.874  27.706  28.917  1.00  0.00    -0.354 N 
ATOM     46  C   UNL A   1      41.464  28.472  33.243  1.00  0.00     0.074 A 
ATOM     47  C   UNL A   1      40.136  27.923  33.310  1.00  0.00     0.031 C 
ATOM     48  C   UNL A   1      41.065  27.543  26.841  1.00  0.00     0.029 A 
ATOM     49  C   UNL A   1      42.060  26.987  27.739  1.00  0.00     0.049 A 
ATOM     50  H   UNL A   1      42.471  27.620  29.694  1.00  0.00     0.167 HD
ATOM     51  C   UNL A   1      42.594  28.206  33.958  1.00  0.00     0.034 A 
ATOM     52  C   UNL A   1      42.953  25.991  27.508  1.00  0.00     0.034 A 
ATOM     53  C   UNL A   1      43.696  29.028  33.499  1.00  0.00     0.049 A 
ATOM     54  C   UNL A   1      44.039  26.152  28.504  1.00  0.00     0.074 A 
ATOM     55  C   UNL A   1      43.900  30.389  33.363  1.00  0.00     0.029 A 
ATOM     56  N   UNL A   1      44.665  28.438  32.715  1.00  0.00    -0.354 N 
ATOM     57  N   UNL A   1      44.833  27.187  28.534  1.00  0.00    -0.248 NA
ATOM     58  C   UNL A   1      43.945  25.412  29.754  1.00  0.00     0.031 C 
ATOM     59  C   UNL A   1      44.598  30.531  32.127  1.00  0.00     0.029 A 
ATOM     60  C   UNL A   1      44.863  29.254  31.629  1.00  0.00     0.049 A 
ATOM     61  H   UNL A   1      45.129  27.590  32.901  1.00  0.00     0.167 HD
ATOM     62  C   UNL A   1      44.976  27.490  29.880  1.00  0.00     0.074 A 
ATOM     63  C   UNL A   1      44.505  26.297  30.583  1.00  0.00     0.031 C 
ATOM     64  C   UNL A   1      45.189  28.774  30.298  1.00  0.00     0.034 A 
BRANCH  51  65
ATOM     65  C   UNL A   1      42.832  26.964  34.802  1.00  0.00     0.023 A 
ATOM     66  C   UNL A   1      43.679  25.975  34.259  1.00  0.00     0.031 A 
ATOM     67  C   UNL A   1      42.079  26.560  35.928  1.00  0.00     0.131 A 
ATOM     68  C   UNL A   1      43.644  24.649  34.725  1.00  0.00     0.055 A 
ATOM     69  C   UNL A   1      42.102  25.256  36.435  1.00  0.00     0.041 A 
ATOM     70  F   UNL A   1      41.216  27.366  36.554  1.00  0.00    -0.206 F 
ATOM     71  C   UNL A   1      42.856  24.280  35.809  1.00  0.00     0.022 A 
BRANCH  68  72
ATOM     72  S   UNL A   1      44.492  23.379  33.752  1.00  0.00     0.124 S 
ATOM     73  O   UNL A   1      45.841  23.929  33.671  1.00  0.00    -0.237 OA
ATOM     74  O   UNL A   1      44.326  22.198  34.591  1.00  0.00    -0.237 OA
ATOM     75  O   UNL A   1      43.747  23.363  32.496  1.00  0.00    -0.744 OA
ENDBRANCH  68  72
ENDBRANCH  51  65
BRANCH  52  76
ATOM     76  C   UNL A   1      42.763  24.780  26.665  1.00  0.00     0.023 A 
ATOM     77  C   UNL A   1      43.720  24.343  25.727  1.00  0.00     0.031 A 
ATOM     78  C   UNL A   1      41.704  23.889  26.953  1.00  0.00     0.131 A 
ATOM     79  C   UNL A   1      43.596  23.067  25.127  1.00  0.00     0.055 A 
ATOM     80  C   UNL A   1      41.584  22.634  26.353  1.00  0.00     0.041 A 
ATOM     81  F   UNL A   1      40.793  24.175  27.898  1.00  0.00    -0.206 F 
ATOM     82  C   UNL A   1      42.538  22.213  25.443  1.00  0.00     0.022 A 
BRANCH  79  83
ATOM     83  S   UNL A   1      44.882  22.455  23.989  1.00  0.00     0.124 S 
ATOM     84  O   UNL A   1      45.858  23.539  24.010  1.00  0.00    -0.237 OA
ATOM     85  O   UNL A   1      45.287  21.203  24.618  1.00  0.00    -0.237 OA
ATOM     86  O   UNL A   1      44.169  22.296  22.721  1.00  0.00    -0.744 OA
ENDBRANCH  79  83
ENDBRANCH  52  76
BRANCH  64  87
ATOM     87  C   UNL A   1      45.582  29.818  29.271  1.00  0.00     0.023 A 
ATOM     88  C   UNL A   1      46.903  30.075  28.837  1.00  0.00     0.031 A 
ATOM     89  C   UNL A   1      44.540  30.497  28.615  1.00  0.00     0.131 A 
ATOM     90  C   UNL A   1      47.137  30.991  27.791  1.00  0.00     0.055 A 
ATOM     91  C   UNL A   1      44.772  31.385  27.567  1.00  0.00     0.041 A 
ATOM     92  F   UNL A   1      43.260  30.276  28.961  1.00  0.00    -0.206 F 
ATOM     93  C   UNL A   1      46.074  31.641  27.155  1.00  0.00     0.022 A 
BRANCH  90  94
ATOM     94  S   UNL A   1      48.834  31.371  27.244  1.00  0.00     0.124 S 
ATOM     95  O   UNL A   1      48.667  32.544  26.396  1.00  0.00    -0.237 OA
ATOM     96  O   UNL A   1      49.533  31.590  28.508  1.00  0.00    -0.237 OA
ATOM     97  O   UNL A   1      49.239  30.158  26.530  1.00  0.00    -0.744 OA
ENDBRANCH  90  94
ENDBRANCH  64  87
ENDBRANCH  38  39
ENDBRANCH  30  33
ENDBRANCH  28  29
ENDBRANCH  27  28
ENDBRANCH   1  27
TORSDOF 17
ENDMDL
