MODEL 1
REMARK VINA RESULT:     -11.6      0.000      0.000
REMARK SMILES Cc1ccc(C)c(N2C(=O)C[C@@H](SCC(=O)NCCCNC(=O)c3ccc(-c4c5nc(c(-c6cc(S(=O)(=O)[O-])ccc6F)c6ccc([nH]6)c(-c6cc(S(=O)(=O)[O-])ccc6F)c6nc(c(-c7cc(S(=O)(=O)[O-])ccc7F)c7ccc4[nH]7)C=C6)C=C5)cc3)C2=O)c1
REMARK SMILES IDX 19 1 18 2 17 3 15 4 16 5 14 7 13 8 12 9 8 10 9 11 87 12
REMARK SMILES IDX 10 13 11 14 88 15 7 16 1 17 2 18 3 19 89 20 4 21 5 22 6 23
REMARK SMILES IDX 20 24 21 25 22 26 23 28 24 29 25 30 86 31 26 32 85 33 27 34
REMARK SMILES IDX 28 35 29 36 79 37 30 38 84 39 78 40 80 41 31 42 83 43 77 44
REMARK SMILES IDX 76 45 32 47 64 48 44 49 63 50 45 51 48 52 62 53 81 54 46 55
REMARK SMILES IDX 47 56 61 58 82 59 49 60 33 61 34 62 42 63 35 64 41 65 43 66
REMARK SMILES IDX 40 67 36 68 37 69 38 70 39 71 65 72 66 73 74 74 67 75 73 76
REMARK SMILES IDX 75 77 72 78 68 79 69 80 70 81 71 82 50 83 51 84 59 85 52 86
REMARK SMILES IDX 58 87 60 88 57 89 53 90 54 91 55 92 56 93
REMARK H PARENT 17 6 21 27 80 46 48 57
REMARK Flexibility Score: inf
ROOT
ATOM      1  C   UNL A   1      36.423  33.618  28.732  1.00  0.00     0.042 C 
ENDROOT
BRANCH   1   2
ATOM      2  C   UNL A   1      35.081  33.720  27.991  1.00  0.00     0.117 C 
BRANCH   2   3
ATOM      3  N   UNL A   1      34.490  35.050  28.006  1.00  0.00    -0.355 N 
ATOM      4  C   UNL A   1      33.650  35.631  28.909  1.00  0.00     0.230 C 
ATOM      5  O   UNL A   1      33.206  36.754  28.668  1.00  0.00    -0.274 OA
ATOM      6  H   UNL A   1      34.735  35.621  27.242  1.00  0.00     0.163 HD
BRANCH   4   7
ATOM      7  C   UNL A   1      33.233  34.900  30.166  1.00  0.00     0.170 C 
BRANCH   7   8
ATOM      8  S   UNL A   1      34.353  35.218  31.561  1.00  0.00    -0.138 SA
BRANCH   8   9
ATOM      9  C   UNL A   1      34.104  33.689  32.564  1.00  0.00     0.146 C 
ATOM     10  N   UNL A   1      36.090  32.479  32.820  1.00  0.00    -0.249 N 
ATOM     11  C   UNL A   1      35.904  33.116  34.024  1.00  0.00     0.235 C 
ATOM     12  C   UNL A   1      35.011  32.629  31.983  1.00  0.00     0.247 C 
ATOM     13  O   UNL A   1      36.657  33.146  34.984  1.00  0.00    -0.274 OA
ATOM     14  C   UNL A   1      34.572  33.813  34.003  1.00  0.00     0.125 C 
ATOM     15  O   UNL A   1      34.782  32.035  30.934  1.00  0.00    -0.273 OA
BRANCH  10  16
ATOM     16  C   UNL A   1      37.228  31.701  32.506  1.00  0.00     0.055 A 
ATOM     17  C   UNL A   1      38.199  28.004  32.620  1.00  0.00     0.044 C 
ATOM     18  C   UNL A   1      38.267  29.487  32.406  1.00  0.00    -0.049 A 
ATOM     19  C   UNL A   1      39.414  30.058  31.853  1.00  0.00     0.004 A 
ATOM     20  C   UNL A   1      37.191  30.316  32.748  1.00  0.00     0.030 A 
ATOM     21  C   UNL A   1      39.480  31.434  31.639  1.00  0.00     0.006 A 
ATOM     22  C   UNL A   1      38.399  32.273  31.966  1.00  0.00    -0.027 A 
ATOM     23  C   UNL A   1      38.609  33.751  31.774  1.00  0.00     0.046 C 
ENDBRANCH  10  16
ENDBRANCH   8   9
ENDBRANCH   7   8
ENDBRANCH   4   7
ENDBRANCH   2   3
ENDBRANCH   1   2
BRANCH   1  24
ATOM     24  C   UNL A   1      37.190  32.308  28.559  1.00  0.00     0.118 C 
BRANCH  24  25
ATOM     25  N   UNL A   1      36.317  31.136  28.405  1.00  0.00    -0.352 N 
ATOM     26  C   UNL A   1      36.545  29.812  28.051  1.00  0.00     0.251 C 
ATOM     27  H   UNL A   1      35.370  31.330  28.594  1.00  0.00     0.163 HD
ATOM     28  O   UNL A   1      35.600  29.144  27.659  1.00  0.00    -0.269 OA
BRANCH  26  29
ATOM     29  C   UNL A   1      37.898  29.209  28.132  1.00  0.00     0.039 A 
ATOM     30  C   UNL A   1      38.231  28.192  29.031  1.00  0.00     0.014 A 
ATOM     31  C   UNL A   1      38.893  29.713  27.317  1.00  0.00     0.014 A 
ATOM     32  C   UNL A   1      39.563  27.765  29.091  1.00  0.00     0.010 A 
ATOM     33  C   UNL A   1      40.059  29.046  27.107  1.00  0.00     0.010 A 
ATOM     34  C   UNL A   1      40.473  28.230  28.128  1.00  0.00    -0.014 A 
BRANCH  34  35
ATOM     35  C   UNL A   1      41.880  27.888  28.102  1.00  0.00     0.031 A 
ATOM     36  C   UNL A   1      42.162  26.665  27.347  1.00  0.00     0.074 A 
ATOM     37  C   UNL A   1      42.888  28.716  28.458  1.00  0.00     0.049 A 
ATOM     38  N   UNL A   1      42.347  25.489  27.836  1.00  0.00    -0.248 NA
ATOM     39  C   UNL A   1      42.019  26.702  25.886  1.00  0.00     0.031 C 
ATOM     40  C   UNL A   1      42.830  30.125  28.866  1.00  0.00     0.029 A 
ATOM     41  N   UNL A   1      44.226  28.465  28.431  1.00  0.00    -0.354 N 
ATOM     42  C   UNL A   1      42.627  24.685  26.747  1.00  0.00     0.074 A 
ATOM     43  C   UNL A   1      42.139  25.405  25.600  1.00  0.00     0.031 C 
ATOM     44  C   UNL A   1      44.080  30.646  28.873  1.00  0.00     0.029 A 
ATOM     45  C   UNL A   1      45.036  29.580  28.618  1.00  0.00     0.049 A 
ATOM     46  H   UNL A   1      44.592  27.563  28.291  1.00  0.00     0.167 HD
ATOM     47  C   UNL A   1      43.486  23.638  26.866  1.00  0.00     0.034 A 
ATOM     48  C   UNL A   1      46.393  29.620  28.548  1.00  0.00     0.034 A 
ATOM     49  C   UNL A   1      43.777  23.369  28.265  1.00  0.00     0.049 A 
ATOM     50  C   UNL A   1      46.874  28.237  28.802  1.00  0.00     0.074 A 
ATOM     51  C   UNL A   1      42.999  23.115  29.381  1.00  0.00     0.029 A 
ATOM     52  N   UNL A   1      45.002  23.770  28.764  1.00  0.00    -0.354 N 
ATOM     53  N   UNL A   1      46.717  27.623  29.944  1.00  0.00    -0.248 NA
ATOM     54  C   UNL A   1      47.103  27.360  27.663  1.00  0.00     0.031 C 
ATOM     55  C   UNL A   1      43.609  23.857  30.437  1.00  0.00     0.029 A 
ATOM     56  C   UNL A   1      44.772  24.448  29.940  1.00  0.00     0.049 A 
ATOM     57  H   UNL A   1      45.880  23.603  28.352  1.00  0.00     0.167 HD
ATOM     58  C   UNL A   1      46.378  26.321  29.610  1.00  0.00     0.074 A 
ATOM     59  C   UNL A   1      46.747  26.190  28.202  1.00  0.00     0.031 C 
ATOM     60  C   UNL A   1      45.572  25.567  30.416  1.00  0.00     0.034 A 
BRANCH  47  61
ATOM     61  C   UNL A   1      44.341  23.090  25.747  1.00  0.00     0.023 A 
ATOM     62  C   UNL A   1      44.203  21.720  25.465  1.00  0.00     0.031 A 
ATOM     63  C   UNL A   1      45.431  23.737  25.120  1.00  0.00     0.131 A 
ATOM     64  C   UNL A   1      45.163  21.038  24.702  1.00  0.00     0.055 A 
ATOM     65  C   UNL A   1      46.342  23.068  24.296  1.00  0.00     0.041 A 
ATOM     66  F   UNL A   1      45.743  25.019  25.326  1.00  0.00    -0.206 F 
ATOM     67  C   UNL A   1      46.233  21.703  24.111  1.00  0.00     0.022 A 
BRANCH  64  68
ATOM     68  S   UNL A   1      45.083  19.232  24.657  1.00  0.00     0.124 S 
ATOM     69  O   UNL A   1      46.447  18.871  25.027  1.00  0.00    -0.237 OA
ATOM     70  O   UNL A   1      44.049  18.956  25.650  1.00  0.00    -0.237 OA
ATOM     71  O   UNL A   1      44.713  18.945  23.273  1.00  0.00    -0.744 OA
ENDBRANCH  64  68
ENDBRANCH  47  61
BRANCH  48  72
ATOM     72  C   UNL A   1      47.256  30.714  28.025  1.00  0.00     0.023 A 
ATOM     73  C   UNL A   1      46.765  31.752  27.204  1.00  0.00     0.031 A 
ATOM     74  C   UNL A   1      48.557  30.886  28.548  1.00  0.00     0.131 A 
ATOM     75  C   UNL A   1      47.560  32.893  26.943  1.00  0.00     0.055 A 
ATOM     76  C   UNL A   1      49.341  32.012  28.283  1.00  0.00     0.041 A 
ATOM     77  F   UNL A   1      49.079  30.004  29.416  1.00  0.00    -0.206 F 
ATOM     78  C   UNL A   1      48.840  33.028  27.485  1.00  0.00     0.022 A 
BRANCH  75  79
ATOM     79  S   UNL A   1      46.889  34.288  25.978  1.00  0.00     0.124 S 
ATOM     80  O   UNL A   1      46.565  35.258  27.018  1.00  0.00    -0.237 OA
ATOM     81  O   UNL A   1      48.002  34.626  25.099  1.00  0.00    -0.237 OA
ATOM     82  O   UNL A   1      45.730  33.707  25.298  1.00  0.00    -0.744 OA
ENDBRANCH  75  79
ENDBRANCH  48  72
BRANCH  60  83
ATOM     83  C   UNL A   1      45.314  26.045  31.836  1.00  0.00     0.023 A 
ATOM     84  C   UNL A   1      44.206  26.826  32.242  1.00  0.00     0.031 A 
ATOM     85  C   UNL A   1      46.186  25.590  32.842  1.00  0.00     0.131 A 
ATOM     86  C   UNL A   1      44.015  27.131  33.606  1.00  0.00     0.055 A 
ATOM     87  C   UNL A   1      45.982  25.875  34.192  1.00  0.00     0.041 A 
ATOM     88  F   UNL A   1      47.246  24.825  32.531  1.00  0.00    -0.206 F 
ATOM     89  C   UNL A   1      44.897  26.652  34.579  1.00  0.00     0.022 A 
BRANCH  86  90
ATOM     90  S   UNL A   1      42.618  28.173  34.140  1.00  0.00     0.124 S 
ATOM     91  O   UNL A   1      42.538  29.196  33.105  1.00  0.00    -0.237 OA
ATOM     92  O   UNL A   1      41.511  27.222  34.187  1.00  0.00    -0.237 OA
ATOM     93  O   UNL A   1      43.045  28.669  35.451  1.00  0.00    -0.744 OA
ENDBRANCH  86  90
ENDBRANCH  60  83
ENDBRANCH  34  35
ENDBRANCH  26  29
ENDBRANCH  24  25
ENDBRANCH   1  24
TORSDOF 16
ENDMDL
MODEL 2
REMARK VINA RESULT:     -11.5      4.549      9.204
REMARK SMILES Cc1ccc(C)c(N2C(=O)C[C@@H](SCC(=O)NCCCNC(=O)c3ccc(-c4c5nc(c(-c6cc(S(=O)(=O)[O-])ccc6F)c6ccc([nH]6)c(-c6cc(S(=O)(=O)[O-])ccc6F)c6nc(c(-c7cc(S(=O)(=O)[O-])ccc7F)c7ccc4[nH]7)C=C6)C=C5)cc3)C2=O)c1
REMARK SMILES IDX 19 1 18 2 17 3 15 4 16 5 14 7 13 8 12 9 8 10 9 11 87 12
REMARK SMILES IDX 10 13 11 14 88 15 7 16 1 17 2 18 3 19 89 20 4 21 5 22 6 23
REMARK SMILES IDX 20 24 21 25 22 26 23 28 24 29 25 30 86 31 26 32 85 33 27 34
REMARK SMILES IDX 28 35 29 36 79 37 30 38 84 39 78 40 80 41 31 42 83 43 77 44
REMARK SMILES IDX 76 45 32 47 64 48 44 49 63 50 45 51 48 52 62 53 81 54 46 55
REMARK SMILES IDX 47 56 61 58 82 59 49 60 33 61 34 62 42 63 35 64 41 65 43 66
REMARK SMILES IDX 40 67 36 68 37 69 38 70 39 71 65 72 66 73 74 74 67 75 73 76
REMARK SMILES IDX 75 77 72 78 68 79 69 80 70 81 71 82 50 83 51 84 59 85 52 86
REMARK SMILES IDX 58 87 60 88 57 89 53 90 54 91 55 92 56 93
REMARK H PARENT 17 6 21 27 80 46 48 57
REMARK Flexibility Score: inf
ROOT
ATOM      1  C   UNL A   1      32.186  30.457  26.464  1.00  0.00     0.042 C 
ENDROOT
BRANCH   1   2
ATOM      2  C   UNL A   1      31.843  29.319  25.491  1.00  0.00     0.117 C 
BRANCH   2   3
ATOM      3  N   UNL A   1      31.302  29.766  24.216  1.00  0.00    -0.355 N 
ATOM      4  C   UNL A   1      30.763  29.050  23.188  1.00  0.00     0.230 C 
ATOM      5  O   UNL A   1      30.443  29.643  22.157  1.00  0.00    -0.274 OA
ATOM      6  H   UNL A   1      31.330  30.739  24.072  1.00  0.00     0.163 HD
BRANCH   4   7
ATOM      7  C   UNL A   1      30.596  27.550  23.287  1.00  0.00     0.170 C 
BRANCH   7   8
ATOM      8  S   UNL A   1      32.063  26.647  22.709  1.00  0.00    -0.138 SA
BRANCH   8   9
ATOM      9  C   UNL A   1      31.517  24.901  22.953  1.00  0.00     0.146 C 
ATOM     10  N   UNL A   1      33.035  23.683  24.251  1.00  0.00    -0.249 N 
ATOM     11  C   UNL A   1      31.991  23.969  25.098  1.00  0.00     0.235 C 
ATOM     12  C   UNL A   1      32.763  24.046  22.954  1.00  0.00     0.247 C 
ATOM     13  O   UNL A   1      31.910  23.743  26.295  1.00  0.00    -0.274 OA
ATOM     14  C   UNL A   1      30.896  24.634  24.312  1.00  0.00     0.125 C 
ATOM     15  O   UNL A   1      33.393  23.758  21.941  1.00  0.00    -0.273 OA
BRANCH  10  16
ATOM     16  C   UNL A   1      34.223  23.030  24.653  1.00  0.00     0.055 A 
ATOM     17  C   UNL A   1      37.627  24.054  26.064  1.00  0.00     0.044 C 
ATOM     18  C   UNL A   1      36.493  23.218  25.552  1.00  0.00    -0.049 A 
ATOM     19  C   UNL A   1      36.605  21.827  25.538  1.00  0.00     0.004 A 
ATOM     20  C   UNL A   1      35.310  23.810  25.089  1.00  0.00     0.030 A 
ATOM     21  C   UNL A   1      35.549  21.042  25.076  1.00  0.00     0.006 A 
ATOM     22  C   UNL A   1      34.353  21.626  24.623  1.00  0.00    -0.027 A 
ATOM     23  C   UNL A   1      33.313  20.691  24.066  1.00  0.00     0.046 C 
ENDBRANCH  10  16
ENDBRANCH   8   9
ENDBRANCH   7   8
ENDBRANCH   4   7
ENDBRANCH   2   3
ENDBRANCH   1   2
BRANCH   1  24
ATOM     24  C   UNL A   1      33.520  30.337  27.199  1.00  0.00     0.118 C 
BRANCH  24  25
ATOM     25  N   UNL A   1      33.920  31.570  27.891  1.00  0.00    -0.352 N 
ATOM     26  C   UNL A   1      34.986  31.902  28.718  1.00  0.00     0.251 C 
ATOM     27  H   UNL A   1      33.301  32.320  27.736  1.00  0.00     0.163 HD
ATOM     28  O   UNL A   1      34.882  32.886  29.434  1.00  0.00    -0.269 OA
BRANCH  26  29
ATOM     29  C   UNL A   1      36.226  31.088  28.749  1.00  0.00     0.039 A 
ATOM     30  C   UNL A   1      36.313  29.803  28.204  1.00  0.00     0.014 A 
ATOM     31  C   UNL A   1      37.335  31.602  29.393  1.00  0.00     0.014 A 
ATOM     32  C   UNL A   1      37.502  29.086  28.377  1.00  0.00     0.010 A 
ATOM     33  C   UNL A   1      38.576  31.075  29.221  1.00  0.00     0.010 A 
ATOM     34  C   UNL A   1      38.622  29.739  28.917  1.00  0.00    -0.014 A 
BRANCH  34  35
ATOM     35  C   UNL A   1      39.896  29.100  29.172  1.00  0.00     0.031 A 
ATOM     36  C   UNL A   1      40.162  28.892  30.598  1.00  0.00     0.074 A 
ATOM     37  C   UNL A   1      40.655  28.480  28.240  1.00  0.00     0.049 A 
ATOM     38  N   UNL A   1      40.890  29.632  31.356  1.00  0.00    -0.248 NA
ATOM     39  C   UNL A   1      39.373  27.878  31.310  1.00  0.00     0.031 C 
ATOM     40  C   UNL A   1      40.366  28.236  26.822  1.00  0.00     0.029 A 
ATOM     41  N   UNL A   1      41.844  27.840  28.420  1.00  0.00    -0.354 N 
ATOM     42  C   UNL A   1      40.878  29.007  32.590  1.00  0.00     0.074 A 
ATOM     43  C   UNL A   1      39.735  28.133  32.568  1.00  0.00     0.031 C 
ATOM     44  C   UNL A   1      41.264  27.353  26.323  1.00  0.00     0.029 A 
ATOM     45  C   UNL A   1      42.273  27.085  27.335  1.00  0.00     0.049 A 
ATOM     46  H   UNL A   1      42.359  27.908  29.255  1.00  0.00     0.167 HD
ATOM     47  C   UNL A   1      41.968  29.059  33.400  1.00  0.00     0.034 A 
ATOM     48  C   UNL A   1      43.371  26.284  27.284  1.00  0.00     0.034 A 
ATOM     49  C   UNL A   1      42.924  30.041  32.913  1.00  0.00     0.049 A 
ATOM     50  C   UNL A   1      44.306  26.777  28.330  1.00  0.00     0.074 A 
ATOM     51  C   UNL A   1      42.848  31.387  32.597  1.00  0.00     0.029 A 
ATOM     52  N   UNL A   1      44.057  29.584  32.269  1.00  0.00    -0.354 N 
ATOM     53  N   UNL A   1      44.872  27.952  28.287  1.00  0.00    -0.248 NA
ATOM     54  C   UNL A   1      44.249  26.173  29.653  1.00  0.00     0.031 C 
ATOM     55  C   UNL A   1      43.613  31.532  31.401  1.00  0.00     0.029 A 
ATOM     56  C   UNL A   1      44.189  30.296  31.099  1.00  0.00     0.049 A 
ATOM     57  H   UNL A   1      44.661  28.875  32.589  1.00  0.00     0.167 HD
ATOM     58  C   UNL A   1      44.828  28.422  29.592  1.00  0.00     0.074 A 
ATOM     59  C   UNL A   1      44.544  27.240  30.403  1.00  0.00     0.031 C 
ATOM     60  C   UNL A   1      44.740  29.758  29.864  1.00  0.00     0.034 A 
BRANCH  47  61
ATOM     61  C   UNL A   1      42.348  27.997  34.406  1.00  0.00     0.023 A 
ATOM     62  C   UNL A   1      43.108  26.918  33.923  1.00  0.00     0.031 A 
ATOM     63  C   UNL A   1      41.826  27.841  35.711  1.00  0.00     0.131 A 
ATOM     64  C   UNL A   1      43.229  25.730  34.660  1.00  0.00     0.055 A 
ATOM     65  C   UNL A   1      42.013  26.684  36.473  1.00  0.00     0.041 A 
ATOM     66  F   UNL A   1      41.033  28.742  36.298  1.00  0.00    -0.206 F 
ATOM     67  C   UNL A   1      42.689  25.605  35.936  1.00  0.00     0.022 A 
BRANCH  64  68
ATOM     68  S   UNL A   1      43.946  24.290  33.834  1.00  0.00     0.124 S 
ATOM     69  O   UNL A   1      44.015  24.752  32.452  1.00  0.00    -0.237 OA
ATOM     70  O   UNL A   1      45.220  24.151  34.533  1.00  0.00    -0.237 OA
ATOM     71  O   UNL A   1      42.972  23.233  34.092  1.00  0.00    -0.744 OA
ENDBRANCH  64  68
ENDBRANCH  47  61
BRANCH  48  72
ATOM     72  C   UNL A   1      43.533  24.987  26.573  1.00  0.00     0.023 A 
ATOM     73  C   UNL A   1      42.781  23.837  26.898  1.00  0.00     0.031 A 
ATOM     74  C   UNL A   1      44.275  24.938  25.372  1.00  0.00     0.131 A 
ATOM     75  C   UNL A   1      42.790  22.712  26.038  1.00  0.00     0.055 A 
ATOM     76  C   UNL A   1      44.286  23.823  24.530  1.00  0.00     0.041 A 
ATOM     77  F   UNL A   1      44.946  26.012  24.925  1.00  0.00    -0.206 F 
ATOM     78  C   UNL A   1      43.533  22.706  24.856  1.00  0.00     0.022 A 
BRANCH  75  79
ATOM     79  S   UNL A   1      41.733  21.269  26.391  1.00  0.00     0.124 S 
ATOM     80  O   UNL A   1      42.322  20.238  25.544  1.00  0.00    -0.237 OA
ATOM     81  O   UNL A   1      41.901  21.101  27.830  1.00  0.00    -0.237 OA
ATOM     82  O   UNL A   1      40.399  21.713  25.981  1.00  0.00    -0.744 OA
ENDBRANCH  75  79
ENDBRANCH  48  72
BRANCH  60  83
ATOM     83  C   UNL A   1      45.018  30.747  28.743  1.00  0.00     0.023 A 
ATOM     84  C   UNL A   1      46.294  31.260  28.410  1.00  0.00     0.031 A 
ATOM     85  C   UNL A   1      43.943  31.098  27.906  1.00  0.00     0.131 A 
ATOM     86  C   UNL A   1      46.451  32.099  27.287  1.00  0.00     0.055 A 
ATOM     87  C   UNL A   1      44.105  31.909  26.783  1.00  0.00     0.041 A 
ATOM     88  F   UNL A   1      42.708  30.628  28.150  1.00  0.00    -0.206 F 
ATOM     89  C   UNL A   1      45.360  32.418  26.472  1.00  0.00     0.022 A 
BRANCH  86  90
ATOM     90  S   UNL A   1      48.079  32.805  26.871  1.00  0.00     0.124 S 
ATOM     91  O   UNL A   1      48.492  33.463  28.105  1.00  0.00    -0.237 OA
ATOM     92  O   UNL A   1      48.849  31.625  26.487  1.00  0.00    -0.237 OA
ATOM     93  O   UNL A   1      47.781  33.719  25.766  1.00  0.00    -0.744 OA
ENDBRANCH  86  90
ENDBRANCH  60  83
ENDBRANCH  34  35
ENDBRANCH  26  29
ENDBRANCH  24  25
ENDBRANCH   1  24
TORSDOF 16
ENDMDL
MODEL 3
REMARK VINA RESULT:     -11.5      4.420      8.966
REMARK SMILES Cc1ccc(C)c(N2C(=O)C[C@@H](SCC(=O)NCCCNC(=O)c3ccc(-c4c5nc(c(-c6cc(S(=O)(=O)[O-])ccc6F)c6ccc([nH]6)c(-c6cc(S(=O)(=O)[O-])ccc6F)c6nc(c(-c7cc(S(=O)(=O)[O-])ccc7F)c7ccc4[nH]7)C=C6)C=C5)cc3)C2=O)c1
REMARK SMILES IDX 19 1 18 2 17 3 15 4 16 5 14 7 13 8 12 9 8 10 9 11 87 12
REMARK SMILES IDX 10 13 11 14 88 15 7 16 1 17 2 18 3 19 89 20 4 21 5 22 6 23
REMARK SMILES IDX 20 24 21 25 22 26 23 28 24 29 25 30 86 31 26 32 85 33 27 34
REMARK SMILES IDX 28 35 29 36 79 37 30 38 84 39 78 40 80 41 31 42 83 43 77 44
REMARK SMILES IDX 76 45 32 47 64 48 44 49 63 50 45 51 48 52 62 53 81 54 46 55
REMARK SMILES IDX 47 56 61 58 82 59 49 60 33 61 34 62 42 63 35 64 41 65 43 66
REMARK SMILES IDX 40 67 36 68 37 69 38 70 39 71 65 72 66 73 74 74 67 75 73 76
REMARK SMILES IDX 75 77 72 78 68 79 69 80 70 81 71 82 50 83 51 84 59 85 52 86
REMARK SMILES IDX 58 87 60 88 57 89 53 90 54 91 55 92 56 93
REMARK H PARENT 17 6 21 27 80 46 48 57
REMARK Flexibility Score: inf
ROOT
ATOM      1  C   UNL A   1      32.956  31.205  27.387  1.00  0.00     0.042 C 
ENDROOT
BRANCH   1   2
ATOM      2  C   UNL A   1      32.942  30.130  26.289  1.00  0.00     0.117 C 
BRANCH   2   3
ATOM      3  N   UNL A   1      31.812  30.224  25.376  1.00  0.00    -0.355 N 
ATOM      4  C   UNL A   1      31.203  29.262  24.626  1.00  0.00     0.230 C 
ATOM      5  O   UNL A   1      30.304  29.594  23.852  1.00  0.00    -0.274 OA
ATOM      6  H   UNL A   1      31.427  31.125  25.285  1.00  0.00     0.163 HD
BRANCH   4   7
ATOM      7  C   UNL A   1      31.644  27.817  24.706  1.00  0.00     0.170 C 
BRANCH   7   8
ATOM      8  S   UNL A   1      32.360  27.221  23.146  1.00  0.00    -0.138 SA
BRANCH   8   9
ATOM      9  C   UNL A   1      31.755  25.477  23.128  1.00  0.00     0.146 C 
ATOM     10  N   UNL A   1      33.168  24.049  24.326  1.00  0.00    -0.249 N 
ATOM     11  C   UNL A   1      32.088  24.256  25.151  1.00  0.00     0.235 C 
ATOM     12  C   UNL A   1      32.976  24.588  23.077  1.00  0.00     0.247 C 
ATOM     13  O   UNL A   1      31.937  23.877  26.302  1.00  0.00    -0.274 OA
ATOM     14  C   UNL A   1      31.055  25.055  24.407  1.00  0.00     0.125 C 
ATOM     15  O   UNL A   1      33.652  24.415  22.068  1.00  0.00    -0.273 OA
BRANCH  10  16
ATOM     16  C   UNL A   1      34.315  23.309  24.696  1.00  0.00     0.055 A 
ATOM     17  C   UNL A   1      37.780  24.066  26.127  1.00  0.00     0.044 C 
ATOM     18  C   UNL A   1      36.594  23.322  25.589  1.00  0.00    -0.049 A 
ATOM     19  C   UNL A   1      36.621  21.928  25.521  1.00  0.00     0.004 A 
ATOM     20  C   UNL A   1      35.449  24.003  25.157  1.00  0.00     0.030 A 
ATOM     21  C   UNL A   1      35.518  21.228  25.035  1.00  0.00     0.006 A 
ATOM     22  C   UNL A   1      34.358  21.902  24.611  1.00  0.00    -0.027 A 
ATOM     23  C   UNL A   1      33.260  21.055  24.024  1.00  0.00     0.046 C 
ENDBRANCH  10  16
ENDBRANCH   8   9
ENDBRANCH   7   8
ENDBRANCH   4   7
ENDBRANCH   2   3
ENDBRANCH   1   2
BRANCH   1  24
ATOM     24  C   UNL A   1      34.277  31.947  27.585  1.00  0.00     0.118 C 
BRANCH  24  25
ATOM     25  N   UNL A   1      34.440  32.499  28.938  1.00  0.00    -0.352 N 
ATOM     26  C   UNL A   1      35.159  32.095  30.056  1.00  0.00     0.251 C 
ATOM     27  H   UNL A   1      33.934  33.330  29.081  1.00  0.00     0.163 HD
ATOM     28  O   UNL A   1      34.835  32.540  31.147  1.00  0.00    -0.269 OA
BRANCH  26  29
ATOM     29  C   UNL A   1      36.289  31.139  29.949  1.00  0.00     0.039 A 
ATOM     30  C   UNL A   1      36.148  29.837  29.460  1.00  0.00     0.014 A 
ATOM     31  C   UNL A   1      37.532  31.536  30.404  1.00  0.00     0.014 A 
ATOM     32  C   UNL A   1      37.260  28.988  29.495  1.00  0.00     0.010 A 
ATOM     33  C   UNL A   1      38.665  30.859  30.082  1.00  0.00     0.010 A 
ATOM     34  C   UNL A   1      38.513  29.519  29.838  1.00  0.00    -0.014 A 
BRANCH  34  35
ATOM     35  C   UNL A   1      39.730  28.740  29.940  1.00  0.00     0.031 A 
ATOM     36  C   UNL A   1      40.101  28.426  31.322  1.00  0.00     0.074 A 
ATOM     37  C   UNL A   1      40.331  28.100  28.911  1.00  0.00     0.049 A 
ATOM     38  N   UNL A   1      40.970  29.044  32.041  1.00  0.00    -0.248 NA
ATOM     39  C   UNL A   1      39.276  27.459  32.058  1.00  0.00     0.031 C 
ATOM     40  C   UNL A   1      39.890  27.967  27.518  1.00  0.00     0.029 A 
ATOM     41  N   UNL A   1      41.456  27.333  28.946  1.00  0.00    -0.354 N 
ATOM     42  C   UNL A   1      41.003  28.355  33.240  1.00  0.00     0.074 A 
ATOM     43  C   UNL A   1      39.776  27.604  33.287  1.00  0.00     0.031 C 
ATOM     44  C   UNL A   1      40.639  27.027  26.894  1.00  0.00     0.029 A 
ATOM     45  C   UNL A   1      41.702  26.600  27.790  1.00  0.00     0.049 A 
ATOM     46  H   UNL A   1      42.050  27.300  29.730  1.00  0.00     0.167 HD
ATOM     47  C   UNL A   1      42.162  28.249  33.943  1.00  0.00     0.034 A 
ATOM     48  C   UNL A   1      42.699  25.696  27.597  1.00  0.00     0.034 A 
ATOM     49  C   UNL A   1      43.168  29.155  33.412  1.00  0.00     0.049 A 
ATOM     50  C   UNL A   1      43.773  26.031  28.569  1.00  0.00     0.074 A 
ATOM     51  C   UNL A   1      43.208  30.517  33.168  1.00  0.00     0.029 A 
ATOM     52  N   UNL A   1      44.183  28.622  32.641  1.00  0.00    -0.354 N 
ATOM     53  N   UNL A   1      44.455  27.144  28.528  1.00  0.00    -0.248 NA
ATOM     54  C   UNL A   1      43.772  25.362  29.862  1.00  0.00     0.031 C 
ATOM     55  C   UNL A   1      43.872  30.651  31.912  1.00  0.00     0.029 A 
ATOM     56  C   UNL A   1      44.284  29.382  31.498  1.00  0.00     0.049 A 
ATOM     57  H   UNL A   1      44.734  27.838  32.868  1.00  0.00     0.167 HD
ATOM     58  C   UNL A   1      44.580  27.540  29.851  1.00  0.00     0.074 A 
ATOM     59  C   UNL A   1      44.246  26.350  30.629  1.00  0.00     0.031 C 
ATOM     60  C   UNL A   1      44.659  28.862  30.192  1.00  0.00     0.034 A 
BRANCH  47  61
ATOM     61  C   UNL A   1      42.516  27.100  34.856  1.00  0.00     0.023 A 
ATOM     62  C   UNL A   1      43.395  26.133  34.338  1.00  0.00     0.031 A 
ATOM     63  C   UNL A   1      41.880  26.757  36.073  1.00  0.00     0.131 A 
ATOM     64  C   UNL A   1      43.528  24.875  34.944  1.00  0.00     0.055 A 
ATOM     65  C   UNL A   1      42.075  25.531  36.715  1.00  0.00     0.041 A 
ATOM     66  F   UNL A   1      40.971  27.533  36.670  1.00  0.00    -0.206 F 
ATOM     67  C   UNL A   1      42.875  24.566  36.133  1.00  0.00     0.022 A 
BRANCH  64  68
ATOM     68  S   UNL A   1      44.423  23.590  34.041  1.00  0.00     0.124 S 
ATOM     69  O   UNL A   1      44.960  22.786  35.135  1.00  0.00    -0.237 OA
ATOM     70  O   UNL A   1      43.355  22.979  33.256  1.00  0.00    -0.237 OA
ATOM     71  O   UNL A   1      45.412  24.343  33.275  1.00  0.00    -0.744 OA
ENDBRANCH  64  68
ENDBRANCH  47  61
BRANCH  48  72
ATOM     72  C   UNL A   1      42.657  24.432  26.814  1.00  0.00     0.023 A 
ATOM     73  C   UNL A   1      43.714  24.012  25.978  1.00  0.00     0.031 A 
ATOM     74  C   UNL A   1      41.648  23.479  27.083  1.00  0.00     0.131 A 
ATOM     75  C   UNL A   1      43.734  22.696  25.458  1.00  0.00     0.055 A 
ATOM     76  C   UNL A   1      41.669  22.183  26.561  1.00  0.00     0.041 A 
ATOM     77  F   UNL A   1      40.651  23.746  27.940  1.00  0.00    -0.206 F 
ATOM     78  C   UNL A   1      42.719  21.781  25.753  1.00  0.00     0.022 A 
BRANCH  75  79
ATOM     79  S   UNL A   1      45.152  22.110  24.473  1.00  0.00     0.124 S 
ATOM     80  O   UNL A   1      46.029  21.550  25.495  1.00  0.00    -0.237 OA
ATOM     81  O   UNL A   1      44.530  21.160  23.559  1.00  0.00    -0.237 OA
ATOM     82  O   UNL A   1      45.653  23.330  23.836  1.00  0.00    -0.744 OA
ENDBRANCH  75  79
ENDBRANCH  48  72
BRANCH  60  83
ATOM     83  C   UNL A   1      44.939  29.879  29.097  1.00  0.00     0.023 A 
ATOM     84  C   UNL A   1      46.226  30.299  28.687  1.00  0.00     0.031 A 
ATOM     85  C   UNL A   1      43.839  30.361  28.364  1.00  0.00     0.131 A 
ATOM     86  C   UNL A   1      46.371  31.176  27.593  1.00  0.00     0.055 A 
ATOM     87  C   UNL A   1      43.987  31.211  27.268  1.00  0.00     0.041 A 
ATOM     88  F   UNL A   1      42.589  29.985  28.684  1.00  0.00    -0.206 F 
ATOM     89  C   UNL A   1      45.255  31.627  26.882  1.00  0.00     0.022 A 
BRANCH  86  90
ATOM     90  S   UNL A   1      48.019  31.764  27.081  1.00  0.00     0.124 S 
ATOM     91  O   UNL A   1      47.724  32.819  26.120  1.00  0.00    -0.237 OA
ATOM     92  O   UNL A   1      48.608  32.197  28.346  1.00  0.00    -0.237 OA
ATOM     93  O   UNL A   1      48.641  30.571  26.501  1.00  0.00    -0.744 OA
ENDBRANCH  86  90
ENDBRANCH  60  83
ENDBRANCH  34  35
ENDBRANCH  26  29
ENDBRANCH  24  25
ENDBRANCH   1  24
TORSDOF 16
ENDMDL
