MODEL 1
REMARK VINA RESULT:     -12.3      0.000      0.000
REMARK SMILES CC(=O)Oc1c(Cl)cc(-c2ccccc2)cc1C(=O)NCCCNC(=O)c1ccc(-c2c3nc(c(-c4cc(S(=O)(=O)[O-])ccc4F)c4ccc([nH]4)c(-c4cc(S(=O)(=O)[O-])ccc4F)c4nc(c(-c5cc(S(=O)(=O)[O-])ccc5F)c5ccc2[nH]5)C=C4)C=C3)cc1
REMARK SMILES IDX 22 1 21 2 20 3 18 4 19 5 17 7 5 8 6 9 7 10 8 11 16 12 9 13
REMARK SMILES IDX 4 14 2 15 1 16 3 17 10 18 11 19 15 20 12 21 14 22 13 23
REMARK SMILES IDX 23 24 24 25 25 26 26 28 27 29 28 30 89 31 29 32 88 33 30 34
REMARK SMILES IDX 31 35 32 36 82 37 33 38 87 39 81 40 83 41 34 42 86 43 80 44
REMARK SMILES IDX 79 45 35 47 67 48 47 49 66 50 48 51 51 52 65 53 84 54 49 55
REMARK SMILES IDX 50 56 64 58 85 59 52 60 36 61 37 62 45 63 38 64 44 65 46 66
REMARK SMILES IDX 43 67 39 68 40 69 41 70 42 71 68 72 69 73 77 74 70 75 76 76
REMARK SMILES IDX 78 77 75 78 71 79 72 80 73 81 74 82 53 83 54 84 62 85 55 86
REMARK SMILES IDX 61 87 63 88 60 89 56 90 57 91 58 92 59 93
REMARK H PARENT 20 6 24 27 83 46 51 57
REMARK Flexibility Score: inf
ROOT
ATOM      1  C   UNL A   1      32.232  30.046  25.367  1.00  0.00     0.042 C 
ENDROOT
BRANCH   1   2
ATOM      2  C   UNL A   1      33.452  29.226  25.028  1.00  0.00     0.118 C 
BRANCH   2   3
ATOM      3  N   UNL A   1      33.849  29.132  23.657  1.00  0.00    -0.352 N 
ATOM      4  C   UNL A   1      33.743  28.048  22.819  1.00  0.00     0.255 C 
ATOM      5  O   UNL A   1      34.091  28.221  21.648  1.00  0.00    -0.269 OA
ATOM      6  H   UNL A   1      34.248  29.943  23.266  1.00  0.00     0.163 HD
BRANCH   4   7
ATOM      7  C   UNL A   1      33.309  26.666  23.235  1.00  0.00     0.084 A 
ATOM      8  C   UNL A   1      32.046  26.047  23.111  1.00  0.00     0.162 A 
ATOM      9  C   UNL A   1      31.906  24.676  23.417  1.00  0.00     0.085 A 
ATOM     10  Cl  UNL A   1      30.436  23.801  23.123  1.00  0.00    -0.080 Cl
ATOM     11  C   UNL A   1      32.982  23.935  23.896  1.00  0.00     0.033 A 
ATOM     12  C   UNL A   1      34.388  25.871  23.707  1.00  0.00     0.026 A 
ATOM     13  C   UNL A   1      34.247  24.511  24.029  1.00  0.00    -0.016 A 
BRANCH   8  14
ATOM     14  O   UNL A   1      30.919  26.711  22.586  1.00  0.00    -0.424 OA
BRANCH  14  15
ATOM     15  C   UNL A   1      30.142  27.362  23.562  1.00  0.00     0.308 C 
ATOM     16  C   UNL A   1      29.243  28.375  22.916  1.00  0.00     0.139 C 
ATOM     17  O   UNL A   1      30.255  27.220  24.773  1.00  0.00    -0.252 OA
ENDBRANCH  14  15
ENDBRANCH   8  14
BRANCH  13  18
ATOM     18  C   UNL A   1      35.395  23.675  24.410  1.00  0.00    -0.018 A 
ATOM     19  C   UNL A   1      35.955  23.799  25.695  1.00  0.00     0.009 A 
ATOM     20  C   UNL A   1      35.978  22.763  23.520  1.00  0.00     0.009 A 
ATOM     21  C   UNL A   1      37.073  23.053  26.073  1.00  0.00     0.001 A 
ATOM     22  C   UNL A   1      37.099  22.015  23.897  1.00  0.00     0.001 A 
ATOM     23  C   UNL A   1      37.648  22.164  25.171  1.00  0.00     0.000 A 
ENDBRANCH  13  18
ENDBRANCH   4   7
ENDBRANCH   2   3
ENDBRANCH   1   2
BRANCH   1  24
ATOM     24  C   UNL A   1      32.097  30.505  26.805  1.00  0.00     0.118 C 
BRANCH  24  25
ATOM     25  N   UNL A   1      32.298  31.933  27.016  1.00  0.00    -0.352 N 
ATOM     26  C   UNL A   1      33.335  32.673  27.538  1.00  0.00     0.251 C 
ATOM     27  H   UNL A   1      31.534  32.482  26.724  1.00  0.00     0.163 HD
ATOM     28  O   UNL A   1      33.171  33.890  27.648  1.00  0.00    -0.269 OA
BRANCH  26  29
ATOM     29  C   UNL A   1      34.599  32.058  28.020  1.00  0.00     0.039 A 
ATOM     30  C   UNL A   1      35.730  32.871  28.166  1.00  0.00     0.014 A 
ATOM     31  C   UNL A   1      34.709  30.704  28.323  1.00  0.00     0.014 A 
ATOM     32  C   UNL A   1      36.910  32.346  28.702  1.00  0.00     0.010 A 
ATOM     33  C   UNL A   1      35.824  30.221  29.001  1.00  0.00     0.010 A 
ATOM     34  C   UNL A   1      36.949  31.030  29.189  1.00  0.00    -0.014 A 
BRANCH  34  35
ATOM     35  C   UNL A   1      38.154  30.492  29.879  1.00  0.00     0.031 A 
ATOM     36  C   UNL A   1      38.462  30.876  31.305  1.00  0.00     0.074 A 
ATOM     37  C   UNL A   1      39.002  29.693  29.197  1.00  0.00     0.049 A 
ATOM     38  N   UNL A   1      39.469  30.517  32.062  1.00  0.00    -0.248 NA
ATOM     39  C   UNL A   1      37.541  31.822  31.956  1.00  0.00     0.031 C 
ATOM     40  C   UNL A   1      38.858  29.316  27.788  1.00  0.00     0.029 A 
ATOM     41  N   UNL A   1      40.145  29.046  29.593  1.00  0.00    -0.354 N 
ATOM     42  C   UNL A   1      39.307  31.200  33.264  1.00  0.00     0.074 A 
ATOM     43  C   UNL A   1      38.156  32.059  33.104  1.00  0.00     0.031 C 
ATOM     44  C   UNL A   1      39.836  28.457  27.458  1.00  0.00     0.029 A 
ATOM     45  C   UNL A   1      40.706  28.262  28.610  1.00  0.00     0.049 A 
ATOM     46  H   UNL A   1      40.528  29.134  30.496  1.00  0.00     0.167 HD
ATOM     47  C   UNL A   1      40.027  31.094  34.409  1.00  0.00     0.034 A 
ATOM     48  C   UNL A   1      41.797  27.471  28.634  1.00  0.00     0.034 A 
ATOM     49  C   UNL A   1      41.164  30.217  34.555  1.00  0.00     0.049 A 
ATOM     50  C   UNL A   1      42.574  27.358  29.922  1.00  0.00     0.074 A 
ATOM     51  C   UNL A   1      41.935  29.984  35.680  1.00  0.00     0.029 A 
ATOM     52  N   UNL A   1      41.698  29.430  33.541  1.00  0.00    -0.354 N 
ATOM     53  N   UNL A   1      42.362  27.958  31.071  1.00  0.00    -0.248 NA
ATOM     54  C   UNL A   1      43.722  26.447  29.917  1.00  0.00     0.031 C 
ATOM     55  C   UNL A   1      42.976  29.117  35.328  1.00  0.00     0.029 A 
ATOM     56  C   UNL A   1      42.805  28.735  34.007  1.00  0.00     0.049 A 
ATOM     57  H   UNL A   1      41.342  29.375  32.624  1.00  0.00     0.167 HD
ATOM     58  C   UNL A   1      43.340  27.471  31.935  1.00  0.00     0.074 A 
ATOM     59  C   UNL A   1      44.111  26.505  31.180  1.00  0.00     0.031 C 
ATOM     60  C   UNL A   1      43.581  27.794  33.233  1.00  0.00     0.034 A 
BRANCH  47  61
ATOM     61  C   UNL A   1      39.613  31.961  35.577  1.00  0.00     0.023 A 
ATOM     62  C   UNL A   1      38.823  31.459  36.630  1.00  0.00     0.031 A 
ATOM     63  C   UNL A   1      39.986  33.315  35.631  1.00  0.00     0.131 A 
ATOM     64  C   UNL A   1      38.367  32.319  37.640  1.00  0.00     0.055 A 
ATOM     65  C   UNL A   1      39.603  34.146  36.688  1.00  0.00     0.041 A 
ATOM     66  F   UNL A   1      40.719  33.862  34.648  1.00  0.00    -0.206 F 
ATOM     67  C   UNL A   1      38.775  33.653  37.692  1.00  0.00     0.022 A 
BRANCH  64  68
ATOM     68  S   UNL A   1      37.109  31.708  38.796  1.00  0.00     0.124 S 
ATOM     69  O   UNL A   1      35.977  32.580  38.488  1.00  0.00    -0.237 OA
ATOM     70  O   UNL A   1      36.967  30.313  38.400  1.00  0.00    -0.237 OA
ATOM     71  O   UNL A   1      37.715  31.927  40.108  1.00  0.00    -0.744 OA
ENDBRANCH  64  68
ENDBRANCH  47  61
BRANCH  48  72
ATOM     72  C   UNL A   1      42.215  26.714  27.417  1.00  0.00     0.023 A 
ATOM     73  C   UNL A   1      41.974  25.335  27.302  1.00  0.00     0.031 A 
ATOM     74  C   UNL A   1      42.900  27.352  26.368  1.00  0.00     0.131 A 
ATOM     75  C   UNL A   1      42.460  24.630  26.190  1.00  0.00     0.055 A 
ATOM     76  C   UNL A   1      43.328  26.657  25.236  1.00  0.00     0.041 A 
ATOM     77  F   UNL A   1      43.152  28.669  26.422  1.00  0.00    -0.206 F 
ATOM     78  C   UNL A   1      43.123  25.283  25.149  1.00  0.00     0.022 A 
BRANCH  75  79
ATOM     79  S   UNL A   1      42.297  22.823  26.168  1.00  0.00     0.124 S 
ATOM     80  O   UNL A   1      42.765  22.497  24.825  1.00  0.00    -0.237 OA
ATOM     81  O   UNL A   1      43.171  22.426  27.266  1.00  0.00    -0.237 OA
ATOM     82  O   UNL A   1      40.870  22.608  26.401  1.00  0.00    -0.744 OA
ENDBRANCH  75  79
ENDBRANCH  48  72
BRANCH  60  83
ATOM     83  C   UNL A   1      44.714  27.060  33.913  1.00  0.00     0.023 A 
ATOM     84  C   UNL A   1      44.520  25.807  34.520  1.00  0.00     0.031 A 
ATOM     85  C   UNL A   1      45.987  27.648  34.008  1.00  0.00     0.131 A 
ATOM     86  C   UNL A   1      45.550  25.230  35.279  1.00  0.00     0.055 A 
ATOM     87  C   UNL A   1      47.034  27.028  34.692  1.00  0.00     0.041 A 
ATOM     88  F   UNL A   1      46.234  28.843  33.448  1.00  0.00    -0.206 F 
ATOM     89  C   UNL A   1      46.812  25.824  35.352  1.00  0.00     0.022 A 
BRANCH  86  90
ATOM     90  S   UNL A   1      45.165  23.779  36.296  1.00  0.00     0.124 S 
ATOM     91  O   UNL A   1      44.914  24.382  37.600  1.00  0.00    -0.237 OA
ATOM     92  O   UNL A   1      44.000  23.222  35.616  1.00  0.00    -0.237 OA
ATOM     93  O   UNL A   1      46.378  22.970  36.210  1.00  0.00    -0.744 OA
ENDBRANCH  86  90
ENDBRANCH  60  83
ENDBRANCH  34  35
ENDBRANCH  26  29
ENDBRANCH  24  25
ENDBRANCH   1  24
TORSDOF 16
ENDMDL
MODEL 2
REMARK VINA RESULT:     -12.3      1.182      7.635
REMARK SMILES CC(=O)Oc1c(Cl)cc(-c2ccccc2)cc1C(=O)NCCCNC(=O)c1ccc(-c2c3nc(c(-c4cc(S(=O)(=O)[O-])ccc4F)c4ccc([nH]4)c(-c4cc(S(=O)(=O)[O-])ccc4F)c4nc(c(-c5cc(S(=O)(=O)[O-])ccc5F)c5ccc2[nH]5)C=C4)C=C3)cc1
REMARK SMILES IDX 22 1 21 2 20 3 18 4 19 5 17 7 5 8 6 9 7 10 8 11 16 12 9 13
REMARK SMILES IDX 4 14 2 15 1 16 3 17 10 18 11 19 15 20 12 21 14 22 13 23
REMARK SMILES IDX 23 24 24 25 25 26 26 28 27 29 28 30 89 31 29 32 88 33 30 34
REMARK SMILES IDX 31 35 32 36 82 37 33 38 87 39 81 40 83 41 34 42 86 43 80 44
REMARK SMILES IDX 79 45 35 47 67 48 47 49 66 50 48 51 51 52 65 53 84 54 49 55
REMARK SMILES IDX 50 56 64 58 85 59 52 60 36 61 37 62 45 63 38 64 44 65 46 66
REMARK SMILES IDX 43 67 39 68 40 69 41 70 42 71 68 72 69 73 77 74 70 75 76 76
REMARK SMILES IDX 78 77 75 78 71 79 72 80 73 81 74 82 53 83 54 84 62 85 55 86
REMARK SMILES IDX 61 87 63 88 60 89 56 90 57 91 58 92 59 93
REMARK H PARENT 20 6 24 27 83 46 51 57
REMARK Flexibility Score: inf
ROOT
ATOM      1  C   UNL A   1      32.606  29.411  24.446  1.00  0.00     0.042 C 
ENDROOT
BRANCH   1   2
ATOM      2  C   UNL A   1      33.563  28.261  24.249  1.00  0.00     0.118 C 
BRANCH   2   3
ATOM      3  N   UNL A   1      33.591  27.611  22.975  1.00  0.00    -0.352 N 
ATOM      4  C   UNL A   1      33.453  26.270  22.707  1.00  0.00     0.255 C 
ATOM      5  O   UNL A   1      33.443  25.945  21.516  1.00  0.00    -0.269 OA
ATOM      6  H   UNL A   1      33.728  28.195  22.194  1.00  0.00     0.163 HD
BRANCH   4   7
ATOM      7  C   UNL A   1      33.386  25.179  23.743  1.00  0.00     0.084 A 
ATOM      8  C   UNL A   1      32.258  24.539  24.300  1.00  0.00     0.162 A 
ATOM      9  C   UNL A   1      32.433  23.417  25.139  1.00  0.00     0.085 A 
ATOM     10  Cl  UNL A   1      31.100  22.469  25.719  1.00  0.00    -0.080 Cl
ATOM     11  C   UNL A   1      33.706  22.963  25.474  1.00  0.00     0.033 A 
ATOM     12  C   UNL A   1      34.668  24.673  24.091  1.00  0.00     0.026 A 
ATOM     13  C   UNL A   1      34.846  23.568  24.940  1.00  0.00    -0.016 A 
BRANCH   8  14
ATOM     14  O   UNL A   1      30.936  24.901  23.974  1.00  0.00    -0.424 OA
BRANCH  14  15
ATOM     15  C   UNL A   1      30.477  26.040  24.661  1.00  0.00     0.308 C 
ATOM     16  C   UNL A   1      29.888  27.024  23.694  1.00  0.00     0.139 C 
ATOM     17  O   UNL A   1      30.634  26.263  25.855  1.00  0.00    -0.252 OA
ENDBRANCH  14  15
ENDBRANCH   8  14
BRANCH  13  18
ATOM     18  C   UNL A   1      36.172  22.990  25.202  1.00  0.00    -0.018 A 
ATOM     19  C   UNL A   1      36.456  21.674  24.791  1.00  0.00     0.009 A 
ATOM     20  C   UNL A   1      37.173  23.701  25.877  1.00  0.00     0.009 A 
ATOM     21  C   UNL A   1      37.688  21.080  25.064  1.00  0.00     0.001 A 
ATOM     22  C   UNL A   1      38.410  23.107  26.152  1.00  0.00     0.001 A 
ATOM     23  C   UNL A   1      38.664  21.795  25.749  1.00  0.00     0.000 A 
ENDBRANCH  13  18
ENDBRANCH   4   7
ENDBRANCH   2   3
ENDBRANCH   1   2
BRANCH   1  24
ATOM     24  C   UNL A   1      32.056  29.608  25.844  1.00  0.00     0.118 C 
BRANCH  24  25
ATOM     25  N   UNL A   1      31.937  30.998  26.267  1.00  0.00    -0.352 N 
ATOM     26  C   UNL A   1      32.726  31.821  27.037  1.00  0.00     0.251 C 
ATOM     27  H   UNL A   1      31.123  31.439  25.931  1.00  0.00     0.163 HD
ATOM     28  O   UNL A   1      32.308  32.956  27.277  1.00  0.00    -0.269 OA
BRANCH  26  29
ATOM     29  C   UNL A   1      34.014  31.376  27.630  1.00  0.00     0.039 A 
ATOM     30  C   UNL A   1      34.951  32.346  28.010  1.00  0.00     0.014 A 
ATOM     31  C   UNL A   1      34.334  30.034  27.813  1.00  0.00     0.014 A 
ATOM     32  C   UNL A   1      36.134  31.967  28.653  1.00  0.00     0.010 A 
ATOM     33  C   UNL A   1      35.429  29.669  28.591  1.00  0.00     0.010 A 
ATOM     34  C   UNL A   1      36.355  30.628  29.011  1.00  0.00    -0.014 A 
BRANCH  34  35
ATOM     35  C   UNL A   1      37.547  30.223  29.807  1.00  0.00     0.031 A 
ATOM     36  C   UNL A   1      38.604  29.327  29.212  1.00  0.00     0.074 A 
ATOM     37  C   UNL A   1      37.648  30.627  31.092  1.00  0.00     0.049 A 
ATOM     38  N   UNL A   1      39.700  28.862  29.758  1.00  0.00    -0.248 NA
ATOM     39  C   UNL A   1      38.382  28.854  27.836  1.00  0.00     0.031 C 
ATOM     40  C   UNL A   1      36.651  31.427  31.807  1.00  0.00     0.029 A 
ATOM     41  N   UNL A   1      38.637  30.429  32.023  1.00  0.00    -0.354 N 
ATOM     42  C   UNL A   1      40.285  28.038  28.800  1.00  0.00     0.074 A 
ATOM     43  C   UNL A   1      39.379  27.999  27.675  1.00  0.00     0.031 C 
ATOM     44  C   UNL A   1      37.107  31.704  33.039  1.00  0.00     0.029 A 
ATOM     45  C   UNL A   1      38.401  31.060  33.223  1.00  0.00     0.049 A 
ATOM     46  H   UNL A   1      39.441  29.888  31.847  1.00  0.00     0.167 HD
ATOM     47  C   UNL A   1      41.484  27.404  28.838  1.00  0.00     0.034 A 
ATOM     48  C   UNL A   1      39.144  31.118  34.346  1.00  0.00     0.034 A 
ATOM     49  C   UNL A   1      42.383  27.468  29.965  1.00  0.00     0.049 A 
ATOM     50  C   UNL A   1      40.479  30.415  34.360  1.00  0.00     0.074 A 
ATOM     51  C   UNL A   1      43.645  26.916  30.095  1.00  0.00     0.029 A 
ATOM     52  N   UNL A   1      42.115  28.126  31.160  1.00  0.00    -0.354 N 
ATOM     53  N   UNL A   1      41.047  29.701  33.416  1.00  0.00    -0.248 NA
ATOM     54  C   UNL A   1      41.276  30.548  35.583  1.00  0.00     0.031 C 
ATOM     55  C   UNL A   1      44.106  27.173  31.391  1.00  0.00     0.029 A 
ATOM     56  C   UNL A   1      43.173  27.964  32.043  1.00  0.00     0.049 A 
ATOM     57  H   UNL A   1      41.292  28.631  31.353  1.00  0.00     0.167 HD
ATOM     58  C   UNL A   1      42.286  29.320  33.927  1.00  0.00     0.074 A 
ATOM     59  C   UNL A   1      42.389  29.918  35.242  1.00  0.00     0.031 C 
ATOM     60  C   UNL A   1      43.250  28.546  33.363  1.00  0.00     0.034 A 
BRANCH  47  61
ATOM     61  C   UNL A   1      41.873  26.575  27.634  1.00  0.00     0.023 A 
ATOM     62  C   UNL A   1      41.808  25.168  27.648  1.00  0.00     0.031 A 
ATOM     63  C   UNL A   1      42.343  27.194  26.461  1.00  0.00     0.131 A 
ATOM     64  C   UNL A   1      42.280  24.430  26.552  1.00  0.00     0.055 A 
ATOM     65  C   UNL A   1      42.727  26.455  25.339  1.00  0.00     0.041 A 
ATOM     66  F   UNL A   1      42.452  28.529  26.389  1.00  0.00    -0.206 F 
ATOM     67  C   UNL A   1      42.712  25.064  25.387  1.00  0.00     0.022 A 
BRANCH  64  68
ATOM     68  S   UNL A   1      42.465  22.634  26.733  1.00  0.00     0.124 S 
ATOM     69  O   UNL A   1      42.129  22.166  25.390  1.00  0.00    -0.237 OA
ATOM     70  O   UNL A   1      43.862  22.498  27.126  1.00  0.00    -0.237 OA
ATOM     71  O   UNL A   1      41.488  22.292  27.765  1.00  0.00    -0.744 OA
ENDBRANCH  64  68
ENDBRANCH  47  61
BRANCH  48  72
ATOM     72  C   UNL A   1      38.661  31.871  35.541  1.00  0.00     0.023 A 
ATOM     73  C   UNL A   1      38.144  31.200  36.660  1.00  0.00     0.031 A 
ATOM     74  C   UNL A   1      38.672  33.277  35.564  1.00  0.00     0.131 A 
ATOM     75  C   UNL A   1      37.611  31.934  37.732  1.00  0.00     0.055 A 
ATOM     76  C   UNL A   1      38.196  34.001  36.658  1.00  0.00     0.041 A 
ATOM     77  F   UNL A   1      39.161  33.970  34.523  1.00  0.00    -0.206 F 
ATOM     78  C   UNL A   1      37.647  33.329  37.745  1.00  0.00     0.022 A 
BRANCH  75  79
ATOM     79  S   UNL A   1      36.781  31.036  39.072  1.00  0.00     0.124 S 
ATOM     80  O   UNL A   1      35.552  31.805  39.231  1.00  0.00    -0.237 OA
ATOM     81  O   UNL A   1      36.634  29.702  38.498  1.00  0.00    -0.237 OA
ATOM     82  O   UNL A   1      37.727  31.132  40.183  1.00  0.00    -0.744 OA
ENDBRANCH  75  79
ENDBRANCH  48  72
BRANCH  60  83
ATOM     83  C   UNL A   1      44.509  28.339  34.172  1.00  0.00     0.023 A 
ATOM     84  C   UNL A   1      44.661  27.233  35.027  1.00  0.00     0.031 A 
ATOM     85  C   UNL A   1      45.543  29.290  34.135  1.00  0.00     0.131 A 
ATOM     86  C   UNL A   1      45.771  27.158  35.882  1.00  0.00     0.055 A 
ATOM     87  C   UNL A   1      46.687  29.164  34.926  1.00  0.00     0.041 A 
ATOM     88  F   UNL A   1      45.456  30.368  33.338  1.00  0.00    -0.206 F 
ATOM     89  C   UNL A   1      46.795  28.106  35.822  1.00  0.00     0.022 A 
BRANCH  86  90
ATOM     90  S   UNL A   1      45.777  25.892  37.180  1.00  0.00     0.124 S 
ATOM     91  O   UNL A   1      45.520  24.675  36.418  1.00  0.00    -0.237 OA
ATOM     92  O   UNL A   1      47.120  26.023  37.737  1.00  0.00    -0.237 OA
ATOM     93  O   UNL A   1      44.695  26.307  38.069  1.00  0.00    -0.744 OA
ENDBRANCH  86  90
ENDBRANCH  60  83
ENDBRANCH  34  35
ENDBRANCH  26  29
ENDBRANCH  24  25
ENDBRANCH   1  24
TORSDOF 16
ENDMDL
MODEL 3
REMARK VINA RESULT:     -12.1      5.338      7.812
REMARK SMILES CC(=O)Oc1c(Cl)cc(-c2ccccc2)cc1C(=O)NCCCNC(=O)c1ccc(-c2c3nc(c(-c4cc(S(=O)(=O)[O-])ccc4F)c4ccc([nH]4)c(-c4cc(S(=O)(=O)[O-])ccc4F)c4nc(c(-c5cc(S(=O)(=O)[O-])ccc5F)c5ccc2[nH]5)C=C4)C=C3)cc1
REMARK SMILES IDX 22 1 21 2 20 3 18 4 19 5 17 7 5 8 6 9 7 10 8 11 16 12 9 13
REMARK SMILES IDX 4 14 2 15 1 16 3 17 10 18 11 19 15 20 12 21 14 22 13 23
REMARK SMILES IDX 23 24 24 25 25 26 26 28 27 29 28 30 89 31 29 32 88 33 30 34
REMARK SMILES IDX 31 35 32 36 82 37 33 38 87 39 81 40 83 41 34 42 86 43 80 44
REMARK SMILES IDX 79 45 35 47 67 48 47 49 66 50 48 51 51 52 65 53 84 54 49 55
REMARK SMILES IDX 50 56 64 58 85 59 52 60 36 61 37 62 45 63 38 64 44 65 46 66
REMARK SMILES IDX 43 67 39 68 40 69 41 70 42 71 68 72 69 73 77 74 70 75 76 76
REMARK SMILES IDX 78 77 75 78 71 79 72 80 73 81 74 82 53 83 54 84 62 85 55 86
REMARK SMILES IDX 61 87 63 88 60 89 56 90 57 91 58 92 59 93
REMARK H PARENT 20 6 24 27 83 46 51 57
REMARK Flexibility Score: inf
ROOT
ATOM      1  C   UNL A   1      35.627  21.796  26.413  1.00  0.00     0.042 C 
ENDROOT
BRANCH   1   2
ATOM      2  C   UNL A   1      35.102  23.199  26.603  1.00  0.00     0.118 C 
BRANCH   2   3
ATOM      3  N   UNL A   1      33.779  23.366  27.119  1.00  0.00    -0.352 N 
ATOM      4  C   UNL A   1      32.603  22.872  26.608  1.00  0.00     0.255 C 
ATOM      5  O   UNL A   1      31.582  23.088  27.266  1.00  0.00    -0.269 OA
ATOM      6  H   UNL A   1      33.701  23.902  27.941  1.00  0.00     0.163 HD
BRANCH   4   7
ATOM      7  C   UNL A   1      32.460  22.160  25.288  1.00  0.00     0.084 A 
ATOM      8  C   UNL A   1      32.344  22.696  23.987  1.00  0.00     0.162 A 
ATOM      9  C   UNL A   1      32.390  21.836  22.869  1.00  0.00     0.085 A 
ATOM     10  Cl  UNL A   1      32.432  22.427  21.238  1.00  0.00    -0.080 Cl
ATOM     11  C   UNL A   1      32.492  20.457  23.029  1.00  0.00     0.033 A 
ATOM     12  C   UNL A   1      32.584  20.749  25.410  1.00  0.00     0.026 A 
ATOM     13  C   UNL A   1      32.613  19.889  24.299  1.00  0.00    -0.016 A 
BRANCH   8  14
ATOM     14  O   UNL A   1      32.288  24.081  23.734  1.00  0.00    -0.424 OA
BRANCH  14  15
ATOM     15  C   UNL A   1      33.552  24.697  23.685  1.00  0.00     0.308 C 
ATOM     16  C   UNL A   1      33.519  26.005  24.419  1.00  0.00     0.139 C 
ATOM     17  O   UNL A   1      34.514  24.297  23.041  1.00  0.00    -0.252 OA
ENDBRANCH  14  15
ENDBRANCH   8  14
BRANCH  13  18
ATOM     18  C   UNL A   1      32.852  18.445  24.436  1.00  0.00    -0.018 A 
ATOM     19  C   UNL A   1      32.535  17.794  25.642  1.00  0.00     0.009 A 
ATOM     20  C   UNL A   1      33.415  17.683  23.403  1.00  0.00     0.009 A 
ATOM     21  C   UNL A   1      32.790  16.434  25.821  1.00  0.00     0.001 A 
ATOM     22  C   UNL A   1      33.672  16.319  23.580  1.00  0.00     0.001 A 
ATOM     23  C   UNL A   1      33.364  15.697  24.790  1.00  0.00     0.000 A 
ENDBRANCH  13  18
ENDBRANCH   4   7
ENDBRANCH   2   3
ENDBRANCH   1   2
BRANCH   1  24
ATOM     24  C   UNL A   1      36.464  21.543  25.176  1.00  0.00     0.118 C 
BRANCH  24  25
ATOM     25  N   UNL A   1      37.584  20.630  25.368  1.00  0.00    -0.352 N 
ATOM     26  C   UNL A   1      38.865  20.796  25.842  1.00  0.00     0.251 C 
ATOM     27  H   UNL A   1      37.381  19.704  25.105  1.00  0.00     0.163 HD
ATOM     28  O   UNL A   1      39.616  19.819  25.816  1.00  0.00    -0.269 OA
BRANCH  26  29
ATOM     29  C   UNL A   1      39.384  22.105  26.319  1.00  0.00     0.039 A 
ATOM     30  C   UNL A   1      40.489  22.118  27.179  1.00  0.00     0.014 A 
ATOM     31  C   UNL A   1      38.810  23.319  25.954  1.00  0.00     0.014 A 
ATOM     32  C   UNL A   1      41.059  23.332  27.575  1.00  0.00     0.010 A 
ATOM     33  C   UNL A   1      39.468  24.518  26.215  1.00  0.00     0.010 A 
ATOM     34  C   UNL A   1      40.595  24.545  27.042  1.00  0.00    -0.014 A 
BRANCH  34  35
ATOM     35  C   UNL A   1      41.268  25.837  27.351  1.00  0.00     0.031 A 
ATOM     36  C   UNL A   1      40.576  26.888  28.184  1.00  0.00     0.074 A 
ATOM     37  C   UNL A   1      42.490  26.083  26.833  1.00  0.00     0.049 A 
ATOM     38  N   UNL A   1      41.001  28.074  28.543  1.00  0.00    -0.248 NA
ATOM     39  C   UNL A   1      39.210  26.586  28.640  1.00  0.00     0.031 C 
ATOM     40  C   UNL A   1      43.228  25.181  25.944  1.00  0.00     0.029 A 
ATOM     41  N   UNL A   1      43.333  27.156  26.982  1.00  0.00    -0.354 N 
ATOM     42  C   UNL A   1      39.954  28.657  29.251  1.00  0.00     0.074 A 
ATOM     43  C   UNL A   1      38.846  27.731  29.195  1.00  0.00     0.031 C 
ATOM     44  C   UNL A   1      44.434  25.709  25.681  1.00  0.00     0.029 A 
ATOM     45  C   UNL A   1      44.538  27.007  26.334  1.00  0.00     0.049 A 
ATOM     46  H   UNL A   1      43.098  27.956  27.505  1.00  0.00     0.167 HD
ATOM     47  C   UNL A   1      39.930  29.838  29.919  1.00  0.00     0.034 A 
ATOM     48  C   UNL A   1      45.610  27.822  26.275  1.00  0.00     0.034 A 
ATOM     49  C   UNL A   1      41.053  30.743  29.977  1.00  0.00     0.049 A 
ATOM     50  C   UNL A   1      45.565  29.123  27.036  1.00  0.00     0.074 A 
ATOM     51  C   UNL A   1      41.164  31.937  30.667  1.00  0.00     0.029 A 
ATOM     52  N   UNL A   1      42.262  30.554  29.316  1.00  0.00    -0.354 N 
ATOM     53  N   UNL A   1      44.590  29.625  27.760  1.00  0.00    -0.248 NA
ATOM     54  C   UNL A   1      46.771  29.954  26.986  1.00  0.00     0.031 C 
ATOM     55  C   UNL A   1      42.407  32.505  30.364  1.00  0.00     0.029 A 
ATOM     56  C   UNL A   1      43.111  31.625  29.558  1.00  0.00     0.049 A 
ATOM     57  H   UNL A   1      42.482  29.774  28.757  1.00  0.00     0.167 HD
ATOM     58  C   UNL A   1      45.082  30.822  28.274  1.00  0.00     0.074 A 
ATOM     59  C   UNL A   1      46.447  30.941  27.805  1.00  0.00     0.031 C 
ATOM     60  C   UNL A   1      44.462  31.742  29.061  1.00  0.00     0.034 A 
BRANCH  47  61
ATOM     61  C   UNL A   1      38.643  30.218  30.618  1.00  0.00     0.023 A 
ATOM     62  C   UNL A   1      37.604  30.890  29.946  1.00  0.00     0.031 A 
ATOM     63  C   UNL A   1      38.459  29.931  31.982  1.00  0.00     0.131 A 
ATOM     64  C   UNL A   1      36.472  31.323  30.654  1.00  0.00     0.055 A 
ATOM     65  C   UNL A   1      37.290  30.285  32.660  1.00  0.00     0.041 A 
ATOM     66  F   UNL A   1      39.420  29.313  32.687  1.00  0.00    -0.206 F 
ATOM     67  C   UNL A   1      36.295  31.000  31.999  1.00  0.00     0.022 A 
BRANCH  64  68
ATOM     68  S   UNL A   1      35.311  32.446  29.827  1.00  0.00     0.124 S 
ATOM     69  O   UNL A   1      34.371  32.744  30.906  1.00  0.00    -0.237 OA
ATOM     70  O   UNL A   1      36.175  33.543  29.410  1.00  0.00    -0.237 OA
ATOM     71  O   UNL A   1      34.763  31.634  28.742  1.00  0.00    -0.744 OA
ENDBRANCH  64  68
ENDBRANCH  47  61
BRANCH  48  72
ATOM     72  C   UNL A   1      46.817  27.437  25.486  1.00  0.00     0.023 A 
ATOM     73  C   UNL A   1      46.987  27.873  24.162  1.00  0.00     0.031 A 
ATOM     74  C   UNL A   1      47.800  26.592  26.031  1.00  0.00     0.131 A 
ATOM     75  C   UNL A   1      48.084  27.421  23.411  1.00  0.00     0.055 A 
ATOM     76  C   UNL A   1      48.920  26.194  25.300  1.00  0.00     0.041 A 
ATOM     77  F   UNL A   1      47.691  26.149  27.294  1.00  0.00    -0.206 F 
ATOM     78  C   UNL A   1      49.059  26.597  23.975  1.00  0.00     0.022 A 
BRANCH  75  79
ATOM     79  S   UNL A   1      48.169  27.852  21.651  1.00  0.00     0.124 S 
ATOM     80  O   UNL A   1      46.845  28.418  21.418  1.00  0.00    -0.237 OA
ATOM     81  O   UNL A   1      49.283  28.794  21.622  1.00  0.00    -0.237 OA
ATOM     82  O   UNL A   1      48.423  26.569  20.998  1.00  0.00    -0.744 OA
ENDBRANCH  75  79
ENDBRANCH  48  72
BRANCH  60  83
ATOM     83  C   UNL A   1      45.286  32.938  29.479  1.00  0.00     0.023 A 
ATOM     84  C   UNL A   1      45.321  34.113  28.708  1.00  0.00     0.031 A 
ATOM     85  C   UNL A   1      46.092  32.879  30.629  1.00  0.00     0.131 A 
ATOM     86  C   UNL A   1      46.219  35.139  29.039  1.00  0.00     0.055 A 
ATOM     87  C   UNL A   1      46.919  33.940  31.001  1.00  0.00     0.041 A 
ATOM     88  F   UNL A   1      46.101  31.784  31.406  1.00  0.00    -0.206 F 
ATOM     89  C   UNL A   1      47.003  35.069  30.192  1.00  0.00     0.022 A 
BRANCH  86  90
ATOM     90  S   UNL A   1      46.459  36.492  27.855  1.00  0.00     0.124 S 
ATOM     91  O   UNL A   1      47.914  36.593  27.803  1.00  0.00    -0.237 OA
ATOM     92  O   UNL A   1      45.812  35.973  26.654  1.00  0.00    -0.237 OA
ATOM     93  O   UNL A   1      45.781  37.622  28.485  1.00  0.00    -0.744 OA
ENDBRANCH  86  90
ENDBRANCH  60  83
ENDBRANCH  34  35
ENDBRANCH  26  29
ENDBRANCH  24  25
ENDBRANCH   1  24
TORSDOF 16
ENDMDL
