MODEL 1
REMARK VINA RESULT:     -12.4      0.000      0.000
REMARK SMILES Cc1ccc(F)c(C(=O)N[C@@H]2C=C[C@@H](C(=O)NCCCNC(=O)c3ccc(-c4c5nc(c(-c6cc(S(=O)(=O)[O-])ccc6F)c6ccc([nH]6)c(-c6cc(S(=O)(=O)[O-])ccc6F)c6nc(c(-c7cc(S(=O)(=O)[O-])ccc7F)c7ccc4[nH]7)C=C6)C=C5)cc3)C2)c1
REMARK SMILES IDX 19 1 18 2 17 3 15 4 16 5 14 7 11 8 12 9 87 10 13 11 10 12
REMARK SMILES IDX 8 13 9 14 7 16 1 17 2 18 3 19 88 20 4 21 5 22 6 23 20 24
REMARK SMILES IDX 21 25 22 26 23 28 24 29 25 30 86 31 26 32 85 33 27 34 28 35
REMARK SMILES IDX 29 36 79 37 30 38 84 39 78 40 80 41 31 42 83 43 77 44 76 45
REMARK SMILES IDX 32 47 64 48 44 49 63 50 45 51 48 52 62 53 81 54 46 55 47 56
REMARK SMILES IDX 61 58 82 59 49 60 33 61 34 62 42 63 35 64 41 65 43 66 40 67
REMARK SMILES IDX 36 68 37 69 38 70 39 71 65 72 66 73 74 74 67 75 73 76 75 77
REMARK SMILES IDX 72 78 68 79 69 80 70 81 71 82 50 83 51 84 59 85 52 86 58 87
REMARK SMILES IDX 60 88 57 89 53 90 54 91 55 92 56 93
REMARK H PARENT 17 6 10 15 21 27 80 46 48 57
REMARK Flexibility Score: inf
ROOT
ATOM      1  C   UNL A   1      31.484  32.280  26.618  1.00  0.00     0.042 C 
ENDROOT
BRANCH   1   2
ATOM      2  C   UNL A   1      31.541  30.779  26.347  1.00  0.00     0.117 C 
BRANCH   2   3
ATOM      3  N   UNL A   1      32.711  30.133  26.914  1.00  0.00    -0.356 N 
ATOM      4  C   UNL A   1      33.331  28.957  26.636  1.00  0.00     0.227 C 
ATOM      5  O   UNL A   1      34.434  28.780  27.166  1.00  0.00    -0.274 OA
ATOM      6  H   UNL A   1      33.135  30.645  27.638  1.00  0.00     0.163 HD
BRANCH   4   7
ATOM      7  C   UNL A   1      32.709  27.828  25.798  1.00  0.00     0.103 C 
ATOM      8  C   UNL A   1      34.027  26.119  24.614  1.00  0.00     0.106 C 
ATOM      9  C   UNL A   1      33.228  25.539  25.741  1.00  0.00    -0.006 C 
ATOM     10  C   UNL A   1      33.496  27.554  24.517  1.00  0.00     0.047 C 
ATOM     11  C   UNL A   1      32.554  26.479  26.417  1.00  0.00    -0.016 C 
BRANCH   8  12
ATOM     12  N   UNL A   1      33.860  25.300  23.432  1.00  0.00    -0.346 N 
ATOM     13  C   UNL A   1      32.855  25.256  22.489  1.00  0.00     0.254 C 
ATOM     14  O   UNL A   1      33.036  24.583  21.478  1.00  0.00    -0.269 OA
ATOM     15  H   UNL A   1      34.593  24.662  23.273  1.00  0.00     0.164 HD
BRANCH  13  16
ATOM     16  C   UNL A   1      31.555  25.932  22.707  1.00  0.00     0.075 A 
ATOM     17  C   UNL A   1      29.966  29.361  22.298  1.00  0.00     0.044 C 
ATOM     18  C   UNL A   1      30.145  27.914  22.654  1.00  0.00    -0.050 A 
ATOM     19  C   UNL A   1      29.204  27.261  23.457  1.00  0.00     0.006 A 
ATOM     20  C   UNL A   1      31.271  27.207  22.206  1.00  0.00     0.020 A 
ATOM     21  C   UNL A   1      29.421  25.944  23.859  1.00  0.00     0.040 A 
ATOM     22  C   UNL A   1      30.602  25.295  23.505  1.00  0.00     0.135 A 
ATOM     23  F   UNL A   1      30.814  24.066  23.997  1.00  0.00    -0.206 F 
ENDBRANCH  13  16
ENDBRANCH   8  12
ENDBRANCH   4   7
ENDBRANCH   2   3
ENDBRANCH   1   2
BRANCH   1  24
ATOM     24  C   UNL A   1      32.744  32.872  27.247  1.00  0.00     0.118 C 
BRANCH  24  25
ATOM     25  N   UNL A   1      32.547  34.236  27.714  1.00  0.00    -0.352 N 
ATOM     26  C   UNL A   1      33.130  34.914  28.759  1.00  0.00     0.251 C 
ATOM     27  H   UNL A   1      31.890  34.757  27.201  1.00  0.00     0.163 HD
ATOM     28  O   UNL A   1      32.648  35.988  29.109  1.00  0.00    -0.269 OA
BRANCH  26  29
ATOM     29  C   UNL A   1      34.308  34.362  29.468  1.00  0.00     0.039 A 
ATOM     30  C   UNL A   1      34.121  33.752  30.713  1.00  0.00     0.014 A 
ATOM     31  C   UNL A   1      35.598  34.490  28.946  1.00  0.00     0.014 A 
ATOM     32  C   UNL A   1      35.215  33.222  31.404  1.00  0.00     0.010 A 
ATOM     33  C   UNL A   1      36.678  33.902  29.603  1.00  0.00     0.010 A 
ATOM     34  C   UNL A   1      36.500  33.266  30.842  1.00  0.00    -0.014 A 
BRANCH  34  35
ATOM     35  C   UNL A   1      37.672  32.669  31.539  1.00  0.00     0.031 A 
ATOM     36  C   UNL A   1      38.425  31.527  30.912  1.00  0.00     0.074 A 
ATOM     37  C   UNL A   1      38.016  33.107  32.766  1.00  0.00     0.049 A 
ATOM     38  N   UNL A   1      39.410  30.815  31.397  1.00  0.00    -0.248 NA
ATOM     39  C   UNL A   1      37.985  31.112  29.574  1.00  0.00     0.031 C 
ATOM     40  C   UNL A   1      37.350  34.188  33.493  1.00  0.00     0.029 A 
ATOM     41  N   UNL A   1      39.006  32.692  33.621  1.00  0.00    -0.354 N 
ATOM     42  C   UNL A   1      39.697  29.855  30.432  1.00  0.00     0.074 A 
ATOM     43  C   UNL A   1      38.735  30.041  29.365  1.00  0.00     0.031 C 
ATOM     44  C   UNL A   1      37.967  34.369  34.673  1.00  0.00     0.029 A 
ATOM     45  C   UNL A   1      39.039  33.387  34.807  1.00  0.00     0.049 A 
ATOM     46  H   UNL A   1      39.633  31.964  33.406  1.00  0.00     0.167 HD
ATOM     47  C   UNL A   1      40.684  28.921  30.424  1.00  0.00     0.034 A 
ATOM     48  C   UNL A   1      39.835  33.245  35.885  1.00  0.00     0.034 A 
ATOM     49  C   UNL A   1      41.640  28.756  31.494  1.00  0.00     0.049 A 
ATOM     50  C   UNL A   1      40.898  32.177  35.876  1.00  0.00     0.074 A 
ATOM     51  C   UNL A   1      42.714  27.886  31.566  1.00  0.00     0.029 A 
ATOM     52  N   UNL A   1      41.630  29.468  32.688  1.00  0.00    -0.354 N 
ATOM     53  N   UNL A   1      41.185  31.305  34.939  1.00  0.00    -0.248 NA
ATOM     54  C   UNL A   1      41.744  32.081  37.072  1.00  0.00     0.031 C 
ATOM     55  C   UNL A   1      43.308  28.020  32.827  1.00  0.00     0.029 A 
ATOM     56  C   UNL A   1      42.656  29.030  33.515  1.00  0.00     0.049 A 
ATOM     57  H   UNL A   1      40.989  30.179  32.914  1.00  0.00     0.167 HD
ATOM     58  C   UNL A   1      42.271  30.577  35.419  1.00  0.00     0.074 A 
ATOM     59  C   UNL A   1      42.587  31.118  36.725  1.00  0.00     0.031 C 
ATOM     60  C   UNL A   1      42.952  29.563  34.826  1.00  0.00     0.034 A 
BRANCH  47  61
ATOM     61  C   UNL A   1      40.742  27.989  29.234  1.00  0.00     0.023 A 
ATOM     62  C   UNL A   1      41.664  28.183  28.189  1.00  0.00     0.031 A 
ATOM     63  C   UNL A   1      39.823  26.932  29.108  1.00  0.00     0.131 A 
ATOM     64  C   UNL A   1      41.576  27.408  27.022  1.00  0.00     0.055 A 
ATOM     65  C   UNL A   1      39.807  26.098  27.986  1.00  0.00     0.041 A 
ATOM     66  F   UNL A   1      38.908  26.704  30.062  1.00  0.00    -0.206 F 
ATOM     67  C   UNL A   1      40.671  26.349  26.924  1.00  0.00     0.022 A 
BRANCH  64  68
ATOM     68  S   UNL A   1      42.524  27.932  25.567  1.00  0.00     0.124 S 
ATOM     69  O   UNL A   1      42.568  26.697  24.785  1.00  0.00    -0.237 OA
ATOM     70  O   UNL A   1      41.701  29.005  25.024  1.00  0.00    -0.237 OA
ATOM     71  O   UNL A   1      43.808  28.348  26.127  1.00  0.00    -0.744 OA
ENDBRANCH  64  68
ENDBRANCH  47  61
BRANCH  48  72
ATOM     72  C   UNL A   1      39.663  34.140  37.063  1.00  0.00     0.023 A 
ATOM     73  C   UNL A   1      39.056  33.670  38.238  1.00  0.00     0.031 A 
ATOM     74  C   UNL A   1      40.092  35.478  37.028  1.00  0.00     0.131 A 
ATOM     75  C   UNL A   1      38.866  34.541  39.322  1.00  0.00     0.055 A 
ATOM     76  C   UNL A   1      39.940  36.329  38.124  1.00  0.00     0.041 A 
ATOM     77  F   UNL A   1      40.687  35.971  35.930  1.00  0.00    -0.206 F 
ATOM     78  C   UNL A   1      39.315  35.863  39.278  1.00  0.00     0.022 A 
BRANCH  75  79
ATOM     79  S   UNL A   1      37.975  33.932  40.779  1.00  0.00     0.124 S 
ATOM     80  O   UNL A   1      36.902  33.157  40.168  1.00  0.00    -0.237 OA
ATOM     81  O   UNL A   1      39.009  33.166  41.468  1.00  0.00    -0.237 OA
ATOM     82  O   UNL A   1      37.555  35.157  41.457  1.00  0.00    -0.744 OA
ENDBRANCH  75  79
ENDBRANCH  48  72
BRANCH  60  83
ATOM     83  C   UNL A   1      44.137  29.002  35.576  1.00  0.00     0.023 A 
ATOM     84  C   UNL A   1      43.996  27.986  36.537  1.00  0.00     0.031 A 
ATOM     85  C   UNL A   1      45.427  29.506  35.331  1.00  0.00     0.131 A 
ATOM     86  C   UNL A   1      45.118  27.542  37.255  1.00  0.00     0.055 A 
ATOM     87  C   UNL A   1      46.548  29.019  36.006  1.00  0.00     0.041 A 
ATOM     88  F   UNL A   1      45.620  30.480  34.427  1.00  0.00    -0.206 F 
ATOM     89  C   UNL A   1      46.395  28.040  36.983  1.00  0.00     0.022 A 
BRANCH  86  90
ATOM     90  S   UNL A   1      44.875  26.366  38.615  1.00  0.00     0.124 S 
ATOM     91  O   UNL A   1      45.678  26.961  39.677  1.00  0.00    -0.237 OA
ATOM     92  O   UNL A   1      43.429  26.407  38.808  1.00  0.00    -0.237 OA
ATOM     93  O   UNL A   1      45.391  25.109  38.077  1.00  0.00    -0.744 OA
ENDBRANCH  86  90
ENDBRANCH  60  83
ENDBRANCH  34  35
ENDBRANCH  26  29
ENDBRANCH  24  25
ENDBRANCH   1  24
TORSDOF 15
ENDMDL
MODEL 2
REMARK VINA RESULT:     -12.3      4.573     10.807
REMARK SMILES Cc1ccc(F)c(C(=O)N[C@@H]2C=C[C@@H](C(=O)NCCCNC(=O)c3ccc(-c4c5nc(c(-c6cc(S(=O)(=O)[O-])ccc6F)c6ccc([nH]6)c(-c6cc(S(=O)(=O)[O-])ccc6F)c6nc(c(-c7cc(S(=O)(=O)[O-])ccc7F)c7ccc4[nH]7)C=C6)C=C5)cc3)C2)c1
REMARK SMILES IDX 19 1 18 2 17 3 15 4 16 5 14 7 11 8 12 9 87 10 13 11 10 12
REMARK SMILES IDX 8 13 9 14 7 16 1 17 2 18 3 19 88 20 4 21 5 22 6 23 20 24
REMARK SMILES IDX 21 25 22 26 23 28 24 29 25 30 86 31 26 32 85 33 27 34 28 35
REMARK SMILES IDX 29 36 79 37 30 38 84 39 78 40 80 41 31 42 83 43 77 44 76 45
REMARK SMILES IDX 32 47 64 48 44 49 63 50 45 51 48 52 62 53 81 54 46 55 47 56
REMARK SMILES IDX 61 58 82 59 49 60 33 61 34 62 42 63 35 64 41 65 43 66 40 67
REMARK SMILES IDX 36 68 37 69 38 70 39 71 65 72 66 73 74 74 67 75 73 76 75 77
REMARK SMILES IDX 72 78 68 79 69 80 70 81 71 82 50 83 51 84 59 85 52 86 58 87
REMARK SMILES IDX 60 88 57 89 53 90 54 91 55 92 56 93
REMARK H PARENT 17 6 10 15 21 27 80 46 48 57
REMARK Flexibility Score: inf
ROOT
ATOM      1  C   UNL A   1      34.539  33.665  28.910  1.00  0.00     0.042 C 
ENDROOT
BRANCH   1   2
ATOM      2  C   UNL A   1      33.246  34.283  28.385  1.00  0.00     0.117 C 
BRANCH   2   3
ATOM      3  N   UNL A   1      33.150  35.712  28.621  1.00  0.00    -0.356 N 
ATOM      4  C   UNL A   1      33.118  36.451  29.761  1.00  0.00     0.227 C 
ATOM      5  O   UNL A   1      33.235  37.675  29.626  1.00  0.00    -0.274 OA
ATOM      6  H   UNL A   1      33.100  36.249  27.798  1.00  0.00     0.163 HD
BRANCH   4   7
ATOM      7  C   UNL A   1      32.856  35.871  31.160  1.00  0.00     0.103 C 
ATOM      8  C   UNL A   1      34.501  35.919  32.991  1.00  0.00     0.106 C 
ATOM      9  C   UNL A   1      33.311  36.785  33.274  1.00  0.00    -0.006 C 
ATOM     10  C   UNL A   1      34.079  35.154  31.731  1.00  0.00     0.047 C 
ATOM     11  C   UNL A   1      32.443  36.799  32.254  1.00  0.00    -0.016 C 
BRANCH   8  12
ATOM     12  N   UNL A   1      34.798  35.110  34.154  1.00  0.00    -0.346 N 
ATOM     13  C   UNL A   1      35.783  34.175  34.385  1.00  0.00     0.254 C 
ATOM     14  O   UNL A   1      35.924  33.748  35.528  1.00  0.00    -0.269 OA
ATOM     15  H   UNL A   1      34.188  35.253  34.914  1.00  0.00     0.164 HD
BRANCH  13  16
ATOM     16  C   UNL A   1      36.610  33.629  33.284  1.00  0.00     0.075 A 
ATOM     17  C   UNL A   1      39.692  34.531  31.250  1.00  0.00     0.044 C 
ATOM     18  C   UNL A   1      38.478  33.793  31.734  1.00  0.00    -0.050 A 
ATOM     19  C   UNL A   1      37.938  32.748  30.978  1.00  0.00     0.006 A 
ATOM     20  C   UNL A   1      37.856  34.161  32.937  1.00  0.00     0.020 A 
ATOM     21  C   UNL A   1      36.759  32.126  31.387  1.00  0.00     0.040 A 
ATOM     22  C   UNL A   1      36.088  32.583  32.519  1.00  0.00     0.135 A 
ATOM     23  F   UNL A   1      34.907  32.023  32.817  1.00  0.00    -0.206 F 
ENDBRANCH  13  16
ENDBRANCH   8  12
ENDBRANCH   4   7
ENDBRANCH   2   3
ENDBRANCH   1   2
BRANCH   1  24
ATOM     24  C   UNL A   1      35.198  32.652  27.975  1.00  0.00     0.118 C 
BRANCH  24  25
ATOM     25  N   UNL A   1      34.428  31.425  27.849  1.00  0.00    -0.352 N 
ATOM     26  C   UNL A   1      34.837  30.113  27.834  1.00  0.00     0.251 C 
ATOM     27  H   UNL A   1      33.457  31.555  27.759  1.00  0.00     0.163 HD
ATOM     28  O   UNL A   1      34.036  29.247  27.492  1.00  0.00    -0.269 OA
BRANCH  26  29
ATOM     29  C   UNL A   1      36.222  29.738  28.205  1.00  0.00     0.039 A 
ATOM     30  C   UNL A   1      36.455  29.180  29.465  1.00  0.00     0.014 A 
ATOM     31  C   UNL A   1      37.297  29.984  27.346  1.00  0.00     0.014 A 
ATOM     32  C   UNL A   1      37.753  28.816  29.841  1.00  0.00     0.010 A 
ATOM     33  C   UNL A   1      38.579  29.559  27.694  1.00  0.00     0.010 A 
ATOM     34  C   UNL A   1      38.823  28.976  28.947  1.00  0.00    -0.014 A 
BRANCH  34  35
ATOM     35  C   UNL A   1      40.203  28.555  29.308  1.00  0.00     0.031 A 
ATOM     36  C   UNL A   1      40.971  29.301  30.366  1.00  0.00     0.074 A 
ATOM     37  C   UNL A   1      40.793  27.546  28.637  1.00  0.00     0.049 A 
ATOM     38  N   UNL A   1      42.210  29.148  30.758  1.00  0.00    -0.248 NA
ATOM     39  C   UNL A   1      40.254  30.386  31.049  1.00  0.00     0.031 C 
ATOM     40  C   UNL A   1      40.167  26.762  27.572  1.00  0.00     0.029 A 
ATOM     41  N   UNL A   1      42.053  27.014  28.745  1.00  0.00    -0.354 N 
ATOM     42  C   UNL A   1      42.429  30.128  31.720  1.00  0.00     0.074 A 
ATOM     43  C   UNL A   1      41.210  30.908  31.800  1.00  0.00     0.031 C 
ATOM     44  C   UNL A   1      41.035  25.831  27.144  1.00  0.00     0.029 A 
ATOM     45  C   UNL A   1      42.294  25.983  27.867  1.00  0.00     0.049 A 
ATOM     46  H   UNL A   1      42.722  27.339  29.390  1.00  0.00     0.167 HD
ATOM     47  C   UNL A   1      43.532  30.345  32.483  1.00  0.00     0.034 A 
ATOM     48  C   UNL A   1      43.406  25.249  27.660  1.00  0.00     0.034 A 
ATOM     49  C   UNL A   1      44.736  29.551  32.395  1.00  0.00     0.049 A 
ATOM     50  C   UNL A   1      44.634  25.529  28.486  1.00  0.00     0.074 A 
ATOM     51  C   UNL A   1      45.888  29.642  33.156  1.00  0.00     0.029 A 
ATOM     52  N   UNL A   1      44.949  28.526  31.480  1.00  0.00    -0.354 N 
ATOM     53  N   UNL A   1      44.812  26.432  29.422  1.00  0.00    -0.248 NA
ATOM     54  C   UNL A   1      45.808  24.687  28.227  1.00  0.00     0.031 C 
ATOM     55  C   UNL A   1      46.821  28.725  32.657  1.00  0.00     0.029 A 
ATOM     56  C   UNL A   1      46.226  28.004  31.635  1.00  0.00     0.049 A 
ATOM     57  H   UNL A   1      44.289  28.215  30.819  1.00  0.00     0.167 HD
ATOM     58  C   UNL A   1      46.110  26.242  29.889  1.00  0.00     0.074 A 
ATOM     59  C   UNL A   1      46.665  25.137  29.133  1.00  0.00     0.031 C 
ATOM     60  C   UNL A   1      46.778  26.913  30.863  1.00  0.00     0.034 A 
BRANCH  47  61
ATOM     61  C   UNL A   1      43.488  31.511  33.444  1.00  0.00     0.023 A 
ATOM     62  C   UNL A   1      43.032  31.361  34.767  1.00  0.00     0.031 A 
ATOM     63  C   UNL A   1      43.845  32.804  33.019  1.00  0.00     0.131 A 
ATOM     64  C   UNL A   1      42.839  32.491  35.576  1.00  0.00     0.055 A 
ATOM     65  C   UNL A   1      43.746  33.912  33.864  1.00  0.00     0.041 A 
ATOM     66  F   UNL A   1      44.272  33.017  31.765  1.00  0.00    -0.206 F 
ATOM     67  C   UNL A   1      43.218  33.764  35.144  1.00  0.00     0.022 A 
BRANCH  64  68
ATOM     68  S   UNL A   1      41.907  32.296  37.120  1.00  0.00     0.124 S 
ATOM     69  O   UNL A   1      42.455  33.380  37.934  1.00  0.00    -0.237 OA
ATOM     70  O   UNL A   1      40.528  32.462  36.678  1.00  0.00    -0.237 OA
ATOM     71  O   UNL A   1      42.264  30.952  37.568  1.00  0.00    -0.744 OA
ENDBRANCH  64  68
ENDBRANCH  47  61
BRANCH  48  72
ATOM     72  C   UNL A   1      43.408  24.173  26.631  1.00  0.00     0.023 A 
ATOM     73  C   UNL A   1      42.719  22.971  26.849  1.00  0.00     0.031 A 
ATOM     74  C   UNL A   1      44.107  24.326  25.421  1.00  0.00     0.131 A 
ATOM     75  C   UNL A   1      42.768  21.952  25.885  1.00  0.00     0.055 A 
ATOM     76  C   UNL A   1      44.117  23.328  24.445  1.00  0.00     0.041 A 
ATOM     77  F   UNL A   1      44.773  25.462  25.161  1.00  0.00    -0.206 F 
ATOM     78  C   UNL A   1      43.451  22.127  24.679  1.00  0.00     0.022 A 
BRANCH  75  79
ATOM     79  S   UNL A   1      41.962  20.369  26.252  1.00  0.00     0.124 S 
ATOM     80  O   UNL A   1      42.516  19.507  25.214  1.00  0.00    -0.237 OA
ATOM     81  O   UNL A   1      42.414  20.108  27.614  1.00  0.00    -0.237 OA
ATOM     82  O   UNL A   1      40.539  20.675  26.118  1.00  0.00    -0.744 OA
ENDBRANCH  75  79
ENDBRANCH  48  72
BRANCH  60  83
ATOM     83  C   UNL A   1      48.172  26.436  31.193  1.00  0.00     0.023 A 
ATOM     84  C   UNL A   1      48.404  25.388  32.101  1.00  0.00     0.031 A 
ATOM     85  C   UNL A   1      49.287  27.053  30.598  1.00  0.00     0.131 A 
ATOM     86  C   UNL A   1      49.720  25.023  32.426  1.00  0.00     0.055 A 
ATOM     87  C   UNL A   1      50.592  26.646  30.879  1.00  0.00     0.041 A 
ATOM     88  F   UNL A   1      49.125  28.062  29.726  1.00  0.00    -0.206 F 
ATOM     89  C   UNL A   1      50.815  25.634  31.808  1.00  0.00     0.022 A 
BRANCH  86  90
ATOM     90  S   UNL A   1      49.987  23.797  33.737  1.00  0.00     0.124 S 
ATOM     91  O   UNL A   1      48.649  23.663  34.303  1.00  0.00    -0.237 OA
ATOM     92  O   UNL A   1      50.482  22.645  32.991  1.00  0.00    -0.237 OA
ATOM     93  O   UNL A   1      50.969  24.438  34.610  1.00  0.00    -0.744 OA
ENDBRANCH  86  90
ENDBRANCH  60  83
ENDBRANCH  34  35
ENDBRANCH  26  29
ENDBRANCH  24  25
ENDBRANCH   1  24
TORSDOF 15
ENDMDL
MODEL 3
REMARK VINA RESULT:     -12.2      5.871      9.029
REMARK SMILES Cc1ccc(F)c(C(=O)N[C@@H]2C=C[C@@H](C(=O)NCCCNC(=O)c3ccc(-c4c5nc(c(-c6cc(S(=O)(=O)[O-])ccc6F)c6ccc([nH]6)c(-c6cc(S(=O)(=O)[O-])ccc6F)c6nc(c(-c7cc(S(=O)(=O)[O-])ccc7F)c7ccc4[nH]7)C=C6)C=C5)cc3)C2)c1
REMARK SMILES IDX 19 1 18 2 17 3 15 4 16 5 14 7 11 8 12 9 87 10 13 11 10 12
REMARK SMILES IDX 8 13 9 14 7 16 1 17 2 18 3 19 88 20 4 21 5 22 6 23 20 24
REMARK SMILES IDX 21 25 22 26 23 28 24 29 25 30 86 31 26 32 85 33 27 34 28 35
REMARK SMILES IDX 29 36 79 37 30 38 84 39 78 40 80 41 31 42 83 43 77 44 76 45
REMARK SMILES IDX 32 47 64 48 44 49 63 50 45 51 48 52 62 53 81 54 46 55 47 56
REMARK SMILES IDX 61 58 82 59 49 60 33 61 34 62 42 63 35 64 41 65 43 66 40 67
REMARK SMILES IDX 36 68 37 69 38 70 39 71 65 72 66 73 74 74 67 75 73 76 75 77
REMARK SMILES IDX 72 78 68 79 69 80 70 81 71 82 50 83 51 84 59 85 52 86 58 87
REMARK SMILES IDX 60 88 57 89 53 90 54 91 55 92 56 93
REMARK H PARENT 17 6 10 15 21 27 80 46 48 57
REMARK Flexibility Score: inf
ROOT
ATOM      1  C   UNL A   1      35.794  21.482  25.685  1.00  0.00     0.042 C 
ENDROOT
BRANCH   1   2
ATOM      2  C   UNL A   1      34.774  20.441  25.230  1.00  0.00     0.117 C 
BRANCH   2   3
ATOM      3  N   UNL A   1      33.823  20.951  24.259  1.00  0.00    -0.356 N 
ATOM      4  C   UNL A   1      32.879  21.926  24.327  1.00  0.00     0.227 C 
ATOM      5  O   UNL A   1      32.359  22.262  23.256  1.00  0.00    -0.274 OA
ATOM      6  H   UNL A   1      33.871  20.505  23.383  1.00  0.00     0.163 HD
BRANCH   4   7
ATOM      7  C   UNL A   1      32.371  22.547  25.637  1.00  0.00     0.103 C 
ATOM      8  C   UNL A   1      31.516  24.849  25.819  1.00  0.00     0.106 C 
ATOM      9  C   UNL A   1      30.445  23.826  26.046  1.00  0.00    -0.006 C 
ATOM     10  C   UNL A   1      32.797  24.006  25.793  1.00  0.00     0.047 C 
ATOM     11  C   UNL A   1      30.901  22.576  25.894  1.00  0.00    -0.016 C 
BRANCH   8  12
ATOM     12  N   UNL A   1      31.444  25.861  26.851  1.00  0.00    -0.346 N 
ATOM     13  C   UNL A   1      31.505  27.236  26.784  1.00  0.00     0.254 C 
ATOM     14  O   UNL A   1      31.245  27.880  27.797  1.00  0.00    -0.269 OA
ATOM     15  H   UNL A   1      31.332  25.504  27.762  1.00  0.00     0.164 HD
BRANCH  13  16
ATOM     16  C   UNL A   1      31.944  27.936  25.554  1.00  0.00     0.075 A 
ATOM     17  C   UNL A   1      30.487  29.311  22.323  1.00  0.00     0.044 C 
ATOM     18  C   UNL A   1      31.482  28.918  23.377  1.00  0.00    -0.050 A 
ATOM     19  C   UNL A   1      32.852  28.933  23.097  1.00  0.00     0.006 A 
ATOM     20  C   UNL A   1      31.046  28.506  24.646  1.00  0.00     0.020 A 
ATOM     21  C   UNL A   1      33.765  28.482  24.049  1.00  0.00     0.040 A 
ATOM     22  C   UNL A   1      33.309  27.963  25.259  1.00  0.00     0.135 A 
ATOM     23  F   UNL A   1      34.215  27.447  26.102  1.00  0.00    -0.206 F 
ENDBRANCH  13  16
ENDBRANCH   8  12
ENDBRANCH   4   7
ENDBRANCH   2   3
ENDBRANCH   1   2
BRANCH   1  24
ATOM     24  C   UNL A   1      37.111  21.480  24.911  1.00  0.00     0.118 C 
BRANCH  24  25
ATOM     25  N   UNL A   1      38.063  20.510  25.431  1.00  0.00    -0.352 N 
ATOM     26  C   UNL A   1      39.321  20.688  25.955  1.00  0.00     0.251 C 
ATOM     27  H   UNL A   1      37.757  19.576  25.402  1.00  0.00     0.163 HD
ATOM     28  O   UNL A   1      40.036  19.705  26.126  1.00  0.00    -0.269 OA
BRANCH  26  29
ATOM     29  C   UNL A   1      39.824  22.039  26.296  1.00  0.00     0.039 A 
ATOM     30  C   UNL A   1      41.013  22.152  27.024  1.00  0.00     0.014 A 
ATOM     31  C   UNL A   1      39.107  23.190  25.957  1.00  0.00     0.014 A 
ATOM     32  C   UNL A   1      41.512  23.416  27.359  1.00  0.00     0.010 A 
ATOM     33  C   UNL A   1      39.639  24.450  26.232  1.00  0.00     0.010 A 
ATOM     34  C   UNL A   1      40.844  24.577  26.941  1.00  0.00    -0.014 A 
BRANCH  34  35
ATOM     35  C   UNL A   1      41.379  25.932  27.247  1.00  0.00     0.031 A 
ATOM     36  C   UNL A   1      42.752  26.329  26.776  1.00  0.00     0.074 A 
ATOM     37  C   UNL A   1      40.660  26.780  28.008  1.00  0.00     0.049 A 
ATOM     38  N   UNL A   1      43.430  27.422  27.016  1.00  0.00    -0.248 NA
ATOM     39  C   UNL A   1      43.468  25.346  25.951  1.00  0.00     0.031 C 
ATOM     40  C   UNL A   1      39.328  26.505  28.550  1.00  0.00     0.029 A 
ATOM     41  N   UNL A   1      40.950  28.041  28.464  1.00  0.00    -0.354 N 
ATOM     42  C   UNL A   1      44.660  27.253  26.388  1.00  0.00     0.074 A 
ATOM     43  C   UNL A   1      44.651  25.922  25.814  1.00  0.00     0.031 C 
ATOM     44  C   UNL A   1      38.906  27.576  29.242  1.00  0.00     0.029 A 
ATOM     45  C   UNL A   1      39.954  28.593  29.235  1.00  0.00     0.049 A 
ATOM     46  H   UNL A   1      41.793  28.507  28.260  1.00  0.00     0.167 HD
ATOM     47  C   UNL A   1      45.690  28.131  26.279  1.00  0.00     0.034 A 
ATOM     48  C   UNL A   1      39.893  29.779  29.872  1.00  0.00     0.034 A 
ATOM     49  C   UNL A   1      45.677  29.457  26.851  1.00  0.00     0.049 A 
ATOM     50  C   UNL A   1      41.062  30.724  29.775  1.00  0.00     0.074 A 
ATOM     51  C   UNL A   1      46.638  30.450  26.753  1.00  0.00     0.029 A 
ATOM     52  N   UNL A   1      44.657  29.974  27.640  1.00  0.00    -0.354 N 
ATOM     53  N   UNL A   1      42.201  30.568  29.142  1.00  0.00    -0.248 NA
ATOM     54  C   UNL A   1      40.931  32.007  30.477  1.00  0.00     0.031 C 
ATOM     55  C   UNL A   1      46.232  31.535  27.539  1.00  0.00     0.029 A 
ATOM     56  C   UNL A   1      44.981  31.255  28.066  1.00  0.00     0.049 A 
ATOM     57  H   UNL A   1      43.823  29.501  27.865  1.00  0.00     0.167 HD
ATOM     58  C   UNL A   1      42.910  31.750  29.342  1.00  0.00     0.074 A 
ATOM     59  C   UNL A   1      42.066  32.608  30.149  1.00  0.00     0.031 C 
ATOM     60  C   UNL A   1      44.141  32.097  28.887  1.00  0.00     0.034 A 
BRANCH  47  61
ATOM     61  C   UNL A   1      46.925  27.658  25.545  1.00  0.00     0.023 A 
ATOM     62  C   UNL A   1      47.193  28.049  24.220  1.00  0.00     0.031 A 
ATOM     63  C   UNL A   1      47.816  26.753  26.151  1.00  0.00     0.131 A 
ATOM     64  C   UNL A   1      48.249  27.457  23.512  1.00  0.00     0.055 A 
ATOM     65  C   UNL A   1      48.926  26.244  25.472  1.00  0.00     0.041 A 
ATOM     66  F   UNL A   1      47.608  26.327  27.406  1.00  0.00    -0.206 F 
ATOM     67  C   UNL A   1      49.134  26.576  24.136  1.00  0.00     0.022 A 
BRANCH  64  68
ATOM     68  S   UNL A   1      48.328  27.705  21.716  1.00  0.00     0.124 S 
ATOM     69  O   UNL A   1      49.406  28.686  21.602  1.00  0.00    -0.237 OA
ATOM     70  O   UNL A   1      48.628  26.365  21.227  1.00  0.00    -0.237 OA
ATOM     71  O   UNL A   1      46.999  28.211  21.382  1.00  0.00    -0.744 OA
ENDBRANCH  64  68
ENDBRANCH  47  61
BRANCH  48  72
ATOM     72  C   UNL A   1      38.680  30.144  30.655  1.00  0.00     0.023 A 
ATOM     73  C   UNL A   1      37.664  30.923  30.080  1.00  0.00     0.031 A 
ATOM     74  C   UNL A   1      38.523  29.729  31.989  1.00  0.00     0.131 A 
ATOM     75  C   UNL A   1      36.548  31.291  30.847  1.00  0.00     0.055 A 
ATOM     76  C   UNL A   1      37.391  30.061  32.735  1.00  0.00     0.041 A 
ATOM     77  F   UNL A   1      39.462  28.974  32.580  1.00  0.00    -0.206 F 
ATOM     78  C   UNL A   1      36.398  30.855  32.166  1.00  0.00     0.022 A 
BRANCH  75  79
ATOM     79  S   UNL A   1      35.312  32.395  30.108  1.00  0.00     0.124 S 
ATOM     80  O   UNL A   1      34.795  31.573  29.020  1.00  0.00    -0.237 OA
ATOM     81  O   UNL A   1      34.405  32.625  31.228  1.00  0.00    -0.237 OA
ATOM     82  O   UNL A   1      36.098  33.556  29.697  1.00  0.00    -0.744 OA
ENDBRANCH  75  79
ENDBRANCH  48  72
BRANCH  60  83
ATOM     83  C   UNL A   1      44.629  33.487  29.221  1.00  0.00     0.023 A 
ATOM     84  C   UNL A   1      44.286  34.604  28.438  1.00  0.00     0.031 A 
ATOM     85  C   UNL A   1      45.464  33.692  30.334  1.00  0.00     0.131 A 
ATOM     86  C   UNL A   1      44.817  35.865  28.749  1.00  0.00     0.055 A 
ATOM     87  C   UNL A   1      45.940  34.959  30.674  1.00  0.00     0.041 A 
ATOM     88  F   UNL A   1      45.827  32.662  31.115  1.00  0.00    -0.206 F 
ATOM     89  C   UNL A   1      45.628  36.053  29.873  1.00  0.00     0.022 A 
BRANCH  86  90
ATOM     90  S   UNL A   1      44.506  37.247  27.615  1.00  0.00     0.124 S 
ATOM     91  O   UNL A   1      45.762  37.320  26.875  1.00  0.00    -0.237 OA
ATOM     92  O   UNL A   1      43.348  36.778  26.862  1.00  0.00    -0.237 OA
ATOM     93  O   UNL A   1      44.248  38.373  28.510  1.00  0.00    -0.744 OA
ENDBRANCH  86  90
ENDBRANCH  60  83
ENDBRANCH  34  35
ENDBRANCH  26  29
ENDBRANCH  24  25
ENDBRANCH   1  24
TORSDOF 15
ENDMDL
