MODEL 1
REMARK VINA RESULT:     -11.8      0.000      0.000
REMARK SMILES CC[C@H](NC(=O)Cc1c(C)c2cc(Cl)c(OC)cc2oc1=O)C(=O)NCCCNC(=O)c1ccc(-c2c3nc(c(-c4cc(S(=O)(=O)[O-])ccc4F)c4ccc([nH]4)c(-c4cc(S(=O)(=O)[O-])ccc4F)c4nc(c(-c5cc(S(=O)(=O)[O-])ccc5F)c5ccc2[nH]5)C=C4)C=C3)cc1
REMARK SMILES IDX 26 1 25 2 23 3 24 4 3 6 2 7 1 8 4 9 5 10 6 12 7 13 8 14 9 15
REMARK SMILES IDX 21 16 10 17 11 18 20 19 22 20 12 21 19 22 13 23 18 24 14 25
REMARK SMILES IDX 15 26 16 27 17 28 27 29 28 30 29 31 30 32 31 34 32 35 33 36
REMARK SMILES IDX 94 37 34 38 93 39 35 40 36 41 37 42 87 43 38 44 92 45 86 46
REMARK SMILES IDX 88 47 39 48 91 49 85 50 84 51 40 53 72 54 52 55 71 56 53 57
REMARK SMILES IDX 56 58 70 59 89 60 54 61 55 62 69 64 90 65 57 66 41 67 42 68
REMARK SMILES IDX 50 69 43 70 49 71 51 72 48 73 44 74 45 75 46 76 47 77 73 78
REMARK SMILES IDX 74 79 82 80 75 81 81 82 83 83 80 84 76 85 77 86 78 87 79 88
REMARK SMILES IDX 58 89 59 90 67 91 60 92 66 93 68 94 65 95 61 96 62 97 63 98
REMARK SMILES IDX 64 99
REMARK H PARENT 25 5 4 11 29 33 88 52 56 63
REMARK Flexibility Score: inf
ROOT
ATOM      1  C   UNL A   1      32.244  27.002  26.205  1.00  0.00     0.117 C 
ENDROOT
BRANCH   1   2
ATOM      2  N   UNL A   1      31.074  26.272  26.667  1.00  0.00    -0.354 N 
ATOM      3  C   UNL A   1      30.521  25.107  26.224  1.00  0.00     0.242 C 
ATOM      4  O   UNL A   1      29.542  24.663  26.833  1.00  0.00    -0.273 OA
ATOM      5  H   UNL A   1      30.603  26.687  27.424  1.00  0.00     0.163 HD
BRANCH   3   6
ATOM      6  C   UNL A   1      31.142  24.306  25.065  1.00  0.00     0.171 C 
BRANCH   6   7
ATOM      7  C   UNL A   1      30.558  24.762  23.715  1.00  0.00     0.031 C 
ATOM      8  C   UNL A   1      31.601  25.270  22.732  1.00  0.00     0.006 C 
ENDBRANCH   6   7
BRANCH   6   9
ATOM      9  N   UNL A   1      31.013  22.874  25.307  1.00  0.00    -0.344 N 
ATOM     10  C   UNL A   1      31.839  21.857  24.926  1.00  0.00     0.225 C 
ATOM     11  H   UNL A   1      30.219  22.603  25.820  1.00  0.00     0.164 HD
ATOM     12  O   UNL A   1      31.581  20.722  25.332  1.00  0.00    -0.275 OA
BRANCH  10  13
ATOM     13  C   UNL A   1      33.094  22.127  24.092  1.00  0.00     0.143 C 
BRANCH  13  14
ATOM     14  C   UNL A   1      34.458  21.959  24.732  1.00  0.00     0.051 A 
ATOM     15  C   UNL A   1      35.179  23.008  25.196  1.00  0.00    -0.029 A 
ATOM     16  C   UNL A   1      35.004  20.578  24.824  1.00  0.00     0.340 A 
ATOM     17  C   UNL A   1      34.645  24.419  25.271  1.00  0.00     0.046 C 
ATOM     18  C   UNL A   1      36.579  22.792  25.616  1.00  0.00     0.023 A 
ATOM     19  O   UNL A   1      36.374  20.456  24.977  1.00  0.00    -0.422 OA
ATOM     20  O   UNL A   1      34.309  19.576  24.715  1.00  0.00    -0.246 OA
ATOM     21  C   UNL A   1      37.412  23.793  26.131  1.00  0.00     0.036 A 
ATOM     22  C   UNL A   1      37.144  21.539  25.419  1.00  0.00     0.142 A 
ATOM     23  C   UNL A   1      38.767  23.533  26.399  1.00  0.00     0.083 A 
ATOM     24  C   UNL A   1      38.494  21.264  25.665  1.00  0.00     0.095 A 
ATOM     25  Cl  UNL A   1      39.726  24.828  27.027  1.00  0.00    -0.080 Cl
ATOM     26  C   UNL A   1      39.326  22.270  26.148  1.00  0.00     0.141 A 
BRANCH  26  27
ATOM     27  O   UNL A   1      40.662  22.111  26.408  1.00  0.00    -0.495 OA
ATOM     28  C   UNL A   1      41.167  20.782  26.430  1.00  0.00     0.278 C 
ENDBRANCH  26  27
ENDBRANCH  13  14
ENDBRANCH  10  13
ENDBRANCH   6   9
ENDBRANCH   3   6
ENDBRANCH   1   2
BRANCH   1  29
ATOM     29  C   UNL A   1      31.898  28.364  25.626  1.00  0.00     0.042 C 
BRANCH  29  30
ATOM     30  C   UNL A   1      33.041  29.368  25.683  1.00  0.00     0.118 C 
BRANCH  30  31
ATOM     31  N   UNL A   1      32.647  30.661  26.234  1.00  0.00    -0.352 N 
ATOM     32  C   UNL A   1      33.267  31.456  27.172  1.00  0.00     0.251 C 
ATOM     33  H   UNL A   1      31.803  31.022  25.879  1.00  0.00     0.163 HD
ATOM     34  O   UNL A   1      32.682  32.444  27.606  1.00  0.00    -0.269 OA
BRANCH  32  35
ATOM     35  C   UNL A   1      34.610  31.097  27.679  1.00  0.00     0.039 A 
ATOM     36  C   UNL A   1      34.905  29.782  28.037  1.00  0.00     0.014 A 
ATOM     37  C   UNL A   1      35.578  32.094  27.828  1.00  0.00     0.014 A 
ATOM     38  C   UNL A   1      36.067  29.510  28.746  1.00  0.00     0.010 A 
ATOM     39  C   UNL A   1      36.800  31.791  28.441  1.00  0.00     0.010 A 
ATOM     40  C   UNL A   1      37.028  30.512  28.967  1.00  0.00    -0.014 A 
BRANCH  40  41
ATOM     41  C   UNL A   1      38.245  30.179  29.757  1.00  0.00     0.031 A 
ATOM     42  C   UNL A   1      39.408  29.457  29.127  1.00  0.00     0.074 A 
ATOM     43  C   UNL A   1      38.334  30.615  31.030  1.00  0.00     0.049 A 
ATOM     44  N   UNL A   1      40.579  29.182  29.642  1.00  0.00    -0.248 NA
ATOM     45  C   UNL A   1      39.238  28.974  27.747  1.00  0.00     0.031 C 
ATOM     46  C   UNL A   1      37.268  31.319  31.744  1.00  0.00     0.029 A 
ATOM     47  N   UNL A   1      39.369  30.577  31.932  1.00  0.00    -0.354 N 
ATOM     48  C   UNL A   1      41.275  28.478  28.663  1.00  0.00     0.074 A 
ATOM     49  C   UNL A   1      40.382  28.338  27.535  1.00  0.00     0.031 C 
ATOM     50  C   UNL A   1      37.730  31.722  32.935  1.00  0.00     0.029 A 
ATOM     51  C   UNL A   1      39.099  31.243  33.105  1.00  0.00     0.049 A 
ATOM     52  H   UNL A   1      40.221  30.118  31.756  1.00  0.00     0.167 HD
ATOM     53  C   UNL A   1      42.546  28.011  28.699  1.00  0.00     0.034 A 
ATOM     54  C   UNL A   1      39.864  31.455  34.197  1.00  0.00     0.034 A 
ATOM     55  C   UNL A   1      43.436  28.189  29.817  1.00  0.00     0.049 A 
ATOM     56  C   UNL A   1      41.276  30.933  34.205  1.00  0.00     0.074 A 
ATOM     57  C   UNL A   1      44.751  27.772  29.937  1.00  0.00     0.029 A 
ATOM     58  N   UNL A   1      43.118  28.845  30.998  1.00  0.00    -0.354 N 
ATOM     59  N   UNL A   1      41.928  30.306  33.252  1.00  0.00    -0.248 NA
ATOM     60  C   UNL A   1      42.061  31.145  35.428  1.00  0.00     0.031 C 
ATOM     61  C   UNL A   1      45.209  28.126  31.207  1.00  0.00     0.029 A 
ATOM     62  C   UNL A   1      44.205  28.826  31.857  1.00  0.00     0.049 A 
ATOM     63  H   UNL A   1      42.248  29.261  31.196  1.00  0.00     0.167 HD
ATOM     64  C   UNL A   1      43.204  30.070  33.754  1.00  0.00     0.074 A 
ATOM     65  C   UNL A   1      43.242  30.647  35.082  1.00  0.00     0.031 C 
ATOM     66  C   UNL A   1      44.245  29.424  33.170  1.00  0.00     0.034 A 
BRANCH  53  67
ATOM     67  C   UNL A   1      43.079  27.267  27.498  1.00  0.00     0.023 A 
ATOM     68  C   UNL A   1      43.237  25.868  27.551  1.00  0.00     0.031 A 
ATOM     69  C   UNL A   1      43.557  27.946  26.364  1.00  0.00     0.131 A 
ATOM     70  C   UNL A   1      43.888  25.200  26.507  1.00  0.00     0.055 A 
ATOM     71  C   UNL A   1      44.169  27.271  25.307  1.00  0.00     0.041 A 
ATOM     72  F   UNL A   1      43.430  29.280  26.265  1.00  0.00    -0.206 F 
ATOM     73  C   UNL A   1      44.349  25.892  25.382  1.00  0.00     0.022 A 
BRANCH  70  74
ATOM     74  S   UNL A   1      44.222  23.419  26.595  1.00  0.00     0.124 S 
ATOM     75  O   UNL A   1      43.699  22.952  25.313  1.00  0.00    -0.237 OA
ATOM     76  O   UNL A   1      45.676  23.386  26.724  1.00  0.00    -0.237 OA
ATOM     77  O   UNL A   1      43.474  22.979  27.767  1.00  0.00    -0.744 OA
ENDBRANCH  70  74
ENDBRANCH  53  67
BRANCH  54  78
ATOM     78  C   UNL A   1      39.312  32.257  35.329  1.00  0.00     0.023 A 
ATOM     79  C   UNL A   1      39.684  33.601  35.515  1.00  0.00     0.031 A 
ATOM     80  C   UNL A   1      38.496  31.659  36.302  1.00  0.00     0.131 A 
ATOM     81  C   UNL A   1      39.307  34.274  36.684  1.00  0.00     0.055 A 
ATOM     82  C   UNL A   1      38.057  32.358  37.428  1.00  0.00     0.041 A 
ATOM     83  F   UNL A   1      38.124  30.374  36.179  1.00  0.00    -0.206 F 
ATOM     84  C   UNL A   1      38.481  33.667  37.633  1.00  0.00     0.022 A 
BRANCH  81  85
ATOM     85  S   UNL A   1      40.005  35.902  37.082  1.00  0.00     0.124 S 
ATOM     86  O   UNL A   1      39.296  36.242  38.312  1.00  0.00    -0.237 OA
ATOM     87  O   UNL A   1      41.424  35.590  37.236  1.00  0.00    -0.237 OA
ATOM     88  O   UNL A   1      39.674  36.713  35.916  1.00  0.00    -0.744 OA
ENDBRANCH  81  85
ENDBRANCH  54  78
BRANCH  66  89
ATOM     89  C   UNL A   1      45.540  29.301  33.937  1.00  0.00     0.023 A 
ATOM     90  C   UNL A   1      45.704  28.265  34.877  1.00  0.00     0.031 A 
ATOM     91  C   UNL A   1      46.540  30.285  33.849  1.00  0.00     0.131 A 
ATOM     92  C   UNL A   1      46.826  28.255  35.714  1.00  0.00     0.055 A 
ATOM     93  C   UNL A   1      47.679  30.245  34.654  1.00  0.00     0.041 A 
ATOM     94  F   UNL A   1      46.423  31.300  32.978  1.00  0.00    -0.206 F 
ATOM     95  C   UNL A   1      47.819  29.234  35.602  1.00  0.00     0.022 A 
BRANCH  92  96
ATOM     96  S   UNL A   1      46.994  27.028  37.040  1.00  0.00     0.124 S 
ATOM     97  O   UNL A   1      46.702  25.782  36.335  1.00  0.00    -0.237 OA
ATOM     98  O   UNL A   1      48.385  27.202  37.447  1.00  0.00    -0.237 OA
ATOM     99  O   UNL A   1      45.998  27.435  38.025  1.00  0.00    -0.744 OA
ENDBRANCH  92  96
ENDBRANCH  66  89
ENDBRANCH  40  41
ENDBRANCH  32  35
ENDBRANCH  30  31
ENDBRANCH  29  30
ENDBRANCH   1  29
TORSDOF 18
ENDMDL
MODEL 2
REMARK VINA RESULT:     -11.6      1.896      2.177
REMARK SMILES CC[C@H](NC(=O)Cc1c(C)c2cc(Cl)c(OC)cc2oc1=O)C(=O)NCCCNC(=O)c1ccc(-c2c3nc(c(-c4cc(S(=O)(=O)[O-])ccc4F)c4ccc([nH]4)c(-c4cc(S(=O)(=O)[O-])ccc4F)c4nc(c(-c5cc(S(=O)(=O)[O-])ccc5F)c5ccc2[nH]5)C=C4)C=C3)cc1
REMARK SMILES IDX 26 1 25 2 23 3 24 4 3 6 2 7 1 8 4 9 5 10 6 12 7 13 8 14 9 15
REMARK SMILES IDX 21 16 10 17 11 18 20 19 22 20 12 21 19 22 13 23 18 24 14 25
REMARK SMILES IDX 15 26 16 27 17 28 27 29 28 30 29 31 30 32 31 34 32 35 33 36
REMARK SMILES IDX 94 37 34 38 93 39 35 40 36 41 37 42 87 43 38 44 92 45 86 46
REMARK SMILES IDX 88 47 39 48 91 49 85 50 84 51 40 53 72 54 52 55 71 56 53 57
REMARK SMILES IDX 56 58 70 59 89 60 54 61 55 62 69 64 90 65 57 66 41 67 42 68
REMARK SMILES IDX 50 69 43 70 49 71 51 72 48 73 44 74 45 75 46 76 47 77 73 78
REMARK SMILES IDX 74 79 82 80 75 81 81 82 83 83 80 84 76 85 77 86 78 87 79 88
REMARK SMILES IDX 58 89 59 90 67 91 60 92 66 93 68 94 65 95 61 96 62 97 63 98
REMARK SMILES IDX 64 99
REMARK H PARENT 25 5 4 11 29 33 88 52 56 63
REMARK Flexibility Score: inf
ROOT
ATOM      1  C   UNL A   1      32.262  26.850  26.080  1.00  0.00     0.117 C 
ENDROOT
BRANCH   1   2
ATOM      2  N   UNL A   1      31.187  26.029  26.613  1.00  0.00    -0.354 N 
ATOM      3  C   UNL A   1      30.697  24.825  26.199  1.00  0.00     0.242 C 
ATOM      4  O   UNL A   1      29.800  24.304  26.868  1.00  0.00    -0.273 OA
ATOM      5  H   UNL A   1      30.738  26.402  27.405  1.00  0.00     0.163 HD
BRANCH   3   6
ATOM      6  C   UNL A   1      31.296  24.081  24.991  1.00  0.00     0.171 C 
BRANCH   6   7
ATOM      7  C   UNL A   1      30.668  24.580  23.678  1.00  0.00     0.031 C 
ATOM      8  C   UNL A   1      31.681  25.078  22.659  1.00  0.00     0.006 C 
ENDBRANCH   6   7
BRANCH   6   9
ATOM      9  N   UNL A   1      31.196  22.639  25.180  1.00  0.00    -0.344 N 
ATOM     10  C   UNL A   1      32.059  21.655  24.791  1.00  0.00     0.225 C 
ATOM     11  H   UNL A   1      30.393  22.331  25.658  1.00  0.00     0.164 HD
ATOM     12  O   UNL A   1      31.816  20.501  25.150  1.00  0.00    -0.275 OA
BRANCH  10  13
ATOM     13  C   UNL A   1      33.332  21.985  24.007  1.00  0.00     0.143 C 
BRANCH  13  14
ATOM     14  C   UNL A   1      34.674  21.895  24.706  1.00  0.00     0.051 A 
ATOM     15  C   UNL A   1      35.320  22.985  25.186  1.00  0.00    -0.029 A 
ATOM     16  C   UNL A   1      35.287  20.545  24.838  1.00  0.00     0.340 A 
ATOM     17  C   UNL A   1      34.712  24.366  25.221  1.00  0.00     0.046 C 
ATOM     18  C   UNL A   1      36.710  22.847  25.666  1.00  0.00     0.023 A 
ATOM     19  O   UNL A   1      36.653  20.496  25.049  1.00  0.00    -0.422 OA
ATOM     20  O   UNL A   1      34.650  19.507  24.712  1.00  0.00    -0.246 OA
ATOM     21  C   UNL A   1      37.469  23.894  26.203  1.00  0.00     0.036 A 
ATOM     22  C   UNL A   1      37.347  21.622  25.509  1.00  0.00     0.142 A 
ATOM     23  C   UNL A   1      38.822  23.708  26.530  1.00  0.00     0.083 A 
ATOM     24  C   UNL A   1      38.698  21.421  25.814  1.00  0.00     0.095 A 
ATOM     25  Cl  UNL A   1      39.686  25.058  27.182  1.00  0.00    -0.080 Cl
ATOM     26  C   UNL A   1      39.456  22.474  26.318  1.00  0.00     0.141 A 
BRANCH  26  27
ATOM     27  O   UNL A   1      40.786  22.387  26.637  1.00  0.00    -0.495 OA
ATOM     28  C   UNL A   1      41.119  21.807  27.892  1.00  0.00     0.278 C 
ENDBRANCH  26  27
ENDBRANCH  13  14
ENDBRANCH  10  13
ENDBRANCH   6   9
ENDBRANCH   3   6
ENDBRANCH   1   2
BRANCH   1  29
ATOM     29  C   UNL A   1      31.980  28.339  26.199  1.00  0.00     0.042 C 
BRANCH  29  30
ATOM     30  C   UNL A   1      33.232  29.197  26.313  1.00  0.00     0.118 C 
BRANCH  30  31
ATOM     31  N   UNL A   1      32.951  30.584  26.670  1.00  0.00    -0.352 N 
ATOM     32  C   UNL A   1      33.676  31.472  27.434  1.00  0.00     0.251 C 
ATOM     33  H   UNL A   1      32.109  30.942  26.307  1.00  0.00     0.163 HD
ATOM     34  O   UNL A   1      33.178  32.554  27.734  1.00  0.00    -0.269 OA
BRANCH  32  35
ATOM     35  C   UNL A   1      35.024  31.106  27.920  1.00  0.00     0.039 A 
ATOM     36  C   UNL A   1      35.293  29.811  28.358  1.00  0.00     0.014 A 
ATOM     37  C   UNL A   1      36.026  32.081  27.966  1.00  0.00     0.014 A 
ATOM     38  C   UNL A   1      36.471  29.551  29.045  1.00  0.00     0.010 A 
ATOM     39  C   UNL A   1      37.259  31.782  28.557  1.00  0.00     0.010 A 
ATOM     40  C   UNL A   1      37.468  30.535  29.163  1.00  0.00    -0.014 A 
BRANCH  40  41
ATOM     41  C   UNL A   1      38.703  30.219  29.933  1.00  0.00     0.031 A 
ATOM     42  C   UNL A   1      39.854  29.489  29.292  1.00  0.00     0.074 A 
ATOM     43  C   UNL A   1      38.817  30.677  31.197  1.00  0.00     0.049 A 
ATOM     44  N   UNL A   1      41.036  29.226  29.787  1.00  0.00    -0.248 NA
ATOM     45  C   UNL A   1      39.657  28.981  27.924  1.00  0.00     0.031 C 
ATOM     46  C   UNL A   1      37.763  31.391  31.921  1.00  0.00     0.029 A 
ATOM     47  N   UNL A   1      39.870  30.657  32.077  1.00  0.00    -0.354 N 
ATOM     48  C   UNL A   1      41.714  28.507  28.806  1.00  0.00     0.074 A 
ATOM     49  C   UNL A   1      40.798  28.345  27.700  1.00  0.00     0.031 C 
ATOM     50  C   UNL A   1      38.249  31.815  33.095  1.00  0.00     0.029 A 
ATOM     51  C   UNL A   1      39.623  31.343  33.245  1.00  0.00     0.049 A 
ATOM     52  H   UNL A   1      40.720  30.197  31.892  1.00  0.00     0.167 HD
ATOM     53  C   UNL A   1      42.986  28.043  28.823  1.00  0.00     0.034 A 
ATOM     54  C   UNL A   1      40.410  31.575  34.316  1.00  0.00     0.034 A 
ATOM     55  C   UNL A   1      43.900  28.243  29.920  1.00  0.00     0.049 A 
ATOM     56  C   UNL A   1      41.823  31.057  34.303  1.00  0.00     0.074 A 
ATOM     57  C   UNL A   1      45.217  27.832  30.019  1.00  0.00     0.029 A 
ATOM     58  N   UNL A   1      43.604  28.918  31.096  1.00  0.00    -0.354 N 
ATOM     59  N   UNL A   1      42.457  30.415  33.349  1.00  0.00    -0.248 NA
ATOM     60  C   UNL A   1      42.633  31.291  35.506  1.00  0.00     0.031 C 
ATOM     61  C   UNL A   1      45.700  28.208  31.273  1.00  0.00     0.029 A 
ATOM     62  C   UNL A   1      44.708  28.917  31.931  1.00  0.00     0.049 A 
ATOM     63  H   UNL A   1      42.737  29.335  31.304  1.00  0.00     0.167 HD
ATOM     64  C   UNL A   1      43.744  30.191  33.828  1.00  0.00     0.074 A 
ATOM     65  C   UNL A   1      43.807  30.791  35.144  1.00  0.00     0.031 C 
ATOM     66  C   UNL A   1      44.774  29.538  33.233  1.00  0.00     0.034 A 
BRANCH  53  67
ATOM     67  C   UNL A   1      43.497  27.280  27.625  1.00  0.00     0.023 A 
ATOM     68  C   UNL A   1      43.709  25.890  27.715  1.00  0.00     0.031 A 
ATOM     69  C   UNL A   1      43.901  27.938  26.451  1.00  0.00     0.131 A 
ATOM     70  C   UNL A   1      44.340  25.212  26.665  1.00  0.00     0.055 A 
ATOM     71  C   UNL A   1      44.493  27.251  25.390  1.00  0.00     0.041 A 
ATOM     72  F   UNL A   1      43.721  29.263  26.316  1.00  0.00    -0.206 F 
ATOM     73  C   UNL A   1      44.728  25.883  25.500  1.00  0.00     0.022 A 
BRANCH  70  74
ATOM     74  S   UNL A   1      44.744  23.448  26.795  1.00  0.00     0.124 S 
ATOM     75  O   UNL A   1      44.227  23.120  28.122  1.00  0.00    -0.237 OA
ATOM     76  O   UNL A   1      43.996  22.880  25.677  1.00  0.00    -0.237 OA
ATOM     77  O   UNL A   1      46.196  23.410  26.668  1.00  0.00    -0.744 OA
ENDBRANCH  70  74
ENDBRANCH  53  67
BRANCH  54  78
ATOM     78  C   UNL A   1      39.879  32.395  35.445  1.00  0.00     0.023 A 
ATOM     79  C   UNL A   1      39.160  31.800  36.498  1.00  0.00     0.031 A 
ATOM     80  C   UNL A   1      39.984  33.796  35.428  1.00  0.00     0.131 A 
ATOM     81  C   UNL A   1      38.510  32.605  37.441  1.00  0.00     0.055 A 
ATOM     82  C   UNL A   1      39.400  34.591  36.415  1.00  0.00     0.041 A 
ATOM     83  F   UNL A   1      40.648  34.413  34.437  1.00  0.00    -0.206 F 
ATOM     84  C   UNL A   1      38.640  33.997  37.418  1.00  0.00     0.022 A 
BRANCH  81  85
ATOM     85  S   UNL A   1      37.349  31.882  38.635  1.00  0.00     0.124 S 
ATOM     86  O   UNL A   1      36.186  32.751  38.491  1.00  0.00    -0.237 OA
ATOM     87  O   UNL A   1      37.192  30.525  38.115  1.00  0.00    -0.237 OA
ATOM     88  O   UNL A   1      38.058  31.978  39.906  1.00  0.00    -0.744 OA
ENDBRANCH  81  85
ENDBRANCH  54  78
BRANCH  66  89
ATOM     89  C   UNL A   1      46.085  29.431  33.975  1.00  0.00     0.023 A 
ATOM     90  C   UNL A   1      47.103  30.376  33.740  1.00  0.00     0.031 A 
ATOM     91  C   UNL A   1      46.378  28.325  34.790  1.00  0.00     0.131 A 
ATOM     92  C   UNL A   1      48.376  30.178  34.288  1.00  0.00     0.055 A 
ATOM     93  C   UNL A   1      47.636  28.156  35.371  1.00  0.00     0.041 A 
ATOM     94  F   UNL A   1      45.446  27.390  35.032  1.00  0.00    -0.206 F 
ATOM     95  C   UNL A   1      48.646  29.078  35.109  1.00  0.00     0.022 A 
BRANCH  92  96
ATOM     96  S   UNL A   1      49.753  31.287  33.881  1.00  0.00     0.124 S 
ATOM     97  O   UNL A   1      49.069  32.370  33.179  1.00  0.00    -0.237 OA
ATOM     98  O   UNL A   1      50.274  31.632  35.201  1.00  0.00    -0.237 OA
ATOM     99  O   UNL A   1      50.634  30.468  33.055  1.00  0.00    -0.744 OA
ENDBRANCH  92  96
ENDBRANCH  66  89
ENDBRANCH  40  41
ENDBRANCH  32  35
ENDBRANCH  30  31
ENDBRANCH  29  30
ENDBRANCH   1  29
TORSDOF 18
ENDMDL
MODEL 3
REMARK VINA RESULT:     -11.0      2.296      8.087
REMARK SMILES CC[C@H](NC(=O)Cc1c(C)c2cc(Cl)c(OC)cc2oc1=O)C(=O)NCCCNC(=O)c1ccc(-c2c3nc(c(-c4cc(S(=O)(=O)[O-])ccc4F)c4ccc([nH]4)c(-c4cc(S(=O)(=O)[O-])ccc4F)c4nc(c(-c5cc(S(=O)(=O)[O-])ccc5F)c5ccc2[nH]5)C=C4)C=C3)cc1
REMARK SMILES IDX 26 1 25 2 23 3 24 4 3 6 2 7 1 8 4 9 5 10 6 12 7 13 8 14 9 15
REMARK SMILES IDX 21 16 10 17 11 18 20 19 22 20 12 21 19 22 13 23 18 24 14 25
REMARK SMILES IDX 15 26 16 27 17 28 27 29 28 30 29 31 30 32 31 34 32 35 33 36
REMARK SMILES IDX 94 37 34 38 93 39 35 40 36 41 37 42 87 43 38 44 92 45 86 46
REMARK SMILES IDX 88 47 39 48 91 49 85 50 84 51 40 53 72 54 52 55 71 56 53 57
REMARK SMILES IDX 56 58 70 59 89 60 54 61 55 62 69 64 90 65 57 66 41 67 42 68
REMARK SMILES IDX 50 69 43 70 49 71 51 72 48 73 44 74 45 75 46 76 47 77 73 78
REMARK SMILES IDX 74 79 82 80 75 81 81 82 83 83 80 84 76 85 77 86 78 87 79 88
REMARK SMILES IDX 58 89 59 90 67 91 60 92 66 93 68 94 65 95 61 96 62 97 63 98
REMARK SMILES IDX 64 99
REMARK H PARENT 25 5 4 11 29 33 88 52 56 63
REMARK Flexibility Score: inf
ROOT
ATOM      1  C   UNL A   1      31.829  30.432  26.202  1.00  0.00     0.117 C 
ENDROOT
BRANCH   1   2
ATOM      2  N   UNL A   1      33.144  30.006  26.651  1.00  0.00    -0.354 N 
ATOM      3  C   UNL A   1      33.819  28.839  26.448  1.00  0.00     0.242 C 
ATOM      4  O   UNL A   1      34.965  28.746  26.900  1.00  0.00    -0.273 OA
ATOM      5  H   UNL A   1      33.629  30.670  27.192  1.00  0.00     0.163 HD
BRANCH   3   6
ATOM      6  C   UNL A   1      33.225  27.697  25.602  1.00  0.00     0.171 C 
BRANCH   6   7
ATOM      7  C   UNL A   1      32.891  28.188  24.183  1.00  0.00     0.031 C 
ATOM      8  C   UNL A   1      34.111  28.552  23.352  1.00  0.00     0.006 C 
ENDBRANCH   6   7
BRANCH   6   9
ATOM      9  N   UNL A   1      32.096  27.085  26.294  1.00  0.00    -0.344 N 
ATOM     10  C   UNL A   1      31.433  25.927  26.007  1.00  0.00     0.225 C 
ATOM     11  H   UNL A   1      31.766  27.576  27.080  1.00  0.00     0.164 HD
ATOM     12  O   UNL A   1      30.564  25.550  26.795  1.00  0.00    -0.275 OA
BRANCH  10  13
ATOM     13  C   UNL A   1      31.814  25.078  24.791  1.00  0.00     0.143 C 
BRANCH  13  14
ATOM     14  C   UNL A   1      32.399  23.697  25.008  1.00  0.00     0.051 A 
ATOM     15  C   UNL A   1      33.731  23.454  24.962  1.00  0.00    -0.029 A 
ATOM     16  C   UNL A   1      31.445  22.583  25.262  1.00  0.00     0.340 A 
ATOM     17  C   UNL A   1      34.774  24.540  24.852  1.00  0.00     0.046 C 
ATOM     18  C   UNL A   1      34.211  22.057  24.977  1.00  0.00     0.023 A 
ATOM     19  O   UNL A   1      31.902  21.300  25.016  1.00  0.00    -0.422 OA
ATOM     20  O   UNL A   1      30.286  22.763  25.614  1.00  0.00    -0.246 OA
ATOM     21  C   UNL A   1      35.561  21.684  24.956  1.00  0.00     0.036 A 
ATOM     22  C   UNL A   1      33.273  21.033  24.927  1.00  0.00     0.142 A 
ATOM     23  C   UNL A   1      35.933  20.334  24.855  1.00  0.00     0.083 A 
ATOM     24  C   UNL A   1      33.623  19.684  24.811  1.00  0.00     0.095 A 
ATOM     25  Cl  UNL A   1      37.623  19.964  24.830  1.00  0.00    -0.080 Cl
ATOM     26  C   UNL A   1      34.966  19.320  24.760  1.00  0.00     0.141 A 
BRANCH  26  27
ATOM     27  O   UNL A   1      35.416  18.032  24.634  1.00  0.00    -0.495 OA
ATOM     28  C   UNL A   1      34.515  17.079  24.084  1.00  0.00     0.278 C 
ENDBRANCH  26  27
ENDBRANCH  13  14
ENDBRANCH  10  13
ENDBRANCH   6   9
ENDBRANCH   3   6
ENDBRANCH   1   2
BRANCH   1  29
ATOM     29  C   UNL A   1      31.537  31.887  26.529  1.00  0.00     0.042 C 
BRANCH  29  30
ATOM     30  C   UNL A   1      32.654  32.584  27.292  1.00  0.00     0.118 C 
BRANCH  30  31
ATOM     31  N   UNL A   1      32.348  33.973  27.624  1.00  0.00    -0.352 N 
ATOM     32  C   UNL A   1      32.945  34.826  28.525  1.00  0.00     0.251 C 
ATOM     33  H   UNL A   1      31.594  34.361  27.123  1.00  0.00     0.163 HD
ATOM     34  O   UNL A   1      32.429  35.916  28.754  1.00  0.00    -0.269 OA
BRANCH  32  35
ATOM     35  C   UNL A   1      34.175  34.414  29.236  1.00  0.00     0.039 A 
ATOM     36  C   UNL A   1      35.429  34.627  28.666  1.00  0.00     0.014 A 
ATOM     37  C   UNL A   1      34.071  33.777  30.476  1.00  0.00     0.014 A 
ATOM     38  C   UNL A   1      36.545  34.010  29.216  1.00  0.00     0.010 A 
ATOM     39  C   UNL A   1      35.218  33.256  31.088  1.00  0.00     0.010 A 
ATOM     40  C   UNL A   1      36.455  33.307  30.430  1.00  0.00    -0.014 A 
BRANCH  40  41
ATOM     41  C   UNL A   1      37.673  32.639  30.966  1.00  0.00     0.031 A 
ATOM     42  C   UNL A   1      38.152  32.905  32.370  1.00  0.00     0.074 A 
ATOM     43  C   UNL A   1      38.297  31.716  30.206  1.00  0.00     0.049 A 
ATOM     44  N   UNL A   1      39.128  32.333  33.025  1.00  0.00    -0.248 NA
ATOM     45  C   UNL A   1      37.453  33.949  33.138  1.00  0.00     0.031 C 
ATOM     46  C   UNL A   1      37.924  31.382  28.830  1.00  0.00     0.029 A 
ATOM     47  N   UNL A   1      39.335  30.862  30.486  1.00  0.00    -0.354 N 
ATOM     48  C   UNL A   1      39.177  32.958  34.268  1.00  0.00     0.074 A 
ATOM     49  C   UNL A   1      38.153  33.978  34.263  1.00  0.00     0.031 C 
ATOM     50  C   UNL A   1      38.659  30.341  28.418  1.00  0.00     0.029 A 
ATOM     51  C   UNL A   1      39.608  29.978  29.467  1.00  0.00     0.049 A 
ATOM     52  H   UNL A   1      39.836  30.881  31.333  1.00  0.00     0.167 HD
ATOM     53  C   UNL A   1      39.990  32.691  35.319  1.00  0.00     0.034 A 
ATOM     54  C   UNL A   1      40.513  28.981  29.383  1.00  0.00     0.034 A 
ATOM     55  C   UNL A   1      40.983  31.648  35.321  1.00  0.00     0.049 A 
ATOM     56  C   UNL A   1      41.396  28.700  30.569  1.00  0.00     0.074 A 
ATOM     57  C   UNL A   1      41.838  31.285  36.348  1.00  0.00     0.029 A 
ATOM     58  N   UNL A   1      41.249  30.792  34.262  1.00  0.00    -0.354 N 
ATOM     59  N   UNL A   1      41.397  29.276  31.749  1.00  0.00    -0.248 NA
ATOM     60  C   UNL A   1      42.398  27.637  30.421  1.00  0.00     0.031 C 
ATOM     61  C   UNL A   1      42.655  30.250  35.893  1.00  0.00     0.029 A 
ATOM     62  C   UNL A   1      42.265  29.916  34.605  1.00  0.00     0.049 A 
ATOM     63  H   UNL A   1      40.783  30.805  33.395  1.00  0.00     0.167 HD
ATOM     64  C   UNL A   1      42.383  28.630  32.489  1.00  0.00     0.074 A 
ATOM     65  C   UNL A   1      42.935  27.600  31.634  1.00  0.00     0.031 C 
ATOM     66  C   UNL A   1      42.797  28.875  33.758  1.00  0.00     0.034 A 
BRANCH  53  67
ATOM     67  C   UNL A   1      39.850  33.520  36.572  1.00  0.00     0.023 A 
ATOM     68  C   UNL A   1      40.727  34.598  36.804  1.00  0.00     0.031 A 
ATOM     69  C   UNL A   1      38.951  33.165  37.593  1.00  0.00     0.131 A 
ATOM     70  C   UNL A   1      40.710  35.258  38.039  1.00  0.00     0.055 A 
ATOM     71  C   UNL A   1      38.910  33.852  38.807  1.00  0.00     0.041 A 
ATOM     72  F   UNL A   1      38.094  32.146  37.421  1.00  0.00    -0.206 F 
ATOM     73  C   UNL A   1      39.802  34.896  39.040  1.00  0.00     0.022 A 
BRANCH  70  74
ATOM     74  S   UNL A   1      41.907  36.566  38.422  1.00  0.00     0.124 S 
ATOM     75  O   UNL A   1      42.358  36.959  37.088  1.00  0.00    -0.237 OA
ATOM     76  O   UNL A   1      41.077  37.548  39.113  1.00  0.00    -0.237 OA
ATOM     77  O   UNL A   1      42.909  35.896  39.242  1.00  0.00    -0.744 OA
ENDBRANCH  70  74
ENDBRANCH  53  67
BRANCH  54  78
ATOM     78  C   UNL A   1      40.563  28.146  28.146  1.00  0.00     0.023 A 
ATOM     79  C   UNL A   1      39.891  26.912  28.076  1.00  0.00     0.031 A 
ATOM     80  C   UNL A   1      41.374  28.516  27.061  1.00  0.00     0.131 A 
ATOM     81  C   UNL A   1      40.105  26.060  26.985  1.00  0.00     0.055 A 
ATOM     82  C   UNL A   1      41.524  27.699  25.939  1.00  0.00     0.041 A 
ATOM     83  F   UNL A   1      42.048  29.677  27.084  1.00  0.00    -0.206 F 
ATOM     84  C   UNL A   1      40.903  26.454  25.907  1.00  0.00     0.022 A 
BRANCH  81  85
ATOM     85  S   UNL A   1      39.482  24.356  27.002  1.00  0.00     0.124 S 
ATOM     86  O   UNL A   1      40.666  23.596  26.612  1.00  0.00    -0.237 OA
ATOM     87  O   UNL A   1      39.065  24.204  28.395  1.00  0.00    -0.237 OA
ATOM     88  O   UNL A   1      38.395  24.377  26.031  1.00  0.00    -0.744 OA
ENDBRANCH  81  85
ENDBRANCH  54  78
BRANCH  66  89
ATOM     89  C   UNL A   1      43.898  28.020  34.336  1.00  0.00     0.023 A 
ATOM     90  C   UNL A   1      43.578  26.827  35.013  1.00  0.00     0.031 A 
ATOM     91  C   UNL A   1      45.234  28.454  34.348  1.00  0.00     0.131 A 
ATOM     92  C   UNL A   1      44.577  26.127  35.702  1.00  0.00     0.055 A 
ATOM     93  C   UNL A   1      46.234  27.729  34.997  1.00  0.00     0.041 A 
ATOM     94  F   UNL A   1      45.587  29.592  33.729  1.00  0.00    -0.206 F 
ATOM     95  C   UNL A   1      45.904  26.567  35.691  1.00  0.00     0.022 A 
BRANCH  92  96
ATOM     96  S   UNL A   1      44.175  24.676  36.713  1.00  0.00     0.124 S 
ATOM     97  O   UNL A   1      45.384  24.528  37.520  1.00  0.00    -0.237 OA
ATOM     98  O   UNL A   1      42.992  25.124  37.441  1.00  0.00    -0.237 OA
ATOM     99  O   UNL A   1      43.946  23.617  35.736  1.00  0.00    -0.744 OA
ENDBRANCH  92  96
ENDBRANCH  66  89
ENDBRANCH  40  41
ENDBRANCH  32  35
ENDBRANCH  30  31
ENDBRANCH  29  30
ENDBRANCH   1  29
TORSDOF 18
ENDMDL
