MODEL 1
REMARK VINA RESULT:     -11.4      0.000      0.000
REMARK SMILES CCC[C@H](CNC(=O)N1CCN2C(=O)NC[C@H]2C1)C(=O)NCCCNC(=O)c1ccc(-c2c3nc(c(-c4cc(S(=O)(=O)[O-])ccc4F)c4ccc([nH]4)c(-c4cc(S(=O)(=O)[O-])ccc4F)c4nc(c(-c5cc(S(=O)(=O)[O-])ccc5F)c5ccc2[nH]5)C=C4)C=C3)cc1
REMARK SMILES IDX 23 1 22 2 21 3 19 4 20 5 4 7 3 8 2 9 1 10 5 11 6 12 7 13
REMARK SMILES IDX 8 15 9 16 10 17 18 18 11 19 17 20 12 21 16 22 13 23 15 24
REMARK SMILES IDX 14 25 24 27 25 28 26 29 27 31 28 32 29 33 90 34 30 35 89 36
REMARK SMILES IDX 31 37 32 38 33 39 83 40 34 41 88 42 82 43 84 44 35 45 87 46
REMARK SMILES IDX 81 47 80 48 36 50 68 51 48 52 67 53 49 54 52 55 66 56 85 57
REMARK SMILES IDX 50 58 51 59 65 61 86 62 53 63 37 64 38 65 46 66 39 67 45 68
REMARK SMILES IDX 47 69 44 70 40 71 41 72 42 73 43 74 69 75 70 76 78 77 71 78
REMARK SMILES IDX 77 79 79 80 76 81 72 82 73 83 74 84 75 85 54 86 55 87 63 88
REMARK SMILES IDX 56 89 62 90 64 91 61 92 57 93 58 94 59 95 60 96
REMARK H PARENT 21 6 6 14 15 26 25 30 84 49 52 60
REMARK Flexibility Score: inf
ROOT
ATOM      1  C   UNL A   1      32.994  28.215  26.780  1.00  0.00     0.042 C 
ENDROOT
BRANCH   1   2
ATOM      2  C   UNL A   1      31.610  28.069  26.173  1.00  0.00     0.117 C 
BRANCH   2   3
ATOM      3  N   UNL A   1      30.885  26.899  26.612  1.00  0.00    -0.356 N 
ATOM      4  C   UNL A   1      30.406  25.858  25.872  1.00  0.00     0.224 C 
ATOM      5  O   UNL A   1      30.009  24.858  26.474  1.00  0.00    -0.275 OA
ATOM      6  H   UNL A   1      30.711  26.845  27.580  1.00  0.00     0.163 HD
BRANCH   4   7
ATOM      7  C   UNL A   1      30.272  25.957  24.347  1.00  0.00     0.097 C 
BRANCH   7   8
ATOM      8  C   UNL A   1      28.969  26.652  23.884  1.00  0.00     0.015 C 
BRANCH   8   9
ATOM      9  C   UNL A   1      29.040  28.007  23.158  1.00  0.00    -0.003 C 
ATOM     10  C   UNL A   1      30.375  28.389  22.529  1.00  0.00     0.004 C 
ENDBRANCH   8   9
ENDBRANCH   7   8
BRANCH   7  11
ATOM     11  C   UNL A   1      30.647  24.587  23.773  1.00  0.00     0.131 C 
BRANCH  11  12
ATOM     12  N   UNL A   1      31.456  24.645  22.570  1.00  0.00    -0.337 N 
ATOM     13  C   UNL A   1      32.812  24.694  22.496  1.00  0.00     0.317 C 
ATOM     14  H   UNL A   1      30.971  24.649  21.714  1.00  0.00     0.165 HD
ATOM     15  O   UNL A   1      33.315  25.244  21.517  1.00  0.00    -0.249 OA
BRANCH  13  16
ATOM     16  N   UNL A   1      33.556  24.225  23.543  1.00  0.00    -0.321 N 
ATOM     17  C   UNL A   1      33.624  24.785  24.910  1.00  0.00     0.143 C 
ATOM     18  C   UNL A   1      34.342  23.000  23.359  1.00  0.00     0.148 C 
ATOM     19  C   UNL A   1      35.075  25.005  25.393  1.00  0.00     0.143 C 
ATOM     20  C   UNL A   1      35.804  23.356  23.622  1.00  0.00     0.125 C 
ATOM     21  N   UNL A   1      35.961  23.947  24.941  1.00  0.00    -0.317 N 
ATOM     22  C   UNL A   1      36.794  22.200  23.648  1.00  0.00     0.144 C 
ATOM     23  C   UNL A   1      37.160  23.570  25.516  1.00  0.00     0.317 C 
ATOM     24  N   UNL A   1      37.692  22.564  24.719  1.00  0.00    -0.336 N 
ATOM     25  O   UNL A   1      37.673  24.021  26.518  1.00  0.00    -0.249 OA
ATOM     26  H   UNL A   1      38.573  22.149  24.866  1.00  0.00     0.165 HD
ENDBRANCH  13  16
ENDBRANCH  11  12
ENDBRANCH   7  11
ENDBRANCH   4   7
ENDBRANCH   2   3
ENDBRANCH   1   2
BRANCH   1  27
ATOM     27  C   UNL A   1      33.835  29.273  26.089  1.00  0.00     0.118 C 
BRANCH  27  28
ATOM     28  N   UNL A   1      33.662  30.586  26.699  1.00  0.00    -0.352 N 
ATOM     29  C   UNL A   1      34.342  31.187  27.726  1.00  0.00     0.251 C 
ATOM     30  H   UNL A   1      32.939  31.129  26.309  1.00  0.00     0.163 HD
ATOM     31  O   UNL A   1      33.876  32.206  28.229  1.00  0.00    -0.269 OA
BRANCH  29  32
ATOM     32  C   UNL A   1      35.606  30.609  28.229  1.00  0.00     0.039 A 
ATOM     33  C   UNL A   1      36.811  31.011  27.646  1.00  0.00     0.014 A 
ATOM     34  C   UNL A   1      35.607  29.652  29.246  1.00  0.00     0.014 A 
ATOM     35  C   UNL A   1      38.015  30.482  28.115  1.00  0.00     0.010 A 
ATOM     36  C   UNL A   1      36.808  29.216  29.787  1.00  0.00     0.010 A 
ATOM     37  C   UNL A   1      38.025  29.601  29.209  1.00  0.00    -0.014 A 
BRANCH  37  38
ATOM     38  C   UNL A   1      39.288  29.020  29.726  1.00  0.00     0.031 A 
ATOM     39  C   UNL A   1      39.962  29.650  30.918  1.00  0.00     0.074 A 
ATOM     40  C   UNL A   1      39.848  27.967  29.098  1.00  0.00     0.049 A 
ATOM     41  N   UNL A   1      41.107  29.351  31.475  1.00  0.00    -0.248 NA
ATOM     42  C   UNL A   1      39.274  30.791  31.545  1.00  0.00     0.031 C 
ATOM     43  C   UNL A   1      39.301  27.299  27.914  1.00  0.00     0.029 A 
ATOM     44  N   UNL A   1      41.003  27.276  29.362  1.00  0.00    -0.354 N 
ATOM     45  C   UNL A   1      41.283  30.276  32.499  1.00  0.00     0.074 A 
ATOM     46  C   UNL A   1      40.161  31.187  32.443  1.00  0.00     0.031 C 
ATOM     47  C   UNL A   1      40.104  26.278  27.576  1.00  0.00     0.029 A 
ATOM     48  C   UNL A   1      41.248  26.249  28.479  1.00  0.00     0.049 A 
ATOM     49  H   UNL A   1      41.601  27.494  30.114  1.00  0.00     0.167 HD
ATOM     50  C   UNL A   1      42.275  30.342  33.420  1.00  0.00     0.034 A 
ATOM     51  C   UNL A   1      42.286  25.393  28.401  1.00  0.00     0.034 A 
ATOM     52  C   UNL A   1      43.373  29.410  33.471  1.00  0.00     0.049 A 
ATOM     53  C   UNL A   1      43.390  25.501  29.428  1.00  0.00     0.074 A 
ATOM     54  C   UNL A   1      44.406  29.350  34.389  1.00  0.00     0.029 A 
ATOM     55  N   UNL A   1      43.585  28.379  32.566  1.00  0.00    -0.354 N 
ATOM     56  N   UNL A   1      43.515  26.352  30.420  1.00  0.00    -0.248 NA
ATOM     57  C   UNL A   1      44.480  24.523  29.333  1.00  0.00     0.031 C 
ATOM     58  C   UNL A   1      45.282  28.335  33.995  1.00  0.00     0.029 A 
ATOM     59  C   UNL A   1      44.746  27.695  32.887  1.00  0.00     0.049 A 
ATOM     60  H   UNL A   1      42.995  28.165  31.807  1.00  0.00     0.167 HD
ATOM     61  C   UNL A   1      44.676  25.978  31.095  1.00  0.00     0.074 A 
ATOM     62  C   UNL A   1      45.201  24.820  30.402  1.00  0.00     0.031 C 
ATOM     63  C   UNL A   1      45.253  26.537  32.189  1.00  0.00     0.034 A 
BRANCH  50  64
ATOM     64  C   UNL A   1      42.228  31.468  34.424  1.00  0.00     0.023 A 
ATOM     65  C   UNL A   1      41.296  31.488  35.477  1.00  0.00     0.031 A 
ATOM     66  C   UNL A   1      43.129  32.545  34.326  1.00  0.00     0.131 A 
ATOM     67  C   UNL A   1      41.244  32.585  36.349  1.00  0.00     0.055 A 
ATOM     68  C   UNL A   1      43.127  33.595  35.246  1.00  0.00     0.041 A 
ATOM     69  F   UNL A   1      44.025  32.597  33.327  1.00  0.00    -0.206 F 
ATOM     70  C   UNL A   1      42.172  33.625  36.258  1.00  0.00     0.022 A 
BRANCH  67  71
ATOM     71  S   UNL A   1      39.866  32.698  37.522  1.00  0.00     0.124 S 
ATOM     72  O   UNL A   1      40.553  32.528  38.802  1.00  0.00    -0.237 OA
ATOM     73  O   UNL A   1      39.332  34.029  37.256  1.00  0.00    -0.237 OA
ATOM     74  O   UNL A   1      38.996  31.588  37.138  1.00  0.00    -0.744 OA
ENDBRANCH  67  71
ENDBRANCH  50  64
BRANCH  51  75
ATOM     75  C   UNL A   1      42.352  24.368  27.318  1.00  0.00     0.023 A 
ATOM     76  C   UNL A   1      41.585  23.193  27.386  1.00  0.00     0.031 A 
ATOM     77  C   UNL A   1      43.235  24.512  26.233  1.00  0.00     0.131 A 
ATOM     78  C   UNL A   1      41.766  22.181  26.431  1.00  0.00     0.055 A 
ATOM     79  C   UNL A   1      43.360  23.532  25.247  1.00  0.00     0.041 A 
ATOM     80  F   UNL A   1      43.990  25.616  26.113  1.00  0.00    -0.206 F 
ATOM     81  C   UNL A   1      42.638  22.349  25.354  1.00  0.00     0.022 A 
BRANCH  78  82
ATOM     82  S   UNL A   1      40.940  20.587  26.690  1.00  0.00     0.124 S 
ATOM     83  O   UNL A   1      41.866  19.665  26.043  1.00  0.00    -0.237 OA
ATOM     84  O   UNL A   1      40.873  20.515  28.146  1.00  0.00    -0.237 OA
ATOM     85  O   UNL A   1      39.654  20.758  26.016  1.00  0.00    -0.744 OA
ENDBRANCH  78  82
ENDBRANCH  51  75
BRANCH  63  86
ATOM     86  C   UNL A   1      46.476  25.852  32.750  1.00  0.00     0.023 A 
ATOM     87  C   UNL A   1      47.764  26.088  32.241  1.00  0.00     0.031 A 
ATOM     88  C   UNL A   1      46.343  24.936  33.810  1.00  0.00     0.131 A 
ATOM     89  C   UNL A   1      48.857  25.368  32.745  1.00  0.00     0.055 A 
ATOM     90  C   UNL A   1      47.444  24.279  34.358  1.00  0.00     0.041 A 
ATOM     91  F   UNL A   1      45.135  24.668  34.335  1.00  0.00    -0.206 F 
ATOM     92  C   UNL A   1      48.708  24.481  33.814  1.00  0.00     0.022 A 
BRANCH  89  93
ATOM     93  S   UNL A   1      50.459  25.519  31.909  1.00  0.00     0.124 S 
ATOM     94  O   UNL A   1      51.340  25.895  33.008  1.00  0.00    -0.237 OA
ATOM     95  O   UNL A   1      50.654  24.179  31.365  1.00  0.00    -0.237 OA
ATOM     96  O   UNL A   1      50.228  26.564  30.912  1.00  0.00    -0.744 OA
ENDBRANCH  89  93
ENDBRANCH  63  86
ENDBRANCH  37  38
ENDBRANCH  29  32
ENDBRANCH  27  28
ENDBRANCH   1  27
TORSDOF 18
ENDMDL
MODEL 2
REMARK VINA RESULT:     -11.1      3.611      8.869
REMARK SMILES CCC[C@H](CNC(=O)N1CCN2C(=O)NC[C@H]2C1)C(=O)NCCCNC(=O)c1ccc(-c2c3nc(c(-c4cc(S(=O)(=O)[O-])ccc4F)c4ccc([nH]4)c(-c4cc(S(=O)(=O)[O-])ccc4F)c4nc(c(-c5cc(S(=O)(=O)[O-])ccc5F)c5ccc2[nH]5)C=C4)C=C3)cc1
REMARK SMILES IDX 23 1 22 2 21 3 19 4 20 5 4 7 3 8 2 9 1 10 5 11 6 12 7 13
REMARK SMILES IDX 8 15 9 16 10 17 18 18 11 19 17 20 12 21 16 22 13 23 15 24
REMARK SMILES IDX 14 25 24 27 25 28 26 29 27 31 28 32 29 33 90 34 30 35 89 36
REMARK SMILES IDX 31 37 32 38 33 39 83 40 34 41 88 42 82 43 84 44 35 45 87 46
REMARK SMILES IDX 81 47 80 48 36 50 68 51 48 52 67 53 49 54 52 55 66 56 85 57
REMARK SMILES IDX 50 58 51 59 65 61 86 62 53 63 37 64 38 65 46 66 39 67 45 68
REMARK SMILES IDX 47 69 44 70 40 71 41 72 42 73 43 74 69 75 70 76 78 77 71 78
REMARK SMILES IDX 77 79 79 80 76 81 72 82 73 83 74 84 75 85 54 86 55 87 63 88
REMARK SMILES IDX 56 89 62 90 64 91 61 92 57 93 58 94 59 95 60 96
REMARK H PARENT 21 6 6 14 15 26 25 30 84 49 52 60
REMARK Flexibility Score: inf
ROOT
ATOM      1  C   UNL A   1      31.521  32.271  26.584  1.00  0.00     0.042 C 
ENDROOT
BRANCH   1   2
ATOM      2  C   UNL A   1      31.562  30.771  26.356  1.00  0.00     0.117 C 
BRANCH   2   3
ATOM      3  N   UNL A   1      31.146  30.355  25.037  1.00  0.00    -0.356 N 
ATOM      4  C   UNL A   1      31.080  29.096  24.515  1.00  0.00     0.224 C 
ATOM      5  O   UNL A   1      30.489  28.947  23.443  1.00  0.00    -0.275 OA
ATOM      6  H   UNL A   1      30.873  31.080  24.429  1.00  0.00     0.163 HD
BRANCH   4   7
ATOM      7  C   UNL A   1      31.795  27.915  25.183  1.00  0.00     0.097 C 
BRANCH   7   8
ATOM      8  C   UNL A   1      33.316  27.874  24.901  1.00  0.00     0.015 C 
BRANCH   8   9
ATOM      9  C   UNL A   1      33.876  28.522  23.623  1.00  0.00    -0.003 C 
ATOM     10  C   UNL A   1      33.718  27.743  22.323  1.00  0.00     0.004 C 
ENDBRANCH   8   9
ENDBRANCH   7   8
BRANCH   7  11
ATOM     11  C   UNL A   1      30.942  26.669  24.928  1.00  0.00     0.131 C 
BRANCH  11  12
ATOM     12  N   UNL A   1      30.570  25.944  26.128  1.00  0.00    -0.337 N 
ATOM     13  C   UNL A   1      30.751  24.621  26.375  1.00  0.00     0.317 C 
ATOM     14  H   UNL A   1      30.140  26.468  26.842  1.00  0.00     0.165 HD
ATOM     15  O   UNL A   1      29.966  24.067  27.145  1.00  0.00    -0.249 OA
BRANCH  13  16
ATOM     16  N   UNL A   1      31.724  23.941  25.697  1.00  0.00    -0.321 N 
ATOM     17  C   UNL A   1      31.529  22.933  24.632  1.00  0.00     0.143 C 
ATOM     18  C   UNL A   1      33.131  24.253  25.975  1.00  0.00     0.148 C 
ATOM     19  C   UNL A   1      32.323  21.633  24.889  1.00  0.00     0.143 C 
ATOM     20  C   UNL A   1      33.794  22.964  26.455  1.00  0.00     0.125 C 
ATOM     21  N   UNL A   1      33.623  21.901  25.477  1.00  0.00    -0.317 N 
ATOM     22  C   UNL A   1      35.303  23.004  26.652  1.00  0.00     0.144 C 
ATOM     23  C   UNL A   1      34.737  21.083  25.431  1.00  0.00     0.317 C 
ATOM     24  N   UNL A   1      35.729  21.709  26.176  1.00  0.00    -0.336 N 
ATOM     25  O   UNL A   1      34.849  20.018  24.862  1.00  0.00    -0.249 OA
ATOM     26  H   UNL A   1      36.615  21.318  26.358  1.00  0.00     0.165 HD
ENDBRANCH  13  16
ENDBRANCH  11  12
ENDBRANCH   7  11
ENDBRANCH   4   7
ENDBRANCH   2   3
ENDBRANCH   1   2
BRANCH   1  27
ATOM     27  C   UNL A   1      32.809  32.818  27.172  1.00  0.00     0.118 C 
BRANCH  27  28
ATOM     28  N   UNL A   1      32.642  34.175  27.675  1.00  0.00    -0.352 N 
ATOM     29  C   UNL A   1      33.208  34.799  28.757  1.00  0.00     0.251 C 
ATOM     30  H   UNL A   1      32.024  34.736  27.153  1.00  0.00     0.163 HD
ATOM     31  O   UNL A   1      32.746  35.876  29.128  1.00  0.00    -0.269 OA
BRANCH  29  32
ATOM     32  C   UNL A   1      34.342  34.179  29.473  1.00  0.00     0.039 A 
ATOM     33  C   UNL A   1      34.076  33.291  30.519  1.00  0.00     0.014 A 
ATOM     34  C   UNL A   1      35.662  34.493  29.142  1.00  0.00     0.014 A 
ATOM     35  C   UNL A   1      35.136  32.689  31.199  1.00  0.00     0.010 A 
ATOM     36  C   UNL A   1      36.710  33.808  29.741  1.00  0.00     0.010 A 
ATOM     37  C   UNL A   1      36.462  32.921  30.797  1.00  0.00    -0.014 A 
BRANCH  37  38
ATOM     38  C   UNL A   1      37.608  32.299  31.504  1.00  0.00     0.031 A 
ATOM     39  C   UNL A   1      38.372  31.182  30.842  1.00  0.00     0.074 A 
ATOM     40  C   UNL A   1      37.925  32.702  32.751  1.00  0.00     0.049 A 
ATOM     41  N   UNL A   1      39.347  30.451  31.316  1.00  0.00    -0.248 NA
ATOM     42  C   UNL A   1      37.960  30.813  29.476  1.00  0.00     0.031 C 
ATOM     43  C   UNL A   1      37.232  33.752  33.503  1.00  0.00     0.029 A 
ATOM     44  N   UNL A   1      38.908  32.277  33.608  1.00  0.00    -0.354 N 
ATOM     45  C   UNL A   1      39.649  29.529  30.319  1.00  0.00     0.074 A 
ATOM     46  C   UNL A   1      38.708  29.748  29.242  1.00  0.00     0.031 C 
ATOM     47  C   UNL A   1      37.831  33.907  34.694  1.00  0.00     0.029 A 
ATOM     48  C   UNL A   1      38.913  32.936  34.816  1.00  0.00     0.049 A 
ATOM     49  H   UNL A   1      39.550  31.566  33.380  1.00  0.00     0.167 HD
ATOM     50  C   UNL A   1      40.637  28.602  30.293  1.00  0.00     0.034 A 
ATOM     51  C   UNL A   1      39.693  32.765  35.901  1.00  0.00     0.034 A 
ATOM     52  C   UNL A   1      41.578  28.415  31.368  1.00  0.00     0.049 A 
ATOM     53  C   UNL A   1      40.775  31.711  35.854  1.00  0.00     0.074 A 
ATOM     54  C   UNL A   1      42.650  27.543  31.429  1.00  0.00     0.029 A 
ATOM     55  N   UNL A   1      41.558  29.106  32.572  1.00  0.00    -0.354 N 
ATOM     56  N   UNL A   1      41.078  30.881  34.883  1.00  0.00    -0.248 NA
ATOM     57  C   UNL A   1      41.629  31.586  37.041  1.00  0.00     0.031 C 
ATOM     58  C   UNL A   1      43.229  27.651  32.697  1.00  0.00     0.029 A 
ATOM     59  C   UNL A   1      42.581  28.661  33.393  1.00  0.00     0.049 A 
ATOM     60  H   UNL A   1      40.910  29.810  32.808  1.00  0.00     0.167 HD
ATOM     61  C   UNL A   1      42.189  30.167  35.328  1.00  0.00     0.074 A 
ATOM     62  C   UNL A   1      42.506  30.677  36.645  1.00  0.00     0.031 C 
ATOM     63  C   UNL A   1      42.888  29.185  34.703  1.00  0.00     0.034 A 
BRANCH  50  64
ATOM     64  C   UNL A   1      40.734  27.711  29.077  1.00  0.00     0.023 A 
ATOM     65  C   UNL A   1      41.680  27.939  28.061  1.00  0.00     0.031 A 
ATOM     66  C   UNL A   1      39.863  26.617  28.929  1.00  0.00     0.131 A 
ATOM     67  C   UNL A   1      41.692  27.126  26.918  1.00  0.00     0.055 A 
ATOM     68  C   UNL A   1      39.934  25.761  27.828  1.00  0.00     0.041 A 
ATOM     69  F   UNL A   1      38.921  26.363  29.852  1.00  0.00    -0.206 F 
ATOM     70  C   UNL A   1      40.845  26.021  26.808  1.00  0.00     0.022 A 
BRANCH  67  71
ATOM     71  S   UNL A   1      42.740  27.609  25.520  1.00  0.00     0.124 S 
ATOM     72  O   UNL A   1      44.025  27.838  26.180  1.00  0.00    -0.237 OA
ATOM     73  O   UNL A   1      42.669  26.440  24.651  1.00  0.00    -0.237 OA
ATOM     74  O   UNL A   1      42.091  28.812  25.003  1.00  0.00    -0.744 OA
ENDBRANCH  67  71
ENDBRANCH  50  64
BRANCH  51  75
ATOM     75  C   UNL A   1      39.486  33.589  37.129  1.00  0.00     0.023 A 
ATOM     76  C   UNL A   1      40.244  34.748  37.359  1.00  0.00     0.031 A 
ATOM     77  C   UNL A   1      38.577  33.192  38.126  1.00  0.00     0.131 A 
ATOM     78  C   UNL A   1      40.133  35.429  38.581  1.00  0.00     0.055 A 
ATOM     79  C   UNL A   1      38.420  33.912  39.311  1.00  0.00     0.041 A 
ATOM     80  F   UNL A   1      37.822  32.094  37.960  1.00  0.00    -0.206 F 
ATOM     81  C   UNL A   1      39.216  35.027  39.553  1.00  0.00     0.022 A 
BRANCH  78  82
ATOM     82  S   UNL A   1      41.300  36.772  38.934  1.00  0.00     0.124 S 
ATOM     83  O   UNL A   1      42.027  36.871  37.674  1.00  0.00    -0.237 OA
ATOM     84  O   UNL A   1      40.400  37.878  39.247  1.00  0.00    -0.237 OA
ATOM     85  O   UNL A   1      42.073  36.261  40.065  1.00  0.00    -0.744 OA
ENDBRANCH  78  82
ENDBRANCH  51  75
BRANCH  63  86
ATOM     86  C   UNL A   1      44.112  28.653  35.409  1.00  0.00     0.023 A 
ATOM     87  C   UNL A   1      44.045  27.584  36.318  1.00  0.00     0.031 A 
ATOM     88  C   UNL A   1      45.369  29.240  35.171  1.00  0.00     0.131 A 
ATOM     89  C   UNL A   1      45.199  27.180  37.006  1.00  0.00     0.055 A 
ATOM     90  C   UNL A   1      46.526  28.784  35.801  1.00  0.00     0.041 A 
ATOM     91  F   UNL A   1      45.492  30.267  34.314  1.00  0.00    -0.206 F 
ATOM     92  C   UNL A   1      46.442  27.758  36.737  1.00  0.00     0.022 A 
BRANCH  89  93
ATOM     93  S   UNL A   1      45.034  25.964  38.342  1.00  0.00     0.124 S 
ATOM     94  O   UNL A   1      46.427  25.692  38.677  1.00  0.00    -0.237 OA
ATOM     95  O   UNL A   1      44.270  26.701  39.342  1.00  0.00    -0.237 OA
ATOM     96  O   UNL A   1      44.319  24.856  37.710  1.00  0.00    -0.744 OA
ENDBRANCH  89  93
ENDBRANCH  63  86
ENDBRANCH  37  38
ENDBRANCH  29  32
ENDBRANCH  27  28
ENDBRANCH   1  27
TORSDOF 18
ENDMDL
MODEL 3
REMARK VINA RESULT:     -11.0      3.982      9.414
REMARK SMILES CCC[C@H](CNC(=O)N1CCN2C(=O)NC[C@H]2C1)C(=O)NCCCNC(=O)c1ccc(-c2c3nc(c(-c4cc(S(=O)(=O)[O-])ccc4F)c4ccc([nH]4)c(-c4cc(S(=O)(=O)[O-])ccc4F)c4nc(c(-c5cc(S(=O)(=O)[O-])ccc5F)c5ccc2[nH]5)C=C4)C=C3)cc1
REMARK SMILES IDX 23 1 22 2 21 3 19 4 20 5 4 7 3 8 2 9 1 10 5 11 6 12 7 13
REMARK SMILES IDX 8 15 9 16 10 17 18 18 11 19 17 20 12 21 16 22 13 23 15 24
REMARK SMILES IDX 14 25 24 27 25 28 26 29 27 31 28 32 29 33 90 34 30 35 89 36
REMARK SMILES IDX 31 37 32 38 33 39 83 40 34 41 88 42 82 43 84 44 35 45 87 46
REMARK SMILES IDX 81 47 80 48 36 50 68 51 48 52 67 53 49 54 52 55 66 56 85 57
REMARK SMILES IDX 50 58 51 59 65 61 86 62 53 63 37 64 38 65 46 66 39 67 45 68
REMARK SMILES IDX 47 69 44 70 40 71 41 72 42 73 43 74 69 75 70 76 78 77 71 78
REMARK SMILES IDX 77 79 79 80 76 81 72 82 73 83 74 84 75 85 54 86 55 87 63 88
REMARK SMILES IDX 56 89 62 90 64 91 61 92 57 93 58 94 59 95 60 96
REMARK H PARENT 21 6 6 14 15 26 25 30 84 49 52 60
REMARK Flexibility Score: inf
ROOT
ATOM      1  C   UNL A   1      35.707  23.719  26.076  1.00  0.00     0.042 C 
ENDROOT
BRANCH   1   2
ATOM      2  C   UNL A   1      34.768  24.792  25.555  1.00  0.00     0.117 C 
BRANCH   2   3
ATOM      3  N   UNL A   1      34.692  24.873  24.114  1.00  0.00    -0.356 N 
ATOM      4  C   UNL A   1      33.589  24.865  23.311  1.00  0.00     0.224 C 
ATOM      5  O   UNL A   1      33.740  25.164  22.125  1.00  0.00    -0.275 OA
ATOM      6  H   UNL A   1      35.556  24.942  23.647  1.00  0.00     0.163 HD
BRANCH   4   7
ATOM      7  C   UNL A   1      32.222  24.408  23.835  1.00  0.00     0.097 C 
BRANCH   7   8
ATOM      8  C   UNL A   1      31.605  23.245  23.022  1.00  0.00     0.015 C 
BRANCH   8   9
ATOM      9  C   UNL A   1      32.334  21.893  22.945  1.00  0.00    -0.003 C 
ATOM     10  C   UNL A   1      33.024  21.402  24.213  1.00  0.00     0.004 C 
ENDBRANCH   8   9
ENDBRANCH   7   8
BRANCH   7  11
ATOM     11  C   UNL A   1      31.397  25.670  24.100  1.00  0.00     0.131 C 
BRANCH  11  12
ATOM     12  N   UNL A   1      30.955  26.357  22.901  1.00  0.00    -0.337 N 
ATOM     13  C   UNL A   1      30.975  27.695  22.667  1.00  0.00     0.317 C 
ATOM     14  H   UNL A   1      30.602  25.791  22.176  1.00  0.00     0.165 HD
ATOM     15  O   UNL A   1      30.139  28.156  21.891  1.00  0.00    -0.249 OA
BRANCH  13  16
ATOM     16  N   UNL A   1      31.848  28.482  23.366  1.00  0.00    -0.321 N 
ATOM     17  C   UNL A   1      33.305  28.606  23.149  1.00  0.00     0.143 C 
ATOM     18  C   UNL A   1      31.322  29.364  24.414  1.00  0.00     0.148 C 
ATOM     19  C   UNL A   1      34.119  28.432  24.451  1.00  0.00     0.143 C 
ATOM     20  C   UNL A   1      32.002  28.968  25.723  1.00  0.00     0.125 C 
ATOM     21  N   UNL A   1      33.449  29.030  25.591  1.00  0.00    -0.317 N 
ATOM     22  C   UNL A   1      31.733  29.856  26.929  1.00  0.00     0.144 C 
ATOM     23  C   UNL A   1      34.038  29.456  26.767  1.00  0.00     0.317 C 
ATOM     24  N   UNL A   1      33.013  29.901  27.594  1.00  0.00    -0.336 N 
ATOM     25  O   UNL A   1      35.218  29.448  27.048  1.00  0.00    -0.249 OA
ATOM     26  H   UNL A   1      33.144  30.210  28.520  1.00  0.00     0.165 HD
ENDBRANCH  13  16
ENDBRANCH  11  12
ENDBRANCH   7  11
ENDBRANCH   4   7
ENDBRANCH   2   3
ENDBRANCH   1   2
BRANCH   1  27
ATOM     27  C   UNL A   1      36.780  23.333  25.075  1.00  0.00     0.118 C 
BRANCH  27  28
ATOM     28  N   UNL A   1      37.699  22.342  25.621  1.00  0.00    -0.352 N 
ATOM     29  C   UNL A   1      38.902  22.500  26.260  1.00  0.00     0.251 C 
ATOM     30  H   UNL A   1      37.409  21.407  25.513  1.00  0.00     0.163 HD
ATOM     31  O   UNL A   1      39.616  21.515  26.429  1.00  0.00    -0.269 OA
BRANCH  29  32
ATOM     32  C   UNL A   1      39.336  23.834  26.722  1.00  0.00     0.039 A 
ATOM     33  C   UNL A   1      39.148  24.179  28.063  1.00  0.00     0.014 A 
ATOM     34  C   UNL A   1      39.897  24.757  25.836  1.00  0.00     0.014 A 
ATOM     35  C   UNL A   1      39.562  25.432  28.518  1.00  0.00     0.010 A 
ATOM     36  C   UNL A   1      40.411  25.954  26.314  1.00  0.00     0.010 A 
ATOM     37  C   UNL A   1      40.223  26.319  27.653  1.00  0.00    -0.014 A 
BRANCH  37  38
ATOM     38  C   UNL A   1      40.669  27.659  28.108  1.00  0.00     0.031 A 
ATOM     39  C   UNL A   1      42.134  28.009  28.062  1.00  0.00     0.074 A 
ATOM     40  C   UNL A   1      39.771  28.532  28.604  1.00  0.00     0.049 A 
ATOM     41  N   UNL A   1      42.742  29.087  28.486  1.00  0.00    -0.248 NA
ATOM     42  C   UNL A   1      43.042  26.996  27.496  1.00  0.00     0.031 C 
ATOM     43  C   UNL A   1      38.331  28.287  28.729  1.00  0.00     0.029 A 
ATOM     44  N   UNL A   1      39.933  29.800  29.101  1.00  0.00    -0.354 N 
ATOM     45  C   UNL A   1      44.097  28.873  28.256  1.00  0.00     0.074 A 
ATOM     46  C   UNL A   1      44.229  27.536  27.720  1.00  0.00     0.031 C 
ATOM     47  C   UNL A   1      37.741  29.380  29.237  1.00  0.00     0.029 A 
ATOM     48  C   UNL A   1      38.760  30.383  29.527  1.00  0.00     0.049 A 
ATOM     49  H   UNL A   1      40.806  30.252  29.149  1.00  0.00     0.167 HD
ATOM     50  C   UNL A   1      45.134  29.724  28.450  1.00  0.00     0.034 A 
ATOM     51  C   UNL A   1      38.538  31.583  30.098  1.00  0.00     0.034 A 
ATOM     52  C   UNL A   1      44.978  31.060  28.965  1.00  0.00     0.049 A 
ATOM     53  C   UNL A   1      39.714  32.505  30.322  1.00  0.00     0.074 A 
ATOM     54  C   UNL A   1      45.949  32.026  29.155  1.00  0.00     0.029 A 
ATOM     55  N   UNL A   1      43.775  31.618  29.378  1.00  0.00    -0.354 N 
ATOM     56  N   UNL A   1      40.984  32.304  30.053  1.00  0.00    -0.248 NA
ATOM     57  C   UNL A   1      39.423  33.819  30.907  1.00  0.00     0.031 C 
ATOM     58  C   UNL A   1      45.348  33.138  29.753  1.00  0.00     0.029 A 
ATOM     59  C   UNL A   1      43.985  32.905  29.847  1.00  0.00     0.049 A 
ATOM     60  H   UNL A   1      42.901  31.165  29.342  1.00  0.00     0.167 HD
ATOM     61  C   UNL A   1      41.634  33.489  30.396  1.00  0.00     0.074 A 
ATOM     62  C   UNL A   1      40.613  34.396  30.875  1.00  0.00     0.031 C 
ATOM     63  C   UNL A   1      42.953  33.800  30.316  1.00  0.00     0.034 A 
BRANCH  50  64
ATOM     64  C   UNL A   1      46.522  29.226  28.125  1.00  0.00     0.023 A 
ATOM     65  C   UNL A   1      46.907  28.896  26.814  1.00  0.00     0.031 A 
ATOM     66  C   UNL A   1      47.478  29.074  29.146  1.00  0.00     0.131 A 
ATOM     67  C   UNL A   1      48.185  28.375  26.566  1.00  0.00     0.055 A 
ATOM     68  C   UNL A   1      48.776  28.634  28.882  1.00  0.00     0.041 A 
ATOM     69  F   UNL A   1      47.164  29.348  30.423  1.00  0.00    -0.206 F 
ATOM     70  C   UNL A   1      49.132  28.269  27.587  1.00  0.00     0.022 A 
BRANCH  67  71
ATOM     71  S   UNL A   1      48.551  27.717  24.917  1.00  0.00     0.124 S 
ATOM     72  O   UNL A   1      48.327  26.285  25.114  1.00  0.00    -0.237 OA
ATOM     73  O   UNL A   1      47.578  28.405  24.078  1.00  0.00    -0.237 OA
ATOM     74  O   UNL A   1      49.945  28.096  24.697  1.00  0.00    -0.744 OA
ENDBRANCH  67  71
ENDBRANCH  50  64
BRANCH  51  75
ATOM     75  C   UNL A   1      37.163  31.989  30.513  1.00  0.00     0.023 A 
ATOM     76  C   UNL A   1      36.272  32.569  29.596  1.00  0.00     0.031 A 
ATOM     77  C   UNL A   1      36.741  31.869  31.850  1.00  0.00     0.131 A 
ATOM     78  C   UNL A   1      35.038  33.070  30.038  1.00  0.00     0.055 A 
ATOM     79  C   UNL A   1      35.485  32.307  32.270  1.00  0.00     0.041 A 
ATOM     80  F   UNL A   1      37.549  31.318  32.771  1.00  0.00    -0.206 F 
ATOM     81  C   UNL A   1      34.632  32.930  31.366  1.00  0.00     0.022 A 
BRANCH  78  82
ATOM     82  S   UNL A   1      34.025  34.027  28.876  1.00  0.00     0.124 S 
ATOM     83  O   UNL A   1      33.031  34.617  29.765  1.00  0.00    -0.237 OA
ATOM     84  O   UNL A   1      35.006  34.946  28.306  1.00  0.00    -0.237 OA
ATOM     85  O   UNL A   1      33.516  33.012  27.954  1.00  0.00    -0.744 OA
ENDBRANCH  78  82
ENDBRANCH  51  75
BRANCH  63  86
ATOM     86  C   UNL A   1      43.353  35.209  30.686  1.00  0.00     0.023 A 
ATOM     87  C   UNL A   1      43.647  35.580  32.008  1.00  0.00     0.031 A 
ATOM     88  C   UNL A   1      43.430  36.200  29.688  1.00  0.00     0.131 A 
ATOM     89  C   UNL A   1      43.937  36.919  32.309  1.00  0.00     0.055 A 
ATOM     90  C   UNL A   1      43.793  37.513  29.983  1.00  0.00     0.041 A 
ATOM     91  F   UNL A   1      43.157  35.903  28.407  1.00  0.00    -0.206 F 
ATOM     92  C   UNL A   1      44.033  37.883  31.302  1.00  0.00     0.022 A 
BRANCH  89  93
ATOM     93  S   UNL A   1      44.075  37.409  34.050  1.00  0.00     0.124 S 
ATOM     94  O   UNL A   1      44.273  38.850  33.944  1.00  0.00    -0.237 OA
ATOM     95  O   UNL A   1      42.793  36.980  34.597  1.00  0.00    -0.237 OA
ATOM     96  O   UNL A   1      45.234  36.656  34.526  1.00  0.00    -0.744 OA
ENDBRANCH  89  93
ENDBRANCH  63  86
ENDBRANCH  37  38
ENDBRANCH  29  32
ENDBRANCH  27  28
ENDBRANCH   1  27
TORSDOF 18
ENDMDL
