MODEL 1
REMARK VINA RESULT:     -10.7      0.000      0.000
REMARK SMILES CCCCCC[C@@H](C)N1C[C@H](C(=O)NCCCNC(=O)c2ccc(-c3c4nc(c(-c5cc(S(=O)(=O)[O-])ccc5F)c5ccc([nH]5)c(-c5cc(S(=O)(=O)[O-])ccc5F)c5nc(c(-c6cc(S(=O)(=O)[O-])ccc6F)c6ccc3[nH]6)C=C5)C=C4)cc2)CC1=O
REMARK SMILES IDX 12 1 13 2 14 3 11 5 9 6 10 7 85 8 84 9 86 10 7 11 8 12 6 13
REMARK SMILES IDX 5 14 4 15 3 16 2 17 1 18 15 19 16 20 17 21 18 22 19 23 20 25
REMARK SMILES IDX 21 26 22 27 83 28 23 29 82 30 24 31 25 32 26 33 76 34 27 35
REMARK SMILES IDX 81 36 75 37 77 38 28 39 80 40 74 41 73 42 29 44 61 45 41 46
REMARK SMILES IDX 60 47 42 48 45 49 59 50 78 51 43 52 44 53 58 55 79 56 46 57
REMARK SMILES IDX 30 58 31 59 39 60 32 61 38 62 40 63 37 64 33 65 34 66 35 67
REMARK SMILES IDX 36 68 62 69 63 70 71 71 64 72 70 73 72 74 69 75 65 76 66 77
REMARK SMILES IDX 67 78 68 79 47 80 48 81 56 82 49 83 55 84 57 85 54 86 50 87
REMARK SMILES IDX 51 88 52 89 53 90
REMARK H PARENT 14 4 18 24 77 43 45 54
REMARK Flexibility Score: inf
ROOT
ATOM      1  C   UNL A   1      32.972  26.702  23.891  1.00  0.00     0.225 C 
ATOM      2  O   UNL A   1      33.672  26.555  22.890  1.00  0.00    -0.275 OA
ATOM      3  N   UNL A   1      32.051  27.707  23.893  1.00  0.00    -0.356 N 
ATOM      4  H   UNL A   1      31.924  28.158  23.027  1.00  0.00     0.163 HD
ENDROOT
BRANCH   1   5
ATOM      5  C   UNL A   1      33.027  25.750  25.070  1.00  0.00     0.107 C 
ATOM      6  N   UNL A   1      33.652  23.620  24.310  1.00  0.00    -0.339 N 
ATOM      7  C   UNL A   1      32.479  24.405  24.619  1.00  0.00     0.133 C 
ATOM      8  C   UNL A   1      34.809  24.175  24.839  1.00  0.00     0.223 C 
ATOM      9  C   UNL A   1      34.456  25.465  25.523  1.00  0.00     0.115 C 
ATOM     10  O   UNL A   1      35.928  23.679  24.818  1.00  0.00    -0.275 OA
BRANCH   6  11
ATOM     11  C   UNL A   1      33.659  22.363  23.554  1.00  0.00     0.082 C 
ATOM     12  C   UNL A   1      32.914  22.548  22.226  1.00  0.00     0.031 C 
BRANCH  11  13
ATOM     13  C   UNL A   1      33.099  21.159  24.340  1.00  0.00     0.025 C 
BRANCH  13  14
ATOM     14  C   UNL A   1      32.381  20.111  23.478  1.00  0.00     0.002 C 
BRANCH  14  15
ATOM     15  C   UNL A   1      32.611  18.657  23.910  1.00  0.00     0.000 C 
BRANCH  15  16
ATOM     16  C   UNL A   1      34.012  18.363  24.456  1.00  0.00    -0.000 C 
BRANCH  16  17
ATOM     17  C   UNL A   1      34.527  16.946  24.186  1.00  0.00    -0.003 C 
ATOM     18  C   UNL A   1      34.106  15.944  25.250  1.00  0.00     0.004 C 
ENDBRANCH  16  17
ENDBRANCH  15  16
ENDBRANCH  14  15
ENDBRANCH  13  14
ENDBRANCH  11  13
ENDBRANCH   6  11
ENDBRANCH   1   5
BRANCH   3  19
ATOM     19  C   UNL A   1      31.231  28.214  24.980  1.00  0.00     0.117 C 
BRANCH  19  20
ATOM     20  C   UNL A   1      31.310  29.736  25.072  1.00  0.00     0.042 C 
BRANCH  20  21
ATOM     21  C   UNL A   1      32.280  30.235  26.142  1.00  0.00     0.118 C 
BRANCH  21  22
ATOM     22  N   UNL A   1      32.105  31.650  26.435  1.00  0.00    -0.352 N 
ATOM     23  C   UNL A   1      32.801  32.474  27.283  1.00  0.00     0.251 C 
ATOM     24  H   UNL A   1      31.369  32.086  25.946  1.00  0.00     0.163 HD
ATOM     25  O   UNL A   1      32.346  33.585  27.543  1.00  0.00    -0.269 OA
BRANCH  23  26
ATOM     26  C   UNL A   1      34.072  32.025  27.893  1.00  0.00     0.039 A 
ATOM     27  C   UNL A   1      35.086  32.963  28.106  1.00  0.00     0.014 A 
ATOM     28  C   UNL A   1      34.278  30.686  28.232  1.00  0.00     0.014 A 
ATOM     29  C   UNL A   1      36.278  32.569  28.721  1.00  0.00     0.010 A 
ATOM     30  C   UNL A   1      35.431  30.313  28.919  1.00  0.00     0.010 A 
ATOM     31  C   UNL A   1      36.445  31.249  29.170  1.00  0.00    -0.014 A 
BRANCH  31  32
ATOM     32  C   UNL A   1      37.670  30.833  29.903  1.00  0.00     0.031 A 
ATOM     33  C   UNL A   1      38.680  29.935  29.245  1.00  0.00     0.074 A 
ATOM     34  C   UNL A   1      37.841  31.217  31.183  1.00  0.00     0.049 A 
ATOM     35  N   UNL A   1      39.772  29.411  29.742  1.00  0.00    -0.248 NA
ATOM     36  C   UNL A   1      38.411  29.553  27.851  1.00  0.00     0.031 C 
ATOM     37  C   UNL A   1      36.916  32.061  31.943  1.00  0.00     0.029 A 
ATOM     38  N   UNL A   1      38.848  30.947  32.076  1.00  0.00    -0.354 N 
ATOM     39  C   UNL A   1      40.314  28.629  28.726  1.00  0.00     0.074 A 
ATOM     40  C   UNL A   1      39.390  28.694  27.614  1.00  0.00     0.031 C 
ATOM     41  C   UNL A   1      37.415  32.266  33.171  1.00  0.00     0.029 A 
ATOM     42  C   UNL A   1      38.666  31.527  33.310  1.00  0.00     0.049 A 
ATOM     43  H   UNL A   1      39.630  30.391  31.853  1.00  0.00     0.167 HD
ATOM     44  C   UNL A   1      41.485  27.943  28.714  1.00  0.00     0.034 A 
ATOM     45  C   UNL A   1      39.411  31.459  34.430  1.00  0.00     0.034 A 
ATOM     46  C   UNL A   1      42.392  27.888  29.836  1.00  0.00     0.049 A 
ATOM     47  C   UNL A   1      40.679  30.646  34.414  1.00  0.00     0.074 A 
ATOM     48  C   UNL A   1      43.623  27.262  29.918  1.00  0.00     0.029 A 
ATOM     49  N   UNL A   1      42.161  28.466  31.078  1.00  0.00    -0.354 N 
ATOM     50  N   UNL A   1      41.204  29.951  33.431  1.00  0.00    -0.248 NA
ATOM     51  C   UNL A   1      41.461  30.617  35.657  1.00  0.00     0.031 C 
ATOM     52  C   UNL A   1      44.096  27.390  31.229  1.00  0.00     0.029 A 
ATOM     53  C   UNL A   1      43.206  28.178  31.943  1.00  0.00     0.049 A 
ATOM     54  H   UNL A   1      41.369  29.003  31.311  1.00  0.00     0.167 HD
ATOM     55  C   UNL A   1      42.395  29.429  33.928  1.00  0.00     0.074 A 
ATOM     56  C   UNL A   1      42.516  29.901  35.293  1.00  0.00     0.031 C 
ATOM     57  C   UNL A   1      43.310  28.638  33.310  1.00  0.00     0.034 A 
BRANCH  44  58
ATOM     58  C   UNL A   1      41.823  27.175  27.456  1.00  0.00     0.023 A 
ATOM     59  C   UNL A   1      41.610  25.788  27.359  1.00  0.00     0.031 A 
ATOM     60  C   UNL A   1      42.409  27.824  26.355  1.00  0.00     0.131 A 
ATOM     61  C   UNL A   1      42.068  25.083  26.235  1.00  0.00     0.055 A 
ATOM     62  C   UNL A   1      42.774  27.131  25.199  1.00  0.00     0.041 A 
ATOM     63  F   UNL A   1      42.659  29.142  26.391  1.00  0.00    -0.206 F 
ATOM     64  C   UNL A   1      42.624  25.748  25.141  1.00  0.00     0.022 A 
BRANCH  61  65
ATOM     65  S   UNL A   1      42.095  23.270  26.307  1.00  0.00     0.124 S 
ATOM     66  O   UNL A   1      40.679  22.961  26.493  1.00  0.00    -0.237 OA
ATOM     67  O   UNL A   1      42.663  22.912  25.013  1.00  0.00    -0.237 OA
ATOM     68  O   UNL A   1      42.943  22.986  27.464  1.00  0.00    -0.744 OA
ENDBRANCH  61  65
ENDBRANCH  44  58
BRANCH  45  69
ATOM     69  C   UNL A   1      38.978  32.177  35.664  1.00  0.00     0.023 A 
ATOM     70  C   UNL A   1      38.322  31.498  36.703  1.00  0.00     0.031 A 
ATOM     71  C   UNL A   1      39.190  33.560  35.811  1.00  0.00     0.131 A 
ATOM     72  C   UNL A   1      37.865  32.208  37.824  1.00  0.00     0.055 A 
ATOM     73  C   UNL A   1      38.784  34.252  36.954  1.00  0.00     0.041 A 
ATOM     74  F   UNL A   1      39.816  34.257  34.849  1.00  0.00    -0.206 F 
ATOM     75  C   UNL A   1      38.105  33.576  37.964  1.00  0.00     0.022 A 
BRANCH  72  76
ATOM     76  S   UNL A   1      36.882  31.327  39.068  1.00  0.00     0.124 S 
ATOM     77  O   UNL A   1      35.706  32.182  39.176  1.00  0.00    -0.237 OA
ATOM     78  O   UNL A   1      36.678  30.031  38.430  1.00  0.00    -0.237 OA
ATOM     79  O   UNL A   1      37.754  31.312  40.240  1.00  0.00    -0.744 OA
ENDBRANCH  72  76
ENDBRANCH  45  69
BRANCH  57  80
ATOM     80  C   UNL A   1      44.547  28.273  34.096  1.00  0.00     0.023 A 
ATOM     81  C   UNL A   1      44.548  27.236  35.045  1.00  0.00     0.031 A 
ATOM     82  C   UNL A   1      45.745  28.984  33.896  1.00  0.00     0.131 A 
ATOM     83  C   UNL A   1      45.703  26.979  35.800  1.00  0.00     0.055 A 
ATOM     84  C   UNL A   1      46.911  28.677  34.600  1.00  0.00     0.041 A 
ATOM     85  F   UNL A   1      45.804  29.989  33.008  1.00  0.00    -0.206 F 
ATOM     86  C   UNL A   1      46.890  27.679  35.569  1.00  0.00     0.022 A 
BRANCH  83  87
ATOM     87  S   UNL A   1      45.606  25.787  37.164  1.00  0.00     0.124 S 
ATOM     88  O   UNL A   1      46.955  25.847  37.716  1.00  0.00    -0.237 OA
ATOM     89  O   UNL A   1      44.551  26.354  37.999  1.00  0.00    -0.237 OA
ATOM     90  O   UNL A   1      45.263  24.532  36.499  1.00  0.00    -0.744 OA
ENDBRANCH  83  87
ENDBRANCH  57  80
ENDBRANCH  31  32
ENDBRANCH  23  26
ENDBRANCH  21  22
ENDBRANCH  20  21
ENDBRANCH  19  20
ENDBRANCH   3  19
TORSDOF 19
ENDMDL
MODEL 2
REMARK VINA RESULT:     -10.6      1.706      2.049
REMARK SMILES CCCCCC[C@@H](C)N1C[C@H](C(=O)NCCCNC(=O)c2ccc(-c3c4nc(c(-c5cc(S(=O)(=O)[O-])ccc5F)c5ccc([nH]5)c(-c5cc(S(=O)(=O)[O-])ccc5F)c5nc(c(-c6cc(S(=O)(=O)[O-])ccc6F)c6ccc3[nH]6)C=C5)C=C4)cc2)CC1=O
REMARK SMILES IDX 12 1 13 2 14 3 11 5 9 6 10 7 85 8 84 9 86 10 7 11 8 12 6 13
REMARK SMILES IDX 5 14 4 15 3 16 2 17 1 18 15 19 16 20 17 21 18 22 19 23 20 25
REMARK SMILES IDX 21 26 22 27 83 28 23 29 82 30 24 31 25 32 26 33 76 34 27 35
REMARK SMILES IDX 81 36 75 37 77 38 28 39 80 40 74 41 73 42 29 44 61 45 41 46
REMARK SMILES IDX 60 47 42 48 45 49 59 50 78 51 43 52 44 53 58 55 79 56 46 57
REMARK SMILES IDX 30 58 31 59 39 60 32 61 38 62 40 63 37 64 33 65 34 66 35 67
REMARK SMILES IDX 36 68 62 69 63 70 71 71 64 72 70 73 72 74 69 75 65 76 66 77
REMARK SMILES IDX 67 78 68 79 47 80 48 81 56 82 49 83 55 84 57 85 54 86 50 87
REMARK SMILES IDX 51 88 52 89 53 90
REMARK H PARENT 14 4 18 24 77 43 45 54
REMARK Flexibility Score: inf
ROOT
ATOM      1  C   UNL A   1      33.235  25.927  25.371  1.00  0.00     0.225 C 
ATOM      2  O   UNL A   1      34.402  25.709  25.696  1.00  0.00    -0.275 OA
ATOM      3  N   UNL A   1      32.885  27.203  25.042  1.00  0.00    -0.356 N 
ATOM      4  H   UNL A   1      33.637  27.833  24.957  1.00  0.00     0.163 HD
ENDROOT
BRANCH   1   5
ATOM      5  C   UNL A   1      32.208  24.822  25.229  1.00  0.00     0.107 C 
ATOM      6  N   UNL A   1      33.203  22.771  25.790  1.00  0.00    -0.339 N 
ATOM      7  C   UNL A   1      32.904  23.601  24.646  1.00  0.00     0.133 C 
ATOM      8  C   UNL A   1      32.484  23.150  26.916  1.00  0.00     0.223 C 
ATOM      9  C   UNL A   1      31.658  24.360  26.575  1.00  0.00     0.115 C 
ATOM     10  O   UNL A   1      32.463  22.571  27.993  1.00  0.00    -0.275 OA
BRANCH   6  11
ATOM     11  C   UNL A   1      34.129  21.634  25.798  1.00  0.00     0.082 C 
ATOM     12  C   UNL A   1      35.571  22.136  25.949  1.00  0.00     0.031 C 
BRANCH  11  13
ATOM     13  C   UNL A   1      33.990  20.709  24.571  1.00  0.00     0.025 C 
BRANCH  13  14
ATOM     14  C   UNL A   1      32.649  19.965  24.480  1.00  0.00     0.002 C 
BRANCH  14  15
ATOM     15  C   UNL A   1      32.708  18.485  24.875  1.00  0.00     0.000 C 
BRANCH  15  16
ATOM     16  C   UNL A   1      33.954  17.738  24.388  1.00  0.00    -0.000 C 
BRANCH  16  17
ATOM     17  C   UNL A   1      33.734  16.256  24.067  1.00  0.00    -0.003 C 
ATOM     18  C   UNL A   1      33.133  15.475  25.225  1.00  0.00     0.004 C 
ENDBRANCH  16  17
ENDBRANCH  15  16
ENDBRANCH  14  15
ENDBRANCH  13  14
ENDBRANCH  11  13
ENDBRANCH   6  11
ENDBRANCH   1   5
BRANCH   3  19
ATOM     19  C   UNL A   1      31.571  27.773  24.797  1.00  0.00     0.117 C 
BRANCH  19  20
ATOM     20  C   UNL A   1      31.591  29.293  24.939  1.00  0.00     0.042 C 
BRANCH  20  21
ATOM     21  C   UNL A   1      32.236  29.778  26.237  1.00  0.00     0.118 C 
BRANCH  21  22
ATOM     22  N   UNL A   1      32.069  31.211  26.438  1.00  0.00    -0.352 N 
ATOM     23  C   UNL A   1      32.791  32.089  27.208  1.00  0.00     0.251 C 
ATOM     24  H   UNL A   1      31.319  31.614  25.944  1.00  0.00     0.163 HD
ATOM     25  O   UNL A   1      32.344  33.216  27.405  1.00  0.00    -0.269 OA
BRANCH  23  26
ATOM     26  C   UNL A   1      34.080  31.680  27.807  1.00  0.00     0.039 A 
ATOM     27  C   UNL A   1      35.059  32.653  28.029  1.00  0.00     0.014 A 
ATOM     28  C   UNL A   1      34.337  30.345  28.127  1.00  0.00     0.014 A 
ATOM     29  C   UNL A   1      36.266  32.296  28.635  1.00  0.00     0.010 A 
ATOM     30  C   UNL A   1      35.506  30.007  28.805  1.00  0.00     0.010 A 
ATOM     31  C   UNL A   1      36.485  30.977  29.066  1.00  0.00    -0.014 A 
BRANCH  31  32
ATOM     32  C   UNL A   1      37.727  30.598  29.789  1.00  0.00     0.031 A 
ATOM     33  C   UNL A   1      38.716  29.657  29.158  1.00  0.00     0.074 A 
ATOM     34  C   UNL A   1      37.935  31.055  31.039  1.00  0.00     0.049 A 
ATOM     35  N   UNL A   1      39.818  29.157  29.656  1.00  0.00    -0.248 NA
ATOM     36  C   UNL A   1      38.408  29.196  27.796  1.00  0.00     0.031 C 
ATOM     37  C   UNL A   1      37.034  31.947  31.773  1.00  0.00     0.029 A 
ATOM     38  N   UNL A   1      38.964  30.831  31.919  1.00  0.00    -0.354 N 
ATOM     39  C   UNL A   1      40.330  28.314  28.673  1.00  0.00     0.074 A 
ATOM     40  C   UNL A   1      39.377  28.319  27.584  1.00  0.00     0.031 C 
ATOM     41  C   UNL A   1      37.566  32.221  32.973  1.00  0.00     0.029 A 
ATOM     42  C   UNL A   1      38.817  31.483  33.122  1.00  0.00     0.049 A 
ATOM     43  H   UNL A   1      39.737  30.259  31.709  1.00  0.00     0.167 HD
ATOM     44  C   UNL A   1      41.498  27.622  28.670  1.00  0.00     0.034 A 
ATOM     45  C   UNL A   1      39.591  31.477  34.224  1.00  0.00     0.034 A 
ATOM     46  C   UNL A   1      42.434  27.628  29.769  1.00  0.00     0.049 A 
ATOM     47  C   UNL A   1      40.856  30.658  34.222  1.00  0.00     0.074 A 
ATOM     48  C   UNL A   1      43.665  27.000  29.855  1.00  0.00     0.029 A 
ATOM     49  N   UNL A   1      42.239  28.278  30.981  1.00  0.00    -0.354 N 
ATOM     50  N   UNL A   1      41.351  29.904  33.267  1.00  0.00    -0.248 NA
ATOM     51  C   UNL A   1      41.671  30.696  35.443  1.00  0.00     0.031 C 
ATOM     52  C   UNL A   1      44.173  27.202  31.144  1.00  0.00     0.029 A 
ATOM     53  C   UNL A   1      43.306  28.035  31.833  1.00  0.00     0.049 A 
ATOM     54  H   UNL A   1      41.455  28.832  31.204  1.00  0.00     0.167 HD
ATOM     55  C   UNL A   1      42.553  29.405  33.763  1.00  0.00     0.074 A 
ATOM     56  C   UNL A   1      42.712  29.955  35.094  1.00  0.00     0.031 C 
ATOM     57  C   UNL A   1      43.448  28.574  33.168  1.00  0.00     0.034 A 
BRANCH  44  58
ATOM     58  C   UNL A   1      41.799  26.779  27.452  1.00  0.00     0.023 A 
ATOM     59  C   UNL A   1      41.447  25.419  27.389  1.00  0.00     0.031 A 
ATOM     60  C   UNL A   1      42.488  27.327  26.354  1.00  0.00     0.131 A 
ATOM     61  C   UNL A   1      41.870  24.632  26.307  1.00  0.00     0.055 A 
ATOM     62  C   UNL A   1      42.820  26.560  25.235  1.00  0.00     0.041 A 
ATOM     63  F   UNL A   1      42.871  28.613  26.358  1.00  0.00    -0.206 F 
ATOM     64  C   UNL A   1      42.529  25.199  25.215  1.00  0.00     0.022 A 
BRANCH  61  65
ATOM     65  S   UNL A   1      41.707  22.829  26.436  1.00  0.00     0.124 S 
ATOM     66  O   UNL A   1      42.440  22.383  25.254  1.00  0.00    -0.237 OA
ATOM     67  O   UNL A   1      42.333  22.548  27.721  1.00  0.00    -0.237 OA
ATOM     68  O   UNL A   1      40.262  22.611  26.380  1.00  0.00    -0.744 OA
ENDBRANCH  61  65
ENDBRANCH  44  58
BRANCH  45  69
ATOM     69  C   UNL A   1      39.195  32.269  35.425  1.00  0.00     0.023 A 
ATOM     70  C   UNL A   1      39.640  33.588  35.599  1.00  0.00     0.031 A 
ATOM     71  C   UNL A   1      38.387  31.707  36.430  1.00  0.00     0.131 A 
ATOM     72  C   UNL A   1      39.309  34.290  36.769  1.00  0.00     0.055 A 
ATOM     73  C   UNL A   1      38.013  32.428  37.566  1.00  0.00     0.041 A 
ATOM     74  F   UNL A   1      37.931  30.450  36.311  1.00  0.00    -0.206 F 
ATOM     75  C   UNL A   1      38.486  33.725  37.746  1.00  0.00     0.022 A 
BRANCH  72  76
ATOM     76  S   UNL A   1      40.034  35.931  37.032  1.00  0.00     0.124 S 
ATOM     77  O   UNL A   1      39.340  36.372  38.237  1.00  0.00    -0.237 OA
ATOM     78  O   UNL A   1      41.451  35.616  37.187  1.00  0.00    -0.237 OA
ATOM     79  O   UNL A   1      39.688  36.654  35.811  1.00  0.00    -0.744 OA
ENDBRANCH  72  76
ENDBRANCH  45  69
BRANCH  57  80
ATOM     80  C   UNL A   1      44.705  28.249  33.941  1.00  0.00     0.023 A 
ATOM     81  C   UNL A   1      44.790  27.129  34.786  1.00  0.00     0.031 A 
ATOM     82  C   UNL A   1      45.834  29.082  33.835  1.00  0.00     0.131 A 
ATOM     83  C   UNL A   1      45.955  26.906  35.537  1.00  0.00     0.055 A 
ATOM     84  C   UNL A   1      47.014  28.815  34.530  1.00  0.00     0.041 A 
ATOM     85  F   UNL A   1      45.810  30.170  33.048  1.00  0.00    -0.206 F 
ATOM     86  C   UNL A   1      47.075  27.730  35.398  1.00  0.00     0.022 A 
BRANCH  83  87
ATOM     87  S   UNL A   1      45.953  25.583  36.778  1.00  0.00     0.124 S 
ATOM     88  O   UNL A   1      45.743  24.396  35.956  1.00  0.00    -0.237 OA
ATOM     89  O   UNL A   1      47.276  25.716  37.379  1.00  0.00    -0.237 OA
ATOM     90  O   UNL A   1      44.836  25.936  37.653  1.00  0.00    -0.744 OA
ENDBRANCH  83  87
ENDBRANCH  57  80
ENDBRANCH  31  32
ENDBRANCH  23  26
ENDBRANCH  21  22
ENDBRANCH  20  21
ENDBRANCH  19  20
ENDBRANCH   3  19
TORSDOF 19
ENDMDL
MODEL 3
REMARK VINA RESULT:     -10.6      2.229      7.949
REMARK SMILES CCCCCC[C@@H](C)N1C[C@H](C(=O)NCCCNC(=O)c2ccc(-c3c4nc(c(-c5cc(S(=O)(=O)[O-])ccc5F)c5ccc([nH]5)c(-c5cc(S(=O)(=O)[O-])ccc5F)c5nc(c(-c6cc(S(=O)(=O)[O-])ccc6F)c6ccc3[nH]6)C=C5)C=C4)cc2)CC1=O
REMARK SMILES IDX 12 1 13 2 14 3 11 5 9 6 10 7 85 8 84 9 86 10 7 11 8 12 6 13
REMARK SMILES IDX 5 14 4 15 3 16 2 17 1 18 15 19 16 20 17 21 18 22 19 23 20 25
REMARK SMILES IDX 21 26 22 27 83 28 23 29 82 30 24 31 25 32 26 33 76 34 27 35
REMARK SMILES IDX 81 36 75 37 77 38 28 39 80 40 74 41 73 42 29 44 61 45 41 46
REMARK SMILES IDX 60 47 42 48 45 49 59 50 78 51 43 52 44 53 58 55 79 56 46 57
REMARK SMILES IDX 30 58 31 59 39 60 32 61 38 62 40 63 37 64 33 65 34 66 35 67
REMARK SMILES IDX 36 68 62 69 63 70 71 71 64 72 70 73 72 74 69 75 65 76 66 77
REMARK SMILES IDX 67 78 68 79 47 80 48 81 56 82 49 83 55 84 57 85 54 86 50 87
REMARK SMILES IDX 51 88 52 89 53 90
REMARK H PARENT 14 4 18 24 77 43 45 54
REMARK Flexibility Score: inf
ROOT
ATOM      1  C   UNL A   1      34.361  25.039  25.262  1.00  0.00     0.225 C 
ATOM      2  O   UNL A   1      35.434  24.706  24.762  1.00  0.00    -0.275 OA
ATOM      3  N   UNL A   1      33.882  26.287  24.990  1.00  0.00    -0.356 N 
ATOM      4  H   UNL A   1      34.374  26.780  24.294  1.00  0.00     0.163 HD
ENDROOT
BRANCH   1   5
ATOM      5  C   UNL A   1      33.511  24.086  26.080  1.00  0.00     0.107 C 
ATOM      6  N   UNL A   1      33.344  22.039  24.946  1.00  0.00    -0.339 N 
ATOM      7  C   UNL A   1      32.640  23.288  25.122  1.00  0.00     0.133 C 
ATOM      8  C   UNL A   1      34.315  21.841  25.918  1.00  0.00     0.223 C 
ATOM      9  C   UNL A   1      34.348  23.046  26.817  1.00  0.00     0.115 C 
ATOM     10  O   UNL A   1      34.994  20.835  26.073  1.00  0.00    -0.275 OA
BRANCH   6  11
ATOM     11  C   UNL A   1      33.077  21.054  23.893  1.00  0.00     0.082 C 
ATOM     12  C   UNL A   1      32.250  21.697  22.772  1.00  0.00     0.031 C 
BRANCH  11  13
ATOM     13  C   UNL A   1      32.407  19.761  24.404  1.00  0.00     0.025 C 
BRANCH  13  14
ATOM     14  C   UNL A   1      32.472  18.578  23.427  1.00  0.00     0.002 C 
BRANCH  14  15
ATOM     15  C   UNL A   1      33.732  17.713  23.549  1.00  0.00     0.000 C 
BRANCH  15  16
ATOM     16  C   UNL A   1      33.475  16.251  23.927  1.00  0.00    -0.000 C 
BRANCH  16  17
ATOM     17  C   UNL A   1      34.008  15.834  25.300  1.00  0.00    -0.003 C 
ATOM     18  C   UNL A   1      35.527  15.829  25.376  1.00  0.00     0.004 C 
ENDBRANCH  16  17
ENDBRANCH  15  16
ENDBRANCH  14  15
ENDBRANCH  13  14
ENDBRANCH  11  13
ENDBRANCH   6  11
ENDBRANCH   1   5
BRANCH   3  19
ATOM     19  C   UNL A   1      32.757  26.998  25.572  1.00  0.00     0.117 C 
BRANCH  19  20
ATOM     20  C   UNL A   1      33.028  28.498  25.649  1.00  0.00     0.042 C 
BRANCH  20  21
ATOM     21  C   UNL A   1      33.092  29.036  27.078  1.00  0.00     0.118 C 
BRANCH  21  22
ATOM     22  N   UNL A   1      33.310  30.475  27.121  1.00  0.00    -0.352 N 
ATOM     23  C   UNL A   1      34.319  31.203  27.701  1.00  0.00     0.251 C 
ATOM     24  H   UNL A   1      32.624  31.011  26.661  1.00  0.00     0.163 HD
ATOM     25  O   UNL A   1      34.192  32.420  27.805  1.00  0.00    -0.269 OA
BRANCH  23  26
ATOM     26  C   UNL A   1      35.535  30.531  28.209  1.00  0.00     0.039 A 
ATOM     27  C   UNL A   1      36.700  30.573  27.439  1.00  0.00     0.014 A 
ATOM     28  C   UNL A   1      35.526  29.842  29.424  1.00  0.00     0.014 A 
ATOM     29  C   UNL A   1      37.872  29.983  27.921  1.00  0.00     0.010 A 
ATOM     30  C   UNL A   1      36.713  29.327  29.940  1.00  0.00     0.010 A 
ATOM     31  C   UNL A   1      37.899  29.390  29.195  1.00  0.00    -0.014 A 
BRANCH  31  32
ATOM     32  C   UNL A   1      39.157  28.834  29.759  1.00  0.00     0.031 A 
ATOM     33  C   UNL A   1      39.781  29.453  30.979  1.00  0.00     0.074 A 
ATOM     34  C   UNL A   1      39.768  27.807  29.136  1.00  0.00     0.049 A 
ATOM     35  N   UNL A   1      40.907  29.155  31.576  1.00  0.00    -0.248 NA
ATOM     36  C   UNL A   1      39.056  30.577  31.590  1.00  0.00     0.031 C 
ATOM     37  C   UNL A   1      39.280  27.142  27.927  1.00  0.00     0.029 A 
ATOM     38  N   UNL A   1      40.934  27.144  29.428  1.00  0.00    -0.354 N 
ATOM     39  C   UNL A   1      41.030  30.060  32.627  1.00  0.00     0.074 A 
ATOM     40  C   UNL A   1      39.900  30.959  32.535  1.00  0.00     0.031 C 
ATOM     41  C   UNL A   1      40.118  26.147  27.602  1.00  0.00     0.029 A 
ATOM     42  C   UNL A   1      41.235  26.135  28.543  1.00  0.00     0.049 A 
ATOM     43  H   UNL A   1      41.502  27.369  30.201  1.00  0.00     0.167 HD
ATOM     44  C   UNL A   1      41.983  30.117  33.592  1.00  0.00     0.034 A 
ATOM     45  C   UNL A   1      42.294  25.304  28.485  1.00  0.00     0.034 A 
ATOM     46  C   UNL A   1      43.105  29.212  33.664  1.00  0.00     0.049 A 
ATOM     47  C   UNL A   1      43.369  25.421  29.534  1.00  0.00     0.074 A 
ATOM     48  C   UNL A   1      44.103  29.151  34.621  1.00  0.00     0.029 A 
ATOM     49  N   UNL A   1      43.391  28.219  32.735  1.00  0.00    -0.354 N 
ATOM     50  N   UNL A   1      43.448  26.250  30.549  1.00  0.00    -0.248 NA
ATOM     51  C   UNL A   1      44.495  24.483  29.433  1.00  0.00     0.031 C 
ATOM     52  C   UNL A   1      45.033  28.182  34.227  1.00  0.00     0.029 A 
ATOM     53  C   UNL A   1      44.568  27.569  33.074  1.00  0.00     0.049 A 
ATOM     54  H   UNL A   1      42.837  28.007  31.948  1.00  0.00     0.167 HD
ATOM     55  C   UNL A   1      44.616  25.911  31.227  1.00  0.00     0.074 A 
ATOM     56  C   UNL A   1      45.200  24.793  30.511  1.00  0.00     0.031 C 
ATOM     57  C   UNL A   1      45.153  26.466  32.344  1.00  0.00     0.034 A 
BRANCH  44  58
ATOM     58  C   UNL A   1      41.860  31.220  34.620  1.00  0.00     0.023 A 
ATOM     59  C   UNL A   1      40.835  31.220  35.583  1.00  0.00     0.031 A 
ATOM     60  C   UNL A   1      42.749  32.310  34.611  1.00  0.00     0.131 A 
ATOM     61  C   UNL A   1      40.664  32.329  36.426  1.00  0.00     0.055 A 
ATOM     62  C   UNL A   1      42.631  33.365  35.519  1.00  0.00     0.041 A 
ATOM     63  F   UNL A   1      43.736  32.381  33.704  1.00  0.00    -0.206 F 
ATOM     64  C   UNL A   1      41.571  33.389  36.420  1.00  0.00     0.022 A 
BRANCH  61  65
ATOM     65  S   UNL A   1      39.134  32.445  37.396  1.00  0.00     0.124 S 
ATOM     66  O   UNL A   1      39.654  32.493  38.761  1.00  0.00    -0.237 OA
ATOM     67  O   UNL A   1      38.537  33.677  36.896  1.00  0.00    -0.237 OA
ATOM     68  O   UNL A   1      38.418  31.217  37.055  1.00  0.00    -0.744 OA
ENDBRANCH  61  65
ENDBRANCH  44  58
BRANCH  45  69
ATOM     69  C   UNL A   1      42.394  24.290  27.396  1.00  0.00     0.023 A 
ATOM     70  C   UNL A   1      41.599  23.133  27.411  1.00  0.00     0.031 A 
ATOM     71  C   UNL A   1      43.307  24.450  26.337  1.00  0.00     0.131 A 
ATOM     72  C   UNL A   1      41.759  22.161  26.411  1.00  0.00     0.055 A 
ATOM     73  C   UNL A   1      43.422  23.507  25.314  1.00  0.00     0.041 A 
ATOM     74  F   UNL A   1      44.088  25.540  26.273  1.00  0.00    -0.206 F 
ATOM     75  C   UNL A   1      42.654  22.347  25.355  1.00  0.00     0.022 A 
BRANCH  72  76
ATOM     76  S   UNL A   1      40.832  20.609  26.552  1.00  0.00     0.124 S 
ATOM     77  O   UNL A   1      41.685  19.686  25.812  1.00  0.00    -0.237 OA
ATOM     78  O   UNL A   1      40.780  20.417  27.998  1.00  0.00    -0.237 OA
ATOM     79  O   UNL A   1      39.552  20.921  25.921  1.00  0.00    -0.744 OA
ENDBRANCH  72  76
ENDBRANCH  45  69
BRANCH  57  80
ATOM     80  C   UNL A   1      46.416  25.839  32.886  1.00  0.00     0.023 A 
ATOM     81  C   UNL A   1      46.385  24.797  33.830  1.00  0.00     0.031 A 
ATOM     82  C   UNL A   1      47.674  26.300  32.456  1.00  0.00     0.131 A 
ATOM     83  C   UNL A   1      47.584  24.293  34.356  1.00  0.00     0.055 A 
ATOM     84  C   UNL A   1      48.864  25.746  32.930  1.00  0.00     0.041 A 
ATOM     85  F   UNL A   1      47.767  27.296  31.561  1.00  0.00    -0.206 F 
ATOM     86  C   UNL A   1      48.823  24.746  33.897  1.00  0.00     0.022 A 
BRANCH  83  87
ATOM     87  S   UNL A   1      47.505  23.108  35.728  1.00  0.00     0.124 S 
ATOM     88  O   UNL A   1      47.812  21.849  35.058  1.00  0.00    -0.237 OA
ATOM     89  O   UNL A   1      48.530  23.613  36.636  1.00  0.00    -0.237 OA
ATOM     90  O   UNL A   1      46.131  23.235  36.211  1.00  0.00    -0.744 OA
ENDBRANCH  83  87
ENDBRANCH  57  80
ENDBRANCH  31  32
ENDBRANCH  23  26
ENDBRANCH  21  22
ENDBRANCH  20  21
ENDBRANCH  19  20
ENDBRANCH   3  19
TORSDOF 19
ENDMDL
