MODEL 1
REMARK VINA RESULT:     -13.0      0.000      0.000
REMARK SMILES Cc1nsc(NC[C@@H]2C[C@H]3CC[C@@H]2C3)c1C(=O)NCCCNC(=O)c1ccc(-c2c3nc(c(-c4cc(S(=O)(=O)[O-])ccc4F)c4ccc([nH]4)c(-c4cc(S(=O)(=O)[O-])ccc4F)c4nc(c(-c5cc(S(=O)(=O)[O-])ccc5F)c5ccc2[nH]5)C=C4)C=C3)cc1
REMARK SMILES IDX 20 1 19 2 18 3 16 4 17 5 15 7 1 8 2 9 3 10 4 11 5 12 6 13
REMARK SMILES IDX 7 15 8 16 9 17 13 18 10 19 12 20 14 21 11 22 21 23 22 24
REMARK SMILES IDX 23 25 24 27 25 28 26 29 87 30 27 31 86 32 28 33 29 34 30 35
REMARK SMILES IDX 80 36 31 37 85 38 79 39 81 40 32 41 84 42 78 43 77 44 33 46
REMARK SMILES IDX 65 47 45 48 64 49 46 50 49 51 63 52 82 53 47 54 48 55 62 57
REMARK SMILES IDX 83 58 50 59 34 60 35 61 43 62 36 63 42 64 44 65 41 66 37 67
REMARK SMILES IDX 38 68 39 69 40 70 66 71 67 72 75 73 68 74 74 75 76 76 73 77
REMARK SMILES IDX 69 78 70 79 71 80 72 81 51 82 52 83 60 84 53 85 59 86 61 87
REMARK SMILES IDX 58 88 54 89 55 90 56 91 57 92
REMARK H PARENT 18 6 6 14 22 26 81 45 49 56
REMARK Flexibility Score: inf
ROOT
ATOM      1  C   UNL A   1      34.159  30.285  26.974  1.00  0.00     0.042 C 
ENDROOT
BRANCH   1   2
ATOM      2  C   UNL A   1      33.155  29.338  26.308  1.00  0.00     0.118 C 
BRANCH   2   3
ATOM      3  N   UNL A   1      33.292  29.361  24.872  1.00  0.00    -0.352 N 
ATOM      4  C   UNL A   1      33.047  28.479  23.855  1.00  0.00     0.256 C 
ATOM      5  O   UNL A   1      33.269  28.974  22.741  1.00  0.00    -0.269 OA
ATOM      6  H   UNL A   1      33.647  30.218  24.544  1.00  0.00     0.163 HD
BRANCH   4   7
ATOM      7  C   UNL A   1      32.519  27.103  23.980  1.00  0.00     0.097 A 
ATOM      8  C   UNL A   1      34.254  25.592  25.359  1.00  0.00     0.069 C 
ATOM      9  C   UNL A   1      32.989  25.885  24.638  1.00  0.00     0.066 A 
ATOM     10  N   UNL A   1      32.193  24.818  24.550  1.00  0.00    -0.195 NA
ATOM     11  S   UNL A   1      30.917  25.156  23.593  1.00  0.00    -0.018 S 
ATOM     12  C   UNL A   1      31.342  26.780  23.268  1.00  0.00     0.122 A 
BRANCH  12  13
ATOM     13  N   UNL A   1      30.638  27.614  22.453  1.00  0.00    -0.375 N 
ATOM     14  H   UNL A   1      31.047  27.828  21.583  1.00  0.00     0.161 HD
BRANCH  13  15
ATOM     15  C   UNL A   1      29.352  28.221  22.727  1.00  0.00     0.117 C 
BRANCH  15  16
ATOM     16  C   UNL A   1      29.431  29.721  22.431  1.00  0.00     0.012 C 
ATOM     17  C   UNL A   1      29.786  30.563  23.679  1.00  0.00     0.009 C 
ATOM     18  C   UNL A   1      28.070  30.323  22.001  1.00  0.00    -0.006 C 
ATOM     19  C   UNL A   1      28.654  31.604  23.726  1.00  0.00    -0.011 C 
ATOM     20  C   UNL A   1      28.346  31.687  21.341  1.00  0.00     0.004 C 
ATOM     21  C   UNL A   1      27.447  30.755  23.328  1.00  0.00     0.007 C 
ATOM     22  C   UNL A   1      28.793  32.556  22.526  1.00  0.00     0.004 C 
ENDBRANCH  15  16
ENDBRANCH  13  15
ENDBRANCH  12  13
ENDBRANCH   4   7
ENDBRANCH   2   3
ENDBRANCH   1   2
BRANCH   1  23
ATOM     23  C   UNL A   1      35.325  29.564  27.631  1.00  0.00     0.118 C 
BRANCH  23  24
ATOM     24  N   UNL A   1      35.533  30.003  29.005  1.00  0.00    -0.352 N 
ATOM     25  C   UNL A   1      36.516  29.607  29.892  1.00  0.00     0.251 C 
ATOM     26  H   UNL A   1      34.891  30.667  29.345  1.00  0.00     0.163 HD
ATOM     27  O   UNL A   1      36.341  29.747  31.091  1.00  0.00    -0.269 OA
BRANCH  25  28
ATOM     28  C   UNL A   1      37.753  28.991  29.367  1.00  0.00     0.039 A 
ATOM     29  C   UNL A   1      38.391  29.540  28.254  1.00  0.00     0.014 A 
ATOM     30  C   UNL A   1      38.293  27.879  30.013  1.00  0.00     0.014 A 
ATOM     31  C   UNL A   1      39.624  29.023  27.865  1.00  0.00     0.010 A 
ATOM     32  C   UNL A   1      39.569  27.452  29.709  1.00  0.00     0.010 A 
ATOM     33  C   UNL A   1      40.236  28.005  28.623  1.00  0.00    -0.014 A 
BRANCH  33  34
ATOM     34  C   UNL A   1      41.648  27.677  28.399  1.00  0.00     0.031 A 
ATOM     35  C   UNL A   1      41.836  26.397  27.667  1.00  0.00     0.074 A 
ATOM     36  C   UNL A   1      42.702  28.490  28.636  1.00  0.00     0.049 A 
ATOM     37  N   UNL A   1      42.205  25.267  28.169  1.00  0.00    -0.248 NA
ATOM     38  C   UNL A   1      41.360  26.297  26.276  1.00  0.00     0.031 C 
ATOM     39  C   UNL A   1      42.682  29.879  29.097  1.00  0.00     0.029 A 
ATOM     40  N   UNL A   1      44.034  28.267  28.428  1.00  0.00    -0.354 N 
ATOM     41  C   UNL A   1      42.303  24.393  27.094  1.00  0.00     0.074 A 
ATOM     42  C   UNL A   1      41.537  24.995  26.037  1.00  0.00     0.031 C 
ATOM     43  C   UNL A   1      43.901  30.438  28.920  1.00  0.00     0.029 A 
ATOM     44  C   UNL A   1      44.833  29.410  28.486  1.00  0.00     0.049 A 
ATOM     45  H   UNL A   1      44.401  27.371  28.250  1.00  0.00     0.167 HD
ATOM     46  C   UNL A   1      43.253  23.417  27.087  1.00  0.00     0.034 A 
ATOM     47  C   UNL A   1      46.162  29.521  28.199  1.00  0.00     0.034 A 
ATOM     48  C   UNL A   1      43.780  23.206  28.425  1.00  0.00     0.049 A 
ATOM     49  C   UNL A   1      46.745  28.170  28.368  1.00  0.00     0.074 A 
ATOM     50  C   UNL A   1      43.206  22.946  29.658  1.00  0.00     0.029 A 
ATOM     51  N   UNL A   1      45.050  23.662  28.709  1.00  0.00    -0.354 N 
ATOM     52  N   UNL A   1      46.824  27.567  29.522  1.00  0.00    -0.248 NA
ATOM     53  C   UNL A   1      46.791  27.294  27.207  1.00  0.00     0.031 C 
ATOM     54  C   UNL A   1      43.941  23.749  30.581  1.00  0.00     0.029 A 
ATOM     55  C   UNL A   1      44.989  24.359  29.890  1.00  0.00     0.049 A 
ATOM     56  H   UNL A   1      45.856  23.516  28.162  1.00  0.00     0.167 HD
ATOM     57  C   UNL A   1      46.461  26.255  29.260  1.00  0.00     0.074 A 
ATOM     58  C   UNL A   1      46.556  26.122  27.806  1.00  0.00     0.031 C 
ATOM     59  C   UNL A   1      45.842  25.490  30.209  1.00  0.00     0.034 A 
BRANCH  46  60
ATOM     60  C   UNL A   1      44.012  22.974  25.849  1.00  0.00     0.023 A 
ATOM     61  C   UNL A   1      44.063  21.588  25.606  1.00  0.00     0.031 A 
ATOM     62  C   UNL A   1      44.925  23.756  25.102  1.00  0.00     0.131 A 
ATOM     63  C   UNL A   1      45.077  21.030  24.811  1.00  0.00     0.055 A 
ATOM     64  C   UNL A   1      45.884  23.199  24.250  1.00  0.00     0.041 A 
ATOM     65  F   UNL A   1      45.008  25.085  25.204  1.00  0.00    -0.206 F 
ATOM     66  C   UNL A   1      45.994  21.826  24.133  1.00  0.00     0.022 A 
BRANCH  63  67
ATOM     67  S   UNL A   1      45.296  19.237  24.859  1.00  0.00     0.124 S 
ATOM     68  O   UNL A   1      44.246  18.851  25.797  1.00  0.00    -0.237 OA
ATOM     69  O   UNL A   1      45.080  18.870  23.463  1.00  0.00    -0.237 OA
ATOM     70  O   UNL A   1      46.664  19.076  25.344  1.00  0.00    -0.744 OA
ENDBRANCH  63  67
ENDBRANCH  46  60
BRANCH  47  71
ATOM     71  C   UNL A   1      46.896  30.655  27.561  1.00  0.00     0.023 A 
ATOM     72  C   UNL A   1      46.243  31.723  26.898  1.00  0.00     0.031 A 
ATOM     73  C   UNL A   1      48.271  30.832  27.830  1.00  0.00     0.131 A 
ATOM     74  C   UNL A   1      46.960  32.897  26.550  1.00  0.00     0.055 A 
ATOM     75  C   UNL A   1      48.971  31.991  27.485  1.00  0.00     0.041 A 
ATOM     76  F   UNL A   1      48.967  29.918  28.523  1.00  0.00    -0.206 F 
ATOM     77  C   UNL A   1      48.316  33.035  26.854  1.00  0.00     0.022 A 
BRANCH  74  78
ATOM     78  S   UNL A   1      46.115  34.323  25.782  1.00  0.00     0.124 S 
ATOM     79  O   UNL A   1      45.739  35.124  26.941  1.00  0.00    -0.237 OA
ATOM     80  O   UNL A   1      47.148  34.876  24.915  1.00  0.00    -0.237 OA
ATOM     81  O   UNL A   1      44.989  33.711  25.072  1.00  0.00    -0.744 OA
ENDBRANCH  74  78
ENDBRANCH  47  71
BRANCH  59  82
ATOM     82  C   UNL A   1      45.882  25.940  31.658  1.00  0.00     0.023 A 
ATOM     83  C   UNL A   1      44.793  26.472  32.387  1.00  0.00     0.031 A 
ATOM     84  C   UNL A   1      47.084  25.721  32.356  1.00  0.00     0.131 A 
ATOM     85  C   UNL A   1      44.943  26.775  33.758  1.00  0.00     0.055 A 
ATOM     86  C   UNL A   1      47.220  25.997  33.714  1.00  0.00     0.041 A 
ATOM     87  F   UNL A   1      48.152  25.201  31.728  1.00  0.00    -0.206 F 
ATOM     88  C   UNL A   1      46.151  26.534  34.420  1.00  0.00     0.022 A 
BRANCH  85  89
ATOM     89  S   UNL A   1      43.577  27.520  34.708  1.00  0.00     0.124 S 
ATOM     90  O   UNL A   1      43.502  26.697  35.909  1.00  0.00    -0.237 OA
ATOM     91  O   UNL A   1      44.041  28.892  34.902  1.00  0.00    -0.237 OA
ATOM     92  O   UNL A   1      42.428  27.392  33.809  1.00  0.00    -0.744 OA
ENDBRANCH  85  89
ENDBRANCH  59  82
ENDBRANCH  33  34
ENDBRANCH  25  28
ENDBRANCH  23  24
ENDBRANCH   1  23
TORSDOF 16
ENDMDL
MODEL 2
REMARK VINA RESULT:     -12.8      2.448      6.984
REMARK SMILES Cc1nsc(NC[C@@H]2C[C@H]3CC[C@@H]2C3)c1C(=O)NCCCNC(=O)c1ccc(-c2c3nc(c(-c4cc(S(=O)(=O)[O-])ccc4F)c4ccc([nH]4)c(-c4cc(S(=O)(=O)[O-])ccc4F)c4nc(c(-c5cc(S(=O)(=O)[O-])ccc5F)c5ccc2[nH]5)C=C4)C=C3)cc1
REMARK SMILES IDX 20 1 19 2 18 3 16 4 17 5 15 7 1 8 2 9 3 10 4 11 5 12 6 13
REMARK SMILES IDX 7 15 8 16 9 17 13 18 10 19 12 20 14 21 11 22 21 23 22 24
REMARK SMILES IDX 23 25 24 27 25 28 26 29 87 30 27 31 86 32 28 33 29 34 30 35
REMARK SMILES IDX 80 36 31 37 85 38 79 39 81 40 32 41 84 42 78 43 77 44 33 46
REMARK SMILES IDX 65 47 45 48 64 49 46 50 49 51 63 52 82 53 47 54 48 55 62 57
REMARK SMILES IDX 83 58 50 59 34 60 35 61 43 62 36 63 42 64 44 65 41 66 37 67
REMARK SMILES IDX 38 68 39 69 40 70 66 71 67 72 75 73 68 74 74 75 76 76 73 77
REMARK SMILES IDX 69 78 70 79 71 80 72 81 51 82 52 83 60 84 53 85 59 86 61 87
REMARK SMILES IDX 58 88 54 89 55 90 56 91 57 92
REMARK H PARENT 18 6 6 14 22 26 81 45 49 56
REMARK Flexibility Score: inf
ROOT
ATOM      1  C   UNL A   1      33.337  29.231  27.050  1.00  0.00     0.042 C 
ENDROOT
BRANCH   1   2
ATOM      2  C   UNL A   1      32.488  29.914  25.973  1.00  0.00     0.118 C 
BRANCH   2   3
ATOM      3  N   UNL A   1      33.038  29.693  24.658  1.00  0.00    -0.352 N 
ATOM      4  C   UNL A   1      33.095  28.639  23.789  1.00  0.00     0.256 C 
ATOM      5  O   UNL A   1      33.637  28.942  22.716  1.00  0.00    -0.269 OA
ATOM      6  H   UNL A   1      33.481  30.496  24.299  1.00  0.00     0.163 HD
BRANCH   4   7
ATOM      7  C   UNL A   1      32.542  27.283  23.999  1.00  0.00     0.097 A 
ATOM      8  C   UNL A   1      34.301  25.796  25.377  1.00  0.00     0.069 C 
ATOM      9  C   UNL A   1      33.014  26.085  24.694  1.00  0.00     0.066 A 
ATOM     10  N   UNL A   1      32.192  25.034  24.690  1.00  0.00    -0.195 NA
ATOM     11  S   UNL A   1      30.884  25.358  23.771  1.00  0.00    -0.018 S 
ATOM     12  C   UNL A   1      31.330  26.955  23.353  1.00  0.00     0.122 A 
BRANCH  12  13
ATOM     13  N   UNL A   1      30.611  27.767  22.528  1.00  0.00    -0.375 N 
ATOM     14  H   UNL A   1      31.004  27.958  21.646  1.00  0.00     0.161 HD
BRANCH  13  15
ATOM     15  C   UNL A   1      29.329  28.380  22.810  1.00  0.00     0.117 C 
BRANCH  15  16
ATOM     16  C   UNL A   1      29.413  29.879  22.508  1.00  0.00     0.012 C 
ATOM     17  C   UNL A   1      29.701  30.731  23.766  1.00  0.00     0.009 C 
ATOM     18  C   UNL A   1      28.071  30.469  22.008  1.00  0.00    -0.006 C 
ATOM     19  C   UNL A   1      28.561  31.764  23.751  1.00  0.00    -0.011 C 
ATOM     20  C   UNL A   1      28.369  31.831  21.353  1.00  0.00     0.004 C 
ATOM     21  C   UNL A   1      27.381  30.905  23.300  1.00  0.00     0.007 C 
ATOM     22  C   UNL A   1      28.752  32.710  22.553  1.00  0.00     0.004 C 
ENDBRANCH  15  16
ENDBRANCH  13  15
ENDBRANCH  12  13
ENDBRANCH   4   7
ENDBRANCH   2   3
ENDBRANCH   1   2
BRANCH   1  23
ATOM     23  C   UNL A   1      34.791  29.674  27.044  1.00  0.00     0.118 C 
BRANCH  23  24
ATOM     24  N   UNL A   1      34.930  31.093  27.344  1.00  0.00    -0.352 N 
ATOM     25  C   UNL A   1      35.680  31.690  28.340  1.00  0.00     0.251 C 
ATOM     26  H   UNL A   1      34.425  31.706  26.762  1.00  0.00     0.163 HD
ATOM     27  O   UNL A   1      35.400  32.816  28.715  1.00  0.00    -0.269 OA
BRANCH  25  28
ATOM     28  C   UNL A   1      36.792  30.935  28.954  1.00  0.00     0.039 A 
ATOM     29  C   UNL A   1      36.580  29.641  29.434  1.00  0.00     0.014 A 
ATOM     30  C   UNL A   1      38.060  31.513  29.020  1.00  0.00     0.014 A 
ATOM     31  C   UNL A   1      37.674  28.905  29.882  1.00  0.00     0.010 A 
ATOM     32  C   UNL A   1      39.157  30.742  29.342  1.00  0.00     0.010 A 
ATOM     33  C   UNL A   1      38.973  29.441  29.793  1.00  0.00    -0.014 A 
BRANCH  33  34
ATOM     34  C   UNL A   1      40.137  28.568  29.975  1.00  0.00     0.031 A 
ATOM     35  C   UNL A   1      40.476  28.343  31.405  1.00  0.00     0.074 A 
ATOM     36  C   UNL A   1      40.763  27.863  29.005  1.00  0.00     0.049 A 
ATOM     37  N   UNL A   1      41.447  28.882  32.063  1.00  0.00    -0.248 NA
ATOM     38  C   UNL A   1      39.517  27.618  32.256  1.00  0.00     0.031 C 
ATOM     39  C   UNL A   1      40.396  27.752  27.593  1.00  0.00     0.029 A 
ATOM     40  N   UNL A   1      41.829  27.012  29.102  1.00  0.00    -0.354 N 
ATOM     41  C   UNL A   1      41.397  28.318  33.332  1.00  0.00     0.074 A 
ATOM     42  C   UNL A   1      40.074  27.774  33.460  1.00  0.00     0.031 C 
ATOM     43  C   UNL A   1      41.072  26.728  27.023  1.00  0.00     0.029 A 
ATOM     44  C   UNL A   1      42.039  26.210  27.978  1.00  0.00     0.049 A 
ATOM     45  H   UNL A   1      42.402  26.968  29.900  1.00  0.00     0.167 HD
ATOM     46  C   UNL A   1      42.547  28.090  34.027  1.00  0.00     0.034 A 
ATOM     47  C   UNL A   1      42.933  25.191  27.829  1.00  0.00     0.034 A 
ATOM     48  C   UNL A   1      43.647  28.852  33.459  1.00  0.00     0.049 A 
ATOM     49  C   UNL A   1      44.016  25.432  28.811  1.00  0.00     0.074 A 
ATOM     50  C   UNL A   1      43.838  30.188  33.150  1.00  0.00     0.029 A 
ATOM     51  N   UNL A   1      44.609  28.176  32.739  1.00  0.00    -0.354 N 
ATOM     52  N   UNL A   1      44.832  26.447  28.737  1.00  0.00    -0.248 NA
ATOM     53  C   UNL A   1      43.888  24.836  30.132  1.00  0.00     0.031 C 
ATOM     54  C   UNL A   1      44.516  30.181  31.894  1.00  0.00     0.029 A 
ATOM     55  C   UNL A   1      44.806  28.856  31.563  1.00  0.00     0.049 A 
ATOM     56  H   UNL A   1      45.072  27.352  33.017  1.00  0.00     0.167 HD
ATOM     57  C   UNL A   1      44.949  26.901  30.041  1.00  0.00     0.074 A 
ATOM     58  C   UNL A   1      44.433  25.810  30.867  1.00  0.00     0.031 C 
ATOM     59  C   UNL A   1      45.179  28.221  30.312  1.00  0.00     0.034 A 
BRANCH  46  60
ATOM     60  C   UNL A   1      42.783  26.879  34.910  1.00  0.00     0.023 A 
ATOM     61  C   UNL A   1      43.591  25.859  34.374  1.00  0.00     0.031 A 
ATOM     62  C   UNL A   1      42.039  26.523  36.060  1.00  0.00     0.131 A 
ATOM     63  C   UNL A   1      43.509  24.542  34.856  1.00  0.00     0.055 A 
ATOM     64  C   UNL A   1      42.021  25.226  36.584  1.00  0.00     0.041 A 
ATOM     65  F   UNL A   1      41.226  27.369  36.699  1.00  0.00    -0.206 F 
ATOM     66  C   UNL A   1      42.723  24.215  35.956  1.00  0.00     0.022 A 
BRANCH  63  67
ATOM     67  S   UNL A   1      44.284  23.236  33.876  1.00  0.00     0.124 S 
ATOM     68  O   UNL A   1      45.535  23.881  33.489  1.00  0.00    -0.237 OA
ATOM     69  O   UNL A   1      44.391  22.154  34.850  1.00  0.00    -0.237 OA
ATOM     70  O   UNL A   1      43.329  23.012  32.794  1.00  0.00    -0.744 OA
ENDBRANCH  63  67
ENDBRANCH  46  60
BRANCH  47  71
ATOM     71  C   UNL A   1      42.784  23.912  27.072  1.00  0.00     0.023 A 
ATOM     72  C   UNL A   1      43.731  23.463  26.119  1.00  0.00     0.031 A 
ATOM     73  C   UNL A   1      41.813  22.972  27.479  1.00  0.00     0.131 A 
ATOM     74  C   UNL A   1      43.684  22.131  25.632  1.00  0.00     0.055 A 
ATOM     75  C   UNL A   1      41.772  21.661  26.997  1.00  0.00     0.041 A 
ATOM     76  F   UNL A   1      40.918  23.267  28.436  1.00  0.00    -0.206 F 
ATOM     77  C   UNL A   1      42.715  21.231  26.080  1.00  0.00     0.022 A 
BRANCH  74  78
ATOM     78  S   UNL A   1      44.953  21.505  24.477  1.00  0.00     0.124 S 
ATOM     79  O   UNL A   1      44.592  22.166  23.228  1.00  0.00    -0.237 OA
ATOM     80  O   UNL A   1      46.196  21.936  25.107  1.00  0.00    -0.237 OA
ATOM     81  O   UNL A   1      44.738  20.056  24.486  1.00  0.00    -0.744 OA
ENDBRANCH  74  78
ENDBRANCH  47  71
BRANCH  59  82
ATOM     82  C   UNL A   1      45.674  29.125  29.198  1.00  0.00     0.023 A 
ATOM     83  C   UNL A   1      44.877  30.019  28.444  1.00  0.00     0.031 A 
ATOM     84  C   UNL A   1      47.061  29.138  28.962  1.00  0.00     0.131 A 
ATOM     85  C   UNL A   1      45.478  30.867  27.490  1.00  0.00     0.055 A 
ATOM     86  C   UNL A   1      47.654  29.994  28.036  1.00  0.00     0.041 A 
ATOM     87  F   UNL A   1      47.879  28.328  29.655  1.00  0.00    -0.206 F 
ATOM     88  C   UNL A   1      46.863  30.857  27.290  1.00  0.00     0.022 A 
BRANCH  85  89
ATOM     89  S   UNL A   1      44.470  31.983  26.459  1.00  0.00     0.124 S 
ATOM     90  O   UNL A   1      43.348  31.150  26.044  1.00  0.00    -0.237 OA
ATOM     91  O   UNL A   1      44.153  33.067  27.386  1.00  0.00    -0.237 OA
ATOM     92  O   UNL A   1      45.382  32.360  25.376  1.00  0.00    -0.744 OA
ENDBRANCH  85  89
ENDBRANCH  59  82
ENDBRANCH  33  34
ENDBRANCH  25  28
ENDBRANCH  23  24
ENDBRANCH   1  23
TORSDOF 16
ENDMDL
MODEL 3
REMARK VINA RESULT:     -12.6      1.546      3.572
REMARK SMILES Cc1nsc(NC[C@@H]2C[C@H]3CC[C@@H]2C3)c1C(=O)NCCCNC(=O)c1ccc(-c2c3nc(c(-c4cc(S(=O)(=O)[O-])ccc4F)c4ccc([nH]4)c(-c4cc(S(=O)(=O)[O-])ccc4F)c4nc(c(-c5cc(S(=O)(=O)[O-])ccc5F)c5ccc2[nH]5)C=C4)C=C3)cc1
REMARK SMILES IDX 20 1 19 2 18 3 16 4 17 5 15 7 1 8 2 9 3 10 4 11 5 12 6 13
REMARK SMILES IDX 7 15 8 16 9 17 13 18 10 19 12 20 14 21 11 22 21 23 22 24
REMARK SMILES IDX 23 25 24 27 25 28 26 29 87 30 27 31 86 32 28 33 29 34 30 35
REMARK SMILES IDX 80 36 31 37 85 38 79 39 81 40 32 41 84 42 78 43 77 44 33 46
REMARK SMILES IDX 65 47 45 48 64 49 46 50 49 51 63 52 82 53 47 54 48 55 62 57
REMARK SMILES IDX 83 58 50 59 34 60 35 61 43 62 36 63 42 64 44 65 41 66 37 67
REMARK SMILES IDX 38 68 39 69 40 70 66 71 67 72 75 73 68 74 74 75 76 76 73 77
REMARK SMILES IDX 69 78 70 79 71 80 72 81 51 82 52 83 60 84 53 85 59 86 61 87
REMARK SMILES IDX 58 88 54 89 55 90 56 91 57 92
REMARK H PARENT 18 6 6 14 22 26 81 45 49 56
REMARK Flexibility Score: inf
ROOT
ATOM      1  C   UNL A   1      34.337  28.933  27.271  1.00  0.00     0.042 C 
ENDROOT
BRANCH   1   2
ATOM      2  C   UNL A   1      33.397  29.399  26.155  1.00  0.00     0.118 C 
BRANCH   2   3
ATOM      3  N   UNL A   1      33.787  28.845  24.881  1.00  0.00    -0.352 N 
ATOM      4  C   UNL A   1      33.162  28.131  23.896  1.00  0.00     0.256 C 
ATOM      5  O   UNL A   1      33.905  27.918  22.927  1.00  0.00    -0.269 OA
ATOM      6  H   UNL A   1      34.732  29.022  24.670  1.00  0.00     0.163 HD
BRANCH   4   7
ATOM      7  C   UNL A   1      31.752  27.683  23.880  1.00  0.00     0.097 A 
ATOM      8  C   UNL A   1      30.131  29.815  23.715  1.00  0.00     0.069 C 
ATOM      9  C   UNL A   1      30.465  28.368  23.768  1.00  0.00     0.066 A 
ATOM     10  N   UNL A   1      29.379  27.593  23.760  1.00  0.00    -0.195 NA
ATOM     11  S   UNL A   1      29.806  26.039  24.005  1.00  0.00    -0.018 S 
ATOM     12  C   UNL A   1      31.491  26.312  24.099  1.00  0.00     0.122 A 
BRANCH  12  13
ATOM     13  N   UNL A   1      32.419  25.344  24.342  1.00  0.00    -0.375 N 
ATOM     14  H   UNL A   1      32.423  24.575  23.727  1.00  0.00     0.161 HD
BRANCH  13  15
ATOM     15  C   UNL A   1      33.399  25.324  25.407  1.00  0.00     0.117 C 
BRANCH  15  16
ATOM     16  C   UNL A   1      34.738  24.835  24.847  1.00  0.00     0.012 C 
ATOM     17  C   UNL A   1      34.620  24.268  23.413  1.00  0.00     0.009 C 
ATOM     18  C   UNL A   1      35.317  23.632  25.633  1.00  0.00    -0.006 C 
ATOM     19  C   UNL A   1      35.253  22.872  23.541  1.00  0.00    -0.011 C 
ATOM     20  C   UNL A   1      36.808  23.503  25.267  1.00  0.00     0.004 C 
ATOM     21  C   UNL A   1      34.726  22.426  24.904  1.00  0.00     0.007 C 
ATOM     22  C   UNL A   1      36.760  23.023  23.808  1.00  0.00     0.004 C 
ENDBRANCH  15  16
ENDBRANCH  13  15
ENDBRANCH  12  13
ENDBRANCH   4   7
ENDBRANCH   2   3
ENDBRANCH   1   2
BRANCH   1  23
ATOM     23  C   UNL A   1      35.481  29.897  27.540  1.00  0.00     0.118 C 
BRANCH  23  24
ATOM     24  N   UNL A   1      35.639  30.173  28.962  1.00  0.00    -0.352 N 
ATOM     25  C   UNL A   1      36.540  29.615  29.850  1.00  0.00     0.251 C 
ATOM     26  H   UNL A   1      35.024  30.844  29.340  1.00  0.00     0.163 HD
ATOM     27  O   UNL A   1      36.306  29.642  31.046  1.00  0.00    -0.269 OA
BRANCH  25  28
ATOM     28  C   UNL A   1      37.761  28.969  29.324  1.00  0.00     0.039 A 
ATOM     29  C   UNL A   1      38.405  29.496  28.204  1.00  0.00     0.014 A 
ATOM     30  C   UNL A   1      38.279  27.850  29.976  1.00  0.00     0.014 A 
ATOM     31  C   UNL A   1      39.625  28.949  27.814  1.00  0.00     0.010 A 
ATOM     32  C   UNL A   1      39.544  27.394  29.669  1.00  0.00     0.010 A 
ATOM     33  C   UNL A   1      40.218  27.924  28.576  1.00  0.00    -0.014 A 
BRANCH  33  34
ATOM     34  C   UNL A   1      41.621  27.564  28.348  1.00  0.00     0.031 A 
ATOM     35  C   UNL A   1      41.778  26.286  27.605  1.00  0.00     0.074 A 
ATOM     36  C   UNL A   1      42.695  28.349  28.592  1.00  0.00     0.049 A 
ATOM     37  N   UNL A   1      42.120  25.142  28.097  1.00  0.00    -0.248 NA
ATOM     38  C   UNL A   1      41.299  26.209  26.214  1.00  0.00     0.031 C 
ATOM     39  C   UNL A   1      42.709  29.734  29.064  1.00  0.00     0.029 A 
ATOM     40  N   UNL A   1      44.022  28.095  28.380  1.00  0.00    -0.354 N 
ATOM     41  C   UNL A   1      42.195  24.275  27.015  1.00  0.00     0.074 A 
ATOM     42  C   UNL A   1      41.444  24.905  25.964  1.00  0.00     0.031 C 
ATOM     43  C   UNL A   1      43.941  30.264  28.891  1.00  0.00     0.029 A 
ATOM     44  C   UNL A   1      44.848  29.218  28.448  1.00  0.00     0.049 A 
ATOM     45  H   UNL A   1      44.366  27.192  28.195  1.00  0.00     0.167 HD
ATOM     46  C   UNL A   1      43.122  23.277  26.999  1.00  0.00     0.034 A 
ATOM     47  C   UNL A   1      46.179  29.299  28.161  1.00  0.00     0.034 A 
ATOM     48  C   UNL A   1      43.644  23.042  28.335  1.00  0.00     0.049 A 
ATOM     49  C   UNL A   1      46.729  27.932  28.318  1.00  0.00     0.074 A 
ATOM     50  C   UNL A   1      43.065  22.786  29.566  1.00  0.00     0.029 A 
ATOM     51  N   UNL A   1      44.925  23.465  28.622  1.00  0.00    -0.354 N 
ATOM     52  N   UNL A   1      46.794  27.317  29.466  1.00  0.00    -0.248 NA
ATOM     53  C   UNL A   1      46.753  27.065  27.150  1.00  0.00     0.031 C 
ATOM     54  C   UNL A   1      43.819  23.563  30.495  1.00  0.00     0.029 A 
ATOM     55  C   UNL A   1      44.881  24.152  29.809  1.00  0.00     0.049 A 
ATOM     56  H   UNL A   1      45.727  23.303  28.073  1.00  0.00     0.167 HD
ATOM     57  C   UNL A   1      46.399  26.017  29.194  1.00  0.00     0.074 A 
ATOM     58  C   UNL A   1      46.490  25.894  27.739  1.00  0.00     0.031 C 
ATOM     59  C   UNL A   1      45.762  25.260  30.136  1.00  0.00     0.034 A 
BRANCH  46  60
ATOM     60  C   UNL A   1      43.869  22.826  25.757  1.00  0.00     0.023 A 
ATOM     61  C   UNL A   1      43.982  21.437  25.561  1.00  0.00     0.031 A 
ATOM     62  C   UNL A   1      44.723  23.623  24.958  1.00  0.00     0.131 A 
ATOM     63  C   UNL A   1      45.001  20.899  24.758  1.00  0.00     0.055 A 
ATOM     64  C   UNL A   1      45.685  23.082  24.099  1.00  0.00     0.041 A 
ATOM     65  F   UNL A   1      44.743  24.957  25.011  1.00  0.00    -0.206 F 
ATOM     66  C   UNL A   1      45.860  21.713  24.028  1.00  0.00     0.022 A 
BRANCH  63  67
ATOM     67  S   UNL A   1      45.309  19.121  24.863  1.00  0.00     0.124 S 
ATOM     68  O   UNL A   1      46.424  19.085  25.805  1.00  0.00    -0.237 OA
ATOM     69  O   UNL A   1      44.029  18.624  25.360  1.00  0.00    -0.237 OA
ATOM     70  O   UNL A   1      45.633  18.752  23.488  1.00  0.00    -0.744 OA
ENDBRANCH  63  67
ENDBRANCH  46  60
BRANCH  47  71
ATOM     71  C   UNL A   1      46.940  30.420  27.532  1.00  0.00     0.023 A 
ATOM     72  C   UNL A   1      46.313  31.542  26.938  1.00  0.00     0.031 A 
ATOM     73  C   UNL A   1      48.332  30.521  27.745  1.00  0.00     0.131 A 
ATOM     74  C   UNL A   1      47.071  32.693  26.600  1.00  0.00     0.055 A 
ATOM     75  C   UNL A   1      49.074  31.657  27.412  1.00  0.00     0.041 A 
ATOM     76  F   UNL A   1      49.011  29.548  28.374  1.00  0.00    -0.206 F 
ATOM     77  C   UNL A   1      48.444  32.754  26.848  1.00  0.00     0.022 A 
BRANCH  74  78
ATOM     78  S   UNL A   1      46.266  34.186  25.923  1.00  0.00     0.124 S 
ATOM     79  O   UNL A   1      45.195  33.621  25.109  1.00  0.00    -0.237 OA
ATOM     80  O   UNL A   1      45.861  34.903  27.126  1.00  0.00    -0.237 OA
ATOM     81  O   UNL A   1      47.335  34.835  25.160  1.00  0.00    -0.744 OA
ENDBRANCH  74  78
ENDBRANCH  47  71
BRANCH  59  82
ATOM     82  C   UNL A   1      45.814  25.696  31.589  1.00  0.00     0.023 A 
ATOM     83  C   UNL A   1      46.868  25.431  32.494  1.00  0.00     0.031 A 
ATOM     84  C   UNL A   1      44.762  26.513  32.042  1.00  0.00     0.131 A 
ATOM     85  C   UNL A   1      46.830  25.968  33.799  1.00  0.00     0.055 A 
ATOM     86  C   UNL A   1      44.739  27.062  33.323  1.00  0.00     0.041 A 
ATOM     87  F   UNL A   1      43.737  26.821  31.229  1.00  0.00    -0.206 F 
ATOM     88  C   UNL A   1      45.771  26.784  34.210  1.00  0.00     0.022 A 
BRANCH  85  89
ATOM     89  S   UNL A   1      48.142  25.591  35.007  1.00  0.00     0.124 S 
ATOM     90  O   UNL A   1      48.938  24.564  34.344  1.00  0.00    -0.237 OA
ATOM     91  O   UNL A   1      48.791  26.888  35.182  1.00  0.00    -0.237 OA
ATOM     92  O   UNL A   1      47.400  25.122  36.179  1.00  0.00    -0.744 OA
ENDBRANCH  85  89
ENDBRANCH  59  82
ENDBRANCH  33  34
ENDBRANCH  25  28
ENDBRANCH  23  24
ENDBRANCH   1  23
TORSDOF 16
ENDMDL
