MODEL 1
REMARK VINA RESULT:     -13.5      0.000      0.000
REMARK SMILES O=C(NCCCNC(=O)[C@@H]1[C@@H](C(=O)N2CCN(c3cccc(Cl)c3)CC2)[C@H]2CC[C@@H]1O2)c1ccc(-c2c3nc(c(-c4cc(S(=O)(=O)[O-])ccc4F)c4ccc([nH]4)c(-c4cc(S(=O)(=O)[O-])ccc4F)c4nc(c(-c5cc(S(=O)(=O)[O-])ccc5F)c5ccc2[nH]5)C=C4)C=C3)cc1
REMARK SMILES IDX 4 1 3 2 1 3 2 4 32 6 33 7 94 8 34 9 93 10 35 11 36 12 37 13
REMARK SMILES IDX 87 14 38 15 92 16 86 17 88 18 39 19 91 20 85 21 84 22 40 24
REMARK SMILES IDX 72 25 52 26 71 27 53 28 56 29 70 30 89 31 54 32 55 33 69 35
REMARK SMILES IDX 90 36 57 37 41 38 42 39 50 40 43 41 49 42 51 43 48 44 44 45
REMARK SMILES IDX 45 46 46 47 47 48 73 49 74 50 82 51 75 52 81 53 83 54 80 55
REMARK SMILES IDX 76 56 77 57 78 58 79 59 58 60 59 61 67 62 60 63 66 64 68 65
REMARK SMILES IDX 65 66 61 67 62 68 63 69 64 70 5 71 6 72 7 73 8 74 9 76 10 77
REMARK SMILES IDX 11 78 30 79 27 80 29 81 31 82 28 83 12 84 13 85 14 86 15 87
REMARK SMILES IDX 26 88 16 89 25 90 17 91 18 92 19 93 24 94 20 95 22 96 21 97
REMARK SMILES IDX 23 98
REMARK H PARENT 3 5 88 23 56 34 7 75
REMARK Flexibility Score: inf
ROOT
ATOM      1  C   UNL A   1      32.817  32.562  27.198  1.00  0.00     0.118 C 
ENDROOT
BRANCH   1   2
ATOM      2  N   UNL A   1      32.652  33.949  27.613  1.00  0.00    -0.352 N 
ATOM      3  O   UNL A   1      32.854  35.776  28.913  1.00  0.00    -0.269 OA
ATOM      4  C   UNL A   1      33.257  34.650  28.630  1.00  0.00     0.251 C 
ATOM      5  H   UNL A   1      32.004  34.467  27.082  1.00  0.00     0.163 HD
BRANCH   4   6
ATOM      6  C   UNL A   1      34.369  34.045  29.397  1.00  0.00     0.039 A 
ATOM      7  C   UNL A   1      35.692  34.393  29.128  1.00  0.00     0.014 A 
ATOM      8  C   UNL A   1      34.085  33.121  30.408  1.00  0.00     0.014 A 
ATOM      9  C   UNL A   1      36.728  33.685  29.722  1.00  0.00     0.010 A 
ATOM     10  C   UNL A   1      35.132  32.496  31.094  1.00  0.00     0.010 A 
ATOM     11  C   UNL A   1      36.465  32.744  30.731  1.00  0.00    -0.014 A 
BRANCH  11  12
ATOM     12  C   UNL A   1      37.607  32.091  31.423  1.00  0.00     0.031 A 
ATOM     13  C   UNL A   1      38.408  31.007  30.755  1.00  0.00     0.074 A 
ATOM     14  C   UNL A   1      37.944  32.522  32.655  1.00  0.00     0.049 A 
ATOM     15  N   UNL A   1      39.436  30.341  31.214  1.00  0.00    -0.248 NA
ATOM     16  C   UNL A   1      37.996  30.611  29.401  1.00  0.00     0.031 C 
ATOM     17  C   UNL A   1      37.235  33.567  33.402  1.00  0.00     0.029 A 
ATOM     18  N   UNL A   1      38.971  32.164  33.489  1.00  0.00    -0.354 N 
ATOM     19  C   UNL A   1      39.783  29.433  30.220  1.00  0.00     0.074 A 
ATOM     20  C   UNL A   1      38.833  29.615  29.143  1.00  0.00     0.031 C 
ATOM     21  C   UNL A   1      37.882  33.805  34.551  1.00  0.00     0.029 A 
ATOM     22  C   UNL A   1      38.998  32.875  34.666  1.00  0.00     0.049 A 
ATOM     23  H   UNL A   1      39.627  31.464  33.266  1.00  0.00     0.167 HD
ATOM     24  C   UNL A   1      40.804  28.537  30.208  1.00  0.00     0.034 A 
ATOM     25  C   UNL A   1      39.811  32.777  35.734  1.00  0.00     0.034 A 
ATOM     26  C   UNL A   1      41.745  28.378  31.291  1.00  0.00     0.049 A 
ATOM     27  C   UNL A   1      40.911  31.752  35.708  1.00  0.00     0.074 A 
ATOM     28  C   UNL A   1      42.831  27.521  31.371  1.00  0.00     0.029 A 
ATOM     29  N   UNL A   1      41.713  29.084  32.487  1.00  0.00    -0.354 N 
ATOM     30  N   UNL A   1      41.224  30.905  34.756  1.00  0.00    -0.248 NA
ATOM     31  C   UNL A   1      41.764  31.671  36.898  1.00  0.00     0.031 C 
ATOM     32  C   UNL A   1      43.413  27.663  32.636  1.00  0.00     0.029 A 
ATOM     33  C   UNL A   1      42.739  28.661  33.321  1.00  0.00     0.049 A 
ATOM     34  H   UNL A   1      41.057  29.784  32.710  1.00  0.00     0.167 HD
ATOM     35  C   UNL A   1      42.324  30.198  35.229  1.00  0.00     0.074 A 
ATOM     36  C   UNL A   1      42.631  30.736  36.539  1.00  0.00     0.031 C 
ATOM     37  C   UNL A   1      43.018  29.195  34.634  1.00  0.00     0.034 A 
BRANCH  24  38
ATOM     38  C   UNL A   1      40.921  27.629  29.005  1.00  0.00     0.023 A 
ATOM     39  C   UNL A   1      41.912  27.814  28.026  1.00  0.00     0.031 A 
ATOM     40  C   UNL A   1      40.014  26.566  28.831  1.00  0.00     0.131 A 
ATOM     41  C   UNL A   1      41.935  26.993  26.887  1.00  0.00     0.055 A 
ATOM     42  C   UNL A   1      40.089  25.706  27.732  1.00  0.00     0.041 A 
ATOM     43  F   UNL A   1      39.034  26.351  29.721  1.00  0.00    -0.206 F 
ATOM     44  C   UNL A   1      41.045  25.925  26.745  1.00  0.00     0.022 A 
BRANCH  41  45
ATOM     45  S   UNL A   1      43.059  27.421  25.530  1.00  0.00     0.124 S 
ATOM     46  O   UNL A   1      44.112  28.148  26.236  1.00  0.00    -0.237 OA
ATOM     47  O   UNL A   1      43.430  26.113  25.003  1.00  0.00    -0.237 OA
ATOM     48  O   UNL A   1      42.234  28.240  24.645  1.00  0.00    -0.744 OA
ENDBRANCH  41  45
ENDBRANCH  24  38
BRANCH  25  49
ATOM     49  C   UNL A   1      39.587  33.640  36.927  1.00  0.00     0.023 A 
ATOM     50  C   UNL A   1      38.926  33.153  38.064  1.00  0.00     0.031 A 
ATOM     51  C   UNL A   1      40.021  34.979  36.937  1.00  0.00     0.131 A 
ATOM     52  C   UNL A   1      38.687  34.007  39.152  1.00  0.00     0.055 A 
ATOM     53  C   UNL A   1      39.828  35.808  38.042  1.00  0.00     0.041 A 
ATOM     54  F   UNL A   1      40.663  35.493  35.876  1.00  0.00    -0.206 F 
ATOM     55  C   UNL A   1      39.146  35.326  39.154  1.00  0.00     0.022 A 
BRANCH  52  56
ATOM     56  S   UNL A   1      37.695  33.390  40.538  1.00  0.00     0.124 S 
ATOM     57  O   UNL A   1      36.462  32.990  39.868  1.00  0.00    -0.237 OA
ATOM     58  O   UNL A   1      38.529  32.307  41.048  1.00  0.00    -0.237 OA
ATOM     59  O   UNL A   1      37.579  34.552  41.416  1.00  0.00    -0.744 OA
ENDBRANCH  52  56
ENDBRANCH  25  49
BRANCH  37  60
ATOM     60  C   UNL A   1      44.199  28.647  35.395  1.00  0.00     0.023 A 
ATOM     61  C   UNL A   1      44.054  27.608  36.331  1.00  0.00     0.031 A 
ATOM     62  C   UNL A   1      45.480  29.196  35.204  1.00  0.00     0.131 A 
ATOM     63  C   UNL A   1      45.162  27.188  37.084  1.00  0.00     0.055 A 
ATOM     64  C   UNL A   1      46.588  28.734  35.915  1.00  0.00     0.041 A 
ATOM     65  F   UNL A   1      45.671  30.192  34.326  1.00  0.00    -0.206 F 
ATOM     66  C   UNL A   1      46.430  27.735  36.871  1.00  0.00     0.022 A 
BRANCH  63  67
ATOM     67  S   UNL A   1      44.903  25.983  38.414  1.00  0.00     0.124 S 
ATOM     68  O   UNL A   1      46.272  25.592  38.739  1.00  0.00    -0.237 OA
ATOM     69  O   UNL A   1      44.208  26.775  39.423  1.00  0.00    -0.237 OA
ATOM     70  O   UNL A   1      44.096  24.942  37.779  1.00  0.00    -0.744 OA
ENDBRANCH  63  67
ENDBRANCH  37  60
ENDBRANCH  11  12
ENDBRANCH   4   6
ENDBRANCH   1   2
BRANCH   1  71
ATOM     71  C   UNL A   1      31.553  31.957  26.605  1.00  0.00     0.042 C 
BRANCH  71  72
ATOM     72  C   UNL A   1      31.732  30.548  26.067  1.00  0.00     0.117 C 
BRANCH  72  73
ATOM     73  N   UNL A   1      31.554  29.533  27.091  1.00  0.00    -0.356 N 
ATOM     74  C   UNL A   1      31.670  28.180  27.005  1.00  0.00     0.226 C 
ATOM     75  H   UNL A   1      31.312  29.875  27.981  1.00  0.00     0.163 HD
ATOM     76  O   UNL A   1      31.401  27.524  28.013  1.00  0.00    -0.275 OA
BRANCH  74  77
ATOM     77  C   UNL A   1      32.028  27.537  25.675  1.00  0.00     0.122 C 
ATOM     78  C   UNL A   1      32.018  26.005  25.774  1.00  0.00     0.122 C 
ATOM     79  C   UNL A   1      33.493  27.795  25.287  1.00  0.00     0.132 C 
ATOM     80  C   UNL A   1      33.423  25.633  25.278  1.00  0.00     0.132 C 
ATOM     81  C   UNL A   1      33.683  27.483  23.803  1.00  0.00     0.035 C 
ATOM     82  O   UNL A   1      34.193  26.685  25.907  1.00  0.00    -0.373 OA
ATOM     83  C   UNL A   1      33.711  25.956  23.811  1.00  0.00     0.035 C 
BRANCH  78  84
ATOM     84  C   UNL A   1      30.964  25.301  24.953  1.00  0.00     0.229 C 
ATOM     85  O   UNL A   1      30.051  25.887  24.380  1.00  0.00    -0.274 OA
ATOM     86  N   UNL A   1      31.263  23.977  24.724  1.00  0.00    -0.339 N 
ATOM     87  C   UNL A   1      31.168  23.424  23.376  1.00  0.00     0.141 C 
ATOM     88  C   UNL A   1      31.220  22.994  25.813  1.00  0.00     0.141 C 
ATOM     89  C   UNL A   1      32.269  22.367  23.161  1.00  0.00     0.138 C 
ATOM     90  C   UNL A   1      32.239  21.860  25.615  1.00  0.00     0.138 C 
ATOM     91  N   UNL A   1      32.184  21.365  24.229  1.00  0.00    -0.368 N 
BRANCH  91  92
ATOM     92  C   UNL A   1      32.353  20.027  23.963  1.00  0.00     0.038 A 
ATOM     93  C   UNL A   1      32.235  19.565  22.644  1.00  0.00     0.026 A 
ATOM     94  C   UNL A   1      32.678  19.104  24.961  1.00  0.00     0.046 A 
ATOM     95  C   UNL A   1      32.458  18.227  22.320  1.00  0.00     0.004 A 
ATOM     96  C   UNL A   1      32.880  17.760  24.642  1.00  0.00     0.043 A 
ATOM     97  C   UNL A   1      32.780  17.318  23.325  1.00  0.00     0.020 A 
ATOM     98  Cl  UNL A   1      33.258  16.634  25.889  1.00  0.00    -0.084 Cl
ENDBRANCH  91  92
ENDBRANCH  78  84
ENDBRANCH  74  77
ENDBRANCH  72  73
ENDBRANCH  71  72
ENDBRANCH   1  71
TORSDOF 15
ENDMDL
MODEL 2
REMARK VINA RESULT:     -13.3      1.085      1.665
REMARK SMILES O=C(NCCCNC(=O)[C@@H]1[C@@H](C(=O)N2CCN(c3cccc(Cl)c3)CC2)[C@H]2CC[C@@H]1O2)c1ccc(-c2c3nc(c(-c4cc(S(=O)(=O)[O-])ccc4F)c4ccc([nH]4)c(-c4cc(S(=O)(=O)[O-])ccc4F)c4nc(c(-c5cc(S(=O)(=O)[O-])ccc5F)c5ccc2[nH]5)C=C4)C=C3)cc1
REMARK SMILES IDX 4 1 3 2 1 3 2 4 32 6 33 7 94 8 34 9 93 10 35 11 36 12 37 13
REMARK SMILES IDX 87 14 38 15 92 16 86 17 88 18 39 19 91 20 85 21 84 22 40 24
REMARK SMILES IDX 72 25 52 26 71 27 53 28 56 29 70 30 89 31 54 32 55 33 69 35
REMARK SMILES IDX 90 36 57 37 41 38 42 39 50 40 43 41 49 42 51 43 48 44 44 45
REMARK SMILES IDX 45 46 46 47 47 48 73 49 74 50 82 51 75 52 81 53 83 54 80 55
REMARK SMILES IDX 76 56 77 57 78 58 79 59 58 60 59 61 67 62 60 63 66 64 68 65
REMARK SMILES IDX 65 66 61 67 62 68 63 69 64 70 5 71 6 72 7 73 8 74 9 76 10 77
REMARK SMILES IDX 11 78 30 79 27 80 29 81 31 82 28 83 12 84 13 85 14 86 15 87
REMARK SMILES IDX 26 88 16 89 25 90 17 91 18 92 19 93 24 94 20 95 22 96 21 97
REMARK SMILES IDX 23 98
REMARK H PARENT 3 5 88 23 56 34 7 75
REMARK Flexibility Score: inf
ROOT
ATOM      1  C   UNL A   1      32.757  32.463  27.278  1.00  0.00     0.118 C 
ENDROOT
BRANCH   1   2
ATOM      2  N   UNL A   1      32.611  33.864  27.652  1.00  0.00    -0.352 N 
ATOM      3  O   UNL A   1      32.852  35.728  28.892  1.00  0.00    -0.269 OA
ATOM      4  C   UNL A   1      33.240  34.590  28.637  1.00  0.00     0.251 C 
ATOM      5  H   UNL A   1      31.959  34.371  27.117  1.00  0.00     0.163 HD
BRANCH   4   6
ATOM      6  C   UNL A   1      34.360  33.999  29.404  1.00  0.00     0.039 A 
ATOM      7  C   UNL A   1      35.682  34.309  29.086  1.00  0.00     0.014 A 
ATOM      8  C   UNL A   1      34.085  33.128  30.462  1.00  0.00     0.014 A 
ATOM      9  C   UNL A   1      36.719  33.609  29.686  1.00  0.00     0.010 A 
ATOM     10  C   UNL A   1      35.138  32.514  31.150  1.00  0.00     0.010 A 
ATOM     11  C   UNL A   1      36.465  32.720  30.743  1.00  0.00    -0.014 A 
BRANCH  11  12
ATOM     12  C   UNL A   1      37.613  32.076  31.435  1.00  0.00     0.031 A 
ATOM     13  C   UNL A   1      38.422  30.999  30.768  1.00  0.00     0.074 A 
ATOM     14  C   UNL A   1      37.946  32.511  32.667  1.00  0.00     0.049 A 
ATOM     15  N   UNL A   1      39.456  30.341  31.228  1.00  0.00    -0.248 NA
ATOM     16  C   UNL A   1      38.014  30.598  29.414  1.00  0.00     0.031 C 
ATOM     17  C   UNL A   1      37.229  33.551  33.413  1.00  0.00     0.029 A 
ATOM     18  N   UNL A   1      38.976  32.162  33.501  1.00  0.00    -0.354 N 
ATOM     19  C   UNL A   1      39.810  29.435  30.234  1.00  0.00     0.074 A 
ATOM     20  C   UNL A   1      38.859  29.609  29.157  1.00  0.00     0.031 C 
ATOM     21  C   UNL A   1      37.873  33.795  34.562  1.00  0.00     0.029 A 
ATOM     22  C   UNL A   1      38.997  32.874  34.678  1.00  0.00     0.049 A 
ATOM     23  H   UNL A   1      39.638  31.467  33.279  1.00  0.00     0.167 HD
ATOM     24  C   UNL A   1      40.838  28.548  30.222  1.00  0.00     0.034 A 
ATOM     25  C   UNL A   1      39.810  32.783  35.746  1.00  0.00     0.034 A 
ATOM     26  C   UNL A   1      41.781  28.397  31.306  1.00  0.00     0.049 A 
ATOM     27  C   UNL A   1      40.919  31.768  35.721  1.00  0.00     0.074 A 
ATOM     28  C   UNL A   1      42.874  27.549  31.387  1.00  0.00     0.029 A 
ATOM     29  N   UNL A   1      41.743  29.104  32.502  1.00  0.00    -0.354 N 
ATOM     30  N   UNL A   1      41.239  30.923  34.769  1.00  0.00    -0.248 NA
ATOM     31  C   UNL A   1      41.772  31.694  36.911  1.00  0.00     0.031 C 
ATOM     32  C   UNL A   1      43.455  27.697  32.652  1.00  0.00     0.029 A 
ATOM     33  C   UNL A   1      42.773  28.690  33.336  1.00  0.00     0.049 A 
ATOM     34  H   UNL A   1      41.082  29.799  32.725  1.00  0.00     0.167 HD
ATOM     35  C   UNL A   1      42.345  30.225  35.243  1.00  0.00     0.074 A 
ATOM     36  C   UNL A   1      42.647  30.766  36.552  1.00  0.00     0.031 C 
ATOM     37  C   UNL A   1      43.047  29.227  34.649  1.00  0.00     0.034 A 
BRANCH  24  38
ATOM     38  C   UNL A   1      40.963  27.640  29.021  1.00  0.00     0.023 A 
ATOM     39  C   UNL A   1      41.953  27.832  28.042  1.00  0.00     0.031 A 
ATOM     40  C   UNL A   1      40.065  26.570  28.847  1.00  0.00     0.131 A 
ATOM     41  C   UNL A   1      41.983  27.011  26.904  1.00  0.00     0.055 A 
ATOM     42  C   UNL A   1      40.148  25.710  27.749  1.00  0.00     0.041 A 
ATOM     43  F   UNL A   1      39.086  26.347  29.737  1.00  0.00    -0.206 F 
ATOM     44  C   UNL A   1      41.102  25.936  26.762  1.00  0.00     0.022 A 
BRANCH  41  45
ATOM     45  S   UNL A   1      43.105  27.447  25.546  1.00  0.00     0.124 S 
ATOM     46  O   UNL A   1      42.218  28.197  24.659  1.00  0.00    -0.237 OA
ATOM     47  O   UNL A   1      44.134  28.225  26.225  1.00  0.00    -0.237 OA
ATOM     48  O   UNL A   1      43.539  26.152  25.029  1.00  0.00    -0.744 OA
ENDBRANCH  41  45
ENDBRANCH  24  38
BRANCH  25  49
ATOM     49  C   UNL A   1      39.579  33.645  36.938  1.00  0.00     0.023 A 
ATOM     50  C   UNL A   1      38.928  33.152  38.078  1.00  0.00     0.031 A 
ATOM     51  C   UNL A   1      39.997  34.989  36.946  1.00  0.00     0.131 A 
ATOM     52  C   UNL A   1      38.681  34.005  39.165  1.00  0.00     0.055 A 
ATOM     53  C   UNL A   1      39.797  35.818  38.050  1.00  0.00     0.041 A 
ATOM     54  F   UNL A   1      40.629  35.510  35.882  1.00  0.00    -0.206 F 
ATOM     55  C   UNL A   1      39.124  35.329  39.164  1.00  0.00     0.022 A 
BRANCH  52  56
ATOM     56  S   UNL A   1      37.701  33.377  40.555  1.00  0.00     0.124 S 
ATOM     57  O   UNL A   1      37.476  34.590  41.334  1.00  0.00    -0.237 OA
ATOM     58  O   UNL A   1      36.533  32.824  39.877  1.00  0.00    -0.237 OA
ATOM     59  O   UNL A   1      38.584  32.392  41.175  1.00  0.00    -0.744 OA
ENDBRANCH  52  56
ENDBRANCH  25  49
BRANCH  37  60
ATOM     60  C   UNL A   1      44.232  28.690  35.410  1.00  0.00     0.023 A 
ATOM     61  C   UNL A   1      44.099  27.636  36.331  1.00  0.00     0.031 A 
ATOM     62  C   UNL A   1      45.504  29.262  35.235  1.00  0.00     0.131 A 
ATOM     63  C   UNL A   1      45.209  27.225  37.086  1.00  0.00     0.055 A 
ATOM     64  C   UNL A   1      46.616  28.810  35.947  1.00  0.00     0.041 A 
ATOM     65  F   UNL A   1      45.685  30.274  34.371  1.00  0.00    -0.206 F 
ATOM     66  C   UNL A   1      46.469  27.796  36.888  1.00  0.00     0.022 A 
BRANCH  63  67
ATOM     67  S   UNL A   1      44.963  25.998  38.398  1.00  0.00     0.124 S 
ATOM     68  O   UNL A   1      46.275  25.970  39.038  1.00  0.00    -0.237 OA
ATOM     69  O   UNL A   1      43.884  26.589  39.181  1.00  0.00    -0.237 OA
ATOM     70  O   UNL A   1      44.604  24.783  37.668  1.00  0.00    -0.744 OA
ENDBRANCH  63  67
ENDBRANCH  37  60
ENDBRANCH  11  12
ENDBRANCH   4   6
ENDBRANCH   1   2
BRANCH   1  71
ATOM     71  C   UNL A   1      31.543  31.907  26.549  1.00  0.00     0.042 C 
BRANCH  71  72
ATOM     72  C   UNL A   1      31.610  30.413  26.283  1.00  0.00     0.117 C 
BRANCH  72  73
ATOM     73  N   UNL A   1      32.477  30.083  25.165  1.00  0.00    -0.356 N 
ATOM     74  C   UNL A   1      32.451  29.009  24.329  1.00  0.00     0.226 C 
ATOM     75  H   UNL A   1      33.193  30.734  24.985  1.00  0.00     0.163 HD
ATOM     76  O   UNL A   1      33.348  28.924  23.489  1.00  0.00    -0.275 OA
BRANCH  74  77
ATOM     77  C   UNL A   1      31.396  27.932  24.520  1.00  0.00     0.122 C 
ATOM     78  C   UNL A   1      31.998  26.528  24.366  1.00  0.00     0.122 C 
ATOM     79  C   UNL A   1      30.361  27.932  23.385  1.00  0.00     0.132 C 
ATOM     80  C   UNL A   1      31.108  25.905  23.280  1.00  0.00     0.132 C 
ATOM     81  C   UNL A   1      29.137  27.126  23.818  1.00  0.00     0.035 C 
ATOM     82  O   UNL A   1      30.957  27.045  22.403  1.00  0.00    -0.373 OA
ATOM     83  C   UNL A   1      29.644  25.693  23.669  1.00  0.00     0.035 C 
BRANCH  78  84
ATOM     84  C   UNL A   1      31.992  25.671  25.610  1.00  0.00     0.229 C 
ATOM     85  O   UNL A   1      31.375  25.963  26.629  1.00  0.00    -0.274 OA
ATOM     86  N   UNL A   1      32.551  24.429  25.406  1.00  0.00    -0.339 N 
ATOM     87  C   UNL A   1      31.858  23.227  25.857  1.00  0.00     0.141 C 
ATOM     88  C   UNL A   1      33.994  24.280  25.183  1.00  0.00     0.141 C 
ATOM     89  C   UNL A   1      32.110  22.071  24.869  1.00  0.00     0.138 C 
ATOM     90  C   UNL A   1      34.323  23.086  24.271  1.00  0.00     0.138 C 
ATOM     91  N   UNL A   1      33.557  21.901  24.692  1.00  0.00    -0.368 N 
BRANCH  91  92
ATOM     92  C   UNL A   1      34.121  20.650  24.623  1.00  0.00     0.038 A 
ATOM     93  C   UNL A   1      35.485  20.489  24.908  1.00  0.00     0.026 A 
ATOM     94  C   UNL A   1      33.372  19.511  24.312  1.00  0.00     0.046 A 
ATOM     95  C   UNL A   1      36.084  19.230  24.909  1.00  0.00     0.004 A 
ATOM     96  C   UNL A   1      33.976  18.252  24.290  1.00  0.00     0.043 A 
ATOM     97  C   UNL A   1      35.326  18.105  24.596  1.00  0.00     0.020 A 
ATOM     98  Cl  UNL A   1      33.040  16.864  23.884  1.00  0.00    -0.084 Cl
ENDBRANCH  91  92
ENDBRANCH  78  84
ENDBRANCH  74  77
ENDBRANCH  72  73
ENDBRANCH  71  72
ENDBRANCH   1  71
TORSDOF 15
ENDMDL
MODEL 3
REMARK VINA RESULT:     -13.2      5.930     11.784
REMARK SMILES O=C(NCCCNC(=O)[C@@H]1[C@@H](C(=O)N2CCN(c3cccc(Cl)c3)CC2)[C@H]2CC[C@@H]1O2)c1ccc(-c2c3nc(c(-c4cc(S(=O)(=O)[O-])ccc4F)c4ccc([nH]4)c(-c4cc(S(=O)(=O)[O-])ccc4F)c4nc(c(-c5cc(S(=O)(=O)[O-])ccc5F)c5ccc2[nH]5)C=C4)C=C3)cc1
REMARK SMILES IDX 4 1 3 2 1 3 2 4 32 6 33 7 94 8 34 9 93 10 35 11 36 12 37 13
REMARK SMILES IDX 87 14 38 15 92 16 86 17 88 18 39 19 91 20 85 21 84 22 40 24
REMARK SMILES IDX 72 25 52 26 71 27 53 28 56 29 70 30 89 31 54 32 55 33 69 35
REMARK SMILES IDX 90 36 57 37 41 38 42 39 50 40 43 41 49 42 51 43 48 44 44 45
REMARK SMILES IDX 45 46 46 47 47 48 73 49 74 50 82 51 75 52 81 53 83 54 80 55
REMARK SMILES IDX 76 56 77 57 78 58 79 59 58 60 59 61 67 62 60 63 66 64 68 65
REMARK SMILES IDX 65 66 61 67 62 68 63 69 64 70 5 71 6 72 7 73 8 74 9 76 10 77
REMARK SMILES IDX 11 78 30 79 27 80 29 81 31 82 28 83 12 84 13 85 14 86 15 87
REMARK SMILES IDX 26 88 16 89 25 90 17 91 18 92 19 93 24 94 20 95 22 96 21 97
REMARK SMILES IDX 23 98
REMARK H PARENT 3 5 88 23 56 34 7 75
REMARK Flexibility Score: inf
ROOT
ATOM      1  C   UNL A   1      39.402  20.162  25.774  1.00  0.00     0.118 C 
ENDROOT
BRANCH   1   2
ATOM      2  N   UNL A   1      40.447  19.174  26.006  1.00  0.00    -0.352 N 
ATOM      3  O   UNL A   1      42.533  18.363  26.259  1.00  0.00    -0.269 OA
ATOM      4  C   UNL A   1      41.791  19.343  26.249  1.00  0.00     0.251 C 
ATOM      5  H   UNL A   1      40.145  18.237  25.985  1.00  0.00     0.163 HD
BRANCH   4   6
ATOM      6  C   UNL A   1      42.346  20.696  26.474  1.00  0.00     0.039 A 
ATOM      7  C   UNL A   1      42.453  21.218  27.762  1.00  0.00     0.014 A 
ATOM      8  C   UNL A   1      42.776  21.453  25.380  1.00  0.00     0.014 A 
ATOM      9  C   UNL A   1      42.799  22.550  27.943  1.00  0.00     0.010 A 
ATOM     10  C   UNL A   1      43.243  22.758  25.576  1.00  0.00     0.010 A 
ATOM     11  C   UNL A   1      43.222  23.332  26.856  1.00  0.00    -0.014 A 
BRANCH  11  12
ATOM     12  C   UNL A   1      43.694  24.720  27.108  1.00  0.00     0.031 A 
ATOM     13  C   UNL A   1      42.771  25.769  27.662  1.00  0.00     0.074 A 
ATOM     14  C   UNL A   1      44.989  25.011  26.869  1.00  0.00     0.049 A 
ATOM     15  N   UNL A   1      43.024  27.022  27.946  1.00  0.00    -0.248 NA
ATOM     16  C   UNL A   1      41.381  25.367  27.922  1.00  0.00     0.031 C 
ATOM     17  C   UNL A   1      45.975  24.071  26.327  1.00  0.00     0.029 A 
ATOM     18  N   UNL A   1      45.708  26.161  27.068  1.00  0.00    -0.354 N 
ATOM     19  C   UNL A   1      41.826  27.565  28.396  1.00  0.00     0.074 A 
ATOM     20  C   UNL A   1      40.837  26.510  28.319  1.00  0.00     0.031 C 
ATOM     21  C   UNL A   1      47.177  24.661  26.294  1.00  0.00     0.029 A 
ATOM     22  C   UNL A   1      47.036  26.045  26.729  1.00  0.00     0.049 A 
ATOM     23  H   UNL A   1      45.311  26.991  27.420  1.00  0.00     0.167 HD
ATOM     24  C   UNL A   1      41.578  28.825  28.839  1.00  0.00     0.034 A 
ATOM     25  C   UNL A   1      48.028  26.954  26.739  1.00  0.00     0.034 A 
ATOM     26  C   UNL A   1      42.582  29.860  28.916  1.00  0.00     0.049 A 
ATOM     27  C   UNL A   1      47.719  28.351  27.201  1.00  0.00     0.074 A 
ATOM     28  C   UNL A   1      42.447  31.161  29.373  1.00  0.00     0.029 A 
ATOM     29  N   UNL A   1      43.907  29.719  28.520  1.00  0.00    -0.354 N 
ATOM     30  N   UNL A   1      46.579  28.843  27.627  1.00  0.00    -0.248 NA
ATOM     31  C   UNL A   1      48.826  29.312  27.183  1.00  0.00     0.031 C 
ATOM     32  C   UNL A   1      43.668  31.821  29.194  1.00  0.00     0.029 A 
ATOM     33  C   UNL A   1      44.590  30.915  28.695  1.00  0.00     0.049 A 
ATOM     34  H   UNL A   1      44.304  28.890  28.168  1.00  0.00     0.167 HD
ATOM     35  C   UNL A   1      46.838  30.173  27.942  1.00  0.00     0.074 A 
ATOM     36  C   UNL A   1      48.246  30.395  27.679  1.00  0.00     0.031 C 
ATOM     37  C   UNL A   1      45.989  31.124  28.407  1.00  0.00     0.034 A 
BRANCH  24  38
ATOM     38  C   UNL A   1      40.157  29.162  29.227  1.00  0.00     0.023 A 
ATOM     39  C   UNL A   1      39.744  29.216  30.569  1.00  0.00     0.031 A 
ATOM     40  C   UNL A   1      39.196  29.423  28.232  1.00  0.00     0.131 A 
ATOM     41  C   UNL A   1      38.396  29.458  30.879  1.00  0.00     0.055 A 
ATOM     42  C   UNL A   1      37.873  29.737  28.550  1.00  0.00     0.041 A 
ATOM     43  F   UNL A   1      39.525  29.368  26.932  1.00  0.00    -0.206 F 
ATOM     44  C   UNL A   1      37.462  29.743  29.880  1.00  0.00     0.022 A 
BRANCH  41  45
ATOM     45  S   UNL A   1      37.852  29.265  32.598  1.00  0.00     0.124 S 
ATOM     46  O   UNL A   1      38.955  29.884  33.330  1.00  0.00    -0.237 OA
ATOM     47  O   UNL A   1      36.589  29.992  32.613  1.00  0.00    -0.237 OA
ATOM     48  O   UNL A   1      37.741  27.817  32.764  1.00  0.00    -0.744 OA
ENDBRANCH  41  45
ENDBRANCH  24  38
BRANCH  25  49
ATOM     49  C   UNL A   1      49.388  26.583  26.259  1.00  0.00     0.023 A 
ATOM     50  C   UNL A   1      49.867  27.024  25.017  1.00  0.00     0.031 A 
ATOM     51  C   UNL A   1      50.226  25.762  27.037  1.00  0.00     0.131 A 
ATOM     52  C   UNL A   1      51.134  26.614  24.572  1.00  0.00     0.055 A 
ATOM     53  C   UNL A   1      51.505  25.402  26.614  1.00  0.00     0.041 A 
ATOM     54  F   UNL A   1      49.818  25.317  28.235  1.00  0.00    -0.206 F 
ATOM     55  C   UNL A   1      51.961  25.819  25.368  1.00  0.00     0.022 A 
BRANCH  52  56
ATOM     56  S   UNL A   1      51.656  27.075  22.898  1.00  0.00     0.124 S 
ATOM     57  O   UNL A   1      50.376  27.186  22.206  1.00  0.00    -0.237 OA
ATOM     58  O   UNL A   1      52.368  28.326  23.136  1.00  0.00    -0.237 OA
ATOM     59  O   UNL A   1      52.494  25.952  22.482  1.00  0.00    -0.744 OA
ENDBRANCH  52  56
ENDBRANCH  25  49
BRANCH  37  60
ATOM     60  C   UNL A   1      46.585  32.480  28.691  1.00  0.00     0.023 A 
ATOM     61  C   UNL A   1      46.747  33.439  27.676  1.00  0.00     0.031 A 
ATOM     62  C   UNL A   1      47.027  32.802  29.986  1.00  0.00     0.131 A 
ATOM     63  C   UNL A   1      47.388  34.655  27.962  1.00  0.00     0.055 A 
ATOM     64  C   UNL A   1      47.611  34.035  30.276  1.00  0.00     0.041 A 
ATOM     65  F   UNL A   1      46.899  31.920  30.990  1.00  0.00    -0.206 F 
ATOM     66  C   UNL A   1      47.808  34.964  29.258  1.00  0.00     0.022 A 
BRANCH  63  67
ATOM     67  S   UNL A   1      47.753  35.789  26.594  1.00  0.00     0.124 S 
ATOM     68  O   UNL A   1      46.694  36.783  26.734  1.00  0.00    -0.237 OA
ATOM     69  O   UNL A   1      49.101  36.243  26.915  1.00  0.00    -0.237 OA
ATOM     70  O   UNL A   1      47.651  34.939  25.409  1.00  0.00    -0.744 OA
ENDBRANCH  63  67
ENDBRANCH  37  60
ENDBRANCH  11  12
ENDBRANCH   4   6
ENDBRANCH   1   2
BRANCH   1  71
ATOM     71  C   UNL A   1      38.184  19.593  25.061  1.00  0.00     0.042 C 
BRANCH  71  72
ATOM     72  C   UNL A   1      37.004  20.545  24.992  1.00  0.00     0.117 C 
BRANCH  72  73
ATOM     73  N   UNL A   1      37.185  21.587  23.995  1.00  0.00    -0.356 N 
ATOM     74  C   UNL A   1      36.370  22.625  23.662  1.00  0.00     0.226 C 
ATOM     75  H   UNL A   1      38.023  21.535  23.483  1.00  0.00     0.163 HD
ATOM     76  O   UNL A   1      36.723  23.343  22.725  1.00  0.00    -0.275 OA
BRANCH  74  77
ATOM     77  C   UNL A   1      35.042  22.800  24.380  1.00  0.00     0.122 C 
ATOM     78  C   UNL A   1      34.241  23.972  23.795  1.00  0.00     0.122 C 
ATOM     79  C   UNL A   1      35.228  23.270  25.831  1.00  0.00     0.132 C 
ATOM     80  C   UNL A   1      33.969  24.838  25.034  1.00  0.00     0.132 C 
ATOM     81  C   UNL A   1      33.928  23.049  26.603  1.00  0.00     0.035 C 
ATOM     82  O   UNL A   1      35.246  24.715  25.704  1.00  0.00    -0.373 OA
ATOM     83  C   UNL A   1      33.068  24.204  26.095  1.00  0.00     0.035 C 
BRANCH  78  84
ATOM     84  C   UNL A   1      32.945  23.606  23.111  1.00  0.00     0.229 C 
ATOM     85  O   UNL A   1      32.632  22.454  22.828  1.00  0.00    -0.274 OA
ATOM     86  N   UNL A   1      32.059  24.658  23.049  1.00  0.00    -0.339 N 
ATOM     87  C   UNL A   1      30.668  24.472  23.451  1.00  0.00     0.141 C 
ATOM     88  C   UNL A   1      32.316  25.810  22.177  1.00  0.00     0.141 C 
ATOM     89  C   UNL A   1      30.137  25.755  24.121  1.00  0.00     0.138 C 
ATOM     90  C   UNL A   1      31.733  27.114  22.747  1.00  0.00     0.138 C 
ATOM     91  N   UNL A   1      30.356  26.891  23.219  1.00  0.00    -0.368 N 
BRANCH  91  92
ATOM     92  C   UNL A   1      29.402  27.869  23.065  1.00  0.00     0.038 A 
ATOM     93  C   UNL A   1      28.074  27.603  23.428  1.00  0.00     0.026 A 
ATOM     94  C   UNL A   1      29.715  29.146  22.590  1.00  0.00     0.046 A 
ATOM     95  C   UNL A   1      27.087  28.585  23.345  1.00  0.00     0.004 A 
ATOM     96  C   UNL A   1      28.724  30.123  22.485  1.00  0.00     0.043 A 
ATOM     97  C   UNL A   1      27.413  29.852  22.869  1.00  0.00     0.020 A 
ATOM     98  Cl  UNL A   1      29.125  31.684  21.877  1.00  0.00    -0.084 Cl
ENDBRANCH  91  92
ENDBRANCH  78  84
ENDBRANCH  74  77
ENDBRANCH  72  73
ENDBRANCH  71  72
ENDBRANCH   1  71
TORSDOF 15
ENDMDL
