MODEL 1
REMARK VINA RESULT:     -12.8      0.000      0.000
REMARK SMILES COc1cc(F)ccc1-c1ccc(=O)n(CC(=O)NCc2ccc(C(=O)NCCCNC(=O)c3ccc(-c4c5nc(c(-c6cc(S(=O)(=O)[O-])ccc6F)c6ccc([nH]6)c(-c6cc(S(=O)(=O)[O-])ccc6F)c6nc(c(-c7cc(S(=O)(=O)[O-])ccc7F)c7ccc4[nH]7)C=C6)C=C5)cc3)cc2)n1
REMARK SMILES IDX 25 1 26 2 27 3 24 5 21 6 22 7 98 8 23 9 97 10 20 11 19 12
REMARK SMILES IDX 17 13 18 14 16 16 15 17 10 18 11 19 99 20 12 21 13 22 14 23
REMARK SMILES IDX 9 24 3 25 4 26 5 27 8 28 6 29 7 30 2 31 1 32 28 33 29 34
REMARK SMILES IDX 30 35 31 36 32 37 33 39 34 40 35 41 96 42 36 43 95 44 37 45
REMARK SMILES IDX 38 46 39 47 89 48 40 49 94 50 88 51 90 52 41 53 93 54 87 55
REMARK SMILES IDX 86 56 42 58 74 59 54 60 73 61 55 62 58 63 72 64 91 65 56 66
REMARK SMILES IDX 57 67 71 69 92 70 59 71 43 72 44 73 52 74 45 75 51 76 53 77
REMARK SMILES IDX 50 78 46 79 47 80 48 81 49 82 75 83 76 84 84 85 77 86 83 87
REMARK SMILES IDX 85 88 82 89 78 90 79 91 80 92 81 93 60 94 61 95 69 96 62 97
REMARK SMILES IDX 68 98 70 99 67 100 63 101 64 102 65 103 66 104
REMARK H PARENT 27 4 19 15 31 38 90 57 58 68
REMARK Flexibility Score: inf
ROOT
ATOM      1  C   UNL A   1      34.070  20.041  24.634  1.00  0.00     0.251 C 
ATOM      2  O   UNL A   1      33.309  19.081  24.761  1.00  0.00    -0.269 OA
ATOM      3  N   UNL A   1      35.372  19.902  25.057  1.00  0.00    -0.352 N 
ATOM      4  H   UNL A   1      35.576  19.001  25.398  1.00  0.00     0.163 HD
ENDROOT
BRANCH   1   5
ATOM      5  C   UNL A   1      33.540  21.297  24.051  1.00  0.00     0.039 A 
ATOM      6  C   UNL A   1      32.566  23.608  22.750  1.00  0.00    -0.029 A 
ATOM      7  C   UNL A   1      33.940  23.365  22.808  1.00  0.00     0.006 A 
ATOM      8  C   UNL A   1      31.722  22.714  23.400  1.00  0.00     0.006 A 
ATOM      9  C   UNL A   1      34.422  22.206  23.442  1.00  0.00     0.014 A 
ATOM     10  C   UNL A   1      32.197  21.623  24.110  1.00  0.00     0.014 A 
BRANCH   6  11
ATOM     11  C   UNL A   1      31.955  24.769  22.006  1.00  0.00     0.151 C 
BRANCH  11  12
ATOM     12  N   UNL A   1      32.967  25.724  21.613  1.00  0.00    -0.350 N 
ATOM     13  C   UNL A   1      33.128  27.038  21.936  1.00  0.00     0.242 C 
ATOM     14  O   UNL A   1      34.241  27.520  21.701  1.00  0.00    -0.273 OA
ATOM     15  H   UNL A   1      33.655  25.365  21.009  1.00  0.00     0.163 HD
BRANCH  13  16
ATOM     16  C   UNL A   1      32.082  27.839  22.724  1.00  0.00     0.248 C 
BRANCH  16  17
ATOM     17  N   UNL A   1      32.013  27.561  24.156  1.00  0.00    -0.220 N 
ATOM     18  C   UNL A   1      32.484  26.122  25.872  1.00  0.00     0.095 A 
ATOM     19  C   UNL A   1      31.930  27.037  26.890  1.00  0.00     0.037 A 
ATOM     20  N   UNL A   1      32.533  26.354  24.597  1.00  0.00    -0.169 NA
ATOM     21  C   UNL A   1      31.482  28.211  26.445  1.00  0.00     0.075 A 
ATOM     22  C   UNL A   1      31.537  28.554  25.006  1.00  0.00     0.267 A 
ATOM     23  O   UNL A   1      31.135  29.654  24.649  1.00  0.00    -0.268 OA
BRANCH  18  24
ATOM     24  C   UNL A   1      32.962  24.829  26.388  1.00  0.00     0.044 A 
ATOM     25  C   UNL A   1      32.064  23.939  26.982  1.00  0.00     0.131 A 
ATOM     26  C   UNL A   1      32.526  22.725  27.487  1.00  0.00     0.086 A 
ATOM     27  C   UNL A   1      33.885  22.431  27.416  1.00  0.00     0.126 A 
ATOM     28  C   UNL A   1      34.329  24.528  26.322  1.00  0.00     0.017 A 
ATOM     29  F   UNL A   1      34.330  21.267  27.907  1.00  0.00    -0.207 F 
ATOM     30  C   UNL A   1      34.790  23.319  26.840  1.00  0.00     0.040 A 
BRANCH  25  31
ATOM     31  O   UNL A   1      30.726  24.230  26.974  1.00  0.00    -0.496 OA
ATOM     32  C   UNL A   1      29.936  23.041  26.972  1.00  0.00     0.278 C 
ENDBRANCH  25  31
ENDBRANCH  18  24
ENDBRANCH  16  17
ENDBRANCH  13  16
ENDBRANCH  11  12
ENDBRANCH   6  11
ENDBRANCH   1   5
BRANCH   3  33
ATOM     33  C   UNL A   1      36.518  20.810  25.110  1.00  0.00     0.118 C 
BRANCH  33  34
ATOM     34  C   UNL A   1      37.854  20.145  24.821  1.00  0.00     0.042 C 
BRANCH  34  35
ATOM     35  C   UNL A   1      38.961  20.507  25.796  1.00  0.00     0.118 C 
BRANCH  35  36
ATOM     36  N   UNL A   1      39.974  19.466  25.935  1.00  0.00    -0.352 N 
ATOM     37  C   UNL A   1      41.341  19.529  26.113  1.00  0.00     0.251 C 
ATOM     38  H   UNL A   1      39.617  18.549  25.896  1.00  0.00     0.163 HD
ATOM     39  O   UNL A   1      41.995  18.496  26.051  1.00  0.00    -0.269 OA
BRANCH  37  40
ATOM     40  C   UNL A   1      42.026  20.826  26.337  1.00  0.00     0.039 A 
ATOM     41  C   UNL A   1      42.363  21.255  27.616  1.00  0.00     0.014 A 
ATOM     42  C   UNL A   1      42.351  21.629  25.236  1.00  0.00     0.014 A 
ATOM     43  C   UNL A   1      42.796  22.560  27.819  1.00  0.00     0.010 A 
ATOM     44  C   UNL A   1      42.908  22.900  25.436  1.00  0.00     0.010 A 
ATOM     45  C   UNL A   1      43.076  23.404  26.734  1.00  0.00    -0.014 A 
BRANCH  45  46
ATOM     46  C   UNL A   1      43.528  24.801  26.996  1.00  0.00     0.031 A 
ATOM     47  C   UNL A   1      42.587  25.812  27.605  1.00  0.00     0.074 A 
ATOM     48  C   UNL A   1      44.813  25.137  26.759  1.00  0.00     0.049 A 
ATOM     49  N   UNL A   1      42.810  27.069  27.894  1.00  0.00    -0.248 NA
ATOM     50  C   UNL A   1      41.221  25.364  27.924  1.00  0.00     0.031 C 
ATOM     51  C   UNL A   1      45.826  24.246  26.184  1.00  0.00     0.029 A 
ATOM     52  N   UNL A   1      45.502  26.300  27.000  1.00  0.00    -0.354 N 
ATOM     53  C   UNL A   1      41.613  27.567  28.397  1.00  0.00     0.074 A 
ATOM     54  C   UNL A   1      40.658  26.482  28.362  1.00  0.00     0.031 C 
ATOM     55  C   UNL A   1      47.013  24.868  26.182  1.00  0.00     0.029 A 
ATOM     56  C   UNL A   1      46.838  26.230  26.673  1.00  0.00     0.049 A 
ATOM     57  H   UNL A   1      45.081  27.108  27.372  1.00  0.00     0.167 HD
ATOM     58  C   UNL A   1      41.339  28.813  28.851  1.00  0.00     0.034 A 
ATOM     59  C   UNL A   1      47.812  27.160  26.735  1.00  0.00     0.034 A 
ATOM     60  C   UNL A   1      42.307  29.876  28.937  1.00  0.00     0.049 A 
ATOM     61  C   UNL A   1      47.474  28.536  27.236  1.00  0.00     0.074 A 
ATOM     62  C   UNL A   1      42.127  31.161  29.418  1.00  0.00     0.029 A 
ATOM     63  N   UNL A   1      43.633  29.776  28.548  1.00  0.00    -0.354 N 
ATOM     64  N   UNL A   1      46.321  28.992  27.667  1.00  0.00    -0.248 NA
ATOM     65  C   UNL A   1      48.558  29.527  27.248  1.00  0.00     0.031 C 
ATOM     66  C   UNL A   1      43.331  31.855  29.273  1.00  0.00     0.029 A 
ATOM     67  C   UNL A   1      44.278  30.984  28.758  1.00  0.00     0.049 A 
ATOM     68  H   UNL A   1      44.056  28.967  28.179  1.00  0.00     0.167 HD
ATOM     69  C   UNL A   1      46.544  30.321  28.006  1.00  0.00     0.074 A 
ATOM     70  C   UNL A   1      47.943  30.590  27.748  1.00  0.00     0.031 C 
ATOM     71  C   UNL A   1      45.669  31.237  28.484  1.00  0.00     0.034 A 
BRANCH  58  72
ATOM     72  C   UNL A   1      39.927  29.125  29.270  1.00  0.00     0.023 A 
ATOM     73  C   UNL A   1      39.544  29.144  30.620  1.00  0.00     0.031 A 
ATOM     74  C   UNL A   1      38.977  29.490  28.300  1.00  0.00     0.131 A 
ATOM     75  C   UNL A   1      38.233  29.510  30.963  1.00  0.00     0.055 A 
ATOM     76  C   UNL A   1      37.688  29.896  28.651  1.00  0.00     0.041 A 
ATOM     77  F   UNL A   1      39.294  29.477  26.996  1.00  0.00    -0.206 F 
ATOM     78  C   UNL A   1      37.310  29.908  29.990  1.00  0.00     0.022 A 
BRANCH  75  79
ATOM     79  S   UNL A   1      37.731  29.437  32.702  1.00  0.00     0.124 S 
ATOM     80  O   UNL A   1      37.611  27.996  32.904  1.00  0.00    -0.237 OA
ATOM     81  O   UNL A   1      38.844  30.088  33.383  1.00  0.00    -0.237 OA
ATOM     82  O   UNL A   1      36.471  30.176  32.725  1.00  0.00    -0.744 OA
ENDBRANCH  75  79
ENDBRANCH  58  72
BRANCH  59  83
ATOM     83  C   UNL A   1      49.185  26.836  26.253  1.00  0.00     0.023 A 
ATOM     84  C   UNL A   1      49.690  27.384  25.063  1.00  0.00     0.031 A 
ATOM     85  C   UNL A   1      50.007  25.953  26.976  1.00  0.00     0.131 A 
ATOM     86  C   UNL A   1      50.972  27.023  24.620  1.00  0.00     0.055 A 
ATOM     87  C   UNL A   1      51.298  25.635  26.556  1.00  0.00     0.041 A 
ATOM     88  F   UNL A   1      49.571  25.405  28.121  1.00  0.00    -0.206 F 
ATOM     89  C   UNL A   1      51.784  26.165  25.366  1.00  0.00     0.022 A 
BRANCH  86  90
ATOM     90  S   UNL A   1      51.550  27.650  23.020  1.00  0.00     0.124 S 
ATOM     91  O   UNL A   1      50.924  26.716  22.091  1.00  0.00    -0.237 OA
ATOM     92  O   UNL A   1      51.023  29.011  23.017  1.00  0.00    -0.237 OA
ATOM     93  O   UNL A   1      53.004  27.549  23.120  1.00  0.00    -0.744 OA
ENDBRANCH  86  90
ENDBRANCH  59  83
BRANCH  71  94
ATOM     94  C   UNL A   1      46.202  32.611  28.783  1.00  0.00     0.023 A 
ATOM     95  C   UNL A   1      46.167  33.631  27.821  1.00  0.00     0.031 A 
ATOM     96  C   UNL A   1      46.712  32.908  30.058  1.00  0.00     0.131 A 
ATOM     97  C   UNL A   1      46.662  34.904  28.140  1.00  0.00     0.055 A 
ATOM     98  C   UNL A   1      47.162  34.187  30.385  1.00  0.00     0.041 A 
ATOM     99  F   UNL A   1      46.761  31.964  31.011  1.00  0.00    -0.206 F 
ATOM    100  C   UNL A   1      47.144  35.192  29.420  1.00  0.00     0.022 A 
BRANCH  97 101
ATOM    101  S   UNL A   1      46.693  36.177  26.850  1.00  0.00     0.124 S 
ATOM    102  O   UNL A   1      45.719  37.141  27.353  1.00  0.00    -0.237 OA
ATOM    103  O   UNL A   1      48.086  36.611  26.867  1.00  0.00    -0.237 OA
ATOM    104  O   UNL A   1      46.286  35.455  25.646  1.00  0.00    -0.744 OA
ENDBRANCH  97 101
ENDBRANCH  71  94
ENDBRANCH  45  46
ENDBRANCH  37  40
ENDBRANCH  35  36
ENDBRANCH  34  35
ENDBRANCH  33  34
ENDBRANCH   3  33
TORSDOF 19
ENDMDL
MODEL 2
REMARK VINA RESULT:     -12.7      1.418      7.274
REMARK SMILES COc1cc(F)ccc1-c1ccc(=O)n(CC(=O)NCc2ccc(C(=O)NCCCNC(=O)c3ccc(-c4c5nc(c(-c6cc(S(=O)(=O)[O-])ccc6F)c6ccc([nH]6)c(-c6cc(S(=O)(=O)[O-])ccc6F)c6nc(c(-c7cc(S(=O)(=O)[O-])ccc7F)c7ccc4[nH]7)C=C6)C=C5)cc3)cc2)n1
REMARK SMILES IDX 25 1 26 2 27 3 24 5 21 6 22 7 98 8 23 9 97 10 20 11 19 12
REMARK SMILES IDX 17 13 18 14 16 16 15 17 10 18 11 19 99 20 12 21 13 22 14 23
REMARK SMILES IDX 9 24 3 25 4 26 5 27 8 28 6 29 7 30 2 31 1 32 28 33 29 34
REMARK SMILES IDX 30 35 31 36 32 37 33 39 34 40 35 41 96 42 36 43 95 44 37 45
REMARK SMILES IDX 38 46 39 47 89 48 40 49 94 50 88 51 90 52 41 53 93 54 87 55
REMARK SMILES IDX 86 56 42 58 74 59 54 60 73 61 55 62 58 63 72 64 91 65 56 66
REMARK SMILES IDX 57 67 71 69 92 70 59 71 43 72 44 73 52 74 45 75 51 76 53 77
REMARK SMILES IDX 50 78 46 79 47 80 48 81 49 82 75 83 76 84 84 85 77 86 83 87
REMARK SMILES IDX 85 88 82 89 78 90 79 91 80 92 81 93 60 94 61 95 69 96 62 97
REMARK SMILES IDX 68 98 70 99 67 100 63 101 64 102 65 103 66 104
REMARK H PARENT 27 4 19 15 31 38 90 57 58 68
REMARK Flexibility Score: inf
ROOT
ATOM      1  C   UNL A   1      33.975  20.138  24.603  1.00  0.00     0.251 C 
ATOM      2  O   UNL A   1      33.179  19.217  24.786  1.00  0.00    -0.269 OA
ATOM      3  N   UNL A   1      35.279  19.963  25.003  1.00  0.00    -0.352 N 
ATOM      4  H   UNL A   1      35.455  19.069  25.376  1.00  0.00     0.163 HD
ENDROOT
BRANCH   1   5
ATOM      5  C   UNL A   1      33.483  21.391  23.979  1.00  0.00     0.039 A 
ATOM      6  C   UNL A   1      32.590  23.692  22.604  1.00  0.00    -0.029 A 
ATOM      7  C   UNL A   1      33.958  23.442  22.736  1.00  0.00     0.006 A 
ATOM      8  C   UNL A   1      31.708  22.808  23.220  1.00  0.00     0.006 A 
ATOM      9  C   UNL A   1      34.400  22.288  23.407  1.00  0.00     0.014 A 
ATOM     10  C   UNL A   1      32.140  21.723  23.965  1.00  0.00     0.014 A 
BRANCH   6  11
ATOM     11  C   UNL A   1      32.024  24.847  21.818  1.00  0.00     0.151 C 
BRANCH  11  12
ATOM     12  N   UNL A   1      33.043  25.834  21.540  1.00  0.00    -0.350 N 
ATOM     13  C   UNL A   1      33.172  27.126  21.953  1.00  0.00     0.242 C 
ATOM     14  O   UNL A   1      34.289  27.632  21.809  1.00  0.00    -0.273 OA
ATOM     15  H   UNL A   1      33.767  25.520  20.951  1.00  0.00     0.163 HD
BRANCH  13  16
ATOM     16  C   UNL A   1      32.077  27.865  22.735  1.00  0.00     0.248 C 
BRANCH  16  17
ATOM     17  N   UNL A   1      32.008  27.576  24.164  1.00  0.00    -0.220 N 
ATOM     18  C   UNL A   1      32.477  26.123  25.868  1.00  0.00     0.095 A 
ATOM     19  C   UNL A   1      31.925  27.030  26.894  1.00  0.00     0.037 A 
ATOM     20  N   UNL A   1      32.526  26.365  24.595  1.00  0.00    -0.169 NA
ATOM     21  C   UNL A   1      31.478  28.207  26.458  1.00  0.00     0.075 A 
ATOM     22  C   UNL A   1      31.533  28.563  25.022  1.00  0.00     0.267 A 
ATOM     23  O   UNL A   1      31.133  29.666  24.675  1.00  0.00    -0.268 OA
BRANCH  18  24
ATOM     24  C   UNL A   1      32.954  24.824  26.373  1.00  0.00     0.044 A 
ATOM     25  C   UNL A   1      32.052  23.922  26.941  1.00  0.00     0.131 A 
ATOM     26  C   UNL A   1      32.512  22.704  27.436  1.00  0.00     0.086 A 
ATOM     27  C   UNL A   1      33.874  22.417  27.382  1.00  0.00     0.126 A 
ATOM     28  C   UNL A   1      34.323  24.531  26.323  1.00  0.00     0.017 A 
ATOM     29  F   UNL A   1      34.317  21.248  27.863  1.00  0.00    -0.207 F 
ATOM     30  C   UNL A   1      34.782  23.317  26.831  1.00  0.00     0.040 A 
BRANCH  25  31
ATOM     31  O   UNL A   1      30.713  24.207  26.917  1.00  0.00    -0.496 OA
ATOM     32  C   UNL A   1      29.927  23.016  26.972  1.00  0.00     0.278 C 
ENDBRANCH  25  31
ENDBRANCH  18  24
ENDBRANCH  16  17
ENDBRANCH  13  16
ENDBRANCH  11  12
ENDBRANCH   6  11
ENDBRANCH   1   5
BRANCH   3  33
ATOM     33  C   UNL A   1      36.462  20.825  24.993  1.00  0.00     0.118 C 
BRANCH  33  34
ATOM     34  C   UNL A   1      37.774  20.081  24.801  1.00  0.00     0.042 C 
BRANCH  34  35
ATOM     35  C   UNL A   1      38.880  20.499  25.754  1.00  0.00     0.118 C 
BRANCH  35  36
ATOM     36  N   UNL A   1      39.951  19.514  25.867  1.00  0.00    -0.352 N 
ATOM     37  C   UNL A   1      41.300  19.647  26.121  1.00  0.00     0.251 C 
ATOM     38  H   UNL A   1      39.656  18.583  25.740  1.00  0.00     0.163 HD
ATOM     39  O   UNL A   1      42.023  18.663  26.015  1.00  0.00    -0.269 OA
BRANCH  37  40
ATOM     40  C   UNL A   1      41.888  20.961  26.477  1.00  0.00     0.039 A 
ATOM     41  C   UNL A   1      42.191  21.285  27.795  1.00  0.00     0.014 A 
ATOM     42  C   UNL A   1      42.156  21.891  25.464  1.00  0.00     0.014 A 
ATOM     43  C   UNL A   1      42.528  22.592  28.129  1.00  0.00     0.010 A 
ATOM     44  C   UNL A   1      42.618  23.173  25.792  1.00  0.00     0.010 A 
ATOM     45  C   UNL A   1      42.747  23.557  27.135  1.00  0.00    -0.014 A 
BRANCH  45  46
ATOM     46  C   UNL A   1      43.095  24.950  27.537  1.00  0.00     0.031 A 
ATOM     47  C   UNL A   1      44.472  25.507  27.271  1.00  0.00     0.074 A 
ATOM     48  C   UNL A   1      42.142  25.742  28.072  1.00  0.00     0.049 A 
ATOM     49  N   UNL A   1      44.946  26.693  27.559  1.00  0.00    -0.248 NA
ATOM     50  C   UNL A   1      45.445  24.625  26.605  1.00  0.00     0.031 C 
ATOM     51  C   UNL A   1      40.767  25.326  28.368  1.00  0.00     0.029 A 
ATOM     52  N   UNL A   1      42.165  27.067  28.432  1.00  0.00    -0.354 N 
ATOM     53  C   UNL A   1      46.273  26.689  27.141  1.00  0.00     0.074 A 
ATOM     54  C   UNL A   1      46.537  25.379  26.591  1.00  0.00     0.031 C 
ATOM     55  C   UNL A   1      40.065  26.385  28.794  1.00  0.00     0.029 A 
ATOM     56  C   UNL A   1      40.954  27.539  28.887  1.00  0.00     0.049 A 
ATOM     57  H   UNL A   1      42.972  27.628  28.369  1.00  0.00     0.167 HD
ATOM     58  C   UNL A   1      47.184  27.689  27.206  1.00  0.00     0.034 A 
ATOM     59  C   UNL A   1      40.597  28.752  29.353  1.00  0.00     0.034 A 
ATOM     60  C   UNL A   1      46.902  29.011  27.703  1.00  0.00     0.049 A 
ATOM     61  C   UNL A   1      41.634  29.839  29.420  1.00  0.00     0.074 A 
ATOM     62  C   UNL A   1      47.755  30.099  27.774  1.00  0.00     0.029 A 
ATOM     63  N   UNL A   1      45.678  29.429  28.201  1.00  0.00    -0.354 N 
ATOM     64  N   UNL A   1      42.894  29.795  29.055  1.00  0.00    -0.248 NA
ATOM     65  C   UNL A   1      41.210  31.133  29.971  1.00  0.00     0.031 C 
ATOM     66  C   UNL A   1      47.061  31.161  28.361  1.00  0.00     0.029 A 
ATOM     67  C   UNL A   1      45.759  30.752  28.601  1.00  0.00     0.049 A 
ATOM     68  H   UNL A   1      44.871  28.869  28.261  1.00  0.00     0.167 HD
ATOM     69  C   UNL A   1      43.410  31.056  29.328  1.00  0.00     0.074 A 
ATOM     70  C   UNL A   1      42.324  31.845  29.871  1.00  0.00     0.031 C 
ATOM     71  C   UNL A   1      44.670  31.519  29.150  1.00  0.00     0.034 A 
BRANCH  58  72
ATOM     72  C   UNL A   1      48.591  27.402  26.756  1.00  0.00     0.023 A 
ATOM     73  C   UNL A   1      49.020  27.679  25.448  1.00  0.00     0.031 A 
ATOM     74  C   UNL A   1      49.535  26.923  27.682  1.00  0.00     0.131 A 
ATOM     75  C   UNL A   1      50.361  27.459  25.098  1.00  0.00     0.055 A 
ATOM     76  C   UNL A   1      50.877  26.749  27.339  1.00  0.00     0.041 A 
ATOM     77  F   UNL A   1      49.169  26.635  28.941  1.00  0.00    -0.206 F 
ATOM     78  C   UNL A   1      51.296  27.018  26.040  1.00  0.00     0.022 A 
BRANCH  75  79
ATOM     79  S   UNL A   1      50.873  27.731  23.381  1.00  0.00     0.124 S 
ATOM     80  O   UNL A   1      52.006  26.818  23.274  1.00  0.00    -0.237 OA
ATOM     81  O   UNL A   1      49.678  27.363  22.630  1.00  0.00    -0.237 OA
ATOM     82  O   UNL A   1      51.213  29.152  23.348  1.00  0.00    -0.744 OA
ENDBRANCH  75  79
ENDBRANCH  58  72
BRANCH  59  83
ATOM     83  C   UNL A   1      39.211  28.984  29.849  1.00  0.00     0.023 A 
ATOM     84  C   UNL A   1      38.230  29.564  29.031  1.00  0.00     0.031 A 
ATOM     85  C   UNL A   1      38.857  28.639  31.166  1.00  0.00     0.131 A 
ATOM     86  C   UNL A   1      36.946  29.805  29.548  1.00  0.00     0.055 A 
ATOM     87  C   UNL A   1      37.567  28.836  31.660  1.00  0.00     0.041 A 
ATOM     88  F   UNL A   1      39.759  28.078  31.987  1.00  0.00    -0.206 F 
ATOM     89  C   UNL A   1      36.605  29.431  30.850  1.00  0.00     0.022 A 
BRANCH  86  90
ATOM     90  S   UNL A   1      35.736  30.667  28.509  1.00  0.00     0.124 S 
ATOM     91  O   UNL A   1      36.600  31.408  27.598  1.00  0.00    -0.237 OA
ATOM     92  O   UNL A   1      34.989  29.556  27.926  1.00  0.00    -0.237 OA
ATOM     93  O   UNL A   1      34.988  31.482  29.462  1.00  0.00    -0.744 OA
ENDBRANCH  86  90
ENDBRANCH  59  83
BRANCH  71  94
ATOM     94  C   UNL A   1      44.939  32.950  29.522  1.00  0.00     0.023 A 
ATOM     95  C   UNL A   1      44.787  33.986  28.587  1.00  0.00     0.031 A 
ATOM     96  C   UNL A   1      45.310  33.280  30.836  1.00  0.00     0.131 A 
ATOM     97  C   UNL A   1      45.035  35.312  28.975  1.00  0.00     0.055 A 
ATOM     98  C   UNL A   1      45.512  34.604  31.227  1.00  0.00     0.041 A 
ATOM     99  F   UNL A   1      45.462  32.322  31.763  1.00  0.00    -0.206 F 
ATOM    100  C   UNL A   1      45.380  35.627  30.291  1.00  0.00     0.022 A 
BRANCH  97 101
ATOM    101  S   UNL A   1      44.925  36.621  27.725  1.00  0.00     0.124 S 
ATOM    102  O   UNL A   1      43.533  37.041  27.849  1.00  0.00    -0.237 OA
ATOM    103  O   UNL A   1      45.924  37.581  28.184  1.00  0.00    -0.237 OA
ATOM    104  O   UNL A   1      45.258  35.933  26.479  1.00  0.00    -0.744 OA
ENDBRANCH  97 101
ENDBRANCH  71  94
ENDBRANCH  45  46
ENDBRANCH  37  40
ENDBRANCH  35  36
ENDBRANCH  34  35
ENDBRANCH  33  34
ENDBRANCH   3  33
TORSDOF 19
ENDMDL
MODEL 3
REMARK VINA RESULT:     -12.6      2.389      7.541
REMARK SMILES COc1cc(F)ccc1-c1ccc(=O)n(CC(=O)NCc2ccc(C(=O)NCCCNC(=O)c3ccc(-c4c5nc(c(-c6cc(S(=O)(=O)[O-])ccc6F)c6ccc([nH]6)c(-c6cc(S(=O)(=O)[O-])ccc6F)c6nc(c(-c7cc(S(=O)(=O)[O-])ccc7F)c7ccc4[nH]7)C=C6)C=C5)cc3)cc2)n1
REMARK SMILES IDX 25 1 26 2 27 3 24 5 21 6 22 7 98 8 23 9 97 10 20 11 19 12
REMARK SMILES IDX 17 13 18 14 16 16 15 17 10 18 11 19 99 20 12 21 13 22 14 23
REMARK SMILES IDX 9 24 3 25 4 26 5 27 8 28 6 29 7 30 2 31 1 32 28 33 29 34
REMARK SMILES IDX 30 35 31 36 32 37 33 39 34 40 35 41 96 42 36 43 95 44 37 45
REMARK SMILES IDX 38 46 39 47 89 48 40 49 94 50 88 51 90 52 41 53 93 54 87 55
REMARK SMILES IDX 86 56 42 58 74 59 54 60 73 61 55 62 58 63 72 64 91 65 56 66
REMARK SMILES IDX 57 67 71 69 92 70 59 71 43 72 44 73 52 74 45 75 51 76 53 77
REMARK SMILES IDX 50 78 46 79 47 80 48 81 49 82 75 83 76 84 84 85 77 86 83 87
REMARK SMILES IDX 85 88 82 89 78 90 79 91 80 92 81 93 60 94 61 95 69 96 62 97
REMARK SMILES IDX 68 98 70 99 67 100 63 101 64 102 65 103 66 104
REMARK H PARENT 27 4 19 15 31 38 90 57 58 68
REMARK Flexibility Score: inf
ROOT
ATOM      1  C   UNL A   1      33.013  22.612  22.822  1.00  0.00     0.251 C 
ATOM      2  O   UNL A   1      32.154  21.751  22.625  1.00  0.00    -0.269 OA
ATOM      3  N   UNL A   1      34.283  22.202  23.156  1.00  0.00    -0.352 N 
ATOM      4  H   UNL A   1      34.386  21.222  23.167  1.00  0.00     0.163 HD
ENDROOT
BRANCH   1   5
ATOM      5  C   UNL A   1      32.629  24.040  22.707  1.00  0.00     0.039 A 
ATOM      6  C   UNL A   1      31.898  26.735  22.281  1.00  0.00    -0.029 A 
ATOM      7  C   UNL A   1      33.213  26.323  22.056  1.00  0.00     0.006 A 
ATOM      8  C   UNL A   1      30.999  25.794  22.773  1.00  0.00     0.006 A 
ATOM      9  C   UNL A   1      33.572  24.978  22.253  1.00  0.00     0.014 A 
ATOM     10  C   UNL A   1      31.370  24.490  23.062  1.00  0.00     0.014 A 
BRANCH   6  11
ATOM     11  C   UNL A   1      31.402  28.131  22.000  1.00  0.00     0.151 C 
BRANCH  11  12
ATOM     12  N   UNL A   1      30.026  28.287  22.416  1.00  0.00    -0.350 N 
ATOM     13  C   UNL A   1      29.428  29.237  23.187  1.00  0.00     0.242 C 
ATOM     14  O   UNL A   1      28.196  29.287  23.127  1.00  0.00    -0.273 OA
ATOM     15  H   UNL A   1      29.418  27.586  22.087  1.00  0.00     0.163 HD
BRANCH  13  16
ATOM     16  C   UNL A   1      30.216  30.320  23.938  1.00  0.00     0.248 C 
BRANCH  16  17
ATOM     17  N   UNL A   1      31.022  29.857  25.063  1.00  0.00    -0.220 N 
ATOM     18  C   UNL A   1      32.184  28.141  26.034  1.00  0.00     0.095 A 
ATOM     19  C   UNL A   1      32.600  28.972  27.181  1.00  0.00     0.037 A 
ATOM     20  N   UNL A   1      31.454  28.540  25.039  1.00  0.00    -0.169 NA
ATOM     21  C   UNL A   1      32.212  30.247  27.155  1.00  0.00     0.075 A 
ATOM     22  C   UNL A   1      31.404  30.778  26.034  1.00  0.00     0.267 A 
ATOM     23  O   UNL A   1      31.093  31.962  26.044  1.00  0.00    -0.268 OA
BRANCH  18  24
ATOM     24  C   UNL A   1      32.616  26.735  26.091  1.00  0.00     0.044 A 
ATOM     25  C   UNL A   1      31.731  25.751  26.541  1.00  0.00     0.131 A 
ATOM     26  C   UNL A   1      32.152  24.425  26.613  1.00  0.00     0.086 A 
ATOM     27  C   UNL A   1      33.461  24.105  26.262  1.00  0.00     0.126 A 
ATOM     28  C   UNL A   1      33.932  26.407  25.742  1.00  0.00     0.017 A 
ATOM     29  F   UNL A   1      33.868  22.831  26.337  1.00  0.00    -0.207 F 
ATOM     30  C   UNL A   1      34.354  25.081  25.828  1.00  0.00     0.040 A 
BRANCH  25  31
ATOM     31  O   UNL A   1      30.434  26.090  26.814  1.00  0.00    -0.496 OA
ATOM     32  C   UNL A   1      29.518  25.245  26.115  1.00  0.00     0.278 C 
ENDBRANCH  25  31
ENDBRANCH  18  24
ENDBRANCH  16  17
ENDBRANCH  13  16
ENDBRANCH  11  12
ENDBRANCH   6  11
ENDBRANCH   1   5
BRANCH   3  33
ATOM     33  C   UNL A   1      35.515  22.913  23.499  1.00  0.00     0.118 C 
BRANCH  33  34
ATOM     34  C   UNL A   1      36.691  22.005  23.818  1.00  0.00     0.042 C 
BRANCH  34  35
ATOM     35  C   UNL A   1      36.911  21.758  25.301  1.00  0.00     0.118 C 
BRANCH  35  36
ATOM     36  N   UNL A   1      37.956  20.777  25.577  1.00  0.00    -0.352 N 
ATOM     37  C   UNL A   1      39.222  20.905  26.110  1.00  0.00     0.251 C 
ATOM     38  H   UNL A   1      37.712  19.852  25.338  1.00  0.00     0.163 HD
ATOM     39  O   UNL A   1      39.970  19.935  26.099  1.00  0.00    -0.269 OA
BRANCH  37  40
ATOM     40  C   UNL A   1      39.697  22.201  26.654  1.00  0.00     0.039 A 
ATOM     41  C   UNL A   1      39.150  23.407  26.232  1.00  0.00     0.014 A 
ATOM     42  C   UNL A   1      40.709  22.208  27.623  1.00  0.00     0.014 A 
ATOM     43  C   UNL A   1      39.758  24.606  26.585  1.00  0.00     0.010 A 
ATOM     44  C   UNL A   1      41.238  23.425  28.075  1.00  0.00     0.010 A 
ATOM     45  C   UNL A   1      40.811  24.636  27.512  1.00  0.00    -0.014 A 
BRANCH  45  46
ATOM     46  C   UNL A   1      41.443  25.942  27.853  1.00  0.00     0.031 A 
ATOM     47  C   UNL A   1      42.828  26.280  27.358  1.00  0.00     0.074 A 
ATOM     48  C   UNL A   1      40.735  26.860  28.545  1.00  0.00     0.049 A 
ATOM     49  N   UNL A   1      43.531  27.365  27.564  1.00  0.00    -0.248 NA
ATOM     50  C   UNL A   1      43.519  25.275  26.532  1.00  0.00     0.031 C 
ATOM     51  C   UNL A   1      39.381  26.660  29.070  1.00  0.00     0.029 A 
ATOM     52  N   UNL A   1      41.034  28.153  28.899  1.00  0.00    -0.354 N 
ATOM     53  C   UNL A   1      44.750  27.162  26.926  1.00  0.00     0.074 A 
ATOM     54  C   UNL A   1      44.701  25.844  26.334  1.00  0.00     0.031 C 
ATOM     55  C   UNL A   1      38.942  27.804  29.613  1.00  0.00     0.029 A 
ATOM     56  C   UNL A   1      40.010  28.797  29.557  1.00  0.00     0.049 A 
ATOM     57  H   UNL A   1      41.899  28.579  28.701  1.00  0.00     0.167 HD
ATOM     58  C   UNL A   1      45.809  28.002  26.837  1.00  0.00     0.034 A 
ATOM     59  C   UNL A   1      39.939  30.037  30.080  1.00  0.00     0.034 A 
ATOM     60  C   UNL A   1      45.833  29.336  27.379  1.00  0.00     0.049 A 
ATOM     61  C   UNL A   1      41.135  30.942  29.972  1.00  0.00     0.074 A 
ATOM     62  C   UNL A   1      46.851  30.270  27.306  1.00  0.00     0.029 A 
ATOM     63  N   UNL A   1      44.795  29.928  28.079  1.00  0.00    -0.354 N 
ATOM     64  N   UNL A   1      42.291  30.708  29.397  1.00  0.00    -0.248 NA
ATOM     65  C   UNL A   1      41.025  32.270  30.592  1.00  0.00     0.031 C 
ATOM     66  C   UNL A   1      46.449  31.411  28.006  1.00  0.00     0.029 A 
ATOM     67  C   UNL A   1      45.156  31.209  28.464  1.00  0.00     0.049 A 
ATOM     68  H   UNL A   1      43.929  29.503  28.275  1.00  0.00     0.167 HD
ATOM     69  C   UNL A   1      43.044  31.862  29.582  1.00  0.00     0.074 A 
ATOM     70  C   UNL A   1      42.207  32.797  30.304  1.00  0.00     0.031 C 
ATOM     71  C   UNL A   1      44.314  32.122  29.192  1.00  0.00     0.034 A 
BRANCH  58  72
ATOM     72  C   UNL A   1      47.054  27.508  26.152  1.00  0.00     0.023 A 
ATOM     73  C   UNL A   1      48.077  26.854  26.858  1.00  0.00     0.031 A 
ATOM     74  C   UNL A   1      47.174  27.622  24.755  1.00  0.00     0.131 A 
ATOM     75  C   UNL A   1      49.186  26.350  26.162  1.00  0.00     0.055 A 
ATOM     76  C   UNL A   1      48.258  27.079  24.064  1.00  0.00     0.041 A 
ATOM     77  F   UNL A   1      46.227  28.248  24.039  1.00  0.00    -0.206 F 
ATOM     78  C   UNL A   1      49.272  26.437  24.768  1.00  0.00     0.022 A 
BRANCH  75  79
ATOM     79  S   UNL A   1      50.538  25.594  27.101  1.00  0.00     0.124 S 
ATOM     80  O   UNL A   1      49.888  24.398  27.625  1.00  0.00    -0.237 OA
ATOM     81  O   UNL A   1      51.554  25.375  26.078  1.00  0.00    -0.237 OA
ATOM     82  O   UNL A   1      50.870  26.609  28.098  1.00  0.00    -0.744 OA
ENDBRANCH  75  79
ENDBRANCH  58  72
BRANCH  59  83
ATOM     83  C   UNL A   1      38.712  30.472  30.806  1.00  0.00     0.023 A 
ATOM     84  C   UNL A   1      37.664  31.128  30.142  1.00  0.00     0.031 A 
ATOM     85  C   UNL A   1      38.583  30.248  32.189  1.00  0.00     0.131 A 
ATOM     86  C   UNL A   1      36.542  31.560  30.868  1.00  0.00     0.055 A 
ATOM     87  C   UNL A   1      37.446  30.637  32.897  1.00  0.00     0.041 A 
ATOM     88  F   UNL A   1      39.557  29.622  32.868  1.00  0.00    -0.206 F 
ATOM     89  C   UNL A   1      36.420  31.305  32.237  1.00  0.00     0.022 A 
BRANCH  86  90
ATOM     90  S   UNL A   1      35.260  32.512  30.009  1.00  0.00     0.124 S 
ATOM     91  O   UNL A   1      34.280  32.715  31.070  1.00  0.00    -0.237 OA
ATOM     92  O   UNL A   1      35.998  33.696  29.579  1.00  0.00    -0.237 OA
ATOM     93  O   UNL A   1      34.838  31.620  28.932  1.00  0.00    -0.744 OA
ENDBRANCH  86  90
ENDBRANCH  59  83
BRANCH  71  94
ATOM     94  C   UNL A   1      44.871  33.481  29.517  1.00  0.00     0.023 A 
ATOM     95  C   UNL A   1      44.723  34.559  28.632  1.00  0.00     0.031 A 
ATOM     96  C   UNL A   1      45.519  33.703  30.744  1.00  0.00     0.131 A 
ATOM     97  C   UNL A   1      45.245  35.815  28.975  1.00  0.00     0.055 A 
ATOM     98  C   UNL A   1      45.997  34.964  31.099  1.00  0.00     0.041 A 
ATOM     99  F   UNL A   1      45.679  32.701  31.623  1.00  0.00    -0.206 F 
ATOM    100  C   UNL A   1      45.866  36.028  30.209  1.00  0.00     0.022 A 
BRANCH  97 101
ATOM    101  S   UNL A   1      45.125  37.168  27.773  1.00  0.00     0.124 S 
ATOM    102  O   UNL A   1      43.782  37.679  28.027  1.00  0.00    -0.237 OA
ATOM    103  O   UNL A   1      46.225  38.041  28.169  1.00  0.00    -0.237 OA
ATOM    104  O   UNL A   1      45.302  36.498  26.486  1.00  0.00    -0.744 OA
ENDBRANCH  97 101
ENDBRANCH  71  94
ENDBRANCH  45  46
ENDBRANCH  37  40
ENDBRANCH  35  36
ENDBRANCH  34  35
ENDBRANCH  33  34
ENDBRANCH   3  33
TORSDOF 19
ENDMDL
