MODEL 1
REMARK VINA RESULT:     -13.8      0.000      0.000
REMARK SMILES COc1cc(OC)c(-c2cc(C(=O)NCCCNC(=O)c3ccc(-c4c5nc(c(-c6cc(S(=O)(=O)[O-])ccc6F)c6ccc([nH]6)c(-c6cc(S(=O)(=O)[O-])ccc6F)c6nc(c(-c7cc(S(=O)(=O)[O-])ccc7F)c7ccc4[nH]7)C=C6)C=C5)cc3)c3c(-c4ccc(Cl)cc4)[nH]nc3n2)cc1OC
REMARK SMILES IDX 16 1 15 2 14 3 12 4 13 5 11 7 9 8 10 9 96 10 95 11 84 12
REMARK SMILES IDX 94 13 85 14 93 15 8 17 3 18 4 19 98 20 5 21 97 22 2 23 1 24
REMARK SMILES IDX 99 25 100 26 6 27 7 28 86 29 87 30 92 31 88 32 91 33 89 34
REMARK SMILES IDX 90 35 17 36 18 37 19 38 20 40 21 41 22 42 83 43 23 44 82 45
REMARK SMILES IDX 24 46 25 47 26 48 76 49 27 50 81 51 75 52 77 53 28 54 80 55
REMARK SMILES IDX 74 56 73 57 29 59 61 60 41 61 60 62 42 63 45 64 59 65 78 66
REMARK SMILES IDX 43 67 44 68 58 70 79 71 46 72 30 73 31 74 39 75 32 76 38 77
REMARK SMILES IDX 40 78 37 79 33 80 34 81 35 82 36 83 62 84 63 85 71 86 64 87
REMARK SMILES IDX 70 88 72 89 69 90 65 91 66 92 67 93 68 94 47 95 48 96 56 97
REMARK SMILES IDX 49 98 55 99 57 100 54 101 50 102 51 103 52 104 53 105
REMARK H PARENT 14 6 93 16 18 39 77 58 45 69
REMARK Flexibility Score: inf
ROOT
ATOM      1  C   UNL A   1      37.632  19.813  24.842  1.00  0.00     0.042 C 
ENDROOT
BRANCH   1   2
ATOM      2  C   UNL A   1      36.525  20.864  24.694  1.00  0.00     0.118 C 
BRANCH   2   3
ATOM      3  N   UNL A   1      35.557  20.810  25.779  1.00  0.00    -0.352 N 
ATOM      4  C   UNL A   1      34.208  21.044  25.874  1.00  0.00     0.252 C 
ATOM      5  O   UNL A   1      33.678  20.578  26.876  1.00  0.00    -0.269 OA
ATOM      6  H   UNL A   1      35.960  20.547  26.638  1.00  0.00     0.163 HD
BRANCH   4   7
ATOM      7  C   UNL A   1      33.404  21.733  24.836  1.00  0.00     0.055 A 
ATOM      8  C   UNL A   1      32.617  23.841  23.765  1.00  0.00     0.077 A 
ATOM      9  C   UNL A   1      33.146  23.107  24.855  1.00  0.00     0.043 A 
ATOM     10  N   UNL A   1      32.186  23.308  22.597  1.00  0.00    -0.226 NA
ATOM     11  C   UNL A   1      32.254  21.950  22.591  1.00  0.00     0.182 A 
ATOM     12  C   UNL A   1      32.831  21.180  23.674  1.00  0.00     0.059 A 
ATOM     13  N   UNL A   1      31.795  21.167  21.615  1.00  0.00    -0.154 NA
ATOM     14  C   UNL A   1      32.625  19.858  23.307  1.00  0.00     0.075 A 
ATOM     15  N   UNL A   1      32.019  19.928  22.073  1.00  0.00    -0.275 N 
ATOM     16  H   UNL A   1      31.768  19.125  21.563  1.00  0.00     0.190 HD
BRANCH   8  17
ATOM     17  C   UNL A   1      32.584  25.308  23.912  1.00  0.00     0.046 A 
ATOM     18  C   UNL A   1      32.135  28.082  24.320  1.00  0.00     0.164 A 
ATOM     19  C   UNL A   1      32.784  27.609  23.167  1.00  0.00     0.097 A 
ATOM     20  C   UNL A   1      31.696  27.178  25.282  1.00  0.00     0.161 A 
ATOM     21  C   UNL A   1      32.982  26.234  22.938  1.00  0.00     0.132 A 
ATOM     22  C   UNL A   1      31.959  25.816  25.078  1.00  0.00     0.064 A 
BRANCH  18  23
ATOM     23  O   UNL A   1      31.820  29.413  24.356  1.00  0.00    -0.493 OA
ATOM     24  C   UNL A   1      30.460  29.658  23.992  1.00  0.00     0.278 C 
ENDBRANCH  18  23
BRANCH  20  25
ATOM     25  O   UNL A   1      30.963  27.394  26.414  1.00  0.00    -0.493 OA
ATOM     26  C   UNL A   1      31.577  27.980  27.548  1.00  0.00     0.278 C 
ENDBRANCH  20  25
BRANCH  21  27
ATOM     27  O   UNL A   1      33.563  25.963  21.725  1.00  0.00    -0.496 OA
ATOM     28  C   UNL A   1      32.694  25.840  20.603  1.00  0.00     0.278 C 
ENDBRANCH  21  27
ENDBRANCH   8  17
BRANCH  14  29
ATOM     29  C   UNL A   1      32.830  18.556  23.938  1.00  0.00     0.000 A 
ATOM     30  C   UNL A   1      32.180  18.250  25.143  1.00  0.00     0.012 A 
ATOM     31  C   UNL A   1      33.653  17.590  23.342  1.00  0.00     0.012 A 
ATOM     32  C   UNL A   1      32.308  16.980  25.711  1.00  0.00     0.021 A 
ATOM     33  C   UNL A   1      33.766  16.312  23.902  1.00  0.00     0.021 A 
ATOM     34  C   UNL A   1      33.086  16.011  25.079  1.00  0.00     0.041 A 
ATOM     35  Cl  UNL A   1      33.196  14.433  25.753  1.00  0.00    -0.084 Cl
ENDBRANCH  14  29
ENDBRANCH   4   7
ENDBRANCH   2   3
ENDBRANCH   1   2
BRANCH   1  36
ATOM     36  C   UNL A   1      38.822  20.375  25.603  1.00  0.00     0.118 C 
BRANCH  36  37
ATOM     37  N   UNL A   1      39.879  19.368  25.770  1.00  0.00    -0.352 N 
ATOM     38  C   UNL A   1      41.227  19.544  25.999  1.00  0.00     0.251 C 
ATOM     39  H   UNL A   1      39.581  18.432  25.712  1.00  0.00     0.163 HD
ATOM     40  O   UNL A   1      42.012  18.615  25.784  1.00  0.00    -0.269 OA
BRANCH  38  41
ATOM     41  C   UNL A   1      41.706  20.837  26.507  1.00  0.00     0.039 A 
ATOM     42  C   UNL A   1      42.191  21.845  25.666  1.00  0.00     0.014 A 
ATOM     43  C   UNL A   1      41.637  21.037  27.881  1.00  0.00     0.014 A 
ATOM     44  C   UNL A   1      42.543  23.073  26.228  1.00  0.00     0.010 A 
ATOM     45  C   UNL A   1      41.763  22.295  28.391  1.00  0.00     0.010 A 
ATOM     46  C   UNL A   1      42.316  23.286  27.596  1.00  0.00    -0.014 A 
BRANCH  46  47
ATOM     47  C   UNL A   1      42.480  24.583  28.242  1.00  0.00     0.031 A 
ATOM     48  C   UNL A   1      41.283  25.444  28.058  1.00  0.00     0.074 A 
ATOM     49  C   UNL A   1      43.450  24.801  29.162  1.00  0.00     0.049 A 
ATOM     50  N   UNL A   1      41.136  26.430  27.236  1.00  0.00    -0.248 NA
ATOM     51  C   UNL A   1      40.008  24.988  28.653  1.00  0.00     0.031 C 
ATOM     52  C   UNL A   1      44.466  23.848  29.635  1.00  0.00     0.029 A 
ATOM     53  N   UNL A   1      43.678  25.878  29.965  1.00  0.00    -0.354 N 
ATOM     54  C   UNL A   1      39.855  26.915  27.485  1.00  0.00     0.074 A 
ATOM     55  C   UNL A   1      39.143  25.816  28.066  1.00  0.00     0.031 C 
ATOM     56  C   UNL A   1      45.041  24.305  30.771  1.00  0.00     0.029 A 
ATOM     57  C   UNL A   1      44.560  25.651  31.029  1.00  0.00     0.049 A 
ATOM     58  H   UNL A   1      43.253  26.752  29.808  1.00  0.00     0.167 HD
ATOM     59  C   UNL A   1      39.631  28.258  27.575  1.00  0.00     0.034 A 
ATOM     60  C   UNL A   1      44.869  26.506  32.048  1.00  0.00     0.034 A 
ATOM     61  C   UNL A   1      40.793  28.977  27.087  1.00  0.00     0.049 A 
ATOM     62  C   UNL A   1      44.493  27.856  31.572  1.00  0.00     0.074 A 
ATOM     63  C   UNL A   1      41.456  29.095  25.883  1.00  0.00     0.029 A 
ATOM     64  N   UNL A   1      41.675  29.384  28.064  1.00  0.00    -0.354 N 
ATOM     65  N   UNL A   1      45.077  28.441  30.561  1.00  0.00    -0.248 NA
ATOM     66  C   UNL A   1      43.169  28.368  31.898  1.00  0.00     0.031 C 
ATOM     67  C   UNL A   1      42.837  29.232  26.223  1.00  0.00     0.029 A 
ATOM     68  C   UNL A   1      42.965  29.289  27.612  1.00  0.00     0.049 A 
ATOM     69  H   UNL A   1      41.416  29.698  28.960  1.00  0.00     0.167 HD
ATOM     70  C   UNL A   1      44.049  29.051  29.861  1.00  0.00     0.074 A 
ATOM     71  C   UNL A   1      42.935  29.105  30.807  1.00  0.00     0.031 C 
ATOM     72  C   UNL A   1      44.111  29.155  28.499  1.00  0.00     0.034 A 
BRANCH  59  73
ATOM     73  C   UNL A   1      38.657  28.927  28.545  1.00  0.00     0.023 A 
ATOM     74  C   UNL A   1      38.927  28.750  29.919  1.00  0.00     0.031 A 
ATOM     75  C   UNL A   1      37.378  29.450  28.249  1.00  0.00     0.131 A 
ATOM     76  C   UNL A   1      37.928  28.941  30.891  1.00  0.00     0.055 A 
ATOM     77  C   UNL A   1      36.402  29.683  29.225  1.00  0.00     0.041 A 
ATOM     78  F   UNL A   1      36.954  29.710  27.009  1.00  0.00    -0.206 F 
ATOM     79  C   UNL A   1      36.660  29.394  30.550  1.00  0.00     0.022 A 
BRANCH  76  80
ATOM     80  S   UNL A   1      38.271  28.416  32.588  1.00  0.00     0.124 S 
ATOM     81  O   UNL A   1      39.581  29.013  32.817  1.00  0.00    -0.237 OA
ATOM     82  O   UNL A   1      37.152  29.009  33.314  1.00  0.00    -0.237 OA
ATOM     83  O   UNL A   1      38.254  26.959  32.499  1.00  0.00    -0.744 OA
ENDBRANCH  76  80
ENDBRANCH  59  73
BRANCH  60  84
ATOM     84  C   UNL A   1      45.157  26.206  33.486  1.00  0.00     0.023 A 
ATOM     85  C   UNL A   1      44.188  26.269  34.520  1.00  0.00     0.031 A 
ATOM     86  C   UNL A   1      46.377  25.572  33.810  1.00  0.00     0.131 A 
ATOM     87  C   UNL A   1      44.458  25.705  35.796  1.00  0.00     0.055 A 
ATOM     88  C   UNL A   1      46.633  25.011  35.065  1.00  0.00     0.041 A 
ATOM     89  F   UNL A   1      47.328  25.394  32.880  1.00  0.00    -0.206 F 
ATOM     90  C   UNL A   1      45.672  25.066  36.061  1.00  0.00     0.022 A 
BRANCH  87  91
ATOM     91  S   UNL A   1      43.207  25.726  37.131  1.00  0.00     0.124 S 
ATOM     92  O   UNL A   1      43.937  25.154  38.258  1.00  0.00    -0.237 OA
ATOM     93  O   UNL A   1      42.870  27.141  37.228  1.00  0.00    -0.237 OA
ATOM     94  O   UNL A   1      42.132  24.879  36.610  1.00  0.00    -0.744 OA
ENDBRANCH  87  91
ENDBRANCH  60  84
BRANCH  72  95
ATOM     95  C   UNL A   1      45.474  29.001  27.850  1.00  0.00     0.023 A 
ATOM     96  C   UNL A   1      45.947  27.851  27.174  1.00  0.00     0.031 A 
ATOM     97  C   UNL A   1      46.306  30.133  27.872  1.00  0.00     0.131 A 
ATOM     98  C   UNL A   1      47.220  27.869  26.564  1.00  0.00     0.055 A 
ATOM     99  C   UNL A   1      47.550  30.155  27.248  1.00  0.00     0.041 A 
ATOM    100  F   UNL A   1      45.904  31.259  28.484  1.00  0.00    -0.206 F 
ATOM    101  C   UNL A   1      48.015  29.020  26.596  1.00  0.00     0.022 A 
BRANCH  98 102
ATOM    102  S   UNL A   1      47.890  26.386  25.740  1.00  0.00     0.124 S 
ATOM    103  O   UNL A   1      47.606  25.312  26.684  1.00  0.00    -0.237 OA
ATOM    104  O   UNL A   1      47.137  26.352  24.488  1.00  0.00    -0.237 OA
ATOM    105  O   UNL A   1      49.312  26.697  25.582  1.00  0.00    -0.744 OA
ENDBRANCH  98 102
ENDBRANCH  72  95
ENDBRANCH  46  47
ENDBRANCH  38  41
ENDBRANCH  36  37
ENDBRANCH   1  36
TORSDOF 18
ENDMDL
MODEL 2
REMARK VINA RESULT:     -13.7      3.754      8.986
REMARK SMILES COc1cc(OC)c(-c2cc(C(=O)NCCCNC(=O)c3ccc(-c4c5nc(c(-c6cc(S(=O)(=O)[O-])ccc6F)c6ccc([nH]6)c(-c6cc(S(=O)(=O)[O-])ccc6F)c6nc(c(-c7cc(S(=O)(=O)[O-])ccc7F)c7ccc4[nH]7)C=C6)C=C5)cc3)c3c(-c4ccc(Cl)cc4)[nH]nc3n2)cc1OC
REMARK SMILES IDX 16 1 15 2 14 3 12 4 13 5 11 7 9 8 10 9 96 10 95 11 84 12
REMARK SMILES IDX 94 13 85 14 93 15 8 17 3 18 4 19 98 20 5 21 97 22 2 23 1 24
REMARK SMILES IDX 99 25 100 26 6 27 7 28 86 29 87 30 92 31 88 32 91 33 89 34
REMARK SMILES IDX 90 35 17 36 18 37 19 38 20 40 21 41 22 42 83 43 23 44 82 45
REMARK SMILES IDX 24 46 25 47 26 48 76 49 27 50 81 51 75 52 77 53 28 54 80 55
REMARK SMILES IDX 74 56 73 57 29 59 61 60 41 61 60 62 42 63 45 64 59 65 78 66
REMARK SMILES IDX 43 67 44 68 58 70 79 71 46 72 30 73 31 74 39 75 32 76 38 77
REMARK SMILES IDX 40 78 37 79 33 80 34 81 35 82 36 83 62 84 63 85 71 86 64 87
REMARK SMILES IDX 70 88 72 89 69 90 65 91 66 92 67 93 68 94 47 95 48 96 56 97
REMARK SMILES IDX 49 98 55 99 57 100 54 101 50 102 51 103 52 104 53 105
REMARK H PARENT 14 6 93 16 18 39 77 58 45 69
REMARK Flexibility Score: inf
ROOT
ATOM      1  C   UNL A   1      34.237  28.758  26.973  1.00  0.00     0.042 C 
ENDROOT
BRANCH   1   2
ATOM      2  C   UNL A   1      33.398  29.609  26.011  1.00  0.00     0.118 C 
BRANCH   2   3
ATOM      3  N   UNL A   1      33.776  29.414  24.620  1.00  0.00    -0.352 N 
ATOM      4  C   UNL A   1      33.562  28.419  23.699  1.00  0.00     0.252 C 
ATOM      5  O   UNL A   1      33.748  28.753  22.534  1.00  0.00    -0.269 OA
ATOM      6  H   UNL A   1      34.302  30.163  24.258  1.00  0.00     0.163 HD
BRANCH   4   7
ATOM      7  C   UNL A   1      33.074  27.060  24.035  1.00  0.00     0.055 A 
ATOM      8  C   UNL A   1      33.542  24.703  24.696  1.00  0.00     0.077 A 
ATOM      9  C   UNL A   1      33.915  25.946  24.128  1.00  0.00     0.043 A 
ATOM     10  N   UNL A   1      32.299  24.379  25.125  1.00  0.00    -0.226 NA
ATOM     11  C   UNL A   1      31.397  25.370  24.897  1.00  0.00     0.182 A 
ATOM     12  C   UNL A   1      31.761  26.665  24.360  1.00  0.00     0.059 A 
ATOM     13  N   UNL A   1      30.087  25.275  25.120  1.00  0.00    -0.154 NA
ATOM     14  C   UNL A   1      30.553  27.331  24.210  1.00  0.00     0.075 A 
ATOM     15  N   UNL A   1      29.609  26.452  24.692  1.00  0.00    -0.275 N 
ATOM     16  H   UNL A   1      28.650  26.673  24.720  1.00  0.00     0.190 HD
BRANCH   8  17
ATOM     17  C   UNL A   1      34.617  23.709  24.869  1.00  0.00     0.046 A 
ATOM     18  C   UNL A   1      36.935  22.078  25.052  1.00  0.00     0.164 A 
ATOM     19  C   UNL A   1      35.723  21.570  24.555  1.00  0.00     0.097 A 
ATOM     20  C   UNL A   1      37.010  23.407  25.459  1.00  0.00     0.161 A 
ATOM     21  C   UNL A   1      34.576  22.379  24.430  1.00  0.00     0.132 A 
ATOM     22  C   UNL A   1      35.845  24.184  25.394  1.00  0.00     0.064 A 
BRANCH  18  23
ATOM     23  O   UNL A   1      38.036  21.271  24.953  1.00  0.00    -0.493 OA
ATOM     24  C   UNL A   1      37.689  19.888  24.882  1.00  0.00     0.278 C 
ENDBRANCH  18  23
BRANCH  20  25
ATOM     25  O   UNL A   1      38.089  24.135  25.872  1.00  0.00    -0.493 OA
ATOM     26  C   UNL A   1      38.393  24.220  27.252  1.00  0.00     0.278 C 
ENDBRANCH  20  25
BRANCH  21  27
ATOM     27  O   UNL A   1      33.514  21.728  23.855  1.00  0.00    -0.496 OA
ATOM     28  C   UNL A   1      32.745  20.872  24.696  1.00  0.00     0.278 C 
ENDBRANCH  21  27
ENDBRANCH   8  17
BRANCH  14  29
ATOM     29  C   UNL A   1      30.128  28.604  23.635  1.00  0.00     0.000 A 
ATOM     30  C   UNL A   1      29.598  28.645  22.336  1.00  0.00     0.012 A 
ATOM     31  C   UNL A   1      30.218  29.793  24.373  1.00  0.00     0.012 A 
ATOM     32  C   UNL A   1      29.115  29.845  21.808  1.00  0.00     0.021 A 
ATOM     33  C   UNL A   1      29.717  30.991  23.850  1.00  0.00     0.021 A 
ATOM     34  C   UNL A   1      29.161  31.009  22.574  1.00  0.00     0.041 A 
ATOM     35  Cl  UNL A   1      28.516  32.472  21.940  1.00  0.00    -0.084 Cl
ENDBRANCH  14  29
ENDBRANCH   4   7
ENDBRANCH   2   3
ENDBRANCH   1   2
BRANCH   1  36
ATOM     36  C   UNL A   1      35.560  29.435  27.291  1.00  0.00     0.118 C 
BRANCH  36  37
ATOM     37  N   UNL A   1      35.646  29.809  28.709  1.00  0.00    -0.352 N 
ATOM     38  C   UNL A   1      36.593  29.462  29.650  1.00  0.00     0.251 C 
ATOM     39  H   UNL A   1      34.924  30.394  29.035  1.00  0.00     0.163 HD
ATOM     40  O   UNL A   1      36.337  29.586  30.852  1.00  0.00    -0.269 OA
BRANCH  38  41
ATOM     41  C   UNL A   1      37.898  28.958  29.203  1.00  0.00     0.039 A 
ATOM     42  C   UNL A   1      38.577  29.493  28.103  1.00  0.00     0.014 A 
ATOM     43  C   UNL A   1      38.459  27.924  29.944  1.00  0.00     0.014 A 
ATOM     44  C   UNL A   1      39.852  29.010  27.805  1.00  0.00     0.010 A 
ATOM     45  C   UNL A   1      39.779  27.618  29.792  1.00  0.00     0.010 A 
ATOM     46  C   UNL A   1      40.445  28.074  28.665  1.00  0.00    -0.014 A 
BRANCH  46  47
ATOM     47  C   UNL A   1      41.833  27.642  28.545  1.00  0.00     0.031 A 
ATOM     48  C   UNL A   1      41.946  26.347  27.826  1.00  0.00     0.074 A 
ATOM     49  C   UNL A   1      42.863  28.496  28.758  1.00  0.00     0.049 A 
ATOM     50  N   UNL A   1      42.147  25.175  28.335  1.00  0.00    -0.248 NA
ATOM     51  C   UNL A   1      41.510  26.301  26.415  1.00  0.00     0.031 C 
ATOM     52  C   UNL A   1      42.786  29.913  29.146  1.00  0.00     0.029 A 
ATOM     53  N   UNL A   1      44.201  28.328  28.565  1.00  0.00    -0.354 N 
ATOM     54  C   UNL A   1      42.203  24.316  27.240  1.00  0.00     0.074 A 
ATOM     55  C   UNL A   1      41.481  24.985  26.199  1.00  0.00     0.031 C 
ATOM     56  C   UNL A   1      43.980  30.516  28.945  1.00  0.00     0.029 A 
ATOM     57  C   UNL A   1      44.956  29.508  28.569  1.00  0.00     0.049 A 
ATOM     58  H   UNL A   1      44.608  27.441  28.434  1.00  0.00     0.167 HD
ATOM     59  C   UNL A   1      43.169  23.355  27.167  1.00  0.00     0.034 A 
ATOM     60  C   UNL A   1      46.283  29.645  28.280  1.00  0.00     0.034 A 
ATOM     61  C   UNL A   1      43.821  23.224  28.457  1.00  0.00     0.049 A 
ATOM     62  C   UNL A   1      46.874  28.297  28.439  1.00  0.00     0.074 A 
ATOM     63  C   UNL A   1      43.443  22.849  29.729  1.00  0.00     0.029 A 
ATOM     64  N   UNL A   1      44.993  23.936  28.588  1.00  0.00    -0.354 N 
ATOM     65  N   UNL A   1      46.924  27.675  29.585  1.00  0.00    -0.248 NA
ATOM     66  C   UNL A   1      46.980  27.440  27.267  1.00  0.00     0.031 C 
ATOM     67  C   UNL A   1      44.220  23.661  30.610  1.00  0.00     0.029 A 
ATOM     68  C   UNL A   1      45.110  24.432  29.859  1.00  0.00     0.049 A 
ATOM     69  H   UNL A   1      45.653  24.070  27.870  1.00  0.00     0.167 HD
ATOM     70  C   UNL A   1      46.611  26.358  29.288  1.00  0.00     0.074 A 
ATOM     71  C   UNL A   1      46.812  26.245  27.843  1.00  0.00     0.031 C 
ATOM     72  C   UNL A   1      45.923  25.594  30.189  1.00  0.00     0.034 A 
BRANCH  59  73
ATOM     73  C   UNL A   1      43.884  22.919  25.889  1.00  0.00     0.023 A 
ATOM     74  C   UNL A   1      43.996  21.527  25.682  1.00  0.00     0.031 A 
ATOM     75  C   UNL A   1      44.690  23.716  25.044  1.00  0.00     0.131 A 
ATOM     76  C   UNL A   1      44.956  20.993  24.804  1.00  0.00     0.055 A 
ATOM     77  C   UNL A   1      45.611  23.179  24.137  1.00  0.00     0.041 A 
ATOM     78  F   UNL A   1      44.698  25.051  25.074  1.00  0.00    -0.206 F 
ATOM     79  C   UNL A   1      45.776  21.812  24.038  1.00  0.00     0.022 A 
BRANCH  76  80
ATOM     80  S   UNL A   1      45.229  19.204  24.815  1.00  0.00     0.124 S 
ATOM     81  O   UNL A   1      46.399  19.095  25.678  1.00  0.00    -0.237 OA
ATOM     82  O   UNL A   1      43.969  18.715  25.366  1.00  0.00    -0.237 OA
ATOM     83  O   UNL A   1      45.457  18.890  23.407  1.00  0.00    -0.744 OA
ENDBRANCH  76  80
ENDBRANCH  59  73
BRANCH  60  84
ATOM     84  C   UNL A   1      46.994  30.763  27.582  1.00  0.00     0.023 A 
ATOM     85  C   UNL A   1      46.340  31.882  27.006  1.00  0.00     0.031 A 
ATOM     86  C   UNL A   1      48.395  30.863  27.726  1.00  0.00     0.131 A 
ATOM     87  C   UNL A   1      47.083  33.028  26.616  1.00  0.00     0.055 A 
ATOM     88  C   UNL A   1      49.120  31.998  27.348  1.00  0.00     0.041 A 
ATOM     89  F   UNL A   1      49.097  29.891  28.329  1.00  0.00    -0.206 F 
ATOM     90  C   UNL A   1      48.466  33.090  26.800  1.00  0.00     0.022 A 
BRANCH  87  91
ATOM     91  S   UNL A   1      46.259  34.507  25.919  1.00  0.00     0.124 S 
ATOM     92  O   UNL A   1      45.426  33.937  24.866  1.00  0.00    -0.237 OA
ATOM     93  O   UNL A   1      45.560  35.055  27.075  1.00  0.00    -0.237 OA
ATOM     94  O   UNL A   1      47.373  35.327  25.436  1.00  0.00    -0.744 OA
ENDBRANCH  87  91
ENDBRANCH  60  84
BRANCH  72  95
ATOM     95  C   UNL A   1      45.908  26.062  31.632  1.00  0.00     0.023 A 
ATOM     96  C   UNL A   1      46.976  25.948  32.554  1.00  0.00     0.031 A 
ATOM     97  C   UNL A   1      44.746  26.726  32.059  1.00  0.00     0.131 A 
ATOM     98  C   UNL A   1      46.842  26.483  33.853  1.00  0.00     0.055 A 
ATOM     99  C   UNL A   1      44.627  27.274  33.333  1.00  0.00     0.041 A 
ATOM    100  F   UNL A   1      43.706  26.880  31.222  1.00  0.00    -0.206 F 
ATOM    101  C   UNL A   1      45.673  27.149  34.238  1.00  0.00     0.022 A 
BRANCH  98 102
ATOM    102  S   UNL A   1      48.171  26.298  35.089  1.00  0.00     0.124 S 
ATOM    103  O   UNL A   1      47.470  26.396  36.363  1.00  0.00    -0.237 OA
ATOM    104  O   UNL A   1      48.726  24.987  34.763  1.00  0.00    -0.237 OA
ATOM    105  O   UNL A   1      49.064  27.422  34.798  1.00  0.00    -0.744 OA
ENDBRANCH  98 102
ENDBRANCH  72  95
ENDBRANCH  46  47
ENDBRANCH  38  41
ENDBRANCH  36  37
ENDBRANCH   1  36
TORSDOF 18
ENDMDL
MODEL 3
REMARK VINA RESULT:     -13.0      4.211      5.549
REMARK SMILES COc1cc(OC)c(-c2cc(C(=O)NCCCNC(=O)c3ccc(-c4c5nc(c(-c6cc(S(=O)(=O)[O-])ccc6F)c6ccc([nH]6)c(-c6cc(S(=O)(=O)[O-])ccc6F)c6nc(c(-c7cc(S(=O)(=O)[O-])ccc7F)c7ccc4[nH]7)C=C6)C=C5)cc3)c3c(-c4ccc(Cl)cc4)[nH]nc3n2)cc1OC
REMARK SMILES IDX 16 1 15 2 14 3 12 4 13 5 11 7 9 8 10 9 96 10 95 11 84 12
REMARK SMILES IDX 94 13 85 14 93 15 8 17 3 18 4 19 98 20 5 21 97 22 2 23 1 24
REMARK SMILES IDX 99 25 100 26 6 27 7 28 86 29 87 30 92 31 88 32 91 33 89 34
REMARK SMILES IDX 90 35 17 36 18 37 19 38 20 40 21 41 22 42 83 43 23 44 82 45
REMARK SMILES IDX 24 46 25 47 26 48 76 49 27 50 81 51 75 52 77 53 28 54 80 55
REMARK SMILES IDX 74 56 73 57 29 59 61 60 41 61 60 62 42 63 45 64 59 65 78 66
REMARK SMILES IDX 43 67 44 68 58 70 79 71 46 72 30 73 31 74 39 75 32 76 38 77
REMARK SMILES IDX 40 78 37 79 33 80 34 81 35 82 36 83 62 84 63 85 71 86 64 87
REMARK SMILES IDX 70 88 72 89 69 90 65 91 66 92 67 93 68 94 47 95 48 96 56 97
REMARK SMILES IDX 49 98 55 99 57 100 54 101 50 102 51 103 52 104 53 105
REMARK H PARENT 14 6 93 16 18 39 77 58 45 69
REMARK Flexibility Score: inf
ROOT
ATOM      1  C   UNL A   1      38.035  23.046  26.325  1.00  0.00     0.042 C 
ENDROOT
BRANCH   1   2
ATOM      2  C   UNL A   1      36.680  23.310  25.656  1.00  0.00     0.118 C 
BRANCH   2   3
ATOM      3  N   UNL A   1      35.565  23.170  26.580  1.00  0.00    -0.352 N 
ATOM      4  C   UNL A   1      34.233  23.495  26.532  1.00  0.00     0.252 C 
ATOM      5  O   UNL A   1      33.538  22.926  27.367  1.00  0.00    -0.269 OA
ATOM      6  H   UNL A   1      35.825  22.747  27.431  1.00  0.00     0.163 HD
BRANCH   4   7
ATOM      7  C   UNL A   1      33.628  24.398  25.523  1.00  0.00     0.055 A 
ATOM      8  C   UNL A   1      32.975  26.690  24.797  1.00  0.00     0.077 A 
ATOM      9  C   UNL A   1      33.301  25.731  25.787  1.00  0.00     0.043 A 
ATOM     10  N   UNL A   1      32.823  26.432  23.476  1.00  0.00    -0.226 NA
ATOM     11  C   UNL A   1      32.960  25.110  23.187  1.00  0.00     0.182 A 
ATOM     12  C   UNL A   1      33.338  24.118  24.173  1.00  0.00     0.059 A 
ATOM     13  N   UNL A   1      32.755  24.566  21.988  1.00  0.00    -0.154 NA
ATOM     14  C   UNL A   1      33.281  22.912  23.491  1.00  0.00     0.075 A 
ATOM     15  N   UNL A   1      32.943  23.256  22.201  1.00  0.00    -0.275 N 
ATOM     16  H   UNL A   1      32.844  22.587  21.486  1.00  0.00     0.190 HD
BRANCH   8  17
ATOM     17  C   UNL A   1      32.836  28.086  25.250  1.00  0.00     0.046 A 
ATOM     18  C   UNL A   1      32.702  30.640  26.485  1.00  0.00     0.164 A 
ATOM     19  C   UNL A   1      31.663  30.170  25.664  1.00  0.00     0.097 A 
ATOM     20  C   UNL A   1      33.819  29.841  26.706  1.00  0.00     0.161 A 
ATOM     21  C   UNL A   1      31.704  28.892  25.074  1.00  0.00     0.132 A 
ATOM     22  C   UNL A   1      33.882  28.599  26.059  1.00  0.00     0.064 A 
BRANCH  18  23
ATOM     23  O   UNL A   1      32.480  31.807  27.164  1.00  0.00    -0.493 OA
ATOM     24  C   UNL A   1      31.489  32.621  26.536  1.00  0.00     0.278 C 
ENDBRANCH  18  23
BRANCH  20  25
ATOM     25  O   UNL A   1      34.888  30.041  27.533  1.00  0.00    -0.493 OA
ATOM     26  C   UNL A   1      35.800  28.985  27.773  1.00  0.00     0.278 C 
ENDBRANCH  20  25
BRANCH  21  27
ATOM     27  O   UNL A   1      30.566  28.582  24.372  1.00  0.00    -0.496 OA
ATOM     28  C   UNL A   1      29.991  29.617  23.579  1.00  0.00     0.278 C 
ENDBRANCH  21  27
ENDBRANCH   8  17
BRANCH  14  29
ATOM     29  C   UNL A   1      33.417  21.502  23.850  1.00  0.00     0.000 A 
ATOM     30  C   UNL A   1      34.630  21.023  24.366  1.00  0.00     0.012 A 
ATOM     31  C   UNL A   1      32.338  20.617  23.709  1.00  0.00     0.012 A 
ATOM     32  C   UNL A   1      34.743  19.695  24.786  1.00  0.00     0.021 A 
ATOM     33  C   UNL A   1      32.446  19.293  24.147  1.00  0.00     0.021 A 
ATOM     34  C   UNL A   1      33.646  18.840  24.692  1.00  0.00     0.041 A 
ATOM     35  Cl  UNL A   1      33.774  17.223  25.260  1.00  0.00    -0.084 Cl
ENDBRANCH  14  29
ENDBRANCH   4   7
ENDBRANCH   2   3
ENDBRANCH   1   2
BRANCH   1  36
ATOM     36  C   UNL A   1      38.651  24.337  26.840  1.00  0.00     0.118 C 
BRANCH  36  37
ATOM     37  N   UNL A   1      39.871  24.684  26.099  1.00  0.00    -0.352 N 
ATOM     38  C   UNL A   1      40.598  25.856  26.111  1.00  0.00     0.251 C 
ATOM     39  H   UNL A   1      40.222  23.978  25.511  1.00  0.00     0.163 HD
ATOM     40  O   UNL A   1      41.389  26.096  25.193  1.00  0.00    -0.269 OA
BRANCH  38  41
ATOM     41  C   UNL A   1      40.423  26.799  27.223  1.00  0.00     0.039 A 
ATOM     42  C   UNL A   1      40.306  26.382  28.554  1.00  0.00     0.014 A 
ATOM     43  C   UNL A   1      40.404  28.151  26.903  1.00  0.00     0.014 A 
ATOM     44  C   UNL A   1      40.231  27.352  29.555  1.00  0.00     0.010 A 
ATOM     45  C   UNL A   1      40.559  29.084  27.886  1.00  0.00     0.010 A 
ATOM     46  C   UNL A   1      40.366  28.704  29.205  1.00  0.00    -0.014 A 
BRANCH  46  47
ATOM     47  C   UNL A   1      40.482  29.777  30.185  1.00  0.00     0.031 A 
ATOM     48  C   UNL A   1      39.196  30.498  30.366  1.00  0.00     0.074 A 
ATOM     49  C   UNL A   1      41.530  29.847  31.041  1.00  0.00     0.049 A 
ATOM     50  N   UNL A   1      38.860  31.650  29.884  1.00  0.00    -0.248 NA
ATOM     51  C   UNL A   1      38.050  29.739  30.909  1.00  0.00     0.031 C 
ATOM     52  C   UNL A   1      42.681  28.933  31.125  1.00  0.00     0.029 A 
ATOM     53  N   UNL A   1      41.749  30.674  32.101  1.00  0.00    -0.354 N 
ATOM     54  C   UNL A   1      37.577  31.881  30.373  1.00  0.00     0.074 A 
ATOM     55  C   UNL A   1      37.047  30.583  30.667  1.00  0.00     0.031 C 
ATOM     56  C   UNL A   1      43.340  29.121  32.291  1.00  0.00     0.029 A 
ATOM     57  C   UNL A   1      42.768  30.269  32.972  1.00  0.00     0.049 A 
ATOM     58  H   UNL A   1      41.228  31.498  32.244  1.00  0.00     0.167 HD
ATOM     59  C   UNL A   1      37.240  33.106  30.872  1.00  0.00     0.034 A 
ATOM     60  C   UNL A   1      43.114  30.835  34.166  1.00  0.00     0.034 A 
ATOM     61  C   UNL A   1      38.263  34.072  30.517  1.00  0.00     0.049 A 
ATOM     62  C   UNL A   1      42.558  32.207  34.140  1.00  0.00     0.074 A 
ATOM     63  C   UNL A   1      38.764  34.605  29.348  1.00  0.00     0.029 A 
ATOM     64  N   UNL A   1      39.212  34.295  31.490  1.00  0.00    -0.354 N 
ATOM     65  N   UNL A   1      42.960  33.120  33.298  1.00  0.00    -0.248 NA
ATOM     66  C   UNL A   1      41.240  32.437  34.715  1.00  0.00     0.031 C 
ATOM     67  C   UNL A   1      40.156  34.812  29.591  1.00  0.00     0.029 A 
ATOM     68  C   UNL A   1      40.442  34.492  30.920  1.00  0.00     0.049 A 
ATOM     69  H   UNL A   1      39.033  34.310  32.457  1.00  0.00     0.167 HD
ATOM     70  C   UNL A   1      41.803  33.769  32.898  1.00  0.00     0.074 A 
ATOM     71  C   UNL A   1      40.810  33.416  33.912  1.00  0.00     0.031 C 
ATOM     72  C   UNL A   1      41.694  34.259  31.627  1.00  0.00     0.034 A 
BRANCH  59  73
ATOM     73  C   UNL A   1      36.329  33.349  32.075  1.00  0.00     0.023 A 
ATOM     74  C   UNL A   1      35.187  34.144  31.840  1.00  0.00     0.031 A 
ATOM     75  C   UNL A   1      36.631  33.122  33.437  1.00  0.00     0.131 A 
ATOM     76  C   UNL A   1      34.509  34.779  32.896  1.00  0.00     0.055 A 
ATOM     77  C   UNL A   1      35.923  33.719  34.486  1.00  0.00     0.041 A 
ATOM     78  F   UNL A   1      37.655  32.373  33.852  1.00  0.00    -0.206 F 
ATOM     79  C   UNL A   1      34.879  34.582  34.220  1.00  0.00     0.022 A 
BRANCH  76  80
ATOM     80  S   UNL A   1      33.243  36.005  32.488  1.00  0.00     0.124 S 
ATOM     81  O   UNL A   1      33.436  36.986  33.549  1.00  0.00    -0.237 OA
ATOM     82  O   UNL A   1      33.646  36.414  31.146  1.00  0.00    -0.237 OA
ATOM     83  O   UNL A   1      32.000  35.242  32.560  1.00  0.00    -0.744 OA
ENDBRANCH  76  80
ENDBRANCH  59  73
BRANCH  60  84
ATOM     84  C   UNL A   1      43.598  30.182  35.423  1.00  0.00     0.023 A 
ATOM     85  C   UNL A   1      43.207  28.885  35.845  1.00  0.00     0.031 A 
ATOM     86  C   UNL A   1      44.699  30.754  36.098  1.00  0.00     0.131 A 
ATOM     87  C   UNL A   1      43.913  28.223  36.885  1.00  0.00     0.055 A 
ATOM     88  C   UNL A   1      45.395  30.093  37.115  1.00  0.00     0.041 A 
ATOM     89  F   UNL A   1      45.194  31.944  35.722  1.00  0.00    -0.206 F 
ATOM     90  C   UNL A   1      45.012  28.821  37.506  1.00  0.00     0.022 A 
BRANCH  87  91
ATOM     91  S   UNL A   1      43.463  26.530  37.414  1.00  0.00     0.124 S 
ATOM     92  O   UNL A   1      43.762  26.554  38.842  1.00  0.00    -0.237 OA
ATOM     93  O   UNL A   1      42.055  26.447  37.047  1.00  0.00    -0.237 OA
ATOM     94  O   UNL A   1      44.350  25.674  36.622  1.00  0.00    -0.744 OA
ENDBRANCH  87  91
ENDBRANCH  60  84
BRANCH  72  95
ATOM     95  C   UNL A   1      42.978  34.464  30.846  1.00  0.00     0.023 A 
ATOM     96  C   UNL A   1      43.490  33.602  29.846  1.00  0.00     0.031 A 
ATOM     97  C   UNL A   1      43.678  35.656  31.101  1.00  0.00     0.131 A 
ATOM     98  C   UNL A   1      44.672  33.950  29.157  1.00  0.00     0.055 A 
ATOM     99  C   UNL A   1      44.829  36.007  30.401  1.00  0.00     0.041 A 
ATOM    100  F   UNL A   1      43.231  36.521  32.025  1.00  0.00    -0.206 F 
ATOM    101  C   UNL A   1      45.334  35.152  29.430  1.00  0.00     0.022 A 
BRANCH  98 102
ATOM    102  S   UNL A   1      45.396  32.834  27.909  1.00  0.00     0.124 S 
ATOM    103  O   UNL A   1      46.357  32.047  28.671  1.00  0.00    -0.237 OA
ATOM    104  O   UNL A   1      44.228  32.111  27.414  1.00  0.00    -0.237 OA
ATOM    105  O   UNL A   1      45.995  33.753  26.939  1.00  0.00    -0.744 OA
ENDBRANCH  98 102
ENDBRANCH  72  95
ENDBRANCH  46  47
ENDBRANCH  38  41
ENDBRANCH  36  37
ENDBRANCH   1  36
TORSDOF 18
ENDMDL
