MODEL 1
REMARK VINA RESULT:     -12.3      0.000      0.000
REMARK SMILES O=C(C[C@H](Cc1ccc(Cl)cc1)C(=O)Nc1cc(Cl)ccc1Cl)NCCCNC(=O)c1ccc(-c2c3nc(c(-c4cc(S(=O)(=O)[O-])ccc4F)c4ccc([nH]4)c(-c4cc(S(=O)(=O)[O-])ccc4F)c4nc(c(-c5cc(S(=O)(=O)[O-])ccc5F)c5ccc2[nH]5)C=C4)C=C3)cc1
REMARK SMILES IDX 26 1 25 2 24 3 1 4 2 5 3 7 4 8 13 9 14 10 15 11 16 13 17 14
REMARK SMILES IDX 22 15 18 16 21 17 23 18 19 19 20 20 5 21 6 22 7 23 12 24
REMARK SMILES IDX 8 25 11 26 9 27 10 28 27 29 28 30 29 31 30 33 31 34 32 35
REMARK SMILES IDX 93 36 33 37 92 38 34 39 35 40 36 41 86 42 37 43 91 44 85 45
REMARK SMILES IDX 87 46 38 47 90 48 84 49 83 50 39 52 71 53 51 54 70 55 52 56
REMARK SMILES IDX 55 57 69 58 88 59 53 60 54 61 68 63 89 64 56 65 40 66 41 67
REMARK SMILES IDX 49 68 42 69 48 70 50 71 47 72 43 73 44 74 45 75 46 76 72 77
REMARK SMILES IDX 73 78 81 79 74 80 80 81 82 82 79 83 75 84 76 85 77 86 78 87
REMARK SMILES IDX 57 88 58 89 66 90 59 91 65 92 67 93 64 94 60 95 61 96 62 97
REMARK SMILES IDX 63 98
REMARK H PARENT 24 6 15 12 28 32 87 51 55 62
REMARK Flexibility Score: inf
ROOT
ATOM      1  C   UNL A   1      32.476  31.280  27.141  1.00  0.00     0.042 C 
ENDROOT
BRANCH   1   2
ATOM      2  C   UNL A   1      33.070  29.893  27.321  1.00  0.00     0.117 C 
BRANCH   2   3
ATOM      3  N   UNL A   1      32.122  28.828  27.053  1.00  0.00    -0.356 N 
ATOM      4  O   UNL A   1      33.617  27.405  26.056  1.00  0.00    -0.275 OA
ATOM      5  C   UNL A   1      32.501  27.623  26.514  1.00  0.00     0.220 C 
ATOM      6  H   UNL A   1      31.172  28.975  27.264  1.00  0.00     0.163 HD
BRANCH   5   7
ATOM      7  C   UNL A   1      31.420  26.564  26.515  1.00  0.00     0.113 C 
BRANCH   7   8
ATOM      8  C   UNL A   1      31.599  25.358  25.571  1.00  0.00     0.092 C 
BRANCH   8   9
ATOM      9  C   UNL A   1      31.761  24.029  26.320  1.00  0.00     0.228 C 
ATOM     10  O   UNL A   1      30.916  23.720  27.171  1.00  0.00    -0.274 OA
ATOM     11  N   UNL A   1      32.714  23.098  26.055  1.00  0.00    -0.324 N 
ATOM     12  H   UNL A   1      32.502  22.214  26.432  1.00  0.00     0.169 HD
BRANCH  11  13
ATOM     13  C   UNL A   1      33.933  23.120  25.360  1.00  0.00     0.061 A 
ATOM     14  C   UNL A   1      35.132  23.490  25.966  1.00  0.00     0.048 A 
ATOM     15  C   UNL A   1      33.964  22.658  24.031  1.00  0.00     0.064 A 
ATOM     16  C   UNL A   1      36.316  23.514  25.225  1.00  0.00     0.043 A 
ATOM     17  C   UNL A   1      35.149  22.690  23.289  1.00  0.00     0.024 A 
ATOM     18  Cl  UNL A   1      32.532  22.072  23.256  1.00  0.00    -0.082 Cl
ATOM     19  Cl  UNL A   1      37.785  23.991  25.987  1.00  0.00    -0.084 Cl
ATOM     20  C   UNL A   1      36.326  23.139  23.884  1.00  0.00     0.022 A 
ENDBRANCH  11  13
ENDBRANCH   8   9
BRANCH   8  21
ATOM     21  C   UNL A   1      30.726  25.240  24.315  1.00  0.00     0.049 C 
BRANCH  21  22
ATOM     22  C   UNL A   1      30.106  26.499  23.735  1.00  0.00    -0.047 A 
ATOM     23  C   UNL A   1      28.722  26.678  23.914  1.00  0.00     0.005 A 
ATOM     24  C   UNL A   1      30.818  27.490  23.047  1.00  0.00     0.005 A 
ATOM     25  C   UNL A   1      28.061  27.790  23.386  1.00  0.00     0.021 A 
ATOM     26  C   UNL A   1      30.157  28.606  22.518  1.00  0.00     0.021 A 
ATOM     27  C   UNL A   1      28.781  28.745  22.679  1.00  0.00     0.041 A 
ATOM     28  Cl  UNL A   1      27.969  30.095  21.990  1.00  0.00    -0.084 Cl
ENDBRANCH  21  22
ENDBRANCH   8  21
ENDBRANCH   7   8
ENDBRANCH   5   7
ENDBRANCH   2   3
ENDBRANCH   1   2
BRANCH   1  29
ATOM     29  C   UNL A   1      33.479  32.421  27.268  1.00  0.00     0.118 C 
BRANCH  29  30
ATOM     30  N   UNL A   1      32.877  33.692  27.653  1.00  0.00    -0.352 N 
ATOM     31  C   UNL A   1      33.220  34.532  28.689  1.00  0.00     0.251 C 
ATOM     32  H   UNL A   1      32.122  33.991  27.096  1.00  0.00     0.163 HD
ATOM     33  O   UNL A   1      32.528  35.516  28.935  1.00  0.00    -0.269 OA
BRANCH  31  34
ATOM     34  C   UNL A   1      34.398  34.212  29.526  1.00  0.00     0.039 A 
ATOM     35  C   UNL A   1      34.216  33.493  30.710  1.00  0.00     0.014 A 
ATOM     36  C   UNL A   1      35.682  34.567  29.107  1.00  0.00     0.014 A 
ATOM     37  C   UNL A   1      35.331  33.044  31.424  1.00  0.00     0.010 A 
ATOM     38  C   UNL A   1      36.789  34.057  29.778  1.00  0.00     0.010 A 
ATOM     39  C   UNL A   1      36.626  33.275  30.934  1.00  0.00    -0.014 A 
BRANCH  39  40
ATOM     40  C   UNL A   1      37.834  32.705  31.589  1.00  0.00     0.031 A 
ATOM     41  C   UNL A   1      38.559  31.555  30.945  1.00  0.00     0.074 A 
ATOM     42  C   UNL A   1      38.208  33.140  32.809  1.00  0.00     0.049 A 
ATOM     43  N   UNL A   1      39.497  30.786  31.433  1.00  0.00    -0.248 NA
ATOM     44  C   UNL A   1      38.139  31.204  29.580  1.00  0.00     0.031 C 
ATOM     45  C   UNL A   1      37.571  34.229  33.553  1.00  0.00     0.029 A 
ATOM     46  N   UNL A   1      39.200  32.701  33.652  1.00  0.00    -0.354 N 
ATOM     47  C   UNL A   1      39.759  29.839  30.450  1.00  0.00     0.074 A 
ATOM     48  C   UNL A   1      38.845  30.106  29.357  1.00  0.00     0.031 C 
ATOM     49  C   UNL A   1      38.193  34.377  34.735  1.00  0.00     0.029 A 
ATOM     50  C   UNL A   1      39.232  33.362  34.859  1.00  0.00     0.049 A 
ATOM     51  H   UNL A   1      39.829  31.982  33.415  1.00  0.00     0.167 HD
ATOM     52  C   UNL A   1      40.686  28.848  30.451  1.00  0.00     0.034 A 
ATOM     53  C   UNL A   1      39.994  33.157  35.954  1.00  0.00     0.034 A 
ATOM     54  C   UNL A   1      41.605  28.611  31.536  1.00  0.00     0.049 A 
ATOM     55  C   UNL A   1      41.010  32.043  35.939  1.00  0.00     0.074 A 
ATOM     56  C   UNL A   1      42.615  27.668  31.622  1.00  0.00     0.029 A 
ATOM     57  N   UNL A   1      41.629  29.325  32.728  1.00  0.00    -0.354 N 
ATOM     58  N   UNL A   1      41.259  31.166  34.993  1.00  0.00    -0.248 NA
ATOM     59  C   UNL A   1      41.850  31.893  37.135  1.00  0.00     0.031 C 
ATOM     60  C   UNL A   1      43.212  27.776  32.883  1.00  0.00     0.029 A 
ATOM     61  C   UNL A   1      42.622  28.831  33.559  1.00  0.00     0.049 A 
ATOM     62  H   UNL A   1      41.028  30.073  32.950  1.00  0.00     0.167 HD
ATOM     63  C   UNL A   1      42.312  30.389  35.467  1.00  0.00     0.074 A 
ATOM     64  C   UNL A   1      42.649  30.896  36.780  1.00  0.00     0.031 C 
ATOM     65  C   UNL A   1      42.950  29.353  34.864  1.00  0.00     0.034 A 
BRANCH  52  66
ATOM     66  C   UNL A   1      40.722  27.933  29.252  1.00  0.00     0.023 A 
ATOM     67  C   UNL A   1      41.648  28.118  28.210  1.00  0.00     0.031 A 
ATOM     68  C   UNL A   1      39.795  26.882  29.128  1.00  0.00     0.131 A 
ATOM     69  C   UNL A   1      41.574  27.322  27.058  1.00  0.00     0.055 A 
ATOM     70  C   UNL A   1      39.782  26.038  28.016  1.00  0.00     0.041 A 
ATOM     71  F   UNL A   1      38.875  26.667  30.082  1.00  0.00    -0.206 F 
ATOM     72  C   UNL A   1      40.664  26.267  26.963  1.00  0.00     0.022 A 
BRANCH  69  73
ATOM     73  S   UNL A   1      42.584  27.784  25.624  1.00  0.00     0.124 S 
ATOM     74  O   UNL A   1      43.871  28.073  26.252  1.00  0.00    -0.237 OA
ATOM     75  O   UNL A   1      42.530  26.583  24.800  1.00  0.00    -0.237 OA
ATOM     76  O   UNL A   1      41.890  28.948  25.078  1.00  0.00    -0.744 OA
ENDBRANCH  69  73
ENDBRANCH  52  66
BRANCH  53  77
ATOM     77  C   UNL A   1      39.816  34.005  37.166  1.00  0.00     0.023 A 
ATOM     78  C   UNL A   1      39.129  33.521  38.289  1.00  0.00     0.031 A 
ATOM     79  C   UNL A   1      40.300  35.325  37.205  1.00  0.00     0.131 A 
ATOM     80  C   UNL A   1      38.904  34.364  39.389  1.00  0.00     0.055 A 
ATOM     81  C   UNL A   1      40.118  36.144  38.321  1.00  0.00     0.041 A 
ATOM     82  F   UNL A   1      40.971  35.833  36.159  1.00  0.00    -0.206 F 
ATOM     83  C   UNL A   1      39.404  35.668  39.418  1.00  0.00     0.022 A 
BRANCH  80  84
ATOM     84  S   UNL A   1      37.881  33.753  40.757  1.00  0.00     0.124 S 
ATOM     85  O   UNL A   1      38.825  32.908  41.478  1.00  0.00    -0.237 OA
ATOM     86  O   UNL A   1      37.492  34.992  41.420  1.00  0.00    -0.237 OA
ATOM     87  O   UNL A   1      36.798  33.044  40.080  1.00  0.00    -0.744 OA
ENDBRANCH  80  84
ENDBRANCH  53  77
BRANCH  65  88
ATOM     88  C   UNL A   1      44.125  28.751  35.591  1.00  0.00     0.023 A 
ATOM     89  C   UNL A   1      43.967  27.740  36.553  1.00  0.00     0.031 A 
ATOM     90  C   UNL A   1      45.427  29.195  35.300  1.00  0.00     0.131 A 
ATOM     91  C   UNL A   1      45.092  27.229  37.218  1.00  0.00     0.055 A 
ATOM     92  C   UNL A   1      46.546  28.651  35.930  1.00  0.00     0.041 A 
ATOM     93  F   UNL A   1      45.631  30.160  34.388  1.00  0.00    -0.206 F 
ATOM     94  C   UNL A   1      46.381  27.668  36.901  1.00  0.00     0.022 A 
BRANCH  91  95
ATOM     95  S   UNL A   1      44.850  26.019  38.546  1.00  0.00     0.124 S 
ATOM     96  O   UNL A   1      43.776  26.631  39.323  1.00  0.00    -0.237 OA
ATOM     97  O   UNL A   1      44.493  24.811  37.808  1.00  0.00    -0.237 OA
ATOM     98  O   UNL A   1      46.150  25.973  39.213  1.00  0.00    -0.744 OA
ENDBRANCH  91  95
ENDBRANCH  65  88
ENDBRANCH  39  40
ENDBRANCH  31  34
ENDBRANCH  29  30
ENDBRANCH   1  29
TORSDOF 18
ENDMDL
MODEL 2
REMARK VINA RESULT:     -12.3      1.509      2.798
REMARK SMILES O=C(C[C@H](Cc1ccc(Cl)cc1)C(=O)Nc1cc(Cl)ccc1Cl)NCCCNC(=O)c1ccc(-c2c3nc(c(-c4cc(S(=O)(=O)[O-])ccc4F)c4ccc([nH]4)c(-c4cc(S(=O)(=O)[O-])ccc4F)c4nc(c(-c5cc(S(=O)(=O)[O-])ccc5F)c5ccc2[nH]5)C=C4)C=C3)cc1
REMARK SMILES IDX 26 1 25 2 24 3 1 4 2 5 3 7 4 8 13 9 14 10 15 11 16 13 17 14
REMARK SMILES IDX 22 15 18 16 21 17 23 18 19 19 20 20 5 21 6 22 7 23 12 24
REMARK SMILES IDX 8 25 11 26 9 27 10 28 27 29 28 30 29 31 30 33 31 34 32 35
REMARK SMILES IDX 93 36 33 37 92 38 34 39 35 40 36 41 86 42 37 43 91 44 85 45
REMARK SMILES IDX 87 46 38 47 90 48 84 49 83 50 39 52 71 53 51 54 70 55 52 56
REMARK SMILES IDX 55 57 69 58 88 59 53 60 54 61 68 63 89 64 56 65 40 66 41 67
REMARK SMILES IDX 49 68 42 69 48 70 50 71 47 72 43 73 44 74 45 75 46 76 72 77
REMARK SMILES IDX 73 78 81 79 74 80 80 81 82 82 79 83 75 84 76 85 77 86 78 87
REMARK SMILES IDX 57 88 58 89 66 90 59 91 65 92 67 93 64 94 60 95 61 96 62 97
REMARK SMILES IDX 63 98
REMARK H PARENT 24 6 15 12 28 32 87 51 55 62
REMARK Flexibility Score: inf
ROOT
ATOM      1  C   UNL A   1      32.325  31.005  26.606  1.00  0.00     0.042 C 
ENDROOT
BRANCH   1   2
ATOM      2  C   UNL A   1      32.536  29.532  26.917  1.00  0.00     0.117 C 
BRANCH   2   3
ATOM      3  N   UNL A   1      32.642  28.707  25.729  1.00  0.00    -0.356 N 
ATOM      4  O   UNL A   1      30.904  27.304  26.237  1.00  0.00    -0.275 OA
ATOM      5  C   UNL A   1      31.750  27.704  25.445  1.00  0.00     0.220 C 
ATOM      6  H   UNL A   1      33.384  28.873  25.102  1.00  0.00     0.163 HD
BRANCH   5   7
ATOM      7  C   UNL A   1      31.890  27.106  24.062  1.00  0.00     0.113 C 
BRANCH   7   8
ATOM      8  C   UNL A   1      32.252  25.611  23.961  1.00  0.00     0.092 C 
BRANCH   8   9
ATOM      9  C   UNL A   1      31.022  24.703  23.835  1.00  0.00     0.228 C 
ATOM     10  O   UNL A   1      29.943  25.209  23.495  1.00  0.00    -0.274 OA
ATOM     11  N   UNL A   1      31.034  23.352  23.968  1.00  0.00    -0.324 N 
ATOM     12  H   UNL A   1      30.234  22.921  23.589  1.00  0.00     0.169 HD
BRANCH  11  13
ATOM     13  C   UNL A   1      31.938  22.435  24.526  1.00  0.00     0.061 A 
ATOM     14  C   UNL A   1      32.361  22.514  25.851  1.00  0.00     0.048 A 
ATOM     15  C   UNL A   1      32.359  21.339  23.748  1.00  0.00     0.064 A 
ATOM     16  C   UNL A   1      33.278  21.587  26.354  1.00  0.00     0.043 A 
ATOM     17  C   UNL A   1      33.283  20.418  24.251  1.00  0.00     0.024 A 
ATOM     18  Cl  UNL A   1      31.779  21.116  22.133  1.00  0.00    -0.082 Cl
ATOM     19  Cl  UNL A   1      33.801  21.711  27.989  1.00  0.00    -0.084 Cl
ATOM     20  C   UNL A   1      33.759  20.554  25.553  1.00  0.00     0.022 A 
ENDBRANCH  11  13
ENDBRANCH   8   9
BRANCH   8  21
ATOM     21  C   UNL A   1      33.421  25.170  23.071  1.00  0.00     0.049 C 
BRANCH  21  22
ATOM     22  C   UNL A   1      34.561  24.387  23.696  1.00  0.00    -0.047 A 
ATOM     23  C   UNL A   1      34.926  24.718  25.014  1.00  0.00     0.005 A 
ATOM     24  C   UNL A   1      35.264  23.358  23.054  1.00  0.00     0.005 A 
ATOM     25  C   UNL A   1      35.984  24.073  25.657  1.00  0.00     0.021 A 
ATOM     26  C   UNL A   1      36.325  22.709  23.698  1.00  0.00     0.021 A 
ATOM     27  C   UNL A   1      36.688  23.076  24.991  1.00  0.00     0.041 A 
ATOM     28  Cl  UNL A   1      38.019  22.306  25.759  1.00  0.00    -0.084 Cl
ENDBRANCH  21  22
ENDBRANCH   8  21
ENDBRANCH   7   8
ENDBRANCH   5   7
ENDBRANCH   2   3
ENDBRANCH   1   2
BRANCH   1  29
ATOM     29  C   UNL A   1      33.338  31.941  27.256  1.00  0.00     0.118 C 
BRANCH  29  30
ATOM     30  N   UNL A   1      32.814  33.274  27.528  1.00  0.00    -0.352 N 
ATOM     31  C   UNL A   1      33.222  34.186  28.478  1.00  0.00     0.251 C 
ATOM     32  H   UNL A   1      32.066  33.563  26.956  1.00  0.00     0.163 HD
ATOM     33  O   UNL A   1      32.590  35.225  28.640  1.00  0.00    -0.269 OA
BRANCH  31  34
ATOM     34  C   UNL A   1      34.395  33.877  29.324  1.00  0.00     0.039 A 
ATOM     35  C   UNL A   1      34.214  33.133  30.492  1.00  0.00     0.014 A 
ATOM     36  C   UNL A   1      35.676  34.271  28.931  1.00  0.00     0.014 A 
ATOM     37  C   UNL A   1      35.330  32.696  31.214  1.00  0.00     0.010 A 
ATOM     38  C   UNL A   1      36.785  33.775  29.608  1.00  0.00     0.010 A 
ATOM     39  C   UNL A   1      36.625  32.968  30.747  1.00  0.00    -0.014 A 
BRANCH  39  40
ATOM     40  C   UNL A   1      37.837  32.414  31.409  1.00  0.00     0.031 A 
ATOM     41  C   UNL A   1      38.584  31.277  30.766  1.00  0.00     0.074 A 
ATOM     42  C   UNL A   1      38.196  32.851  32.633  1.00  0.00     0.049 A 
ATOM     43  N   UNL A   1      39.530  30.521  31.258  1.00  0.00    -0.248 NA
ATOM     44  C   UNL A   1      38.179  30.924  29.397  1.00  0.00     0.031 C 
ATOM     45  C   UNL A   1      37.538  33.928  33.376  1.00  0.00     0.029 A 
ATOM     46  N   UNL A   1      39.189  32.424  33.481  1.00  0.00    -0.354 N 
ATOM     47  C   UNL A   1      39.814  29.581  30.274  1.00  0.00     0.074 A 
ATOM     48  C   UNL A   1      38.903  29.837  29.176  1.00  0.00     0.031 C 
ATOM     49  C   UNL A   1      38.149  34.081  34.562  1.00  0.00     0.029 A 
ATOM     50  C   UNL A   1      39.203  33.082  34.690  1.00  0.00     0.049 A 
ATOM     51  H   UNL A   1      39.831  31.716  33.246  1.00  0.00     0.167 HD
ATOM     52  C   UNL A   1      40.756  28.604  30.278  1.00  0.00     0.034 A 
ATOM     53  C   UNL A   1      39.960  32.884  35.789  1.00  0.00     0.034 A 
ATOM     54  C   UNL A   1      41.671  28.379  31.369  1.00  0.00     0.049 A 
ATOM     55  C   UNL A   1      40.993  31.786  35.778  1.00  0.00     0.074 A 
ATOM     56  C   UNL A   1      42.695  27.451  31.459  1.00  0.00     0.029 A 
ATOM     57  N   UNL A   1      41.676  29.089  32.563  1.00  0.00    -0.354 N 
ATOM     58  N   UNL A   1      41.263  30.917  34.831  1.00  0.00    -0.248 NA
ATOM     59  C   UNL A   1      41.827  31.646  36.979  1.00  0.00     0.031 C 
ATOM     60  C   UNL A   1      43.282  27.564  32.724  1.00  0.00     0.029 A 
ATOM     61  C   UNL A   1      42.671  28.607  33.400  1.00  0.00     0.049 A 
ATOM     62  H   UNL A   1      41.062  29.826  32.783  1.00  0.00     0.167 HD
ATOM     63  C   UNL A   1      42.324  30.154  35.310  1.00  0.00     0.074 A 
ATOM     64  C   UNL A   1      42.643  30.662  36.627  1.00  0.00     0.031 C 
ATOM     65  C   UNL A   1      42.982  29.131  34.708  1.00  0.00     0.034 A 
BRANCH  52  66
ATOM     66  C   UNL A   1      40.814  27.694  29.077  1.00  0.00     0.023 A 
ATOM     67  C   UNL A   1      41.785  27.859  28.072  1.00  0.00     0.031 A 
ATOM     68  C   UNL A   1      39.866  26.669  28.912  1.00  0.00     0.131 A 
ATOM     69  C   UNL A   1      41.734  27.071  26.914  1.00  0.00     0.055 A 
ATOM     70  C   UNL A   1      39.873  25.831  27.795  1.00  0.00     0.041 A 
ATOM     71  F   UNL A   1      38.903  26.475  29.828  1.00  0.00    -0.206 F 
ATOM     72  C   UNL A   1      40.801  26.041  26.779  1.00  0.00     0.022 A 
BRANCH  69  73
ATOM     73  S   UNL A   1      42.811  27.512  25.522  1.00  0.00     0.124 S 
ATOM     74  O   UNL A   1      44.008  27.983  26.215  1.00  0.00    -0.237 OA
ATOM     75  O   UNL A   1      42.941  26.246  24.811  1.00  0.00    -0.237 OA
ATOM     76  O   UNL A   1      42.056  28.548  24.821  1.00  0.00    -0.744 OA
ENDBRANCH  69  73
ENDBRANCH  52  66
BRANCH  53  77
ATOM     77  C   UNL A   1      39.761  33.726  37.003  1.00  0.00     0.023 A 
ATOM     78  C   UNL A   1      39.059  33.233  38.113  1.00  0.00     0.031 A 
ATOM     79  C   UNL A   1      40.239  35.048  37.056  1.00  0.00     0.131 A 
ATOM     80  C   UNL A   1      38.815  34.070  39.214  1.00  0.00     0.055 A 
ATOM     81  C   UNL A   1      40.036  35.860  38.173  1.00  0.00     0.041 A 
ATOM     82  F   UNL A   1      40.923  35.564  36.022  1.00  0.00    -0.206 F 
ATOM     83  C   UNL A   1      39.309  35.376  39.257  1.00  0.00     0.022 A 
BRANCH  80  84
ATOM     84  S   UNL A   1      37.774  33.448  40.564  1.00  0.00     0.124 S 
ATOM     85  O   UNL A   1      36.715  32.766  39.830  1.00  0.00    -0.237 OA
ATOM     86  O   UNL A   1      38.704  32.593  41.293  1.00  0.00    -0.237 OA
ATOM     87  O   UNL A   1      37.366  34.663  41.265  1.00  0.00    -0.744 OA
ENDBRANCH  80  84
ENDBRANCH  53  77
BRANCH  65  88
ATOM     88  C   UNL A   1      44.161  28.544  35.441  1.00  0.00     0.023 A 
ATOM     89  C   UNL A   1      44.015  27.506  36.376  1.00  0.00     0.031 A 
ATOM     90  C   UNL A   1      45.454  29.031  35.184  1.00  0.00     0.131 A 
ATOM     91  C   UNL A   1      45.143  27.011  37.049  1.00  0.00     0.055 A 
ATOM     92  C   UNL A   1      46.577  28.503  35.820  1.00  0.00     0.041 A 
ATOM     93  F   UNL A   1      45.646  30.022  34.299  1.00  0.00    -0.206 F 
ATOM     94  C   UNL A   1      46.424  27.494  36.765  1.00  0.00     0.022 A 
BRANCH  91  95
ATOM     95  S   UNL A   1      44.912  25.763  38.344  1.00  0.00     0.124 S 
ATOM     96  O   UNL A   1      46.222  25.748  38.988  1.00  0.00    -0.237 OA
ATOM     97  O   UNL A   1      43.821  26.327  39.133  1.00  0.00    -0.237 OA
ATOM     98  O   UNL A   1      44.573  24.551  37.599  1.00  0.00    -0.744 OA
ENDBRANCH  91  95
ENDBRANCH  65  88
ENDBRANCH  39  40
ENDBRANCH  31  34
ENDBRANCH  29  30
ENDBRANCH   1  29
TORSDOF 18
ENDMDL
MODEL 3
REMARK VINA RESULT:     -12.2      3.581      8.921
REMARK SMILES O=C(C[C@H](Cc1ccc(Cl)cc1)C(=O)Nc1cc(Cl)ccc1Cl)NCCCNC(=O)c1ccc(-c2c3nc(c(-c4cc(S(=O)(=O)[O-])ccc4F)c4ccc([nH]4)c(-c4cc(S(=O)(=O)[O-])ccc4F)c4nc(c(-c5cc(S(=O)(=O)[O-])ccc5F)c5ccc2[nH]5)C=C4)C=C3)cc1
REMARK SMILES IDX 26 1 25 2 24 3 1 4 2 5 3 7 4 8 13 9 14 10 15 11 16 13 17 14
REMARK SMILES IDX 22 15 18 16 21 17 23 18 19 19 20 20 5 21 6 22 7 23 12 24
REMARK SMILES IDX 8 25 11 26 9 27 10 28 27 29 28 30 29 31 30 33 31 34 32 35
REMARK SMILES IDX 93 36 33 37 92 38 34 39 35 40 36 41 86 42 37 43 91 44 85 45
REMARK SMILES IDX 87 46 38 47 90 48 84 49 83 50 39 52 71 53 51 54 70 55 52 56
REMARK SMILES IDX 55 57 69 58 88 59 53 60 54 61 68 63 89 64 56 65 40 66 41 67
REMARK SMILES IDX 49 68 42 69 48 70 50 71 47 72 43 73 44 74 45 75 46 76 72 77
REMARK SMILES IDX 73 78 81 79 74 80 80 81 82 82 79 83 75 84 76 85 77 86 78 87
REMARK SMILES IDX 57 88 58 89 66 90 59 91 65 92 67 93 64 94 60 95 61 96 62 97
REMARK SMILES IDX 63 98
REMARK H PARENT 24 6 15 12 28 32 87 51 55 62
REMARK Flexibility Score: inf
ROOT
ATOM      1  C   UNL A   1      31.873  28.810  26.360  1.00  0.00     0.042 C 
ENDROOT
BRANCH   1   2
ATOM      2  C   UNL A   1      31.640  29.297  24.940  1.00  0.00     0.117 C 
BRANCH   2   3
ATOM      3  N   UNL A   1      31.641  28.225  23.962  1.00  0.00    -0.356 N 
ATOM      4  O   UNL A   1      33.843  28.428  23.364  1.00  0.00    -0.275 OA
ATOM      5  C   UNL A   1      32.780  27.820  23.311  1.00  0.00     0.220 C 
ATOM      6  H   UNL A   1      30.791  27.771  23.756  1.00  0.00     0.163 HD
BRANCH   5   7
ATOM      7  C   UNL A   1      32.628  26.551  22.502  1.00  0.00     0.113 C 
BRANCH   7   8
ATOM      8  C   UNL A   1      32.713  25.208  23.255  1.00  0.00     0.092 C 
BRANCH   8   9
ATOM      9  C   UNL A   1      31.337  24.633  23.613  1.00  0.00     0.228 C 
ATOM     10  O   UNL A   1      30.324  25.242  23.243  1.00  0.00    -0.274 OA
ATOM     11  N   UNL A   1      31.128  23.439  24.225  1.00  0.00    -0.324 N 
ATOM     12  H   UNL A   1      30.204  23.113  24.126  1.00  0.00     0.169 HD
BRANCH  11  13
ATOM     13  C   UNL A   1      31.940  22.567  24.967  1.00  0.00     0.061 A 
ATOM     14  C   UNL A   1      32.428  21.372  24.442  1.00  0.00     0.048 A 
ATOM     15  C   UNL A   1      32.357  22.958  26.254  1.00  0.00     0.064 A 
ATOM     16  C   UNL A   1      33.216  20.528  25.229  1.00  0.00     0.043 A 
ATOM     17  C   UNL A   1      33.140  22.109  27.042  1.00  0.00     0.024 A 
ATOM     18  Cl  UNL A   1      31.884  24.484  26.919  1.00  0.00    -0.082 Cl
ATOM     19  Cl  UNL A   1      33.796  19.048  24.569  1.00  0.00    -0.084 Cl
ATOM     20  C   UNL A   1      33.554  20.880  26.534  1.00  0.00     0.022 A 
ENDBRANCH  11  13
ENDBRANCH   8   9
BRANCH   8  21
ATOM     21  C   UNL A   1      33.712  24.139  22.791  1.00  0.00     0.049 C 
BRANCH  21  22
ATOM     22  C   UNL A   1      34.913  23.832  23.667  1.00  0.00    -0.047 A 
ATOM     23  C   UNL A   1      35.811  22.849  23.209  1.00  0.00     0.005 A 
ATOM     24  C   UNL A   1      35.189  24.463  24.887  1.00  0.00     0.005 A 
ATOM     25  C   UNL A   1      36.925  22.479  23.964  1.00  0.00     0.021 A 
ATOM     26  C   UNL A   1      36.307  24.094  25.645  1.00  0.00     0.021 A 
ATOM     27  C   UNL A   1      37.163  23.096  25.187  1.00  0.00     0.041 A 
ATOM     28  Cl  UNL A   1      38.510  22.616  26.142  1.00  0.00    -0.084 Cl
ENDBRANCH  21  22
ENDBRANCH   8  21
ENDBRANCH   7   8
ENDBRANCH   5   7
ENDBRANCH   2   3
ENDBRANCH   1   2
BRANCH   1  29
ATOM     29  C   UNL A   1      33.250  29.139  26.926  1.00  0.00     0.118 C 
BRANCH  29  30
ATOM     30  N   UNL A   1      33.438  30.552  27.228  1.00  0.00    -0.352 N 
ATOM     31  C   UNL A   1      34.501  31.169  27.851  1.00  0.00     0.251 C 
ATOM     32  H   UNL A   1      32.706  31.148  26.949  1.00  0.00     0.163 HD
ATOM     33  O   UNL A   1      34.441  32.365  28.124  1.00  0.00    -0.269 OA
BRANCH  31  34
ATOM     34  C   UNL A   1      35.688  30.369  28.226  1.00  0.00     0.039 A 
ATOM     35  C   UNL A   1      36.787  30.339  27.365  1.00  0.00     0.014 A 
ATOM     36  C   UNL A   1      35.734  29.703  29.452  1.00  0.00     0.014 A 
ATOM     37  C   UNL A   1      37.973  29.724  27.779  1.00  0.00     0.010 A 
ATOM     38  C   UNL A   1      36.936  29.156  29.891  1.00  0.00     0.010 A 
ATOM     39  C   UNL A   1      38.074  29.175  29.067  1.00  0.00    -0.014 A 
BRANCH  39  40
ATOM     40  C   UNL A   1      39.352  28.628  29.596  1.00  0.00     0.031 A 
ATOM     41  C   UNL A   1      40.085  29.365  30.683  1.00  0.00     0.074 A 
ATOM     42  C   UNL A   1      39.908  27.541  29.025  1.00  0.00     0.049 A 
ATOM     43  N   UNL A   1      41.295  29.180  31.143  1.00  0.00    -0.248 NA
ATOM     44  C   UNL A   1      39.367  30.487  31.307  1.00  0.00     0.031 C 
ATOM     45  C   UNL A   1      39.312  26.752  27.944  1.00  0.00     0.029 A 
ATOM     46  N   UNL A   1      41.113  26.924  29.256  1.00  0.00    -0.354 N 
ATOM     47  C   UNL A   1      41.498  30.180  32.088  1.00  0.00     0.074 A 
ATOM     48  C   UNL A   1      40.301  30.996  32.097  1.00  0.00     0.031 C 
ATOM     49  C   UNL A   1      40.149  25.756  27.613  1.00  0.00     0.029 A 
ATOM     50  C   UNL A   1      41.362  25.864  28.415  1.00  0.00     0.049 A 
ATOM     51  H   UNL A   1      41.740  27.213  29.958  1.00  0.00     0.167 HD
ATOM     52  C   UNL A   1      42.577  30.389  32.883  1.00  0.00     0.034 A 
ATOM     53  C   UNL A   1      42.455  25.084  28.283  1.00  0.00     0.034 A 
ATOM     54  C   UNL A   1      43.751  29.553  32.879  1.00  0.00     0.049 A 
ATOM     55  C   UNL A   1      43.648  25.341  29.169  1.00  0.00     0.074 A 
ATOM     56  C   UNL A   1      44.880  29.644  33.676  1.00  0.00     0.029 A 
ATOM     57  N   UNL A   1      43.950  28.467  32.036  1.00  0.00    -0.354 N 
ATOM     58  N   UNL A   1      43.818  26.280  30.072  1.00  0.00    -0.248 NA
ATOM     59  C   UNL A   1      44.793  24.432  29.024  1.00  0.00     0.031 C 
ATOM     60  C   UNL A   1      45.781  28.650  33.279  1.00  0.00     0.029 A 
ATOM     61  C   UNL A   1      45.189  27.894  32.281  1.00  0.00     0.049 A 
ATOM     62  H   UNL A   1      43.306  28.150  31.362  1.00  0.00     0.167 HD
ATOM     63  C   UNL A   1      45.073  26.047  30.627  1.00  0.00     0.074 A 
ATOM     64  C   UNL A   1      45.616  24.884  29.959  1.00  0.00     0.031 C 
ATOM     65  C   UNL A   1      45.714  26.729  31.610  1.00  0.00     0.034 A 
BRANCH  52  66
ATOM     66  C   UNL A   1      42.539  31.589  33.798  1.00  0.00     0.023 A 
ATOM     67  C   UNL A   1      42.100  31.488  35.130  1.00  0.00     0.031 A 
ATOM     68  C   UNL A   1      42.912  32.859  33.324  1.00  0.00     0.131 A 
ATOM     69  C   UNL A   1      41.966  32.644  35.912  1.00  0.00     0.055 A 
ATOM     70  C   UNL A   1      42.858  33.994  34.135  1.00  0.00     0.041 A 
ATOM     71  F   UNL A   1      43.322  33.022  32.056  1.00  0.00    -0.206 F 
ATOM     72  C   UNL A   1      42.366  33.893  35.434  1.00  0.00     0.022 A 
BRANCH  69  73
ATOM     73  S   UNL A   1      41.120  32.510  37.512  1.00  0.00     0.124 S 
ATOM     74  O   UNL A   1      39.833  31.943  37.116  1.00  0.00    -0.237 OA
ATOM     75  O   UNL A   1      42.005  31.626  38.262  1.00  0.00    -0.237 OA
ATOM     76  O   UNL A   1      41.066  33.890  37.986  1.00  0.00    -0.744 OA
ENDBRANCH  69  73
ENDBRANCH  52  66
BRANCH  53  77
ATOM     77  C   UNL A   1      42.489  23.999  27.262  1.00  0.00     0.023 A 
ATOM     78  C   UNL A   1      41.918  22.745  27.524  1.00  0.00     0.031 A 
ATOM     79  C   UNL A   1      43.127  24.190  26.022  1.00  0.00     0.131 A 
ATOM     80  C   UNL A   1      42.032  21.714  26.579  1.00  0.00     0.055 A 
ATOM     81  C   UNL A   1      43.194  23.175  25.065  1.00  0.00     0.041 A 
ATOM     82  F   UNL A   1      43.683  25.374  25.720  1.00  0.00    -0.206 F 
ATOM     83  C   UNL A   1      42.655  21.923  25.346  1.00  0.00     0.022 A 
BRANCH  80  84
ATOM     84  S   UNL A   1      41.415  20.064  27.016  1.00  0.00     0.124 S 
ATOM     85  O   UNL A   1      40.768  20.320  28.298  1.00  0.00    -0.237 OA
ATOM     86  O   UNL A   1      40.528  19.767  25.897  1.00  0.00    -0.237 OA
ATOM     87  O   UNL A   1      42.628  19.254  27.079  1.00  0.00    -0.744 OA
ENDBRANCH  80  84
ENDBRANCH  53  77
BRANCH  65  88
ATOM     88  C   UNL A   1      47.042  26.187  32.071  1.00  0.00     0.023 A 
ATOM     89  C   UNL A   1      47.153  25.325  33.175  1.00  0.00     0.031 A 
ATOM     90  C   UNL A   1      48.215  26.536  31.379  1.00  0.00     0.131 A 
ATOM     91  C   UNL A   1      48.417  24.868  33.578  1.00  0.00     0.055 A 
ATOM     92  C   UNL A   1      49.463  26.041  31.755  1.00  0.00     0.041 A 
ATOM     93  F   UNL A   1      48.162  27.357  30.318  1.00  0.00    -0.206 F 
ATOM     94  C   UNL A   1      49.570  25.209  32.865  1.00  0.00     0.022 A 
BRANCH  91  95
ATOM     95  S   UNL A   1      48.546  23.862  35.081  1.00  0.00     0.124 S 
ATOM     96  O   UNL A   1      47.519  24.455  35.932  1.00  0.00    -0.237 OA
ATOM     97  O   UNL A   1      48.265  22.519  34.585  1.00  0.00    -0.237 OA
ATOM     98  O   UNL A   1      49.922  24.082  35.525  1.00  0.00    -0.744 OA
ENDBRANCH  91  95
ENDBRANCH  65  88
ENDBRANCH  39  40
ENDBRANCH  31  34
ENDBRANCH  29  30
ENDBRANCH   1  29
TORSDOF 18
ENDMDL
