MODEL 1
REMARK VINA RESULT:     -13.1      0.000      0.000
REMARK SMILES O=C(NCCCNC(=O)c1ccccc1-c1ccccc1C(=O)N1CC[NH+](Cc2ccc3c(c2)OCO3)CC1)c1ccc(-c2c3nc(c(-c4cc(S(=O)(=O)[O-])ccc4F)c4ccc([nH]4)c(-c4cc(S(=O)(=O)[O-])ccc4F)c4nc(c(-c5cc(S(=O)(=O)[O-])ccc5F)c5ccc2[nH]5)C=C4)C=C3)cc1
REMARK SMILES IDX 5 1 4 2 3 3 1 4 2 5 40 7 41 8 102 9 42 10 101 11 43 12 44 13
REMARK SMILES IDX 45 14 95 15 46 16 100 17 94 18 96 19 47 20 99 21 93 22 92 23
REMARK SMILES IDX 48 25 80 26 60 27 79 28 61 29 64 30 78 31 97 32 62 33 63 34
REMARK SMILES IDX 77 36 98 37 65 38 49 39 50 40 58 41 51 42 57 43 59 44 56 45
REMARK SMILES IDX 52 46 53 47 54 48 55 49 81 50 82 51 90 52 83 53 89 54 91 55
REMARK SMILES IDX 88 56 84 57 85 58 86 59 87 60 66 61 67 62 75 63 68 64 74 65
REMARK SMILES IDX 76 66 73 67 69 68 70 69 71 70 72 71 6 72 7 73 8 74 9 76
REMARK SMILES IDX 10 77 11 78 15 79 12 80 14 81 13 82 16 83 17 84 21 85 18 86
REMARK SMILES IDX 20 87 19 88 22 89 23 90 24 91 25 92 39 93 26 94 38 95 27 96
REMARK SMILES IDX 28 98 29 99 30 100 34 101 31 102 33 103 32 104 35 105 37 106
REMARK SMILES IDX 36 107
REMARK H PARENT 3 6 96 24 64 35 7 75 27 97
REMARK Flexibility Score: inf
ROOT
ATOM      1  C   UNL A   1      33.453  31.544  28.004  1.00  0.00     0.042 C 
ENDROOT
BRANCH   1   2
ATOM      2  C   UNL A   1      33.557  32.826  27.191  1.00  0.00     0.118 C 
BRANCH   2   3
ATOM      3  N   UNL A   1      33.115  33.981  27.974  1.00  0.00    -0.352 N 
ATOM      4  O   UNL A   1      32.767  35.064  29.931  1.00  0.00    -0.269 OA
ATOM      5  C   UNL A   1      33.459  34.307  29.267  1.00  0.00     0.251 C 
ATOM      6  H   UNL A   1      32.498  34.600  27.521  1.00  0.00     0.163 HD
BRANCH   5   7
ATOM      7  C   UNL A   1      34.680  33.694  29.823  1.00  0.00     0.039 A 
ATOM      8  C   UNL A   1      34.540  32.709  30.798  1.00  0.00     0.014 A 
ATOM      9  C   UNL A   1      35.945  34.120  29.420  1.00  0.00     0.014 A 
ATOM     10  C   UNL A   1      35.637  32.309  31.528  1.00  0.00     0.010 A 
ATOM     11  C   UNL A   1      37.072  33.572  30.037  1.00  0.00     0.010 A 
ATOM     12  C   UNL A   1      36.922  32.674  31.106  1.00  0.00    -0.014 A 
BRANCH  12  13
ATOM     13  C   UNL A   1      38.070  31.971  31.721  1.00  0.00     0.031 A 
ATOM     14  C   UNL A   1      38.579  32.343  33.079  1.00  0.00     0.074 A 
ATOM     15  C   UNL A   1      38.623  30.958  31.020  1.00  0.00     0.049 A 
ATOM     16  N   UNL A   1      39.600  31.851  33.731  1.00  0.00    -0.248 NA
ATOM     17  C   UNL A   1      37.862  33.409  33.796  1.00  0.00     0.031 C 
ATOM     18  C   UNL A   1      38.182  30.517  29.689  1.00  0.00     0.029 A 
ATOM     19  N   UNL A   1      39.647  30.103  31.321  1.00  0.00    -0.354 N 
ATOM     20  C   UNL A   1      39.672  32.565  34.921  1.00  0.00     0.074 A 
ATOM     21  C   UNL A   1      38.599  33.537  34.892  1.00  0.00     0.031 C 
ATOM     22  C   UNL A   1      38.885  29.440  29.322  1.00  0.00     0.029 A 
ATOM     23  C   UNL A   1      39.909  29.192  30.323  1.00  0.00     0.049 A 
ATOM     24  H   UNL A   1      40.147  30.134  32.169  1.00  0.00     0.167 HD
ATOM     25  C   UNL A   1      40.563  32.415  35.933  1.00  0.00     0.034 A 
ATOM     26  C   UNL A   1      40.901  28.294  30.194  1.00  0.00     0.034 A 
ATOM     27  C   UNL A   1      41.617  31.426  35.923  1.00  0.00     0.049 A 
ATOM     28  C   UNL A   1      41.910  28.200  31.302  1.00  0.00     0.074 A 
ATOM     29  C   UNL A   1      42.548  31.153  36.909  1.00  0.00     0.029 A 
ATOM     30  N   UNL A   1      41.890  30.560  34.869  1.00  0.00    -0.354 N 
ATOM     31  N   UNL A   1      41.957  28.872  32.430  1.00  0.00    -0.248 NA
ATOM     32  C   UNL A   1      43.001  27.238  31.121  1.00  0.00     0.031 C 
ATOM     33  C   UNL A   1      43.437  30.191  36.418  1.00  0.00     0.029 A 
ATOM     34  C   UNL A   1      43.007  29.791  35.163  1.00  0.00     0.049 A 
ATOM     35  H   UNL A   1      41.369  30.502  34.037  1.00  0.00     0.167 HD
ATOM     36  C   UNL A   1      43.076  28.398  33.103  1.00  0.00     0.074 A 
ATOM     37  C   UNL A   1      43.656  27.367  32.264  1.00  0.00     0.031 C 
ATOM     38  C   UNL A   1      43.579  28.780  34.303  1.00  0.00     0.034 A 
BRANCH  25  39
ATOM     39  C   UNL A   1      40.480  33.375  37.094  1.00  0.00     0.023 A 
ATOM     40  C   UNL A   1      39.821  33.052  38.292  1.00  0.00     0.031 A 
ATOM     41  C   UNL A   1      41.080  34.645  36.998  1.00  0.00     0.131 A 
ATOM     42  C   UNL A   1      39.727  34.004  39.320  1.00  0.00     0.055 A 
ATOM     43  C   UNL A   1      41.052  35.559  38.053  1.00  0.00     0.041 A 
ATOM     44  F   UNL A   1      41.703  35.023  35.870  1.00  0.00    -0.206 F 
ATOM     45  C   UNL A   1      40.362  35.244  39.220  1.00  0.00     0.022 A 
BRANCH  42  46
ATOM     46  S   UNL A   1      38.654  33.650  40.739  1.00  0.00     0.124 S 
ATOM     47  O   UNL A   1      39.626  33.236  41.750  1.00  0.00    -0.237 OA
ATOM     48  O   UNL A   1      38.001  34.933  40.970  1.00  0.00    -0.237 OA
ATOM     49  O   UNL A   1      37.782  32.584  40.253  1.00  0.00    -0.744 OA
ENDBRANCH  42  46
ENDBRANCH  25  39
BRANCH  26  50
ATOM     50  C   UNL A   1      41.025  27.484  28.950  1.00  0.00     0.023 A 
ATOM     51  C   UNL A   1      42.024  27.754  28.006  1.00  0.00     0.031 A 
ATOM     52  C   UNL A   1      40.120  26.440  28.671  1.00  0.00     0.131 A 
ATOM     53  C   UNL A   1      42.065  27.027  26.807  1.00  0.00     0.055 A 
ATOM     54  C   UNL A   1      40.210  25.672  27.511  1.00  0.00     0.041 A 
ATOM     55  F   UNL A   1      39.142  26.136  29.541  1.00  0.00    -0.206 F 
ATOM     56  C   UNL A   1      41.178  25.977  26.560  1.00  0.00     0.022 A 
BRANCH  53  57
ATOM     57  S   UNL A   1      43.226  27.556  25.519  1.00  0.00     0.124 S 
ATOM     58  O   UNL A   1      43.853  26.293  25.148  1.00  0.00    -0.237 OA
ATOM     59  O   UNL A   1      42.329  28.143  24.528  1.00  0.00    -0.237 OA
ATOM     60  O   UNL A   1      44.094  28.505  26.214  1.00  0.00    -0.744 OA
ENDBRANCH  53  57
ENDBRANCH  26  50
BRANCH  38  61
ATOM     61  C   UNL A   1      44.801  28.043  34.788  1.00  0.00     0.023 A 
ATOM     62  C   UNL A   1      44.700  26.829  35.488  1.00  0.00     0.031 A 
ATOM     63  C   UNL A   1      46.083  28.571  34.554  1.00  0.00     0.131 A 
ATOM     64  C   UNL A   1      45.860  26.209  35.976  1.00  0.00     0.055 A 
ATOM     65  C   UNL A   1      47.235  27.915  34.982  1.00  0.00     0.041 A 
ATOM     66  F   UNL A   1      46.234  29.733  33.897  1.00  0.00    -0.206 F 
ATOM     67  C   UNL A   1      47.126  26.733  35.709  1.00  0.00     0.022 A 
BRANCH  64  68
ATOM     68  S   UNL A   1      45.684  24.755  37.044  1.00  0.00     0.124 S 
ATOM     69  O   UNL A   1      44.552  24.065  36.432  1.00  0.00    -0.237 OA
ATOM     70  O   UNL A   1      46.980  24.101  36.901  1.00  0.00    -0.237 OA
ATOM     71  O   UNL A   1      45.421  25.328  38.363  1.00  0.00    -0.744 OA
ENDBRANCH  64  68
ENDBRANCH  38  61
ENDBRANCH  12  13
ENDBRANCH   5   7
ENDBRANCH   2   3
ENDBRANCH   1   2
BRANCH   1  72
ATOM     72  C   UNL A   1      33.395  30.340  27.087  1.00  0.00     0.118 C 
BRANCH  72  73
ATOM     73  N   UNL A   1      32.021  30.110  26.697  1.00  0.00    -0.352 N 
ATOM     74  C   UNL A   1      31.630  30.136  25.391  1.00  0.00     0.251 C 
ATOM     75  H   UNL A   1      31.350  29.928  27.393  1.00  0.00     0.163 HD
ATOM     76  O   UNL A   1      30.712  30.877  25.056  1.00  0.00    -0.269 OA
BRANCH  74  77
ATOM     77  C   UNL A   1      32.318  29.231  24.429  1.00  0.00     0.047 A 
ATOM     78  C   UNL A   1      33.662  29.542  24.161  1.00  0.00     0.014 A 
ATOM     79  C   UNL A   1      31.670  28.168  23.746  1.00  0.00    -0.005 A 
ATOM     80  C   UNL A   1      34.395  28.790  23.248  1.00  0.00     0.001 A 
ATOM     81  C   UNL A   1      32.451  27.414  22.841  1.00  0.00     0.009 A 
ATOM     82  C   UNL A   1      33.794  27.719  22.597  1.00  0.00     0.001 A 
BRANCH  79  83
ATOM     83  C   UNL A   1      30.260  27.746  23.965  1.00  0.00    -0.005 A 
ATOM     84  C   UNL A   1      29.306  28.330  23.084  1.00  0.00     0.009 A 
ATOM     85  C   UNL A   1      29.805  26.731  24.844  1.00  0.00     0.047 A 
ATOM     86  C   UNL A   1      27.989  27.876  22.996  1.00  0.00     0.001 A 
ATOM     87  C   UNL A   1      28.457  26.302  24.748  1.00  0.00     0.014 A 
ATOM     88  C   UNL A   1      27.567  26.850  23.822  1.00  0.00     0.001 A 
BRANCH  85  89
ATOM     89  C   UNL A   1      30.664  25.877  25.739  1.00  0.00     0.254 C 
ATOM     90  O   UNL A   1      30.978  26.324  26.847  1.00  0.00    -0.269 OA
ATOM     91  N   UNL A   1      31.005  24.578  25.379  1.00  0.00    -0.327 N 
ATOM     92  C   UNL A   1      31.189  23.619  26.459  1.00  0.00     0.181 C 
ATOM     93  C   UNL A   1      31.793  24.283  24.192  1.00  0.00     0.181 C 
ATOM     94  C   UNL A   1      30.973  22.161  26.005  1.00  0.00     0.284 C 
ATOM     95  C   UNL A   1      31.704  22.802  23.743  1.00  0.00     0.284 C 
ATOM     96  N   UNL A   1      31.646  21.744  24.763  1.00  0.00    -0.328 N 
ATOM     97  H   UNL A   1      31.018  21.059  24.343  1.00  0.00     0.348 HD
BRANCH  96  98
ATOM     98  C   UNL A   1      32.841  20.913  24.934  1.00  0.00     0.299 C 
BRANCH  98  99
ATOM     99  C   UNL A   1      32.588  19.462  24.596  1.00  0.00     0.010 A 
ATOM    100  C   UNL A   1      32.526  19.073  23.239  1.00  0.00     0.013 A 
ATOM    101  C   UNL A   1      32.764  18.501  25.605  1.00  0.00     0.060 A 
ATOM    102  C   UNL A   1      32.880  17.778  22.864  1.00  0.00     0.051 A 
ATOM    103  C   UNL A   1      33.181  17.258  25.198  1.00  0.00     0.166 A 
ATOM    104  C   UNL A   1      33.282  16.923  23.866  1.00  0.00     0.165 A 
ATOM    105  O   UNL A   1      33.769  16.333  26.009  1.00  0.00    -0.454 OA
ATOM    106  O   UNL A   1      33.960  15.754  23.690  1.00  0.00    -0.454 OA
ATOM    107  C   UNL A   1      34.513  15.596  25.017  1.00  0.00     0.468 C 
ENDBRANCH  98  99
ENDBRANCH  96  98
ENDBRANCH  85  89
ENDBRANCH  79  83
ENDBRANCH  74  77
ENDBRANCH  72  73
ENDBRANCH   1  72
TORSDOF 17
ENDMDL
MODEL 2
REMARK VINA RESULT:     -13.0      5.342     11.100
REMARK SMILES O=C(NCCCNC(=O)c1ccccc1-c1ccccc1C(=O)N1CC[NH+](Cc2ccc3c(c2)OCO3)CC1)c1ccc(-c2c3nc(c(-c4cc(S(=O)(=O)[O-])ccc4F)c4ccc([nH]4)c(-c4cc(S(=O)(=O)[O-])ccc4F)c4nc(c(-c5cc(S(=O)(=O)[O-])ccc5F)c5ccc2[nH]5)C=C4)C=C3)cc1
REMARK SMILES IDX 5 1 4 2 3 3 1 4 2 5 40 7 41 8 102 9 42 10 101 11 43 12 44 13
REMARK SMILES IDX 45 14 95 15 46 16 100 17 94 18 96 19 47 20 99 21 93 22 92 23
REMARK SMILES IDX 48 25 80 26 60 27 79 28 61 29 64 30 78 31 97 32 62 33 63 34
REMARK SMILES IDX 77 36 98 37 65 38 49 39 50 40 58 41 51 42 57 43 59 44 56 45
REMARK SMILES IDX 52 46 53 47 54 48 55 49 81 50 82 51 90 52 83 53 89 54 91 55
REMARK SMILES IDX 88 56 84 57 85 58 86 59 87 60 66 61 67 62 75 63 68 64 74 65
REMARK SMILES IDX 76 66 73 67 69 68 70 69 71 70 72 71 6 72 7 73 8 74 9 76
REMARK SMILES IDX 10 77 11 78 15 79 12 80 14 81 13 82 16 83 17 84 21 85 18 86
REMARK SMILES IDX 20 87 19 88 22 89 23 90 24 91 25 92 39 93 26 94 38 95 27 96
REMARK SMILES IDX 28 98 29 99 30 100 34 101 31 102 33 103 32 104 35 105 37 106
REMARK SMILES IDX 36 107
REMARK H PARENT 3 6 96 24 64 35 7 75 27 97
REMARK Flexibility Score: inf
ROOT
ATOM      1  C   UNL A   1      45.764  23.677  24.653  1.00  0.00     0.042 C 
ENDROOT
BRANCH   1   2
ATOM      2  C   UNL A   1      46.705  24.528  25.492  1.00  0.00     0.118 C 
BRANCH   2   3
ATOM      3  N   UNL A   1      47.373  25.537  24.669  1.00  0.00    -0.352 N 
ATOM      4  O   UNL A   1      47.458  27.553  23.641  1.00  0.00    -0.269 OA
ATOM      5  C   UNL A   1      47.103  26.886  24.601  1.00  0.00     0.251 C 
ATOM      6  H   UNL A   1      48.105  25.213  24.096  1.00  0.00     0.163 HD
BRANCH   5   7
ATOM      7  C   UNL A   1      46.354  27.488  25.720  1.00  0.00     0.039 A 
ATOM      8  C   UNL A   1      47.075  28.036  26.779  1.00  0.00     0.014 A 
ATOM      9  C   UNL A   1      44.960  27.468  25.744  1.00  0.00     0.014 A 
ATOM     10  C   UNL A   1      46.428  28.360  27.951  1.00  0.00     0.010 A 
ATOM     11  C   UNL A   1      44.295  27.972  26.865  1.00  0.00     0.010 A 
ATOM     12  C   UNL A   1      45.029  28.407  27.982  1.00  0.00    -0.014 A 
BRANCH  12  13
ATOM     13  C   UNL A   1      44.390  29.058  29.147  1.00  0.00     0.031 A 
ATOM     14  C   UNL A   1      43.955  30.490  29.103  1.00  0.00     0.074 A 
ATOM     15  C   UNL A   1      44.184  28.298  30.244  1.00  0.00     0.049 A 
ATOM     16  N   UNL A   1      43.422  31.211  30.054  1.00  0.00    -0.248 NA
ATOM     17  C   UNL A   1      44.152  31.213  27.837  1.00  0.00     0.031 C 
ATOM     18  C   UNL A   1      44.565  26.884  30.372  1.00  0.00     0.029 A 
ATOM     19  N   UNL A   1      43.593  28.583  31.444  1.00  0.00    -0.354 N 
ATOM     20  C   UNL A   1      43.247  32.481  29.518  1.00  0.00     0.074 A 
ATOM     21  C   UNL A   1      43.748  32.434  28.160  1.00  0.00     0.031 C 
ATOM     22  C   UNL A   1      44.141  26.414  31.550  1.00  0.00     0.029 A 
ATOM     23  C   UNL A   1      43.579  27.515  32.313  1.00  0.00     0.049 A 
ATOM     24  H   UNL A   1      43.213  29.464  31.665  1.00  0.00     0.167 HD
ATOM     25  C   UNL A   1      42.721  33.576  30.120  1.00  0.00     0.034 A 
ATOM     26  C   UNL A   1      43.212  27.440  33.604  1.00  0.00     0.034 A 
ATOM     27  C   UNL A   1      42.226  33.577  31.478  1.00  0.00     0.049 A 
ATOM     28  C   UNL A   1      42.696  28.689  34.260  1.00  0.00     0.074 A 
ATOM     29  C   UNL A   1      41.632  34.613  32.175  1.00  0.00     0.029 A 
ATOM     30  N   UNL A   1      42.283  32.494  32.349  1.00  0.00    -0.354 N 
ATOM     31  N   UNL A   1      42.522  29.881  33.735  1.00  0.00    -0.248 NA
ATOM     32  C   UNL A   1      42.335  28.589  35.677  1.00  0.00     0.031 C 
ATOM     33  C   UNL A   1      41.415  34.188  33.490  1.00  0.00     0.029 A 
ATOM     34  C   UNL A   1      41.783  32.856  33.592  1.00  0.00     0.049 A 
ATOM     35  H   UNL A   1      42.629  31.602  32.119  1.00  0.00     0.167 HD
ATOM     36  C   UNL A   1      42.012  30.671  34.757  1.00  0.00     0.074 A 
ATOM     37  C   UNL A   1      41.885  29.810  35.919  1.00  0.00     0.031 C 
ATOM     38  C   UNL A   1      41.681  31.985  34.741  1.00  0.00     0.034 A 
BRANCH  25  39
ATOM     39  C   UNL A   1      42.714  34.872  29.345  1.00  0.00     0.023 A 
ATOM     40  C   UNL A   1      43.867  35.659  29.186  1.00  0.00     0.031 A 
ATOM     41  C   UNL A   1      41.522  35.327  28.751  1.00  0.00     0.131 A 
ATOM     42  C   UNL A   1      43.790  36.884  28.501  1.00  0.00     0.055 A 
ATOM     43  C   UNL A   1      41.469  36.506  28.006  1.00  0.00     0.041 A 
ATOM     44  F   UNL A   1      40.380  34.633  28.891  1.00  0.00    -0.206 F 
ATOM     45  C   UNL A   1      42.607  37.299  27.887  1.00  0.00     0.022 A 
BRANCH  42  46
ATOM     46  S   UNL A   1      45.227  37.991  28.537  1.00  0.00     0.124 S 
ATOM     47  O   UNL A   1      46.150  37.251  29.395  1.00  0.00    -0.237 OA
ATOM     48  O   UNL A   1      45.595  38.077  27.129  1.00  0.00    -0.237 OA
ATOM     49  O   UNL A   1      44.699  39.221  29.120  1.00  0.00    -0.744 OA
ENDBRANCH  42  46
ENDBRANCH  25  39
BRANCH  26  50
ATOM     50  C   UNL A   1      43.392  26.173  34.365  1.00  0.00     0.023 A 
ATOM     51  C   UNL A   1      44.669  25.652  34.611  1.00  0.00     0.031 A 
ATOM     52  C   UNL A   1      42.282  25.444  34.833  1.00  0.00     0.131 A 
ATOM     53  C   UNL A   1      44.804  24.415  35.259  1.00  0.00     0.055 A 
ATOM     54  C   UNL A   1      42.423  24.251  35.541  1.00  0.00     0.041 A 
ATOM     55  F   UNL A   1      41.033  25.896  34.627  1.00  0.00    -0.206 F 
ATOM     56  C   UNL A   1      43.693  23.720  35.742  1.00  0.00     0.022 A 
BRANCH  53  57
ATOM     57  S   UNL A   1      46.454  23.669  35.356  1.00  0.00     0.124 S 
ATOM     58  O   UNL A   1      46.136  22.293  35.718  1.00  0.00    -0.237 OA
ATOM     59  O   UNL A   1      46.959  23.878  34.003  1.00  0.00    -0.237 OA
ATOM     60  O   UNL A   1      47.118  24.452  36.397  1.00  0.00    -0.744 OA
ENDBRANCH  53  57
ENDBRANCH  26  50
BRANCH  38  61
ATOM     61  C   UNL A   1      41.112  32.555  36.015  1.00  0.00     0.023 A 
ATOM     62  C   UNL A   1      39.798  32.274  36.426  1.00  0.00     0.031 A 
ATOM     63  C   UNL A   1      41.895  33.399  36.822  1.00  0.00     0.131 A 
ATOM     64  C   UNL A   1      39.288  32.876  37.586  1.00  0.00     0.055 A 
ATOM     65  C   UNL A   1      41.405  33.939  38.010  1.00  0.00     0.041 A 
ATOM     66  F   UNL A   1      43.155  33.706  36.470  1.00  0.00    -0.206 F 
ATOM     67  C   UNL A   1      40.090  33.688  38.391  1.00  0.00     0.022 A 
BRANCH  64  68
ATOM     68  S   UNL A   1      37.532  32.654  37.980  1.00  0.00     0.124 S 
ATOM     69  O   UNL A   1      36.885  33.377  36.890  1.00  0.00    -0.237 OA
ATOM     70  O   UNL A   1      37.386  31.203  37.956  1.00  0.00    -0.237 OA
ATOM     71  O   UNL A   1      37.398  33.269  39.299  1.00  0.00    -0.744 OA
ENDBRANCH  64  68
ENDBRANCH  38  61
ENDBRANCH  12  13
ENDBRANCH   5   7
ENDBRANCH   2   3
ENDBRANCH   1   2
BRANCH   1  72
ATOM     72  C   UNL A   1      44.379  24.290  24.626  1.00  0.00     0.118 C 
BRANCH  72  73
ATOM     73  N   UNL A   1      43.394  23.230  24.629  1.00  0.00    -0.352 N 
ATOM     74  C   UNL A   1      43.372  22.272  25.598  1.00  0.00     0.251 C 
ATOM     75  H   UNL A   1      42.721  23.201  23.912  1.00  0.00     0.163 HD
ATOM     76  O   UNL A   1      43.403  21.090  25.272  1.00  0.00    -0.269 OA
BRANCH  74  77
ATOM     77  C   UNL A   1      43.276  22.706  27.019  1.00  0.00     0.047 A 
ATOM     78  C   UNL A   1      44.466  22.613  27.761  1.00  0.00     0.014 A 
ATOM     79  C   UNL A   1      42.065  23.111  27.639  1.00  0.00    -0.005 A 
ATOM     80  C   UNL A   1      44.488  22.954  29.111  1.00  0.00     0.001 A 
ATOM     81  C   UNL A   1      42.129  23.468  29.005  1.00  0.00     0.009 A 
ATOM     82  C   UNL A   1      43.323  23.393  29.730  1.00  0.00     0.001 A 
BRANCH  79  83
ATOM     83  C   UNL A   1      40.757  23.257  26.945  1.00  0.00    -0.005 A 
ATOM     84  C   UNL A   1      40.010  22.055  26.794  1.00  0.00     0.009 A 
ATOM     85  C   UNL A   1      40.131  24.470  26.562  1.00  0.00     0.047 A 
ATOM     86  C   UNL A   1      38.677  22.045  26.381  1.00  0.00     0.001 A 
ATOM     87  C   UNL A   1      38.782  24.431  26.126  1.00  0.00     0.014 A 
ATOM     88  C   UNL A   1      38.057  23.240  26.058  1.00  0.00     0.001 A 
BRANCH  85  89
ATOM     89  C   UNL A   1      40.671  25.859  26.780  1.00  0.00     0.254 C 
ATOM     90  O   UNL A   1      41.613  26.236  26.076  1.00  0.00    -0.269 OA
ATOM     91  N   UNL A   1      40.059  26.735  27.670  1.00  0.00    -0.327 N 
ATOM     92  C   UNL A   1      40.132  28.155  27.356  1.00  0.00     0.181 C 
ATOM     93  C   UNL A   1      39.962  26.452  29.094  1.00  0.00     0.181 C 
ATOM     94  C   UNL A   1      38.990  28.968  28.001  1.00  0.00     0.284 C 
ATOM     95  C   UNL A   1      38.903  27.316  29.825  1.00  0.00     0.284 C 
ATOM     96  N   UNL A   1      38.722  28.720  29.428  1.00  0.00    -0.328 N 
ATOM     97  H   UNL A   1      37.716  28.857  29.531  1.00  0.00     0.348 HD
BRANCH  96  98
ATOM     98  C   UNL A   1      39.208  29.746  30.355  1.00  0.00     0.299 C 
BRANCH  98  99
ATOM     99  C   UNL A   1      38.200  30.075  31.432  1.00  0.00     0.010 A 
ATOM    100  C   UNL A   1      38.662  30.418  32.724  1.00  0.00     0.013 A 
ATOM    101  C   UNL A   1      36.882  30.367  31.048  1.00  0.00     0.060 A 
ATOM    102  C   UNL A   1      37.906  31.259  33.539  1.00  0.00     0.051 A 
ATOM    103  C   UNL A   1      36.197  31.254  31.839  1.00  0.00     0.166 A 
ATOM    104  C   UNL A   1      36.716  31.723  33.026  1.00  0.00     0.165 A 
ATOM    105  O   UNL A   1      35.092  31.951  31.447  1.00  0.00    -0.454 OA
ATOM    106  O   UNL A   1      36.001  32.780  33.506  1.00  0.00    -0.454 OA
ATOM    107  C   UNL A   1      35.205  33.081  32.337  1.00  0.00     0.468 C 
ENDBRANCH  98  99
ENDBRANCH  96  98
ENDBRANCH  85  89
ENDBRANCH  79  83
ENDBRANCH  74  77
ENDBRANCH  72  73
ENDBRANCH   1  72
TORSDOF 17
ENDMDL
MODEL 3
REMARK VINA RESULT:     -13.0      5.669      9.778
REMARK SMILES O=C(NCCCNC(=O)c1ccccc1-c1ccccc1C(=O)N1CC[NH+](Cc2ccc3c(c2)OCO3)CC1)c1ccc(-c2c3nc(c(-c4cc(S(=O)(=O)[O-])ccc4F)c4ccc([nH]4)c(-c4cc(S(=O)(=O)[O-])ccc4F)c4nc(c(-c5cc(S(=O)(=O)[O-])ccc5F)c5ccc2[nH]5)C=C4)C=C3)cc1
REMARK SMILES IDX 5 1 4 2 3 3 1 4 2 5 40 7 41 8 102 9 42 10 101 11 43 12 44 13
REMARK SMILES IDX 45 14 95 15 46 16 100 17 94 18 96 19 47 20 99 21 93 22 92 23
REMARK SMILES IDX 48 25 80 26 60 27 79 28 61 29 64 30 78 31 97 32 62 33 63 34
REMARK SMILES IDX 77 36 98 37 65 38 49 39 50 40 58 41 51 42 57 43 59 44 56 45
REMARK SMILES IDX 52 46 53 47 54 48 55 49 81 50 82 51 90 52 83 53 89 54 91 55
REMARK SMILES IDX 88 56 84 57 85 58 86 59 87 60 66 61 67 62 75 63 68 64 74 65
REMARK SMILES IDX 76 66 73 67 69 68 70 69 71 70 72 71 6 72 7 73 8 74 9 76
REMARK SMILES IDX 10 77 11 78 15 79 12 80 14 81 13 82 16 83 17 84 21 85 18 86
REMARK SMILES IDX 20 87 19 88 22 89 23 90 24 91 25 92 39 93 26 94 38 95 27 96
REMARK SMILES IDX 28 98 29 99 30 100 34 101 31 102 33 103 32 104 35 105 37 106
REMARK SMILES IDX 36 107
REMARK H PARENT 3 6 96 24 64 35 7 75 27 97
REMARK Flexibility Score: inf
ROOT
ATOM      1  C   UNL A   1      35.883  33.382  34.212  1.00  0.00     0.042 C 
ENDROOT
BRANCH   1   2
ATOM      2  C   UNL A   1      37.271  33.575  34.803  1.00  0.00     0.118 C 
BRANCH   2   3
ATOM      3  N   UNL A   1      37.412  32.841  36.062  1.00  0.00    -0.352 N 
ATOM      4  O   UNL A   1      37.791  30.954  37.253  1.00  0.00    -0.269 OA
ATOM      5  C   UNL A   1      38.045  31.637  36.272  1.00  0.00     0.251 C 
ATOM      6  H   UNL A   1      37.005  33.261  36.855  1.00  0.00     0.163 HD
BRANCH   5   7
ATOM      7  C   UNL A   1      39.023  31.195  35.260  1.00  0.00     0.039 A 
ATOM      8  C   UNL A   1      40.371  31.468  35.481  1.00  0.00     0.014 A 
ATOM      9  C   UNL A   1      38.609  30.563  34.088  1.00  0.00     0.014 A 
ATOM     10  C   UNL A   1      41.276  31.319  34.453  1.00  0.00     0.010 A 
ATOM     11  C   UNL A   1      39.562  30.242  33.120  1.00  0.00     0.010 A 
ATOM     12  C   UNL A   1      40.900  30.633  33.292  1.00  0.00    -0.014 A 
BRANCH  12  13
ATOM     13  C   UNL A   1      41.975  30.220  32.361  1.00  0.00     0.031 A 
ATOM     14  C   UNL A   1      42.652  28.891  32.487  1.00  0.00     0.074 A 
ATOM     15  C   UNL A   1      42.299  31.080  31.371  1.00  0.00     0.049 A 
ATOM     16  N   UNL A   1      43.636  28.406  31.777  1.00  0.00    -0.248 NA
ATOM     17  C   UNL A   1      42.176  27.993  33.550  1.00  0.00     0.031 C 
ATOM     18  C   UNL A   1      41.680  32.397  31.164  1.00  0.00     0.029 A 
ATOM     19  N   UNL A   1      43.199  30.981  30.346  1.00  0.00    -0.354 N 
ATOM     20  C   UNL A   1      43.922  27.160  32.322  1.00  0.00     0.074 A 
ATOM     21  C   UNL A   1      43.015  26.973  33.436  1.00  0.00     0.031 C 
ATOM     22  C   UNL A   1      42.172  32.949  30.050  1.00  0.00     0.029 A 
ATOM     23  C   UNL A   1      43.228  32.093  29.536  1.00  0.00     0.049 A 
ATOM     24  H   UNL A   1      43.770  30.191  30.201  1.00  0.00     0.167 HD
ATOM     25  C   UNL A   1      44.863  26.269  31.922  1.00  0.00     0.034 A 
ATOM     26  C   UNL A   1      44.052  32.421  28.526  1.00  0.00     0.034 A 
ATOM     27  C   UNL A   1      45.745  26.495  30.799  1.00  0.00     0.049 A 
ATOM     28  C   UNL A   1      45.127  31.441  28.152  1.00  0.00     0.074 A 
ATOM     29  C   UNL A   1      46.704  25.647  30.276  1.00  0.00     0.029 A 
ATOM     30  N   UNL A   1      45.787  27.658  30.038  1.00  0.00    -0.354 N 
ATOM     31  N   UNL A   1      45.376  30.258  28.668  1.00  0.00    -0.248 NA
ATOM     32  C   UNL A   1      46.034  31.837  27.071  1.00  0.00     0.031 C 
ATOM     33  C   UNL A   1      47.386  26.328  29.262  1.00  0.00     0.029 A 
ATOM     34  C   UNL A   1      46.791  27.568  29.085  1.00  0.00     0.049 A 
ATOM     35  H   UNL A   1      45.193  28.433  30.158  1.00  0.00     0.167 HD
ATOM     36  C   UNL A   1      46.462  29.760  27.958  1.00  0.00     0.074 A 
ATOM     37  C   UNL A   1      46.799  30.762  26.964  1.00  0.00     0.031 C 
ATOM     38  C   UNL A   1      47.121  28.586  28.114  1.00  0.00     0.034 A 
BRANCH  25  39
ATOM     39  C   UNL A   1      45.034  25.010  32.735  1.00  0.00     0.023 A 
ATOM     40  C   UNL A   1      45.801  24.972  33.912  1.00  0.00     0.031 A 
ATOM     41  C   UNL A   1      44.410  23.818  32.321  1.00  0.00     0.131 A 
ATOM     42  C   UNL A   1      45.970  23.759  34.600  1.00  0.00     0.055 A 
ATOM     43  C   UNL A   1      44.517  22.633  33.052  1.00  0.00     0.041 A 
ATOM     44  F   UNL A   1      43.685  23.783  31.191  1.00  0.00    -0.206 F 
ATOM     45  C   UNL A   1      45.312  22.596  34.193  1.00  0.00     0.022 A 
BRANCH  42  46
ATOM     46  S   UNL A   1      47.169  23.690  35.960  1.00  0.00     0.124 S 
ATOM     47  O   UNL A   1      47.714  25.046  35.943  1.00  0.00    -0.237 OA
ATOM     48  O   UNL A   1      46.331  23.354  37.105  1.00  0.00    -0.237 OA
ATOM     49  O   UNL A   1      48.103  22.647  35.543  1.00  0.00    -0.744 OA
ENDBRANCH  42  46
ENDBRANCH  25  39
BRANCH  26  50
ATOM     50  C   UNL A   1      43.939  33.750  27.864  1.00  0.00     0.023 A 
ATOM     51  C   UNL A   1      44.126  34.936  28.585  1.00  0.00     0.031 A 
ATOM     52  C   UNL A   1      43.609  33.854  26.498  1.00  0.00     0.131 A 
ATOM     53  C   UNL A   1      43.933  36.174  27.954  1.00  0.00     0.055 A 
ATOM     54  C   UNL A   1      43.489  35.087  25.857  1.00  0.00     0.041 A 
ATOM     55  F   UNL A   1      43.418  32.750  25.757  1.00  0.00    -0.206 F 
ATOM     56  C   UNL A   1      43.634  36.259  26.591  1.00  0.00     0.022 A 
BRANCH  53  57
ATOM     57  S   UNL A   1      43.962  37.674  28.971  1.00  0.00     0.124 S 
ATOM     58  O   UNL A   1      44.048  37.118  30.316  1.00  0.00    -0.237 OA
ATOM     59  O   UNL A   1      45.158  38.349  28.478  1.00  0.00    -0.237 OA
ATOM     60  O   UNL A   1      42.697  38.329  28.645  1.00  0.00    -0.744 OA
ENDBRANCH  53  57
ENDBRANCH  26  50
BRANCH  38  61
ATOM     61  C   UNL A   1      48.250  28.314  27.154  1.00  0.00     0.023 A 
ATOM     62  C   UNL A   1      48.012  27.995  25.806  1.00  0.00     0.031 A 
ATOM     63  C   UNL A   1      49.583  28.363  27.599  1.00  0.00     0.131 A 
ATOM     64  C   UNL A   1      49.090  27.687  24.963  1.00  0.00     0.055 A 
ATOM     65  C   UNL A   1      50.653  28.122  26.740  1.00  0.00     0.041 A 
ATOM     66  F   UNL A   1      49.865  28.654  28.880  1.00  0.00    -0.206 F 
ATOM     67  C   UNL A   1      50.408  27.770  25.416  1.00  0.00     0.022 A 
BRANCH  64  68
ATOM     68  S   UNL A   1      48.739  27.087  23.288  1.00  0.00     0.124 S 
ATOM     69  O   UNL A   1      50.016  27.302  22.616  1.00  0.00    -0.237 OA
ATOM     70  O   UNL A   1      48.371  25.695  23.525  1.00  0.00    -0.237 OA
ATOM     71  O   UNL A   1      47.647  27.948  22.838  1.00  0.00    -0.744 OA
ENDBRANCH  64  68
ENDBRANCH  38  61
ENDBRANCH  12  13
ENDBRANCH   5   7
ENDBRANCH   2   3
ENDBRANCH   1   2
BRANCH   1  72
ATOM     72  C   UNL A   1      35.843  32.138  33.349  1.00  0.00     0.118 C 
BRANCH  72  73
ATOM     73  N   UNL A   1      34.901  32.343  32.270  1.00  0.00    -0.352 N 
ATOM     74  C   UNL A   1      35.033  33.372  31.386  1.00  0.00     0.251 C 
ATOM     75  H   UNL A   1      34.145  31.721  32.171  1.00  0.00     0.163 HD
ATOM     76  O   UNL A   1      34.093  34.142  31.221  1.00  0.00    -0.269 OA
BRANCH  74  77
ATOM     77  C   UNL A   1      36.309  33.495  30.630  1.00  0.00     0.047 A 
ATOM     78  C   UNL A   1      37.203  34.470  31.105  1.00  0.00     0.014 A 
ATOM     79  C   UNL A   1      36.603  32.754  29.454  1.00  0.00    -0.005 A 
ATOM     80  C   UNL A   1      38.411  34.702  30.454  1.00  0.00     0.001 A 
ATOM     81  C   UNL A   1      37.847  33.003  28.831  1.00  0.00     0.009 A 
ATOM     82  C   UNL A   1      38.738  33.961  29.325  1.00  0.00     0.001 A 
BRANCH  79  83
ATOM     83  C   UNL A   1      35.737  31.692  28.875  1.00  0.00    -0.005 A 
ATOM     84  C   UNL A   1      34.706  32.152  28.007  1.00  0.00     0.009 A 
ATOM     85  C   UNL A   1      35.927  30.292  28.981  1.00  0.00     0.047 A 
ATOM     86  C   UNL A   1      33.959  31.289  27.204  1.00  0.00     0.001 A 
ATOM     87  C   UNL A   1      35.141  29.434  28.169  1.00  0.00     0.014 A 
ATOM     88  C   UNL A   1      34.186  29.926  27.277  1.00  0.00     0.001 A 
BRANCH  85  89
ATOM     89  C   UNL A   1      37.048  29.597  29.710  1.00  0.00     0.254 C 
ATOM     90  O   UNL A   1      36.955  29.467  30.935  1.00  0.00    -0.269 OA
ATOM     91  N   UNL A   1      38.105  29.020  29.015  1.00  0.00    -0.327 N 
ATOM     92  C   UNL A   1      38.724  27.843  29.610  1.00  0.00     0.181 C 
ATOM     93  C   UNL A   1      39.009  29.802  28.186  1.00  0.00     0.181 C 
ATOM     94  C   UNL A   1      39.429  26.949  28.570  1.00  0.00     0.284 C 
ATOM     95  C   UNL A   1      39.830  28.947  27.188  1.00  0.00     0.284 C 
ATOM     96  N   UNL A   1      40.314  27.623  27.605  1.00  0.00    -0.328 N 
ATOM     97  H   UNL A   1      40.235  27.072  26.750  1.00  0.00     0.348 HD
BRANCH  96  98
ATOM     98  C   UNL A   1      41.752  27.484  27.855  1.00  0.00     0.299 C 
BRANCH  98  99
ATOM     99  C   UNL A   1      42.520  27.101  26.611  1.00  0.00     0.010 A 
ATOM    100  C   UNL A   1      43.788  27.683  26.381  1.00  0.00     0.013 A 
ATOM    101  C   UNL A   1      42.129  25.948  25.913  1.00  0.00     0.060 A 
ATOM    102  C   UNL A   1      44.753  26.994  25.649  1.00  0.00     0.051 A 
ATOM    103  C   UNL A   1      43.123  25.260  25.264  1.00  0.00     0.166 A 
ATOM    104  C   UNL A   1      44.409  25.747  25.177  1.00  0.00     0.165 A 
ATOM    105  O   UNL A   1      43.036  23.957  24.872  1.00  0.00    -0.454 OA
ATOM    106  O   UNL A   1      45.278  24.796  24.733  1.00  0.00    -0.454 OA
ATOM    107  C   UNL A   1      44.441  23.625  24.863  1.00  0.00     0.468 C 
ENDBRANCH  98  99
ENDBRANCH  96  98
ENDBRANCH  85  89
ENDBRANCH  79  83
ENDBRANCH  74  77
ENDBRANCH  72  73
ENDBRANCH   1  72
TORSDOF 17
ENDMDL
