MODEL 1
REMARK VINA RESULT:     -12.9      0.000      0.000
REMARK SMILES Cc1ccccc1-n1nc(Cl)c(C(=O)NCCCNC(=O)c2ccc(-c3c4nc(c(-c5cc(S(=O)(=O)[O-])ccc5F)c5ccc([nH]5)c(-c5cc(S(=O)(=O)[O-])ccc5F)c5nc(c(-c6cc(S(=O)(=O)[O-])ccc6F)c6ccc3[nH]6)C=C5)C=C4)cc2)n1
REMARK SMILES IDX 18 1 17 2 16 3 15 4 13 5 14 6 12 8 8 9 9 10 85 11 10 12
REMARK SMILES IDX 11 13 7 14 1 15 2 16 3 17 4 18 6 19 5 20 19 21 20 22 21 24
REMARK SMILES IDX 22 25 23 26 84 27 24 28 83 29 25 30 26 31 27 32 77 33 28 34
REMARK SMILES IDX 82 35 76 36 78 37 29 38 81 39 75 40 74 41 30 43 62 44 42 45
REMARK SMILES IDX 61 46 43 47 46 48 60 49 79 50 44 51 45 52 59 54 80 55 47 56
REMARK SMILES IDX 31 57 32 58 40 59 33 60 39 61 41 62 38 63 34 64 35 65 36 66
REMARK SMILES IDX 37 67 63 68 64 69 72 70 65 71 71 72 73 73 70 74 66 75 67 76
REMARK SMILES IDX 68 77 69 78 48 79 49 80 57 81 50 82 56 83 58 84 55 85 51 86
REMARK SMILES IDX 52 87 53 88 54 89
REMARK H PARENT 15 7 19 23 78 42 46 53
REMARK Flexibility Score: inf
ROOT
ATOM      1  C   UNL A   1      38.703  22.955  26.098  1.00  0.00     0.118 C 
ENDROOT
BRANCH   1   2
ATOM      2  C   UNL A   1      38.239  21.598  25.570  1.00  0.00     0.042 C 
BRANCH   2   3
ATOM      3  C   UNL A   1      36.758  21.595  25.187  1.00  0.00     0.118 C 
BRANCH   3   4
ATOM      4  N   UNL A   1      35.869  21.369  26.324  1.00  0.00    -0.350 N 
ATOM      5  C   UNL A   1      34.632  21.909  26.617  1.00  0.00     0.275 C 
ATOM      6  O   UNL A   1      34.046  21.515  27.625  1.00  0.00    -0.267 OA
ATOM      7  H   UNL A   1      36.206  20.727  26.991  1.00  0.00     0.163 HD
BRANCH   5   8
ATOM      8  C   UNL A   1      34.050  22.949  25.761  1.00  0.00     0.189 A 
ATOM      9  N   UNL A   1      33.480  24.834  24.987  1.00  0.00    -0.149 N 
ATOM     10  N   UNL A   1      32.829  23.986  24.156  1.00  0.00    -0.135 NA
ATOM     11  N   UNL A   1      34.202  24.267  25.968  1.00  0.00    -0.141 NA
ATOM     12  C   UNL A   1      33.254  22.798  24.604  1.00  0.00     0.184 A 
ATOM     13  Cl  UNL A   1      32.789  21.382  23.799  1.00  0.00    -0.058 Cl
BRANCH   9  14
ATOM     14  C   UNL A   1      33.318  26.244  24.930  1.00  0.00     0.089 A 
ATOM     15  C   UNL A   1      33.649  26.332  22.367  1.00  0.00     0.047 C 
ATOM     16  C   UNL A   1      33.495  26.967  23.727  1.00  0.00    -0.023 A 
ATOM     17  C   UNL A   1      33.508  28.370  23.785  1.00  0.00     0.006 A 
ATOM     18  C   UNL A   1      33.298  29.042  24.990  1.00  0.00     0.000 A 
ATOM     19  C   UNL A   1      33.047  26.928  26.128  1.00  0.00     0.030 A 
ATOM     20  C   UNL A   1      33.050  28.322  26.155  1.00  0.00     0.002 A 
ENDBRANCH   9  14
ENDBRANCH   5   8
ENDBRANCH   3   4
ENDBRANCH   2   3
ENDBRANCH   1   2
BRANCH   1  21
ATOM     21  N   UNL A   1      40.100  22.985  26.518  1.00  0.00    -0.352 N 
ATOM     22  C   UNL A   1      40.827  24.073  26.994  1.00  0.00     0.251 C 
ATOM     23  H   UNL A   1      40.589  22.132  26.457  1.00  0.00     0.163 HD
ATOM     24  O   UNL A   1      42.012  23.991  27.285  1.00  0.00    -0.269 OA
BRANCH  22  25
ATOM     25  C   UNL A   1      40.083  25.322  27.249  1.00  0.00     0.039 A 
ATOM     26  C   UNL A   1      40.426  26.433  26.472  1.00  0.00     0.014 A 
ATOM     27  C   UNL A   1      39.324  25.457  28.408  1.00  0.00     0.014 A 
ATOM     28  C   UNL A   1      40.219  27.708  26.992  1.00  0.00     0.010 A 
ATOM     29  C   UNL A   1      39.188  26.719  28.958  1.00  0.00     0.010 A 
ATOM     30  C   UNL A   1      39.716  27.832  28.288  1.00  0.00    -0.014 A 
BRANCH  30  31
ATOM     31  C   UNL A   1      39.904  29.041  29.088  1.00  0.00     0.031 A 
ATOM     32  C   UNL A   1      38.903  30.127  29.083  1.00  0.00     0.074 A 
ATOM     33  C   UNL A   1      41.000  29.156  29.873  1.00  0.00     0.049 A 
ATOM     34  N   UNL A   1      39.115  31.308  29.557  1.00  0.00    -0.248 NA
ATOM     35  C   UNL A   1      37.599  29.997  28.441  1.00  0.00     0.031 C 
ATOM     36  C   UNL A   1      41.241  30.134  30.932  1.00  0.00     0.029 A 
ATOM     37  N   UNL A   1      42.251  28.582  29.640  1.00  0.00    -0.354 N 
ATOM     38  C   UNL A   1      37.929  31.994  29.542  1.00  0.00     0.074 A 
ATOM     39  C   UNL A   1      37.061  31.188  28.720  1.00  0.00     0.031 C 
ATOM     40  C   UNL A   1      42.564  30.313  31.058  1.00  0.00     0.029 A 
ATOM     41  C   UNL A   1      43.208  29.554  30.005  1.00  0.00     0.049 A 
ATOM     42  H   UNL A   1      42.431  27.679  29.292  1.00  0.00     0.167 HD
ATOM     43  C   UNL A   1      37.803  33.103  30.325  1.00  0.00     0.034 A 
ATOM     44  C   UNL A   1      44.085  30.049  29.083  1.00  0.00     0.034 A 
ATOM     45  C   UNL A   1      39.120  33.614  30.735  1.00  0.00     0.049 A 
ATOM     46  C   UNL A   1      43.959  31.539  28.841  1.00  0.00     0.074 A 
ATOM     47  C   UNL A   1      39.841  33.683  31.914  1.00  0.00     0.029 A 
ATOM     48  N   UNL A   1      40.005  33.990  29.733  1.00  0.00    -0.354 N 
ATOM     49  N   UNL A   1      43.100  32.316  29.443  1.00  0.00    -0.248 NA
ATOM     50  C   UNL A   1      44.738  32.255  27.831  1.00  0.00     0.031 C 
ATOM     51  C   UNL A   1      41.186  34.055  31.591  1.00  0.00     0.029 A 
ATOM     52  C   UNL A   1      41.269  34.244  30.223  1.00  0.00     0.049 A 
ATOM     53  H   UNL A   1      39.759  34.066  28.783  1.00  0.00     0.167 HD
ATOM     54  C   UNL A   1      43.158  33.572  28.898  1.00  0.00     0.074 A 
ATOM     55  C   UNL A   1      44.201  33.484  27.891  1.00  0.00     0.031 C 
ATOM     56  C   UNL A   1      42.322  34.584  29.274  1.00  0.00     0.034 A 
BRANCH  43  57
ATOM     57  C   UNL A   1      36.489  33.664  30.849  1.00  0.00     0.023 A 
ATOM     58  C   UNL A   1      35.561  34.199  29.926  1.00  0.00     0.031 A 
ATOM     59  C   UNL A   1      36.129  33.829  32.206  1.00  0.00     0.131 A 
ATOM     60  C   UNL A   1      34.390  34.860  30.352  1.00  0.00     0.055 A 
ATOM     61  C   UNL A   1      34.944  34.446  32.627  1.00  0.00     0.041 A 
ATOM     62  F   UNL A   1      36.913  33.457  33.220  1.00  0.00    -0.206 F 
ATOM     63  C   UNL A   1      34.070  34.975  31.700  1.00  0.00     0.022 A 
BRANCH  60  64
ATOM     64  S   UNL A   1      33.313  35.653  29.125  1.00  0.00     0.124 S 
ATOM     65  O   UNL A   1      32.604  34.512  28.555  1.00  0.00    -0.237 OA
ATOM     66  O   UNL A   1      32.525  36.564  29.948  1.00  0.00    -0.237 OA
ATOM     67  O   UNL A   1      34.257  36.305  28.216  1.00  0.00    -0.744 OA
ENDBRANCH  60  64
ENDBRANCH  43  57
BRANCH  44  68
ATOM     68  C   UNL A   1      44.525  29.018  28.101  1.00  0.00     0.023 A 
ATOM     69  C   UNL A   1      45.424  28.040  28.581  1.00  0.00     0.031 A 
ATOM     70  C   UNL A   1      43.825  28.738  26.921  1.00  0.00     0.131 A 
ATOM     71  C   UNL A   1      45.450  26.762  28.011  1.00  0.00     0.055 A 
ATOM     72  C   UNL A   1      43.927  27.488  26.297  1.00  0.00     0.041 A 
ATOM     73  F   UNL A   1      42.935  29.612  26.428  1.00  0.00    -0.206 F 
ATOM     74  C   UNL A   1      44.699  26.476  26.871  1.00  0.00     0.022 A 
BRANCH  71  75
ATOM     75  S   UNL A   1      46.214  25.409  28.954  1.00  0.00     0.124 S 
ATOM     76  O   UNL A   1      45.600  25.558  30.267  1.00  0.00    -0.237 OA
ATOM     77  O   UNL A   1      45.821  24.221  28.198  1.00  0.00    -0.237 OA
ATOM     78  O   UNL A   1      47.641  25.714  28.882  1.00  0.00    -0.744 OA
ENDBRANCH  71  75
ENDBRANCH  44  68
BRANCH  56  79
ATOM     79  C   UNL A   1      42.421  35.979  28.708  1.00  0.00     0.023 A 
ATOM     80  C   UNL A   1      42.887  37.061  29.474  1.00  0.00     0.031 A 
ATOM     81  C   UNL A   1      41.987  36.284  27.399  1.00  0.00     0.131 A 
ATOM     82  C   UNL A   1      42.993  38.347  28.918  1.00  0.00     0.055 A 
ATOM     83  C   UNL A   1      42.012  37.580  26.877  1.00  0.00     0.041 A 
ATOM     84  F   UNL A   1      41.559  35.331  26.559  1.00  0.00    -0.206 F 
ATOM     85  C   UNL A   1      42.533  38.622  27.632  1.00  0.00     0.022 A 
BRANCH  82  86
ATOM     86  S   UNL A   1      43.824  39.638  29.878  1.00  0.00     0.124 S 
ATOM     87  O   UNL A   1      44.941  40.009  29.014  1.00  0.00    -0.237 OA
ATOM     88  O   UNL A   1      42.766  40.637  30.010  1.00  0.00    -0.237 OA
ATOM     89  O   UNL A   1      44.194  38.963  31.120  1.00  0.00    -0.744 OA
ENDBRANCH  82  86
ENDBRANCH  56  79
ENDBRANCH  30  31
ENDBRANCH  22  25
ENDBRANCH   1  21
TORSDOF 14
ENDMDL
MODEL 2
REMARK VINA RESULT:     -12.9      4.304     10.747
REMARK SMILES Cc1ccccc1-n1nc(Cl)c(C(=O)NCCCNC(=O)c2ccc(-c3c4nc(c(-c5cc(S(=O)(=O)[O-])ccc5F)c5ccc([nH]5)c(-c5cc(S(=O)(=O)[O-])ccc5F)c5nc(c(-c6cc(S(=O)(=O)[O-])ccc6F)c6ccc3[nH]6)C=C5)C=C4)cc2)n1
REMARK SMILES IDX 18 1 17 2 16 3 15 4 13 5 14 6 12 8 8 9 9 10 85 11 10 12
REMARK SMILES IDX 11 13 7 14 1 15 2 16 3 17 4 18 6 19 5 20 19 21 20 22 21 24
REMARK SMILES IDX 22 25 23 26 84 27 24 28 83 29 25 30 26 31 27 32 77 33 28 34
REMARK SMILES IDX 82 35 76 36 78 37 29 38 81 39 75 40 74 41 30 43 62 44 42 45
REMARK SMILES IDX 61 46 43 47 46 48 60 49 79 50 44 51 45 52 59 54 80 55 47 56
REMARK SMILES IDX 31 57 32 58 40 59 33 60 39 61 41 62 38 63 34 64 35 65 36 66
REMARK SMILES IDX 37 67 63 68 64 69 72 70 65 71 71 72 73 73 70 74 66 75 67 76
REMARK SMILES IDX 68 77 69 78 48 79 49 80 57 81 50 82 56 83 58 84 55 85 51 86
REMARK SMILES IDX 52 87 53 88 54 89
REMARK H PARENT 15 7 19 23 78 42 46 53
REMARK Flexibility Score: inf
ROOT
ATOM      1  C   UNL A   1      34.087  30.234  27.914  1.00  0.00     0.118 C 
ENDROOT
BRANCH   1   2
ATOM      2  C   UNL A   1      33.085  30.783  26.898  1.00  0.00     0.042 C 
BRANCH   2   3
ATOM      3  C   UNL A   1      32.601  29.713  25.917  1.00  0.00     0.118 C 
BRANCH   3   4
ATOM      4  N   UNL A   1      33.353  29.695  24.665  1.00  0.00    -0.350 N 
ATOM      5  C   UNL A   1      33.581  28.668  23.770  1.00  0.00     0.275 C 
ATOM      6  O   UNL A   1      34.212  28.917  22.743  1.00  0.00    -0.267 OA
ATOM      7  H   UNL A   1      33.765  30.555  24.418  1.00  0.00     0.163 HD
BRANCH   5   8
ATOM      8  C   UNL A   1      33.108  27.309  24.057  1.00  0.00     0.189 A 
ATOM      9  N   UNL A   1      32.904  25.388  24.922  1.00  0.00    -0.149 N 
ATOM     10  N   UNL A   1      32.037  25.318  23.884  1.00  0.00    -0.135 NA
ATOM     11  N   UNL A   1      33.579  26.543  25.054  1.00  0.00    -0.141 NA
ATOM     12  C   UNL A   1      32.115  26.560  23.388  1.00  0.00     0.184 A 
ATOM     13  Cl  UNL A   1      31.109  27.016  22.104  1.00  0.00    -0.058 Cl
BRANCH   9  14
ATOM     14  C   UNL A   1      33.202  24.276  25.753  1.00  0.00     0.089 A 
ATOM     15  C   UNL A   1      30.752  24.014  26.539  1.00  0.00     0.047 C 
ATOM     16  C   UNL A   1      32.225  23.690  26.592  1.00  0.00    -0.023 A 
ATOM     17  C   UNL A   1      32.636  22.723  27.523  1.00  0.00     0.006 A 
ATOM     18  C   UNL A   1      33.966  22.308  27.590  1.00  0.00     0.000 A 
ATOM     19  C   UNL A   1      34.528  23.809  25.784  1.00  0.00     0.030 A 
ATOM     20  C   UNL A   1      34.906  22.836  26.710  1.00  0.00     0.002 A 
ENDBRANCH   9  14
ENDBRANCH   5   8
ENDBRANCH   3   4
ENDBRANCH   2   3
ENDBRANCH   1   2
BRANCH   1  21
ATOM     21  N   UNL A   1      34.881  31.261  28.581  1.00  0.00    -0.352 N 
ATOM     22  C   UNL A   1      36.164  31.142  29.109  1.00  0.00     0.251 C 
ATOM     23  H   UNL A   1      34.457  32.146  28.670  1.00  0.00     0.163 HD
ATOM     24  O   UNL A   1      36.723  32.065  29.683  1.00  0.00    -0.269 OA
BRANCH  22  25
ATOM     25  C   UNL A   1      36.885  29.881  28.849  1.00  0.00     0.039 A 
ATOM     26  C   UNL A   1      37.082  29.028  29.940  1.00  0.00     0.014 A 
ATOM     27  C   UNL A   1      37.600  29.717  27.666  1.00  0.00     0.014 A 
ATOM     28  C   UNL A   1      38.175  28.166  29.931  1.00  0.00     0.010 A 
ATOM     29  C   UNL A   1      38.728  28.917  27.687  1.00  0.00     0.010 A 
ATOM     30  C   UNL A   1      39.061  28.212  28.853  1.00  0.00    -0.014 A 
BRANCH  30  31
ATOM     31  C   UNL A   1      40.438  27.732  28.950  1.00  0.00     0.031 A 
ATOM     32  C   UNL A   1      40.794  26.347  28.583  1.00  0.00     0.074 A 
ATOM     33  C   UNL A   1      41.412  28.580  29.353  1.00  0.00     0.049 A 
ATOM     34  N   UNL A   1      41.920  25.788  28.876  1.00  0.00    -0.248 NA
ATOM     35  C   UNL A   1      39.857  25.433  27.939  1.00  0.00     0.031 C 
ATOM     36  C   UNL A   1      42.857  28.388  29.261  1.00  0.00     0.029 A 
ATOM     37  N   UNL A   1      41.260  29.665  30.219  1.00  0.00    -0.354 N 
ATOM     38  C   UNL A   1      41.974  24.575  28.240  1.00  0.00     0.074 A 
ATOM     39  C   UNL A   1      40.624  24.349  27.789  1.00  0.00     0.031 C 
ATOM     40  C   UNL A   1      43.447  29.099  30.233  1.00  0.00     0.029 A 
ATOM     41  C   UNL A   1      42.398  29.668  31.055  1.00  0.00     0.049 A 
ATOM     42  H   UNL A   1      40.510  30.303  30.241  1.00  0.00     0.167 HD
ATOM     43  C   UNL A   1      43.187  23.973  28.079  1.00  0.00     0.034 A 
ATOM     44  C   UNL A   1      42.270  29.520  32.406  1.00  0.00     0.034 A 
ATOM     45  C   UNL A   1      44.185  24.539  28.998  1.00  0.00     0.049 A 
ATOM     46  C   UNL A   1      42.951  28.288  32.965  1.00  0.00     0.074 A 
ATOM     47  C   UNL A   1      45.313  25.332  28.881  1.00  0.00     0.029 A 
ATOM     48  N   UNL A   1      43.928  24.454  30.360  1.00  0.00    -0.354 N 
ATOM     49  N   UNL A   1      43.613  27.421  32.249  1.00  0.00    -0.248 NA
ATOM     50  C   UNL A   1      42.862  27.891  34.370  1.00  0.00     0.031 C 
ATOM     51  C   UNL A   1      45.693  25.761  30.193  1.00  0.00     0.029 A 
ATOM     52  C   UNL A   1      44.817  25.201  31.106  1.00  0.00     0.049 A 
ATOM     53  H   UNL A   1      43.197  23.922  30.749  1.00  0.00     0.167 HD
ATOM     54  C   UNL A   1      43.983  26.363  33.037  1.00  0.00     0.074 A 
ATOM     55  C   UNL A   1      43.489  26.704  34.360  1.00  0.00     0.031 C 
ATOM     56  C   UNL A   1      44.627  25.261  32.549  1.00  0.00     0.034 A 
BRANCH  43  57
ATOM     57  C   UNL A   1      43.527  22.960  26.996  1.00  0.00     0.023 A 
ATOM     58  C   UNL A   1      42.882  21.702  27.013  1.00  0.00     0.031 A 
ATOM     59  C   UNL A   1      44.535  23.090  26.013  1.00  0.00     0.131 A 
ATOM     60  C   UNL A   1      43.252  20.668  26.126  1.00  0.00     0.055 A 
ATOM     61  C   UNL A   1      44.870  22.079  25.103  1.00  0.00     0.041 A 
ATOM     62  F   UNL A   1      45.302  24.176  25.893  1.00  0.00    -0.206 F 
ATOM     63  C   UNL A   1      44.235  20.856  25.161  1.00  0.00     0.022 A 
BRANCH  60  64
ATOM     64  S   UNL A   1      42.490  19.030  26.295  1.00  0.00     0.124 S 
ATOM     65  O   UNL A   1      41.195  19.225  25.651  1.00  0.00    -0.237 OA
ATOM     66  O   UNL A   1      43.442  18.173  25.596  1.00  0.00    -0.237 OA
ATOM     67  O   UNL A   1      42.430  18.831  27.743  1.00  0.00    -0.744 OA
ENDBRANCH  60  64
ENDBRANCH  43  57
BRANCH  44  68
ATOM     68  C   UNL A   1      41.049  30.187  32.942  1.00  0.00     0.023 A 
ATOM     69  C   UNL A   1      41.079  31.597  32.995  1.00  0.00     0.031 A 
ATOM     70  C   UNL A   1      39.800  29.557  33.004  1.00  0.00     0.131 A 
ATOM     71  C   UNL A   1      39.893  32.334  32.901  1.00  0.00     0.055 A 
ATOM     72  C   UNL A   1      38.612  30.301  33.007  1.00  0.00     0.041 A 
ATOM     73  F   UNL A   1      39.699  28.222  32.929  1.00  0.00    -0.206 F 
ATOM     74  C   UNL A   1      38.655  31.693  32.900  1.00  0.00     0.022 A 
BRANCH  71  75
ATOM     75  S   UNL A   1      40.000  34.094  32.458  1.00  0.00     0.124 S 
ATOM     76  O   UNL A   1      39.279  34.142  31.193  1.00  0.00    -0.237 OA
ATOM     77  O   UNL A   1      39.349  34.756  33.588  1.00  0.00    -0.237 OA
ATOM     78  O   UNL A   1      41.439  34.333  32.379  1.00  0.00    -0.744 OA
ENDBRANCH  71  75
ENDBRANCH  44  68
BRANCH  56  79
ATOM     79  C   UNL A   1      45.076  24.121  33.429  1.00  0.00     0.023 A 
ATOM     80  C   UNL A   1      46.382  24.050  33.945  1.00  0.00     0.031 A 
ATOM     81  C   UNL A   1      44.230  23.029  33.724  1.00  0.00     0.131 A 
ATOM     82  C   UNL A   1      46.771  22.989  34.781  1.00  0.00     0.055 A 
ATOM     83  C   UNL A   1      44.647  21.933  34.484  1.00  0.00     0.041 A 
ATOM     84  F   UNL A   1      42.952  23.001  33.321  1.00  0.00    -0.206 F 
ATOM     85  C   UNL A   1      45.921  21.914  35.033  1.00  0.00     0.022 A 
BRANCH  82  86
ATOM     86  S   UNL A   1      48.381  23.085  35.604  1.00  0.00     0.124 S 
ATOM     87  O   UNL A   1      49.283  22.515  34.609  1.00  0.00    -0.237 OA
ATOM     88  O   UNL A   1      48.513  24.522  35.831  1.00  0.00    -0.237 OA
ATOM     89  O   UNL A   1      48.200  22.283  36.813  1.00  0.00    -0.744 OA
ENDBRANCH  82  86
ENDBRANCH  56  79
ENDBRANCH  30  31
ENDBRANCH  22  25
ENDBRANCH   1  21
TORSDOF 14
ENDMDL
MODEL 3
REMARK VINA RESULT:     -12.0      4.301     10.202
REMARK SMILES Cc1ccccc1-n1nc(Cl)c(C(=O)NCCCNC(=O)c2ccc(-c3c4nc(c(-c5cc(S(=O)(=O)[O-])ccc5F)c5ccc([nH]5)c(-c5cc(S(=O)(=O)[O-])ccc5F)c5nc(c(-c6cc(S(=O)(=O)[O-])ccc6F)c6ccc3[nH]6)C=C5)C=C4)cc2)n1
REMARK SMILES IDX 18 1 17 2 16 3 15 4 13 5 14 6 12 8 8 9 9 10 85 11 10 12
REMARK SMILES IDX 11 13 7 14 1 15 2 16 3 17 4 18 6 19 5 20 19 21 20 22 21 24
REMARK SMILES IDX 22 25 23 26 84 27 24 28 83 29 25 30 26 31 27 32 77 33 28 34
REMARK SMILES IDX 82 35 76 36 78 37 29 38 81 39 75 40 74 41 30 43 62 44 42 45
REMARK SMILES IDX 61 46 43 47 46 48 60 49 79 50 44 51 45 52 59 54 80 55 47 56
REMARK SMILES IDX 31 57 32 58 40 59 33 60 39 61 41 62 38 63 34 64 35 65 36 66
REMARK SMILES IDX 37 67 63 68 64 69 72 70 65 71 71 72 73 73 70 74 66 75 67 76
REMARK SMILES IDX 68 77 69 78 48 79 49 80 57 81 50 82 56 83 58 84 55 85 51 86
REMARK SMILES IDX 52 87 53 88 54 89
REMARK H PARENT 15 7 19 23 78 42 46 53
REMARK Flexibility Score: inf
ROOT
ATOM      1  C   UNL A   1      33.486  30.502  27.645  1.00  0.00     0.118 C 
ENDROOT
BRANCH   1   2
ATOM      2  C   UNL A   1      32.444  30.910  26.603  1.00  0.00     0.042 C 
BRANCH   2   3
ATOM      3  C   UNL A   1      31.974  29.729  25.753  1.00  0.00     0.118 C 
BRANCH   3   4
ATOM      4  N   UNL A   1      32.613  29.671  24.440  1.00  0.00    -0.350 N 
ATOM      5  C   UNL A   1      32.886  28.593  23.622  1.00  0.00     0.275 C 
ATOM      6  O   UNL A   1      33.392  28.809  22.520  1.00  0.00    -0.267 OA
ATOM      7  H   UNL A   1      32.896  30.543  24.081  1.00  0.00     0.163 HD
BRANCH   5   8
ATOM      8  C   UNL A   1      32.605  27.225  24.071  1.00  0.00     0.189 A 
ATOM      9  N   UNL A   1      32.858  25.236  24.750  1.00  0.00    -0.149 N 
ATOM     10  N   UNL A   1      31.524  25.285  24.527  1.00  0.00    -0.135 NA
ATOM     11  N   UNL A   1      33.547  26.358  24.476  1.00  0.00    -0.141 NA
ATOM     12  C   UNL A   1      31.360  26.565  24.171  1.00  0.00     0.184 A 
ATOM     13  Cl  UNL A   1      29.803  27.164  23.881  1.00  0.00    -0.058 Cl
BRANCH   9  14
ATOM     14  C   UNL A   1      33.535  24.045  25.123  1.00  0.00     0.089 A 
ATOM     15  C   UNL A   1      33.832  23.268  22.675  1.00  0.00     0.047 C 
ATOM     16  C   UNL A   1      33.905  23.068  24.168  1.00  0.00    -0.023 A 
ATOM     17  C   UNL A   1      34.396  21.835  24.628  1.00  0.00     0.006 A 
ATOM     18  C   UNL A   1      34.566  21.592  25.991  1.00  0.00     0.000 A 
ATOM     19  C   UNL A   1      33.767  23.815  26.490  1.00  0.00     0.030 A 
ATOM     20  C   UNL A   1      34.269  22.586  26.919  1.00  0.00     0.002 A 
ENDBRANCH   9  14
ENDBRANCH   5   8
ENDBRANCH   3   4
ENDBRANCH   2   3
ENDBRANCH   1   2
BRANCH   1  21
ATOM     21  N   UNL A   1      34.247  31.618  28.196  1.00  0.00    -0.352 N 
ATOM     22  C   UNL A   1      35.539  31.599  28.715  1.00  0.00     0.251 C 
ATOM     23  H   UNL A   1      33.792  32.492  28.201  1.00  0.00     0.163 HD
ATOM     24  O   UNL A   1      36.069  32.595  29.186  1.00  0.00    -0.269 OA
BRANCH  22  25
ATOM     25  C   UNL A   1      36.304  30.345  28.574  1.00  0.00     0.039 A 
ATOM     26  C   UNL A   1      36.715  29.717  29.754  1.00  0.00     0.014 A 
ATOM     27  C   UNL A   1      36.852  29.997  27.342  1.00  0.00     0.014 A 
ATOM     28  C   UNL A   1      37.854  28.918  29.730  1.00  0.00     0.010 A 
ATOM     29  C   UNL A   1      38.026  29.265  27.331  1.00  0.00     0.010 A 
ATOM     30  C   UNL A   1      38.571  28.803  28.538  1.00  0.00    -0.014 A 
BRANCH  30  31
ATOM     31  C   UNL A   1      39.978  28.410  28.505  1.00  0.00     0.031 A 
ATOM     32  C   UNL A   1      40.377  26.995  28.369  1.00  0.00     0.074 A 
ATOM     33  C   UNL A   1      40.937  29.363  28.570  1.00  0.00     0.049 A 
ATOM     34  N   UNL A   1      41.571  26.556  28.582  1.00  0.00    -0.248 NA
ATOM     35  C   UNL A   1      39.423  25.930  28.078  1.00  0.00     0.031 C 
ATOM     36  C   UNL A   1      42.363  29.216  28.287  1.00  0.00     0.029 A 
ATOM     37  N   UNL A   1      40.838  30.597  29.216  1.00  0.00    -0.354 N 
ATOM     38  C   UNL A   1      41.618  25.241  28.199  1.00  0.00     0.074 A 
ATOM     39  C   UNL A   1      40.236  24.871  28.025  1.00  0.00     0.031 C 
ATOM     40  C   UNL A   1      43.038  30.136  28.991  1.00  0.00     0.029 A 
ATOM     41  C   UNL A   1      42.084  30.820  29.841  1.00  0.00     0.049 A 
ATOM     42  H   UNL A   1      40.055  31.194  29.232  1.00  0.00     0.167 HD
ATOM     43  C   UNL A   1      42.834  24.669  27.968  1.00  0.00     0.034 A 
ATOM     44  C   UNL A   1      42.169  30.951  31.198  1.00  0.00     0.034 A 
ATOM     45  C   UNL A   1      43.914  25.453  28.583  1.00  0.00     0.049 A 
ATOM     46  C   UNL A   1      43.014  29.890  31.873  1.00  0.00     0.074 A 
ATOM     47  C   UNL A   1      44.951  26.250  28.131  1.00  0.00     0.029 A 
ATOM     48  N   UNL A   1      43.870  25.642  29.958  1.00  0.00    -0.354 N 
ATOM     49  N   UNL A   1      43.624  28.921  31.246  1.00  0.00    -0.248 NA
ATOM     50  C   UNL A   1      43.165  29.790  33.325  1.00  0.00     0.031 C 
ATOM     51  C   UNL A   1      45.490  26.958  29.254  1.00  0.00     0.029 A 
ATOM     52  C   UNL A   1      44.803  26.564  30.388  1.00  0.00     0.049 A 
ATOM     53  H   UNL A   1      43.245  25.173  30.557  1.00  0.00     0.167 HD
ATOM     54  C   UNL A   1      44.184  28.066  32.159  1.00  0.00     0.074 A 
ATOM     55  C   UNL A   1      43.868  28.653  33.450  1.00  0.00     0.031 C 
ATOM     56  C   UNL A   1      44.826  26.914  31.803  1.00  0.00     0.034 A 
BRANCH  43  57
ATOM     57  C   UNL A   1      43.082  23.468  27.067  1.00  0.00     0.023 A 
ATOM     58  C   UNL A   1      42.327  22.291  27.277  1.00  0.00     0.031 A 
ATOM     59  C   UNL A   1      44.098  23.347  26.091  1.00  0.00     0.131 A 
ATOM     60  C   UNL A   1      42.603  21.099  26.574  1.00  0.00     0.055 A 
ATOM     61  C   UNL A   1      44.341  22.177  25.361  1.00  0.00     0.041 A 
ATOM     62  F   UNL A   1      44.959  24.327  25.809  1.00  0.00    -0.206 F 
ATOM     63  C   UNL A   1      43.599  21.040  25.605  1.00  0.00     0.022 A 
BRANCH  60  64
ATOM     64  S   UNL A   1      41.697  19.584  26.993  1.00  0.00     0.124 S 
ATOM     65  O   UNL A   1      40.593  20.097  27.797  1.00  0.00    -0.237 OA
ATOM     66  O   UNL A   1      41.354  19.055  25.677  1.00  0.00    -0.237 OA
ATOM     67  O   UNL A   1      42.681  18.795  27.735  1.00  0.00    -0.744 OA
ENDBRANCH  60  64
ENDBRANCH  43  57
BRANCH  44  68
ATOM     68  C   UNL A   1      40.996  31.663  31.779  1.00  0.00     0.023 A 
ATOM     69  C   UNL A   1      40.096  30.875  32.529  1.00  0.00     0.031 A 
ATOM     70  C   UNL A   1      40.958  33.050  31.961  1.00  0.00     0.131 A 
ATOM     71  C   UNL A   1      39.346  31.448  33.562  1.00  0.00     0.055 A 
ATOM     72  C   UNL A   1      40.133  33.631  32.934  1.00  0.00     0.041 A 
ATOM     73  F   UNL A   1      41.807  33.853  31.302  1.00  0.00    -0.206 F 
ATOM     74  C   UNL A   1      39.364  32.826  33.776  1.00  0.00     0.022 A 
BRANCH  71  75
ATOM     75  S   UNL A   1      38.612  30.349  34.811  1.00  0.00     0.124 S 
ATOM     76  O   UNL A   1      37.924  29.360  33.992  1.00  0.00    -0.237 OA
ATOM     77  O   UNL A   1      39.779  29.866  35.548  1.00  0.00    -0.237 OA
ATOM     78  O   UNL A   1      37.752  31.244  35.582  1.00  0.00    -0.744 OA
ENDBRANCH  71  75
ENDBRANCH  44  68
BRANCH  56  79
ATOM     79  C   UNL A   1      45.483  26.001  32.807  1.00  0.00     0.023 A 
ATOM     80  C   UNL A   1      44.742  25.099  33.589  1.00  0.00     0.031 A 
ATOM     81  C   UNL A   1      46.872  26.052  33.063  1.00  0.00     0.131 A 
ATOM     82  C   UNL A   1      45.379  24.242  34.503  1.00  0.00     0.055 A 
ATOM     83  C   UNL A   1      47.491  25.259  34.033  1.00  0.00     0.041 A 
ATOM     84  F   UNL A   1      47.689  26.842  32.354  1.00  0.00    -0.206 F 
ATOM     85  C   UNL A   1      46.747  24.333  34.751  1.00  0.00     0.022 A 
BRANCH  82  86
ATOM     86  S   UNL A   1      44.399  22.943  35.298  1.00  0.00     0.124 S 
ATOM     87  O   UNL A   1      44.710  21.768  34.490  1.00  0.00    -0.237 OA
ATOM     88  O   UNL A   1      44.947  22.945  36.652  1.00  0.00    -0.237 OA
ATOM     89  O   UNL A   1      43.025  23.429  35.188  1.00  0.00    -0.744 OA
ENDBRANCH  82  86
ENDBRANCH  56  79
ENDBRANCH  30  31
ENDBRANCH  22  25
ENDBRANCH   1  21
TORSDOF 14
ENDMDL
