MODEL 1
REMARK VINA RESULT:     -12.4      0.000      0.000
REMARK SMILES COC(=O)c1ccc(Cl)c(-c2ccc(C(=O)NCCCNC(=O)c3ccc(-c4c5nc(c(-c6cc(S(=O)(=O)[O-])ccc6F)c6ccc([nH]6)c(-c6cc(S(=O)(=O)[O-])ccc6F)c6nc(c(-c7cc(S(=O)(=O)[O-])ccc7F)c7ccc4[nH]7)C=C6)C=C5)cc3)c(F)c2)c1
REMARK SMILES IDX 19 1 18 2 17 3 15 4 16 5 14 7 11 8 12 9 89 10 13 11 87 12
REMARK SMILES IDX 88 13 10 14 5 15 6 16 90 17 7 18 8 19 9 20 3 21 4 22 2 23
REMARK SMILES IDX 1 24 20 25 21 26 22 27 23 29 24 30 25 31 86 32 26 33 85 34
REMARK SMILES IDX 27 35 28 36 29 37 79 38 30 39 84 40 78 41 80 42 31 43 83 44
REMARK SMILES IDX 77 45 76 46 32 48 64 49 44 50 63 51 45 52 48 53 62 54 81 55
REMARK SMILES IDX 46 56 47 57 61 59 82 60 49 61 33 62 34 63 42 64 35 65 41 66
REMARK SMILES IDX 43 67 40 68 36 69 37 70 38 71 39 72 65 73 66 74 74 75 67 76
REMARK SMILES IDX 73 77 75 78 72 79 68 80 69 81 70 82 71 83 50 84 51 85 59 86
REMARK SMILES IDX 52 87 58 88 60 89 57 90 53 91 54 92 55 93 56 94
REMARK H PARENT 17 6 21 28 80 47 48 58
REMARK Flexibility Score: inf
ROOT
ATOM      1  C   UNL A   1      35.672  21.861  24.437  1.00  0.00     0.042 C 
ENDROOT
BRANCH   1   2
ATOM      2  C   UNL A   1      34.171  21.622  24.602  1.00  0.00     0.118 C 
BRANCH   2   3
ATOM      3  N   UNL A   1      33.797  21.502  26.000  1.00  0.00    -0.352 N 
ATOM      4  C   UNL A   1      33.131  22.343  26.855  1.00  0.00     0.254 C 
ATOM      5  O   UNL A   1      32.896  21.920  27.990  1.00  0.00    -0.269 OA
ATOM      6  H   UNL A   1      34.076  20.654  26.415  1.00  0.00     0.163 HD
BRANCH   4   7
ATOM      7  C   UNL A   1      32.619  23.688  26.489  1.00  0.00     0.075 A 
ATOM      8  C   UNL A   1      31.830  26.297  25.685  1.00  0.00    -0.014 A 
ATOM      9  C   UNL A   1      33.161  25.885  25.551  1.00  0.00     0.010 A 
ATOM     10  C   UNL A   1      30.904  25.381  26.196  1.00  0.00     0.048 A 
ATOM     11  C   UNL A   1      33.548  24.597  25.949  1.00  0.00     0.017 A 
ATOM     12  C   UNL A   1      31.292  24.096  26.567  1.00  0.00     0.136 A 
ATOM     13  F   UNL A   1      30.311  23.280  26.956  1.00  0.00    -0.206 F 
BRANCH   8  14
ATOM     14  C   UNL A   1      31.371  27.641  25.316  1.00  0.00     0.001 A 
ATOM     15  C   UNL A   1      30.244  29.041  23.660  1.00  0.00     0.060 A 
ATOM     16  C   UNL A   1      30.666  30.193  24.329  1.00  0.00     0.017 A 
ATOM     17  C   UNL A   1      30.575  27.779  24.164  1.00  0.00     0.026 A 
ATOM     18  C   UNL A   1      31.421  30.073  25.498  1.00  0.00     0.022 A 
ATOM     19  C   UNL A   1      31.778  28.810  25.986  1.00  0.00     0.048 A 
ATOM     20  Cl  UNL A   1      32.771  28.754  27.401  1.00  0.00    -0.084 Cl
BRANCH  15  21
ATOM     21  C   UNL A   1      29.484  29.097  22.389  1.00  0.00     0.337 C 
ATOM     22  O   UNL A   1      29.864  29.699  21.402  1.00  0.00    -0.246 OA
BRANCH  21  23
ATOM     23  O   UNL A   1      28.289  28.479  22.554  1.00  0.00    -0.465 OA
ATOM     24  C   UNL A   1      27.283  29.319  23.122  1.00  0.00     0.282 C 
ENDBRANCH  21  23
ENDBRANCH  15  21
ENDBRANCH   8  14
ENDBRANCH   4   7
ENDBRANCH   2   3
ENDBRANCH   1   2
BRANCH   1  25
ATOM     25  C   UNL A   1      36.430  22.008  25.751  1.00  0.00     0.118 C 
BRANCH  25  26
ATOM     26  N   UNL A   1      37.453  20.988  25.908  1.00  0.00    -0.352 N 
ATOM     27  C   UNL A   1      38.810  21.115  26.072  1.00  0.00     0.251 C 
ATOM     28  H   UNL A   1      37.122  20.061  25.893  1.00  0.00     0.163 HD
ATOM     29  O   UNL A   1      39.513  20.116  25.952  1.00  0.00    -0.269 OA
BRANCH  27  30
ATOM     30  C   UNL A   1      39.430  22.427  26.379  1.00  0.00     0.039 A 
ATOM     31  C   UNL A   1      40.496  22.463  27.284  1.00  0.00     0.014 A 
ATOM     32  C   UNL A   1      38.936  23.621  25.846  1.00  0.00     0.014 A 
ATOM     33  C   UNL A   1      41.085  23.684  27.624  1.00  0.00     0.010 A 
ATOM     34  C   UNL A   1      39.569  24.832  26.132  1.00  0.00     0.010 A 
ATOM     35  C   UNL A   1      40.641  24.878  27.035  1.00  0.00    -0.014 A 
BRANCH  35  36
ATOM     36  C   UNL A   1      41.273  26.180  27.374  1.00  0.00     0.031 A 
ATOM     37  C   UNL A   1      42.656  26.502  26.873  1.00  0.00     0.074 A 
ATOM     38  C   UNL A   1      40.615  27.057  28.158  1.00  0.00     0.049 A 
ATOM     39  N   UNL A   1      43.395  27.555  27.112  1.00  0.00    -0.248 NA
ATOM     40  C   UNL A   1      43.302  25.501  26.009  1.00  0.00     0.031 C 
ATOM     41  C   UNL A   1      39.282  26.844  28.727  1.00  0.00     0.029 A 
ATOM     42  N   UNL A   1      40.973  28.301  28.613  1.00  0.00    -0.354 N 
ATOM     43  C   UNL A   1      44.597  27.336  26.445  1.00  0.00     0.074 A 
ATOM     44  C   UNL A   1      44.503  26.031  25.826  1.00  0.00     0.031 C 
ATOM     45  C   UNL A   1      38.925  27.932  29.428  1.00  0.00     0.029 A 
ATOM     46  C   UNL A   1      40.016  28.901  29.397  1.00  0.00     0.049 A 
ATOM     47  H   UNL A   1      41.836  28.725  28.399  1.00  0.00     0.167 HD
ATOM     48  C   UNL A   1      45.671  28.156  26.345  1.00  0.00     0.034 A 
ATOM     49  C   UNL A   1      40.016  30.093  30.028  1.00  0.00     0.034 A 
ATOM     50  C   UNL A   1      45.737  29.469  26.935  1.00  0.00     0.049 A 
ATOM     51  C   UNL A   1      41.220  30.985  29.901  1.00  0.00     0.074 A 
ATOM     52  C   UNL A   1      46.754  30.403  26.838  1.00  0.00     0.029 A 
ATOM     53  N   UNL A   1      44.751  30.034  27.730  1.00  0.00    -0.354 N 
ATOM     54  N   UNL A   1      42.341  30.766  29.255  1.00  0.00    -0.248 NA
ATOM     55  C   UNL A   1      41.164  32.283  30.588  1.00  0.00     0.031 C 
ATOM     56  C   UNL A   1      46.406  31.510  27.617  1.00  0.00     0.029 A 
ATOM     57  C   UNL A   1      45.146  31.293  28.150  1.00  0.00     0.049 A 
ATOM     58  H   UNL A   1      43.896  29.604  27.961  1.00  0.00     0.167 HD
ATOM     59  C   UNL A   1      43.116  31.905  29.443  1.00  0.00     0.074 A 
ATOM     60  C   UNL A   1      42.335  32.813  30.258  1.00  0.00     0.031 C 
ATOM     61  C   UNL A   1      44.360  32.178  28.976  1.00  0.00     0.034 A 
BRANCH  48  62
ATOM     62  C   UNL A   1      46.868  27.657  25.580  1.00  0.00     0.023 A 
ATOM     63  C   UNL A   1      47.072  27.987  24.230  1.00  0.00     0.031 A 
ATOM     64  C   UNL A   1      47.837  26.865  26.222  1.00  0.00     0.131 A 
ATOM     65  C   UNL A   1      48.197  27.494  23.552  1.00  0.00     0.055 A 
ATOM     66  C   UNL A   1      48.986  26.428  25.560  1.00  0.00     0.041 A 
ATOM     67  F   UNL A   1      47.684  26.508  27.507  1.00  0.00    -0.206 F 
ATOM     68  C   UNL A   1      49.168  26.737  24.215  1.00  0.00     0.022 A 
BRANCH  65  69
ATOM     69  S   UNL A   1      48.346  27.799  21.772  1.00  0.00     0.124 S 
ATOM     70  O   UNL A   1      48.402  26.437  21.245  1.00  0.00    -0.237 OA
ATOM     71  O   UNL A   1      47.132  28.549  21.474  1.00  0.00    -0.237 OA
ATOM     72  O   UNL A   1      49.590  28.558  21.656  1.00  0.00    -0.744 OA
ENDBRANCH  65  69
ENDBRANCH  48  62
BRANCH  49  73
ATOM     73  C   UNL A   1      38.840  30.499  30.845  1.00  0.00     0.023 A 
ATOM     74  C   UNL A   1      37.782  31.226  30.279  1.00  0.00     0.031 A 
ATOM     75  C   UNL A   1      38.755  30.153  32.205  1.00  0.00     0.131 A 
ATOM     76  C   UNL A   1      36.687  31.600  31.076  1.00  0.00     0.055 A 
ATOM     77  C   UNL A   1      37.649  30.495  32.984  1.00  0.00     0.041 A 
ATOM     78  F   UNL A   1      39.738  29.449  32.788  1.00  0.00    -0.206 F 
ATOM     79  C   UNL A   1      36.609  31.227  32.420  1.00  0.00     0.022 A 
BRANCH  76  80
ATOM     80  S   UNL A   1      35.368  32.600  30.335  1.00  0.00     0.124 S 
ATOM     81  O   UNL A   1      36.079  33.831  30.008  1.00  0.00    -0.237 OA
ATOM     82  O   UNL A   1      34.957  31.775  29.204  1.00  0.00    -0.237 OA
ATOM     83  O   UNL A   1      34.384  32.713  31.409  1.00  0.00    -0.744 OA
ENDBRANCH  76  80
ENDBRANCH  49  73
BRANCH  61  84
ATOM     84  C   UNL A   1      44.949  33.520  29.313  1.00  0.00     0.023 A 
ATOM     85  C   UNL A   1      44.731  34.642  28.498  1.00  0.00     0.031 A 
ATOM     86  C   UNL A   1      45.692  33.687  30.494  1.00  0.00     0.131 A 
ATOM     87  C   UNL A   1      45.271  35.884  28.864  1.00  0.00     0.055 A 
ATOM     88  C   UNL A   1      46.191  34.932  30.876  1.00  0.00     0.041 A 
ATOM     89  F   UNL A   1      45.924  32.644  31.308  1.00  0.00    -0.206 F 
ATOM     90  C   UNL A   1      45.983  36.039  30.057  1.00  0.00     0.022 A 
BRANCH  87  91
ATOM     91  S   UNL A   1      45.049  37.297  27.750  1.00  0.00     0.124 S 
ATOM     92  O   UNL A   1      46.317  37.311  27.027  1.00  0.00    -0.237 OA
ATOM     93  O   UNL A   1      43.877  36.908  26.974  1.00  0.00    -0.237 OA
ATOM     94  O   UNL A   1      44.841  38.422  28.660  1.00  0.00    -0.744 OA
ENDBRANCH  87  91
ENDBRANCH  61  84
ENDBRANCH  35  36
ENDBRANCH  27  30
ENDBRANCH  25  26
ENDBRANCH   1  25
TORSDOF 16
ENDMDL
MODEL 2
REMARK VINA RESULT:     -12.2      5.332      8.159
REMARK SMILES COC(=O)c1ccc(Cl)c(-c2ccc(C(=O)NCCCNC(=O)c3ccc(-c4c5nc(c(-c6cc(S(=O)(=O)[O-])ccc6F)c6ccc([nH]6)c(-c6cc(S(=O)(=O)[O-])ccc6F)c6nc(c(-c7cc(S(=O)(=O)[O-])ccc7F)c7ccc4[nH]7)C=C6)C=C5)cc3)c(F)c2)c1
REMARK SMILES IDX 19 1 18 2 17 3 15 4 16 5 14 7 11 8 12 9 89 10 13 11 87 12
REMARK SMILES IDX 88 13 10 14 5 15 6 16 90 17 7 18 8 19 9 20 3 21 4 22 2 23
REMARK SMILES IDX 1 24 20 25 21 26 22 27 23 29 24 30 25 31 86 32 26 33 85 34
REMARK SMILES IDX 27 35 28 36 29 37 79 38 30 39 84 40 78 41 80 42 31 43 83 44
REMARK SMILES IDX 77 45 76 46 32 48 64 49 44 50 63 51 45 52 48 53 62 54 81 55
REMARK SMILES IDX 46 56 47 57 61 59 82 60 49 61 33 62 34 63 42 64 35 65 41 66
REMARK SMILES IDX 43 67 40 68 36 69 37 70 38 71 39 72 65 73 66 74 74 75 67 76
REMARK SMILES IDX 73 77 75 78 72 79 68 80 69 81 70 82 71 83 50 84 51 85 59 86
REMARK SMILES IDX 52 87 58 88 60 89 57 90 53 91 54 92 55 93 56 94
REMARK H PARENT 17 6 21 28 80 47 48 58
REMARK Flexibility Score: inf
ROOT
ATOM      1  C   UNL A   1      32.497  28.113  25.661  1.00  0.00     0.042 C 
ENDROOT
BRANCH   1   2
ATOM      2  C   UNL A   1      31.012  28.208  25.308  1.00  0.00     0.118 C 
BRANCH   2   3
ATOM      3  N   UNL A   1      30.792  28.093  23.877  1.00  0.00    -0.352 N 
ATOM      4  C   UNL A   1      31.083  27.104  22.973  1.00  0.00     0.254 C 
ATOM      5  O   UNL A   1      30.697  27.271  21.814  1.00  0.00    -0.269 OA
ATOM      6  H   UNL A   1      30.350  28.878  23.479  1.00  0.00     0.163 HD
BRANCH   4   7
ATOM      7  C   UNL A   1      31.763  25.826  23.308  1.00  0.00     0.075 A 
ATOM      8  C   UNL A   1      33.251  23.471  23.868  1.00  0.00    -0.014 A 
ATOM      9  C   UNL A   1      33.795  24.480  23.066  1.00  0.00     0.010 A 
ATOM     10  C   UNL A   1      31.973  23.670  24.403  1.00  0.00     0.048 A 
ATOM     11  C   UNL A   1      33.059  25.642  22.790  1.00  0.00     0.017 A 
ATOM     12  C   UNL A   1      31.258  24.837  24.144  1.00  0.00     0.136 A 
ATOM     13  F   UNL A   1      30.090  24.958  24.778  1.00  0.00    -0.206 F 
BRANCH   8  14
ATOM     14  C   UNL A   1      33.959  22.220  24.165  1.00  0.00     0.001 A 
ATOM     15  C   UNL A   1      33.800  19.805  24.508  1.00  0.00     0.060 A 
ATOM     16  C   UNL A   1      35.110  19.777  24.991  1.00  0.00     0.017 A 
ATOM     17  C   UNL A   1      33.240  21.014  24.078  1.00  0.00     0.026 A 
ATOM     18  C   UNL A   1      35.852  20.959  25.045  1.00  0.00     0.022 A 
ATOM     19  C   UNL A   1      35.282  22.173  24.643  1.00  0.00     0.048 A 
ATOM     20  Cl  UNL A   1      36.246  23.599  24.806  1.00  0.00    -0.084 Cl
BRANCH  15  21
ATOM     21  C   UNL A   1      32.941  18.598  24.471  1.00  0.00     0.337 C 
ATOM     22  O   UNL A   1      32.163  18.296  25.356  1.00  0.00    -0.246 OA
BRANCH  21  23
ATOM     23  O   UNL A   1      33.249  17.863  23.374  1.00  0.00    -0.465 OA
ATOM     24  C   UNL A   1      33.651  16.525  23.676  1.00  0.00     0.282 C 
ENDBRANCH  21  23
ENDBRANCH  15  21
ENDBRANCH   8  14
ENDBRANCH   4   7
ENDBRANCH   2   3
ENDBRANCH   1   2
BRANCH   1  25
ATOM     25  C   UNL A   1      33.324  29.313  25.217  1.00  0.00     0.118 C 
BRANCH  25  26
ATOM     26  N   UNL A   1      32.782  30.565  25.718  1.00  0.00    -0.352 N 
ATOM     27  C   UNL A   1      33.109  31.281  26.842  1.00  0.00     0.251 C 
ATOM     28  H   UNL A   1      32.070  30.960  25.166  1.00  0.00     0.163 HD
ATOM     29  O   UNL A   1      32.364  32.192  27.196  1.00  0.00    -0.269 OA
BRANCH  27  30
ATOM     30  C   UNL A   1      34.326  30.969  27.630  1.00  0.00     0.039 A 
ATOM     31  C   UNL A   1      34.461  29.684  28.164  1.00  0.00     0.014 A 
ATOM     32  C   UNL A   1      35.296  31.938  27.907  1.00  0.00     0.014 A 
ATOM     33  C   UNL A   1      35.578  29.362  28.941  1.00  0.00     0.010 A 
ATOM     34  C   UNL A   1      36.444  31.596  28.623  1.00  0.00     0.010 A 
ATOM     35  C   UNL A   1      36.590  30.309  29.159  1.00  0.00    -0.014 A 
BRANCH  35  36
ATOM     36  C   UNL A   1      37.793  29.971  29.967  1.00  0.00     0.031 A 
ATOM     37  C   UNL A   1      38.847  29.054  29.405  1.00  0.00     0.074 A 
ATOM     38  C   UNL A   1      37.918  30.465  31.215  1.00  0.00     0.049 A 
ATOM     39  N   UNL A   1      39.931  28.596  29.978  1.00  0.00    -0.248 NA
ATOM     40  C   UNL A   1      38.646  28.570  28.030  1.00  0.00     0.031 C 
ATOM     41  C   UNL A   1      36.948  31.340  31.877  1.00  0.00     0.029 A 
ATOM     42  N   UNL A   1      38.909  30.304  32.150  1.00  0.00    -0.354 N 
ATOM     43  C   UNL A   1      40.530  27.759  29.042  1.00  0.00     0.074 A 
ATOM     44  C   UNL A   1      39.667  27.739  27.881  1.00  0.00     0.031 C 
ATOM     45  C   UNL A   1      37.407  31.662  33.097  1.00  0.00     0.029 A 
ATOM     46  C   UNL A   1      38.680  30.984  33.323  1.00  0.00     0.049 A 
ATOM     47  H   UNL A   1      39.710  29.752  31.996  1.00  0.00     0.167 HD
ATOM     48  C   UNL A   1      41.701  27.083  29.139  1.00  0.00     0.034 A 
ATOM     49  C   UNL A   1      39.405  31.050  34.458  1.00  0.00     0.034 A 
ATOM     50  C   UNL A   1      42.570  27.140  30.287  1.00  0.00     0.049 A 
ATOM     51  C   UNL A   1      40.702  30.291  34.540  1.00  0.00     0.074 A 
ATOM     52  C   UNL A   1      43.807  26.545  30.457  1.00  0.00     0.029 A 
ATOM     53  N   UNL A   1      42.295  27.832  31.458  1.00  0.00    -0.354 N 
ATOM     54  N   UNL A   1      41.258  29.515  33.639  1.00  0.00    -0.248 NA
ATOM     55  C   UNL A   1      41.468  30.412  35.788  1.00  0.00     0.031 C 
ATOM     56  C   UNL A   1      44.256  26.831  31.749  1.00  0.00     0.029 A 
ATOM     57  C   UNL A   1      43.328  27.657  32.363  1.00  0.00     0.049 A 
ATOM     58  H   UNL A   1      41.486  28.368  31.621  1.00  0.00     0.167 HD
ATOM     59  C   UNL A   1      42.448  29.070  34.205  1.00  0.00     0.074 A 
ATOM     60  C   UNL A   1      42.534  29.667  35.523  1.00  0.00     0.031 C 
ATOM     61  C   UNL A   1      43.389  28.247  33.678  1.00  0.00     0.034 A 
BRANCH  48  62
ATOM     62  C   UNL A   1      42.108  26.213  27.979  1.00  0.00     0.023 A 
ATOM     63  C   UNL A   1      41.705  24.871  27.886  1.00  0.00     0.031 A 
ATOM     64  C   UNL A   1      42.885  26.745  26.935  1.00  0.00     0.131 A 
ATOM     65  C   UNL A   1      42.114  24.092  26.792  1.00  0.00     0.055 A 
ATOM     66  C   UNL A   1      43.238  25.984  25.819  1.00  0.00     0.041 A 
ATOM     67  F   UNL A   1      43.310  28.018  26.981  1.00  0.00    -0.206 F 
ATOM     68  C   UNL A   1      42.857  24.646  25.747  1.00  0.00     0.022 A 
BRANCH  65  69
ATOM     69  S   UNL A   1      41.718  22.324  26.785  1.00  0.00     0.124 S 
ATOM     70  O   UNL A   1      42.008  21.964  25.398  1.00  0.00    -0.237 OA
ATOM     71  O   UNL A   1      42.630  21.788  27.787  1.00  0.00    -0.237 OA
ATOM     72  O   UNL A   1      40.302  22.288  27.149  1.00  0.00    -0.744 OA
ENDBRANCH  65  69
ENDBRANCH  48  62
BRANCH  49  73
ATOM     73  C   UNL A   1      38.911  31.855  35.608  1.00  0.00     0.023 A 
ATOM     74  C   UNL A   1      38.226  31.252  36.672  1.00  0.00     0.031 A 
ATOM     75  C   UNL A   1      39.131  33.243  35.660  1.00  0.00     0.131 A 
ATOM     76  C   UNL A   1      37.766  32.039  37.742  1.00  0.00     0.055 A 
ATOM     77  C   UNL A   1      38.706  34.015  36.742  1.00  0.00     0.041 A 
ATOM     78  F   UNL A   1      39.791  33.862  34.670  1.00  0.00    -0.206 F 
ATOM     79  C   UNL A   1      38.015  33.413  37.789  1.00  0.00     0.022 A 
BRANCH  76  80
ATOM     80  S   UNL A   1      36.821  31.242  39.069  1.00  0.00     0.124 S 
ATOM     81  O   UNL A   1      36.600  29.910  38.517  1.00  0.00    -0.237 OA
ATOM     82  O   UNL A   1      37.744  31.327  40.196  1.00  0.00    -0.237 OA
ATOM     83  O   UNL A   1      35.627  32.077  39.183  1.00  0.00    -0.744 OA
ENDBRANCH  76  80
ENDBRANCH  49  73
BRANCH  61  84
ATOM     84  C   UNL A   1      44.605  27.959  34.514  1.00  0.00     0.023 A 
ATOM     85  C   UNL A   1      44.673  26.828  35.344  1.00  0.00     0.031 A 
ATOM     86  C   UNL A   1      45.730  28.798  34.435  1.00  0.00     0.131 A 
ATOM     87  C   UNL A   1      45.838  26.578  36.084  1.00  0.00     0.055 A 
ATOM     88  C   UNL A   1      46.902  28.521  35.139  1.00  0.00     0.041 A 
ATOM     89  F   UNL A   1      45.714  29.889  33.653  1.00  0.00    -0.206 F 
ATOM     90  C   UNL A   1      46.959  27.406  35.972  1.00  0.00     0.022 A 
BRANCH  87  91
ATOM     91  S   UNL A   1      45.868  25.161  37.216  1.00  0.00     0.124 S 
ATOM     92  O   UNL A   1      44.447  24.956  37.478  1.00  0.00    -0.237 OA
ATOM     93  O   UNL A   1      46.524  24.131  36.417  1.00  0.00    -0.237 OA
ATOM     94  O   UNL A   1      46.645  25.647  38.354  1.00  0.00    -0.744 OA
ENDBRANCH  87  91
ENDBRANCH  61  84
ENDBRANCH  35  36
ENDBRANCH  27  30
ENDBRANCH  25  26
ENDBRANCH   1  25
TORSDOF 16
ENDMDL
MODEL 3
REMARK VINA RESULT:     -12.2      4.883      9.734
REMARK SMILES COC(=O)c1ccc(Cl)c(-c2ccc(C(=O)NCCCNC(=O)c3ccc(-c4c5nc(c(-c6cc(S(=O)(=O)[O-])ccc6F)c6ccc([nH]6)c(-c6cc(S(=O)(=O)[O-])ccc6F)c6nc(c(-c7cc(S(=O)(=O)[O-])ccc7F)c7ccc4[nH]7)C=C6)C=C5)cc3)c(F)c2)c1
REMARK SMILES IDX 19 1 18 2 17 3 15 4 16 5 14 7 11 8 12 9 89 10 13 11 87 12
REMARK SMILES IDX 88 13 10 14 5 15 6 16 90 17 7 18 8 19 9 20 3 21 4 22 2 23
REMARK SMILES IDX 1 24 20 25 21 26 22 27 23 29 24 30 25 31 86 32 26 33 85 34
REMARK SMILES IDX 27 35 28 36 29 37 79 38 30 39 84 40 78 41 80 42 31 43 83 44
REMARK SMILES IDX 77 45 76 46 32 48 64 49 44 50 63 51 45 52 48 53 62 54 81 55
REMARK SMILES IDX 46 56 47 57 61 59 82 60 49 61 33 62 34 63 42 64 35 65 41 66
REMARK SMILES IDX 43 67 40 68 36 69 37 70 38 71 39 72 65 73 66 74 74 75 67 76
REMARK SMILES IDX 73 77 75 78 72 79 68 80 69 81 70 82 71 83 50 84 51 85 59 86
REMARK SMILES IDX 52 87 58 88 60 89 57 90 53 91 54 92 55 93 56 94
REMARK H PARENT 17 6 21 28 80 47 48 58
REMARK Flexibility Score: inf
ROOT
ATOM      1  C   UNL A   1      33.275  28.974  24.923  1.00  0.00     0.042 C 
ENDROOT
BRANCH   1   2
ATOM      2  C   UNL A   1      31.757  29.142  25.000  1.00  0.00     0.118 C 
BRANCH   2   3
ATOM      3  N   UNL A   1      31.122  28.873  23.722  1.00  0.00    -0.352 N 
ATOM      4  C   UNL A   1      31.038  27.742  22.951  1.00  0.00     0.254 C 
ATOM      5  O   UNL A   1      30.352  27.809  21.928  1.00  0.00    -0.269 OA
ATOM      6  H   UNL A   1      30.663  29.653  23.334  1.00  0.00     0.163 HD
BRANCH   4   7
ATOM      7  C   UNL A   1      31.655  26.435  23.295  1.00  0.00     0.075 A 
ATOM      8  C   UNL A   1      33.012  23.998  23.835  1.00  0.00    -0.014 A 
ATOM      9  C   UNL A   1      33.487  24.871  22.850  1.00  0.00     0.010 A 
ATOM     10  C   UNL A   1      31.874  24.374  24.558  1.00  0.00     0.048 A 
ATOM     11  C   UNL A   1      32.815  26.073  22.585  1.00  0.00     0.017 A 
ATOM     12  C   UNL A   1      31.227  25.581  24.304  1.00  0.00     0.136 A 
ATOM     13  F   UNL A   1      30.209  25.878  25.114  1.00  0.00    -0.206 F 
BRANCH   8  14
ATOM     14  C   UNL A   1      33.651  22.712  24.135  1.00  0.00     0.001 A 
ATOM     15  C   UNL A   1      33.413  20.282  24.261  1.00  0.00     0.060 A 
ATOM     16  C   UNL A   1      34.636  20.186  24.930  1.00  0.00     0.017 A 
ATOM     17  C   UNL A   1      32.939  21.532  23.848  1.00  0.00     0.026 A 
ATOM     18  C   UNL A   1      35.376  21.342  25.186  1.00  0.00     0.022 A 
ATOM     19  C   UNL A   1      34.887  22.597  24.799  1.00  0.00     0.048 A 
ATOM     20  Cl  UNL A   1      35.834  23.983  25.214  1.00  0.00    -0.084 Cl
BRANCH  15  21
ATOM     21  C   UNL A   1      32.555  19.102  24.004  1.00  0.00     0.337 C 
ATOM     22  O   UNL A   1      32.192  18.761  22.894  1.00  0.00    -0.246 OA
BRANCH  21  23
ATOM     23  O   UNL A   1      32.172  18.561  25.186  1.00  0.00    -0.465 OA
ATOM     24  C   UNL A   1      32.512  17.179  25.321  1.00  0.00     0.282 C 
ENDBRANCH  21  23
ENDBRANCH  15  21
ENDBRANCH   8  14
ENDBRANCH   4   7
ENDBRANCH   2   3
ENDBRANCH   1   2
BRANCH   1  25
ATOM     25  C   UNL A   1      33.989  29.124  26.261  1.00  0.00     0.118 C 
BRANCH  25  26
ATOM     26  N   UNL A   1      33.856  30.466  26.803  1.00  0.00    -0.352 N 
ATOM     27  C   UNL A   1      34.553  31.086  27.809  1.00  0.00     0.251 C 
ATOM     28  H   UNL A   1      33.155  31.015  26.383  1.00  0.00     0.163 HD
ATOM     29  O   UNL A   1      34.120  32.143  28.261  1.00  0.00    -0.269 OA
BRANCH  27  30
ATOM     30  C   UNL A   1      35.801  30.500  28.358  1.00  0.00     0.039 A 
ATOM     31  C   UNL A   1      37.001  30.737  27.679  1.00  0.00     0.014 A 
ATOM     32  C   UNL A   1      35.795  29.670  29.483  1.00  0.00     0.014 A 
ATOM     33  C   UNL A   1      38.192  30.174  28.147  1.00  0.00     0.010 A 
ATOM     34  C   UNL A   1      36.995  29.167  29.989  1.00  0.00     0.010 A 
ATOM     35  C   UNL A   1      38.203  29.401  29.318  1.00  0.00    -0.014 A 
BRANCH  35  36
ATOM     36  C   UNL A   1      39.468  28.815  29.835  1.00  0.00     0.031 A 
ATOM     37  C   UNL A   1      40.128  29.397  31.058  1.00  0.00     0.074 A 
ATOM     38  C   UNL A   1      40.037  27.779  29.187  1.00  0.00     0.049 A 
ATOM     39  N   UNL A   1      41.260  29.064  31.622  1.00  0.00    -0.248 NA
ATOM     40  C   UNL A   1      39.436  30.515  31.719  1.00  0.00     0.031 C 
ATOM     41  C   UNL A   1      39.507  27.149  27.976  1.00  0.00     0.029 A 
ATOM     42  N   UNL A   1      41.184  27.074  29.451  1.00  0.00    -0.354 N 
ATOM     43  C   UNL A   1      41.425  29.939  32.690  1.00  0.00     0.074 A 
ATOM     44  C   UNL A   1      40.297  30.846  32.670  1.00  0.00     0.031 C 
ATOM     45  C   UNL A   1      40.310  26.132  27.622  1.00  0.00     0.029 A 
ATOM     46  C   UNL A   1      41.433  26.065  28.550  1.00  0.00     0.049 A 
ATOM     47  H   UNL A   1      41.774  27.271  30.214  1.00  0.00     0.167 HD
ATOM     48  C   UNL A   1      42.418  29.971  33.612  1.00  0.00     0.034 A 
ATOM     49  C   UNL A   1      42.455  25.188  28.473  1.00  0.00     0.034 A 
ATOM     50  C   UNL A   1      43.516  29.039  33.643  1.00  0.00     0.049 A 
ATOM     51  C   UNL A   1      43.545  25.244  29.508  1.00  0.00     0.074 A 
ATOM     52  C   UNL A   1      44.538  28.947  34.573  1.00  0.00     0.029 A 
ATOM     53  N   UNL A   1      43.738  28.040  32.706  1.00  0.00    -0.354 N 
ATOM     54  N   UNL A   1      43.676  26.070  30.519  1.00  0.00    -0.248 NA
ATOM     55  C   UNL A   1      44.624  24.254  29.395  1.00  0.00     0.031 C 
ATOM     56  C   UNL A   1      45.405  27.928  34.169  1.00  0.00     0.029 A 
ATOM     57  C   UNL A   1      44.892  27.343  33.023  1.00  0.00     0.049 A 
ATOM     58  H   UNL A   1      43.159  27.853  31.932  1.00  0.00     0.167 HD
ATOM     59  C   UNL A   1      44.843  25.689  31.172  1.00  0.00     0.074 A 
ATOM     60  C   UNL A   1      45.377  24.554  30.446  1.00  0.00     0.031 C 
ATOM     61  C   UNL A   1      45.417  26.225  32.278  1.00  0.00     0.034 A 
BRANCH  48  62
ATOM     62  C   UNL A   1      42.372  31.054  34.657  1.00  0.00     0.023 A 
ATOM     63  C   UNL A   1      42.879  32.341  34.409  1.00  0.00     0.031 A 
ATOM     64  C   UNL A   1      41.783  30.805  35.909  1.00  0.00     0.131 A 
ATOM     65  C   UNL A   1      42.824  33.319  35.414  1.00  0.00     0.055 A 
ATOM     66  C   UNL A   1      41.676  31.799  36.884  1.00  0.00     0.041 A 
ATOM     67  F   UNL A   1      41.297  29.588  36.204  1.00  0.00    -0.206 F 
ATOM     68  C   UNL A   1      42.205  33.063  36.641  1.00  0.00     0.022 A 
BRANCH  65  69
ATOM     69  S   UNL A   1      43.634  34.914  35.124  1.00  0.00     0.124 S 
ATOM     70  O   UNL A   1      45.020  34.608  35.472  1.00  0.00    -0.237 OA
ATOM     71  O   UNL A   1      43.370  35.153  33.710  1.00  0.00    -0.237 OA
ATOM     72  O   UNL A   1      42.950  35.819  36.046  1.00  0.00    -0.744 OA
ENDBRANCH  65  69
ENDBRANCH  48  62
BRANCH  49  73
ATOM     73  C   UNL A   1      42.496  24.194  27.366  1.00  0.00     0.023 A 
ATOM     74  C   UNL A   1      41.733  23.018  27.420  1.00  0.00     0.031 A 
ATOM     75  C   UNL A   1      43.295  24.416  26.230  1.00  0.00     0.131 A 
ATOM     76  C   UNL A   1      41.797  22.096  26.362  1.00  0.00     0.055 A 
ATOM     77  C   UNL A   1      43.326  23.515  25.165  1.00  0.00     0.041 A 
ATOM     78  F   UNL A   1      44.033  25.532  26.128  1.00  0.00    -0.206 F 
ATOM     79  C   UNL A   1      42.577  22.344  25.230  1.00  0.00     0.022 A 
BRANCH  76  80
ATOM     80  S   UNL A   1      40.855  20.551  26.492  1.00  0.00     0.124 S 
ATOM     81  O   UNL A   1      40.951  20.265  27.919  1.00  0.00    -0.237 OA
ATOM     82  O   UNL A   1      39.540  20.953  26.004  1.00  0.00    -0.237 OA
ATOM     83  O   UNL A   1      41.585  19.635  25.620  1.00  0.00    -0.744 OA
ENDBRANCH  76  80
ENDBRANCH  49  73
BRANCH  61  84
ATOM     84  C   UNL A   1      46.677  25.579  32.788  1.00  0.00     0.023 A 
ATOM     85  C   UNL A   1      47.939  25.947  32.296  1.00  0.00     0.031 A 
ATOM     86  C   UNL A   1      46.612  24.625  33.818  1.00  0.00     0.131 A 
ATOM     87  C   UNL A   1      49.092  25.344  32.821  1.00  0.00     0.055 A 
ATOM     88  C   UNL A   1      47.764  24.061  34.366  1.00  0.00     0.041 A 
ATOM     89  F   UNL A   1      45.428  24.245  34.323  1.00  0.00    -0.206 F 
ATOM     90  C   UNL A   1      49.013  24.418  33.865  1.00  0.00     0.022 A 
BRANCH  87  91
ATOM     91  S   UNL A   1      50.704  25.771  32.108  1.00  0.00     0.124 S 
ATOM     92  O   UNL A   1      50.484  27.145  31.669  1.00  0.00    -0.237 OA
ATOM     93  O   UNL A   1      51.607  25.601  33.241  1.00  0.00    -0.237 OA
ATOM     94  O   UNL A   1      50.872  24.795  31.033  1.00  0.00    -0.744 OA
ENDBRANCH  87  91
ENDBRANCH  61  84
ENDBRANCH  35  36
ENDBRANCH  27  30
ENDBRANCH  25  26
ENDBRANCH   1  25
TORSDOF 16
ENDMDL
