MODEL 1
REMARK VINA RESULT:     -13.8      0.000      0.000
REMARK SMILES C[NH+]1CCC(C(=O)N2C[C@@H](C(=O)NCCCNC(=O)c3ccc(-c4c5nc(c(-c6cc(S(=O)(=O)[O-])ccc6F)c6ccc([nH]6)c(-c6cc(S(=O)(=O)[O-])ccc6F)c6nc(c(-c7cc(S(=O)(=O)[O-])ccc7F)c7ccc4[nH]7)C=C6)C=C5)cc3)[C@H](c3ccc4c(c3)OCO4)C2)CC1
REMARK SMILES IDX 15 1 14 2 13 3 11 4 12 5 10 7 8 8 9 9 93 10 83 11 6 12 7 13
REMARK SMILES IDX 5 14 1 15 2 16 3 17 95 18 4 20 94 21 84 22 85 23 89 24 86 25
REMARK SMILES IDX 88 26 87 27 90 28 92 29 91 30 16 31 17 32 18 33 19 35 20 36
REMARK SMILES IDX 21 37 82 38 22 39 81 40 23 41 24 42 25 43 75 44 26 45 80 46
REMARK SMILES IDX 74 47 76 48 27 49 79 50 73 51 72 52 28 54 60 55 40 56 59 57
REMARK SMILES IDX 41 58 44 59 58 60 77 61 42 62 43 63 57 65 78 66 45 67 29 68
REMARK SMILES IDX 30 69 38 70 31 71 37 72 39 73 36 74 32 75 33 76 34 77 35 78
REMARK SMILES IDX 61 79 62 80 70 81 63 82 69 83 71 84 68 85 64 86 65 87 66 88
REMARK SMILES IDX 67 89 46 90 47 91 55 92 48 93 54 94 56 95 53 96 49 97 50 98
REMARK SMILES IDX 51 99 52 100
REMARK H PARENT 13 6 2 19 17 34 76 53 44 64
REMARK Flexibility Score: inf
ROOT
ATOM      1  C   UNL A   1      37.631  19.705  25.112  1.00  0.00     0.042 C 
ENDROOT
BRANCH   1   2
ATOM      2  C   UNL A   1      36.489  20.678  24.895  1.00  0.00     0.117 C 
BRANCH   2   3
ATOM      3  N   UNL A   1      35.881  21.159  26.125  1.00  0.00    -0.356 N 
ATOM      4  C   UNL A   1      34.654  21.723  26.312  1.00  0.00     0.225 C 
ATOM      5  O   UNL A   1      34.248  21.875  27.465  1.00  0.00    -0.275 OA
ATOM      6  H   UNL A   1      36.433  21.064  26.935  1.00  0.00     0.163 HD
BRANCH   4   7
ATOM      7  C   UNL A   1      33.843  22.152  25.114  1.00  0.00     0.107 C 
ATOM      8  N   UNL A   1      32.554  23.814  24.180  1.00  0.00    -0.341 N 
ATOM      9  C   UNL A   1      33.591  23.644  25.169  1.00  0.00     0.133 C 
ATOM     10  C   UNL A   1      31.636  22.677  24.259  1.00  0.00     0.128 C 
ATOM     11  C   UNL A   1      32.400  21.591  25.064  1.00  0.00     0.053 C 
BRANCH   8  12
ATOM     12  C   UNL A   1      32.347  24.824  23.276  1.00  0.00     0.226 C 
ATOM     13  O   UNL A   1      33.000  24.845  22.225  1.00  0.00    -0.275 OA
BRANCH  12  14
ATOM     14  C   UNL A   1      31.553  26.082  23.661  1.00  0.00     0.090 C 
ATOM     15  C   UNL A   1      30.021  30.102  23.726  1.00  0.00     0.332 C 
ATOM     16  N   UNL A   1      30.839  28.902  23.554  1.00  0.00    -0.337 N 
ATOM     17  C   UNL A   1      30.191  27.958  22.639  1.00  0.00     0.262 C 
ATOM     18  C   UNL A   1      31.132  28.269  24.847  1.00  0.00     0.262 C 
ATOM     19  H   UNL A   1      31.728  29.185  23.140  1.00  0.00     0.347 HD
ATOM     20  C   UNL A   1      31.110  26.770  22.361  1.00  0.00     0.075 C 
ATOM     21  C   UNL A   1      32.118  27.114  24.637  1.00  0.00     0.075 C 
ENDBRANCH  12  14
ENDBRANCH   8  12
BRANCH  11  22
ATOM     22  C   UNL A   1      32.403  20.163  24.544  1.00  0.00    -0.038 A 
ATOM     23  C   UNL A   1      32.225  19.844  23.178  1.00  0.00     0.008 A 
ATOM     24  C   UNL A   1      32.798  19.141  25.434  1.00  0.00     0.054 A 
ATOM     25  C   UNL A   1      32.495  18.557  22.691  1.00  0.00     0.051 A 
ATOM     26  C   UNL A   1      33.115  17.902  24.915  1.00  0.00     0.166 A 
ATOM     27  C   UNL A   1      32.980  17.622  23.578  1.00  0.00     0.165 A 
ATOM     28  O   UNL A   1      33.719  16.889  25.597  1.00  0.00    -0.454 OA
ATOM     29  O   UNL A   1      33.459  16.388  23.260  1.00  0.00    -0.454 OA
ATOM     30  C   UNL A   1      34.112  16.034  24.499  1.00  0.00     0.468 C 
ENDBRANCH  11  22
ENDBRANCH   4   7
ENDBRANCH   2   3
ENDBRANCH   1   2
BRANCH   1  31
ATOM     31  C   UNL A   1      38.978  20.386  25.314  1.00  0.00     0.118 C 
BRANCH  31  32
ATOM     32  N   UNL A   1      39.876  19.640  26.195  1.00  0.00    -0.352 N 
ATOM     33  C   UNL A   1      40.842  20.092  27.063  1.00  0.00     0.251 C 
ATOM     34  H   UNL A   1      39.772  18.662  26.161  1.00  0.00     0.163 HD
ATOM     35  O   UNL A   1      41.630  19.295  27.567  1.00  0.00    -0.269 OA
BRANCH  33  36
ATOM     36  C   UNL A   1      40.952  21.538  27.348  1.00  0.00     0.039 A 
ATOM     37  C   UNL A   1      41.780  21.978  28.384  1.00  0.00     0.014 A 
ATOM     38  C   UNL A   1      40.269  22.463  26.557  1.00  0.00     0.014 A 
ATOM     39  C   UNL A   1      42.013  23.347  28.549  1.00  0.00     0.010 A 
ATOM     40  C   UNL A   1      40.580  23.811  26.656  1.00  0.00     0.010 A 
ATOM     41  C   UNL A   1      41.463  24.270  27.646  1.00  0.00    -0.014 A 
BRANCH  41  42
ATOM     42  C   UNL A   1      41.766  25.726  27.692  1.00  0.00     0.031 A 
ATOM     43  C   UNL A   1      43.074  26.216  27.133  1.00  0.00     0.074 A 
ATOM     44  C   UNL A   1      40.954  26.570  28.357  1.00  0.00     0.049 A 
ATOM     45  N   UNL A   1      43.680  27.360  27.310  1.00  0.00    -0.248 NA
ATOM     46  C   UNL A   1      43.824  25.258  26.304  1.00  0.00     0.031 C 
ATOM     47  C   UNL A   1      39.669  26.216  28.963  1.00  0.00     0.029 A 
ATOM     48  N   UNL A   1      41.105  27.901  28.664  1.00  0.00    -0.354 N 
ATOM     49  C   UNL A   1      44.903  27.244  26.658  1.00  0.00     0.074 A 
ATOM     50  C   UNL A   1      44.968  25.899  26.125  1.00  0.00     0.031 C 
ATOM     51  C   UNL A   1      39.149  27.299  29.563  1.00  0.00     0.029 A 
ATOM     52  C   UNL A   1      40.089  28.409  29.442  1.00  0.00     0.049 A 
ATOM     53  H   UNL A   1      41.869  28.441  28.356  1.00  0.00     0.167 HD
ATOM     54  C   UNL A   1      45.875  28.177  26.508  1.00  0.00     0.034 A 
ATOM     55  C   UNL A   1      39.948  29.618  30.021  1.00  0.00     0.034 A 
ATOM     56  C   UNL A   1      45.769  29.524  27.013  1.00  0.00     0.049 A 
ATOM     57  C   UNL A   1      41.039  30.644  29.842  1.00  0.00     0.074 A 
ATOM     58  C   UNL A   1      46.663  30.571  26.872  1.00  0.00     0.029 A 
ATOM     59  N   UNL A   1      44.699  30.011  27.752  1.00  0.00    -0.354 N 
ATOM     60  N   UNL A   1      42.187  30.524  29.216  1.00  0.00    -0.248 NA
ATOM     61  C   UNL A   1      40.817  31.966  30.445  1.00  0.00     0.031 C 
ATOM     62  C   UNL A   1      46.159  31.674  27.569  1.00  0.00     0.029 A 
ATOM     63  C   UNL A   1      44.919  31.337  28.087  1.00  0.00     0.049 A 
ATOM     64  H   UNL A   1      43.902  29.491  28.002  1.00  0.00     0.167 HD
ATOM     65  C   UNL A   1      42.803  31.768  29.315  1.00  0.00     0.074 A 
ATOM     66  C   UNL A   1      41.904  32.621  30.063  1.00  0.00     0.031 C 
ATOM     67  C   UNL A   1      44.000  32.174  28.822  1.00  0.00     0.034 A 
BRANCH  54  68
ATOM     68  C   UNL A   1      47.136  27.759  25.794  1.00  0.00     0.023 A 
ATOM     69  C   UNL A   1      47.327  28.008  24.424  1.00  0.00     0.031 A 
ATOM     70  C   UNL A   1      48.146  27.061  26.481  1.00  0.00     0.131 A 
ATOM     71  C   UNL A   1      48.451  27.486  23.766  1.00  0.00     0.055 A 
ATOM     72  C   UNL A   1      49.307  26.624  25.840  1.00  0.00     0.041 A 
ATOM     73  F   UNL A   1      48.013  26.775  27.786  1.00  0.00    -0.206 F 
ATOM     74  C   UNL A   1      49.457  26.819  24.470  1.00  0.00     0.022 A 
BRANCH  71  75
ATOM     75  S   UNL A   1      48.499  27.554  21.955  1.00  0.00     0.124 S 
ATOM     76  O   UNL A   1      49.622  28.461  21.726  1.00  0.00    -0.237 OA
ATOM     77  O   UNL A   1      48.720  26.160  21.592  1.00  0.00    -0.237 OA
ATOM     78  O   UNL A   1      47.189  28.094  21.597  1.00  0.00    -0.744 OA
ENDBRANCH  71  75
ENDBRANCH  54  68
BRANCH  55  79
ATOM     79  C   UNL A   1      38.743  29.926  30.844  1.00  0.00     0.023 A 
ATOM     80  C   UNL A   1      37.719  30.742  30.341  1.00  0.00     0.031 A 
ATOM     81  C   UNL A   1      38.612  29.437  32.156  1.00  0.00     0.131 A 
ATOM     82  C   UNL A   1      36.630  31.083  31.157  1.00  0.00     0.055 A 
ATOM     83  C   UNL A   1      37.502  29.737  32.947  1.00  0.00     0.041 A 
ATOM     84  F   UNL A   1      39.559  28.646  32.684  1.00  0.00    -0.206 F 
ATOM     85  C   UNL A   1      36.507  30.576  32.453  1.00  0.00     0.022 A 
BRANCH  82  86
ATOM     86  S   UNL A   1      35.409  32.267  30.525  1.00  0.00     0.124 S 
ATOM     87  O   UNL A   1      34.939  31.591  29.320  1.00  0.00    -0.237 OA
ATOM     88  O   UNL A   1      34.460  32.341  31.631  1.00  0.00    -0.237 OA
ATOM     89  O   UNL A   1      36.194  33.477  30.298  1.00  0.00    -0.744 OA
ENDBRANCH  82  86
ENDBRANCH  55  79
BRANCH  67  90
ATOM     90  C   UNL A   1      44.369  33.622  29.005  1.00  0.00     0.023 A 
ATOM     91  C   UNL A   1      43.804  34.641  28.221  1.00  0.00     0.031 A 
ATOM     92  C   UNL A   1      45.282  33.984  30.013  1.00  0.00     0.131 A 
ATOM     93  C   UNL A   1      44.182  35.976  28.437  1.00  0.00     0.055 A 
ATOM     94  C   UNL A   1      45.618  35.317  30.253  1.00  0.00     0.041 A 
ATOM     95  F   UNL A   1      45.849  33.047  30.790  1.00  0.00    -0.206 F 
ATOM     96  C   UNL A   1      45.072  36.320  29.459  1.00  0.00     0.022 A 
BRANCH  93  97
ATOM     97  S   UNL A   1      43.527  37.259  27.337  1.00  0.00     0.124 S 
ATOM     98  O   UNL A   1      42.852  36.466  26.314  1.00  0.00    -0.237 OA
ATOM     99  O   UNL A   1      42.658  38.022  28.227  1.00  0.00    -0.237 OA
ATOM    100  O   UNL A   1      44.723  37.968  26.885  1.00  0.00    -0.744 OA
ENDBRANCH  93  97
ENDBRANCH  67  90
ENDBRANCH  41  42
ENDBRANCH  33  36
ENDBRANCH  31  32
ENDBRANCH   1  31
TORSDOF 16
ENDMDL
MODEL 2
REMARK VINA RESULT:     -13.8      5.366      9.460
REMARK SMILES C[NH+]1CCC(C(=O)N2C[C@@H](C(=O)NCCCNC(=O)c3ccc(-c4c5nc(c(-c6cc(S(=O)(=O)[O-])ccc6F)c6ccc([nH]6)c(-c6cc(S(=O)(=O)[O-])ccc6F)c6nc(c(-c7cc(S(=O)(=O)[O-])ccc7F)c7ccc4[nH]7)C=C6)C=C5)cc3)[C@H](c3ccc4c(c3)OCO4)C2)CC1
REMARK SMILES IDX 15 1 14 2 13 3 11 4 12 5 10 7 8 8 9 9 93 10 83 11 6 12 7 13
REMARK SMILES IDX 5 14 1 15 2 16 3 17 95 18 4 20 94 21 84 22 85 23 89 24 86 25
REMARK SMILES IDX 88 26 87 27 90 28 92 29 91 30 16 31 17 32 18 33 19 35 20 36
REMARK SMILES IDX 21 37 82 38 22 39 81 40 23 41 24 42 25 43 75 44 26 45 80 46
REMARK SMILES IDX 74 47 76 48 27 49 79 50 73 51 72 52 28 54 60 55 40 56 59 57
REMARK SMILES IDX 41 58 44 59 58 60 77 61 42 62 43 63 57 65 78 66 45 67 29 68
REMARK SMILES IDX 30 69 38 70 31 71 37 72 39 73 36 74 32 75 33 76 34 77 35 78
REMARK SMILES IDX 61 79 62 80 70 81 63 82 69 83 71 84 68 85 64 86 65 87 66 88
REMARK SMILES IDX 67 89 46 90 47 91 55 92 48 93 54 94 56 95 53 96 49 97 50 98
REMARK SMILES IDX 51 99 52 100
REMARK H PARENT 13 6 2 19 17 34 76 53 44 64
REMARK Flexibility Score: inf
ROOT
ATOM      1  C   UNL A   1      32.141  30.164  27.121  1.00  0.00     0.042 C 
ENDROOT
BRANCH   1   2
ATOM      2  C   UNL A   1      31.759  29.854  25.687  1.00  0.00     0.117 C 
BRANCH   2   3
ATOM      3  N   UNL A   1      32.883  29.843  24.765  1.00  0.00    -0.356 N 
ATOM      4  C   UNL A   1      33.199  28.923  23.810  1.00  0.00     0.225 C 
ATOM      5  O   UNL A   1      34.080  29.202  22.996  1.00  0.00    -0.275 OA
ATOM      6  H   UNL A   1      33.500  30.605  24.841  1.00  0.00     0.163 HD
BRANCH   4   7
ATOM      7  C   UNL A   1      32.477  27.598  23.786  1.00  0.00     0.107 C 
ATOM      8  N   UNL A   1      32.658  25.335  23.410  1.00  0.00    -0.341 N 
ATOM      9  C   UNL A   1      33.481  26.464  23.771  1.00  0.00     0.133 C 
ATOM     10  C   UNL A   1      31.674  25.766  22.417  1.00  0.00     0.128 C 
ATOM     11  C   UNL A   1      31.665  27.316  22.498  1.00  0.00     0.053 C 
BRANCH   8  12
ATOM     12  C   UNL A   1      32.698  24.034  23.843  1.00  0.00     0.226 C 
ATOM     13  O   UNL A   1      31.648  23.463  24.160  1.00  0.00    -0.275 OA
BRANCH  12  14
ATOM     14  C   UNL A   1      34.029  23.368  24.226  1.00  0.00     0.090 C 
ATOM     15  C   UNL A   1      37.984  22.713  25.790  1.00  0.00     0.332 C 
ATOM     16  N   UNL A   1      36.760  23.288  25.234  1.00  0.00    -0.337 N 
ATOM     17  C   UNL A   1      35.640  23.129  26.167  1.00  0.00     0.262 C 
ATOM     18  C   UNL A   1      36.443  22.699  23.925  1.00  0.00     0.262 C 
ATOM     19  H   UNL A   1      36.916  24.286  25.094  1.00  0.00     0.347 HD
ATOM     20  C   UNL A   1      34.400  23.847  25.638  1.00  0.00     0.075 C 
ATOM     21  C   UNL A   1      35.250  23.437  23.309  1.00  0.00     0.075 C 
ENDBRANCH  12  14
ENDBRANCH   8  12
BRANCH  11  22
ATOM     22  C   UNL A   1      30.328  28.038  22.545  1.00  0.00    -0.038 A 
ATOM     23  C   UNL A   1      29.194  27.510  23.206  1.00  0.00     0.008 A 
ATOM     24  C   UNL A   1      30.284  29.370  22.081  1.00  0.00     0.054 A 
ATOM     25  C   UNL A   1      28.067  28.305  23.461  1.00  0.00     0.051 A 
ATOM     26  C   UNL A   1      29.186  30.143  22.401  1.00  0.00     0.166 A 
ATOM     27  C   UNL A   1      28.114  29.628  23.084  1.00  0.00     0.165 A 
ATOM     28  O   UNL A   1      29.089  31.490  22.227  1.00  0.00    -0.454 OA
ATOM     29  O   UNL A   1      27.197  30.583  23.400  1.00  0.00    -0.454 OA
ATOM     30  C   UNL A   1      27.931  31.777  23.043  1.00  0.00     0.468 C 
ENDBRANCH  11  22
ENDBRANCH   4   7
ENDBRANCH   2   3
ENDBRANCH   1   2
BRANCH   1  31
ATOM     31  C   UNL A   1      33.314  31.128  27.241  1.00  0.00     0.118 C 
BRANCH  31  32
ATOM     32  N   UNL A   1      32.903  32.529  27.322  1.00  0.00    -0.352 N 
ATOM     33  C   UNL A   1      33.321  33.527  28.172  1.00  0.00     0.251 C 
ATOM     34  H   UNL A   1      32.221  32.801  26.666  1.00  0.00     0.163 HD
ATOM     35  O   UNL A   1      32.707  34.592  28.212  1.00  0.00    -0.269 OA
BRANCH  33  36
ATOM     36  C   UNL A   1      34.477  33.294  29.062  1.00  0.00     0.039 A 
ATOM     37  C   UNL A   1      34.342  32.444  30.163  1.00  0.00     0.014 A 
ATOM     38  C   UNL A   1      35.710  33.882  28.779  1.00  0.00     0.014 A 
ATOM     39  C   UNL A   1      35.472  32.094  30.910  1.00  0.00     0.010 A 
ATOM     40  C   UNL A   1      36.845  33.454  29.454  1.00  0.00     0.010 A 
ATOM     41  C   UNL A   1      36.742  32.548  30.521  1.00  0.00    -0.014 A 
BRANCH  41  42
ATOM     42  C   UNL A   1      37.996  32.117  31.196  1.00  0.00     0.031 A 
ATOM     43  C   UNL A   1      38.832  31.040  30.562  1.00  0.00     0.074 A 
ATOM     44  C   UNL A   1      38.299  32.576  32.426  1.00  0.00     0.049 A 
ATOM     45  N   UNL A   1      39.783  30.310  31.081  1.00  0.00    -0.248 NA
ATOM     46  C   UNL A   1      38.509  30.706  29.166  1.00  0.00     0.031 C 
ATOM     47  C   UNL A   1      37.557  33.605  33.159  1.00  0.00     0.029 A 
ATOM     48  N   UNL A   1      39.298  32.211  33.296  1.00  0.00    -0.354 N 
ATOM     49  C   UNL A   1      40.140  29.398  30.093  1.00  0.00     0.074 A 
ATOM     50  C   UNL A   1      39.265  29.639  28.964  1.00  0.00     0.031 C 
ATOM     51  C   UNL A   1      38.127  33.790  34.360  1.00  0.00     0.029 A 
ATOM     52  C   UNL A   1      39.234  32.852  34.513  1.00  0.00     0.049 A 
ATOM     53  H   UNL A   1      39.994  31.553  33.069  1.00  0.00     0.167 HD
ATOM     54  C   UNL A   1      41.114  28.456  30.122  1.00  0.00     0.034 A 
ATOM     55  C   UNL A   1      39.962  32.678  35.635  1.00  0.00     0.034 A 
ATOM     56  C   UNL A   1      42.000  28.262  31.243  1.00  0.00     0.049 A 
ATOM     57  C   UNL A   1      41.042  31.625  35.647  1.00  0.00     0.074 A 
ATOM     58  C   UNL A   1      43.060  27.379  31.364  1.00  0.00     0.029 A 
ATOM     59  N   UNL A   1      41.934  28.968  32.437  1.00  0.00    -0.354 N 
ATOM     60  N   UNL A   1      41.374  30.774  34.704  1.00  0.00    -0.248 NA
ATOM     61  C   UNL A   1      41.846  31.510  36.872  1.00  0.00     0.031 C 
ATOM     62  C   UNL A   1      43.599  27.515  32.647  1.00  0.00     0.029 A 
ATOM     63  C   UNL A   1      42.922  28.530  33.304  1.00  0.00     0.049 A 
ATOM     64  H   UNL A   1      41.280  29.676  32.639  1.00  0.00     0.167 HD
ATOM     65  C   UNL A   1      42.453  30.053  35.208  1.00  0.00     0.074 A 
ATOM     66  C   UNL A   1      42.711  30.563  36.538  1.00  0.00     0.031 C 
ATOM     67  C   UNL A   1      43.171  29.064  34.621  1.00  0.00     0.034 A 
BRANCH  54  68
ATOM     68  C   UNL A   1      41.247  27.556  28.918  1.00  0.00     0.023 A 
ATOM     69  C   UNL A   1      42.257  27.746  27.960  1.00  0.00     0.031 A 
ATOM     70  C   UNL A   1      40.324  26.517  28.700  1.00  0.00     0.131 A 
ATOM     71  C   UNL A   1      42.267  26.976  26.788  1.00  0.00     0.055 A 
ATOM     72  C   UNL A   1      40.394  25.692  27.575  1.00  0.00     0.041 A 
ATOM     73  F   UNL A   1      39.323  26.297  29.569  1.00  0.00    -0.206 F 
ATOM     74  C   UNL A   1      41.359  25.931  26.601  1.00  0.00     0.022 A 
BRANCH  71  75
ATOM     75  S   UNL A   1      43.383  27.464  25.445  1.00  0.00     0.124 S 
ATOM     76  O   UNL A   1      44.141  28.545  26.073  1.00  0.00    -0.237 OA
ATOM     77  O   UNL A   1      44.122  26.235  25.185  1.00  0.00    -0.237 OA
ATOM     78  O   UNL A   1      42.475  27.886  24.381  1.00  0.00    -0.744 OA
ENDBRANCH  71  75
ENDBRANCH  54  68
BRANCH  55  79
ATOM     79  C   UNL A   1      39.685  33.498  36.849  1.00  0.00     0.023 A 
ATOM     80  C   UNL A   1      38.966  32.962  37.929  1.00  0.00     0.031 A 
ATOM     81  C   UNL A   1      40.106  34.836  36.937  1.00  0.00     0.131 A 
ATOM     82  C   UNL A   1      38.648  33.771  39.030  1.00  0.00     0.055 A 
ATOM     83  C   UNL A   1      39.832  35.623  38.057  1.00  0.00     0.041 A 
ATOM     84  F   UNL A   1      40.803  35.396  35.936  1.00  0.00    -0.206 F 
ATOM     85  C   UNL A   1      39.088  35.095  39.108  1.00  0.00     0.022 A 
BRANCH  82  86
ATOM     86  S   UNL A   1      37.583  33.090  40.330  1.00  0.00     0.124 S 
ATOM     87  O   UNL A   1      36.349  32.830  39.596  1.00  0.00    -0.237 OA
ATOM     88  O   UNL A   1      38.337  31.915  40.754  1.00  0.00    -0.237 OA
ATOM     89  O   UNL A   1      37.511  34.170  41.312  1.00  0.00    -0.744 OA
ENDBRANCH  82  86
ENDBRANCH  55  79
BRANCH  67  90
ATOM     90  C   UNL A   1      44.357  28.526  35.379  1.00  0.00     0.023 A 
ATOM     91  C   UNL A   1      44.260  27.400  36.211  1.00  0.00     0.031 A 
ATOM     92  C   UNL A   1      45.613  29.142  35.232  1.00  0.00     0.131 A 
ATOM     93  C   UNL A   1      45.399  26.939  36.893  1.00  0.00     0.055 A 
ATOM     94  C   UNL A   1      46.750  28.652  35.875  1.00  0.00     0.041 A 
ATOM     95  F   UNL A   1      45.756  30.222  34.447  1.00  0.00    -0.206 F 
ATOM     96  C   UNL A   1      46.644  27.549  36.716  1.00  0.00     0.022 A 
BRANCH  93  97
ATOM     97  S   UNL A   1      45.224  25.554  38.049  1.00  0.00     0.124 S 
ATOM     98  O   UNL A   1      44.745  26.223  39.254  1.00  0.00    -0.237 OA
ATOM     99  O   UNL A   1      44.259  24.696  37.369  1.00  0.00    -0.237 OA
ATOM    100  O   UNL A   1      46.578  25.008  38.138  1.00  0.00    -0.744 OA
ENDBRANCH  93  97
ENDBRANCH  67  90
ENDBRANCH  41  42
ENDBRANCH  33  36
ENDBRANCH  31  32
ENDBRANCH   1  31
TORSDOF 16
ENDMDL
MODEL 3
REMARK VINA RESULT:     -13.7      1.900      7.624
REMARK SMILES C[NH+]1CCC(C(=O)N2C[C@@H](C(=O)NCCCNC(=O)c3ccc(-c4c5nc(c(-c6cc(S(=O)(=O)[O-])ccc6F)c6ccc([nH]6)c(-c6cc(S(=O)(=O)[O-])ccc6F)c6nc(c(-c7cc(S(=O)(=O)[O-])ccc7F)c7ccc4[nH]7)C=C6)C=C5)cc3)[C@H](c3ccc4c(c3)OCO4)C2)CC1
REMARK SMILES IDX 15 1 14 2 13 3 11 4 12 5 10 7 8 8 9 9 93 10 83 11 6 12 7 13
REMARK SMILES IDX 5 14 1 15 2 16 3 17 95 18 4 20 94 21 84 22 85 23 89 24 86 25
REMARK SMILES IDX 88 26 87 27 90 28 92 29 91 30 16 31 17 32 18 33 19 35 20 36
REMARK SMILES IDX 21 37 82 38 22 39 81 40 23 41 24 42 25 43 75 44 26 45 80 46
REMARK SMILES IDX 74 47 76 48 27 49 79 50 73 51 72 52 28 54 60 55 40 56 59 57
REMARK SMILES IDX 41 58 44 59 58 60 77 61 42 62 43 63 57 65 78 66 45 67 29 68
REMARK SMILES IDX 30 69 38 70 31 71 37 72 39 73 36 74 32 75 33 76 34 77 35 78
REMARK SMILES IDX 61 79 62 80 70 81 63 82 69 83 71 84 68 85 64 86 65 87 66 88
REMARK SMILES IDX 67 89 46 90 47 91 55 92 48 93 54 94 56 95 53 96 49 97 50 98
REMARK SMILES IDX 51 99 52 100
REMARK H PARENT 13 6 2 19 17 34 76 53 44 64
REMARK Flexibility Score: inf
ROOT
ATOM      1  C   UNL A   1      37.840  21.270  24.717  1.00  0.00     0.042 C 
ENDROOT
BRANCH   1   2
ATOM      2  C   UNL A   1      36.574  20.501  25.038  1.00  0.00     0.117 C 
BRANCH   2   3
ATOM      3  N   UNL A   1      35.795  21.071  26.126  1.00  0.00    -0.356 N 
ATOM      4  C   UNL A   1      34.529  21.575  26.102  1.00  0.00     0.225 C 
ATOM      5  O   UNL A   1      33.976  21.822  27.174  1.00  0.00    -0.275 OA
ATOM      6  H   UNL A   1      36.246  21.097  27.000  1.00  0.00     0.163 HD
BRANCH   4   7
ATOM      7  C   UNL A   1      33.852  21.822  24.776  1.00  0.00     0.107 C 
ATOM      8  N   UNL A   1      32.664  23.317  23.491  1.00  0.00    -0.341 N 
ATOM      9  C   UNL A   1      33.587  23.302  24.601  1.00  0.00     0.133 C 
ATOM     10  C   UNL A   1      31.750  22.183  23.623  1.00  0.00     0.128 C 
ATOM     11  C   UNL A   1      32.427  21.230  24.646  1.00  0.00     0.053 C 
BRANCH   8  12
ATOM     12  C   UNL A   1      32.554  24.193  22.442  1.00  0.00     0.226 C 
ATOM     13  O   UNL A   1      33.289  24.059  21.455  1.00  0.00    -0.275 OA
BRANCH  12  14
ATOM     14  C   UNL A   1      31.759  25.501  22.582  1.00  0.00     0.090 C 
ATOM     15  C   UNL A   1      30.468  29.393  23.884  1.00  0.00     0.332 C 
ATOM     16  N   UNL A   1      31.046  28.054  23.786  1.00  0.00    -0.337 N 
ATOM     17  C   UNL A   1      32.081  28.008  22.748  1.00  0.00     0.262 C 
ATOM     18  C   UNL A   1      30.008  27.043  23.542  1.00  0.00     0.262 C 
ATOM     19  H   UNL A   1      31.486  27.835  24.681  1.00  0.00     0.347 HD
ATOM     20  C   UNL A   1      32.770  26.646  22.743  1.00  0.00     0.075 C 
ATOM     21  C   UNL A   1      30.633  25.645  23.605  1.00  0.00     0.075 C 
ENDBRANCH  12  14
ENDBRANCH   8  12
BRANCH  11  22
ATOM     22  C   UNL A   1      32.495  19.745  24.328  1.00  0.00    -0.038 A 
ATOM     23  C   UNL A   1      32.527  19.245  23.005  1.00  0.00     0.008 A 
ATOM     24  C   UNL A   1      32.737  18.856  25.395  1.00  0.00     0.054 A 
ATOM     25  C   UNL A   1      32.856  17.908  22.741  1.00  0.00     0.051 A 
ATOM     26  C   UNL A   1      33.117  17.562  25.101  1.00  0.00     0.166 A 
ATOM     27  C   UNL A   1      33.188  17.105  23.809  1.00  0.00     0.165 A 
ATOM     28  O   UNL A   1      33.598  16.655  25.997  1.00  0.00    -0.454 OA
ATOM     29  O   UNL A   1      33.697  15.845  23.736  1.00  0.00    -0.454 OA
ATOM     30  C   UNL A   1      34.147  15.665  25.097  1.00  0.00     0.468 C 
ENDBRANCH  11  22
ENDBRANCH   4   7
ENDBRANCH   2   3
ENDBRANCH   1   2
BRANCH   1  31
ATOM     31  C   UNL A   1      38.840  21.297  25.865  1.00  0.00     0.118 C 
BRANCH  31  32
ATOM     32  N   UNL A   1      39.652  20.084  25.953  1.00  0.00    -0.352 N 
ATOM     33  C   UNL A   1      41.011  19.937  26.103  1.00  0.00     0.251 C 
ATOM     34  H   UNL A   1      39.146  19.241  25.897  1.00  0.00     0.163 HD
ATOM     35  O   UNL A   1      41.525  18.831  25.954  1.00  0.00    -0.269 OA
BRANCH  33  36
ATOM     36  C   UNL A   1      41.847  21.120  26.398  1.00  0.00     0.039 A 
ATOM     37  C   UNL A   1      42.168  22.013  25.372  1.00  0.00     0.014 A 
ATOM     38  C   UNL A   1      42.275  21.368  27.702  1.00  0.00     0.014 A 
ATOM     39  C   UNL A   1      42.818  23.213  25.678  1.00  0.00     0.010 A 
ATOM     40  C   UNL A   1      42.826  22.602  28.019  1.00  0.00     0.010 A 
ATOM     41  C   UNL A   1      43.096  23.544  27.013  1.00  0.00    -0.014 A 
BRANCH  41  42
ATOM     42  C   UNL A   1      43.675  24.853  27.419  1.00  0.00     0.031 A 
ATOM     43  C   UNL A   1      42.763  25.910  27.980  1.00  0.00     0.074 A 
ATOM     44  C   UNL A   1      44.963  25.141  27.149  1.00  0.00     0.049 A 
ATOM     45  N   UNL A   1      42.968  27.192  28.130  1.00  0.00    -0.248 NA
ATOM     46  C   UNL A   1      41.417  25.464  28.372  1.00  0.00     0.031 C 
ATOM     47  C   UNL A   1      45.944  24.210  26.587  1.00  0.00     0.029 A 
ATOM     48  N   UNL A   1      45.664  26.315  27.283  1.00  0.00    -0.354 N 
ATOM     49  C   UNL A   1      41.763  27.715  28.588  1.00  0.00     0.074 A 
ATOM     50  C   UNL A   1      40.822  26.615  28.640  1.00  0.00     0.031 C 
ATOM     51  C   UNL A   1      47.116  24.846  26.429  1.00  0.00     0.029 A 
ATOM     52  C   UNL A   1      46.957  26.244  26.816  1.00  0.00     0.049 A 
ATOM     53  H   UNL A   1      45.277  27.131  27.676  1.00  0.00     0.167 HD
ATOM     54  C   UNL A   1      41.473  28.991  28.941  1.00  0.00     0.034 A 
ATOM     55  C   UNL A   1      47.895  27.203  26.682  1.00  0.00     0.034 A 
ATOM     56  C   UNL A   1      42.439  30.061  28.918  1.00  0.00     0.049 A 
ATOM     57  C   UNL A   1      47.554  28.617  27.082  1.00  0.00     0.074 A 
ATOM     58  C   UNL A   1      42.276  31.380  29.309  1.00  0.00     0.029 A 
ATOM     59  N   UNL A   1      43.753  29.935  28.487  1.00  0.00    -0.354 N 
ATOM     60  N   UNL A   1      46.414  29.097  27.521  1.00  0.00    -0.248 NA
ATOM     61  C   UNL A   1      48.625  29.617  26.971  1.00  0.00     0.031 C 
ATOM     62  C   UNL A   1      43.473  32.060  29.063  1.00  0.00     0.029 A 
ATOM     63  C   UNL A   1      44.405  31.152  28.586  1.00  0.00     0.049 A 
ATOM     64  H   UNL A   1      44.161  29.101  28.158  1.00  0.00     0.167 HD
ATOM     65  C   UNL A   1      46.644  30.445  27.777  1.00  0.00     0.074 A 
ATOM     66  C   UNL A   1      48.028  30.704  27.440  1.00  0.00     0.031 C 
ATOM     67  C   UNL A   1      45.791  31.384  28.258  1.00  0.00     0.034 A 
BRANCH  54  68
ATOM     68  C   UNL A   1      40.053  29.293  29.354  1.00  0.00     0.023 A 
ATOM     69  C   UNL A   1      39.676  29.366  30.705  1.00  0.00     0.031 A 
ATOM     70  C   UNL A   1      39.050  29.467  28.382  1.00  0.00     0.131 A 
ATOM     71  C   UNL A   1      38.324  29.515  31.049  1.00  0.00     0.055 A 
ATOM     72  C   UNL A   1      37.720  29.707  28.731  1.00  0.00     0.041 A 
ATOM     73  F   UNL A   1      39.344  29.389  27.074  1.00  0.00    -0.206 F 
ATOM     74  C   UNL A   1      37.346  29.713  30.072  1.00  0.00     0.022 A 
BRANCH  71  75
ATOM     75  S   UNL A   1      37.846  29.285  32.783  1.00  0.00     0.124 S 
ATOM     76  O   UNL A   1      37.777  27.828  32.876  1.00  0.00    -0.237 OA
ATOM     77  O   UNL A   1      38.944  29.920  33.501  1.00  0.00    -0.237 OA
ATOM     78  O   UNL A   1      36.558  29.970  32.878  1.00  0.00    -0.744 OA
ENDBRANCH  71  75
ENDBRANCH  54  68
BRANCH  55  79
ATOM     79  C   UNL A   1      49.239  26.873  26.126  1.00  0.00     0.023 A 
ATOM     80  C   UNL A   1      49.626  27.341  24.860  1.00  0.00     0.031 A 
ATOM     81  C   UNL A   1      50.142  26.062  26.833  1.00  0.00     0.131 A 
ATOM     82  C   UNL A   1      50.863  26.957  24.320  1.00  0.00     0.055 A 
ATOM     83  C   UNL A   1      51.393  25.724  26.314  1.00  0.00     0.041 A 
ATOM     84  F   UNL A   1      49.825  25.594  28.051  1.00  0.00    -0.206 F 
ATOM     85  C   UNL A   1      51.755  26.162  25.044  1.00  0.00     0.022 A 
BRANCH  82  86
ATOM     86  S   UNL A   1      51.259  27.450  22.620  1.00  0.00     0.124 S 
ATOM     87  O   UNL A   1      50.307  26.653  21.852  1.00  0.00    -0.237 OA
ATOM     88  O   UNL A   1      51.011  28.887  22.657  1.00  0.00    -0.237 OA
ATOM     89  O   UNL A   1      52.660  27.064  22.471  1.00  0.00    -0.744 OA
ENDBRANCH  82  86
ENDBRANCH  55  79
BRANCH  67  90
ATOM     90  C   UNL A   1      46.352  32.756  28.526  1.00  0.00     0.023 A 
ATOM     91  C   UNL A   1      46.290  33.786  27.573  1.00  0.00     0.031 A 
ATOM     92  C   UNL A   1      46.929  33.038  29.778  1.00  0.00     0.131 A 
ATOM     93  C   UNL A   1      46.826  35.047  27.877  1.00  0.00     0.055 A 
ATOM     94  C   UNL A   1      47.419  34.307  30.090  1.00  0.00     0.041 A 
ATOM     95  F   UNL A   1      47.012  32.087  30.721  1.00  0.00    -0.206 F 
ATOM     96  C   UNL A   1      47.374  35.318  29.135  1.00  0.00     0.022 A 
BRANCH  93  97
ATOM     97  S   UNL A   1      46.836  36.326  26.592  1.00  0.00     0.124 S 
ATOM     98  O   UNL A   1      46.706  35.533  25.374  1.00  0.00    -0.237 OA
ATOM     99  O   UNL A   1      45.678  37.140  26.949  1.00  0.00    -0.237 OA
ATOM    100  O   UNL A   1      48.130  36.982  26.770  1.00  0.00    -0.744 OA
ENDBRANCH  93  97
ENDBRANCH  67  90
ENDBRANCH  41  42
ENDBRANCH  33  36
ENDBRANCH  31  32
ENDBRANCH   1  31
TORSDOF 16
ENDMDL
