MODEL 1
REMARK VINA RESULT:      -9.8      0.000      0.000
REMARK SMILES C[C@H](CC(=O)NCCCNC(=O)c1ccc(-c2c3nc(c(-c4cc(S(=O)(=O)[O-])ccc4F)c4ccc([nH]4)c(-c4cc(S(=O)(=O)[O-])ccc4F)c4nc(c(-c5cc(S(=O)(=O)[O-])ccc5F)c5ccc2[nH]5)C=C4)C=C3)cc1)c1ccc(O)cc1
REMARK SMILES IDX 8 1 7 2 6 3 4 4 5 5 3 7 2 8 1 9 76 10 77 11 82 12 78 13
REMARK SMILES IDX 81 14 79 15 80 16 9 18 10 19 11 20 12 22 13 23 14 24 75 25
REMARK SMILES IDX 15 26 74 27 16 28 17 29 18 30 68 31 19 32 73 33 67 34 69 35
REMARK SMILES IDX 20 36 72 37 66 38 65 39 21 41 53 42 33 43 52 44 34 45 37 46
REMARK SMILES IDX 51 47 70 48 35 49 36 50 50 52 71 53 38 54 22 55 23 56 31 57
REMARK SMILES IDX 24 58 30 59 32 60 29 61 25 62 26 63 27 64 28 65 54 66 55 67
REMARK SMILES IDX 63 68 56 69 62 70 64 71 61 72 57 73 58 74 59 75 60 76 39 77
REMARK SMILES IDX 40 78 48 79 41 80 47 81 49 82 46 83 42 84 43 85 44 86 45 87
REMARK H PARENT 6 6 80 17 10 21 69 40 37 51
REMARK Flexibility Score: inf
ROOT
ATOM      1  C   UNL A   1      42.156  19.080  26.068  1.00  0.00     0.042 C 
ENDROOT
BRANCH   1   2
ATOM      2  C   UNL A   1      43.603  19.547  25.904  1.00  0.00     0.117 C 
BRANCH   2   3
ATOM      3  N   UNL A   1      43.687  20.566  24.871  1.00  0.00    -0.356 N 
ATOM      4  C   UNL A   1      43.728  21.921  24.971  1.00  0.00     0.220 C 
ATOM      5  O   UNL A   1      43.652  22.578  23.929  1.00  0.00    -0.275 OA
ATOM      6  H   UNL A   1      43.719  20.220  23.950  1.00  0.00     0.163 HD
BRANCH   4   7
ATOM      7  C   UNL A   1      43.920  22.614  26.307  1.00  0.00     0.108 C 
BRANCH   7   8
ATOM      8  C   UNL A   1      45.371  22.842  26.800  1.00  0.00     0.025 C 
ATOM      9  C   UNL A   1      46.295  23.424  25.727  1.00  0.00     0.013 C 
BRANCH   8  10
ATOM     10  C   UNL A   1      45.373  23.562  28.143  1.00  0.00    -0.044 A 
ATOM     11  C   UNL A   1      44.339  23.281  29.056  1.00  0.00     0.008 A 
ATOM     12  C   UNL A   1      46.290  24.565  28.477  1.00  0.00     0.008 A 
ATOM     13  C   UNL A   1      44.147  24.070  30.190  1.00  0.00     0.046 A 
ATOM     14  C   UNL A   1      46.086  25.372  29.602  1.00  0.00     0.046 A 
ATOM     15  C   UNL A   1      44.989  25.147  30.422  1.00  0.00     0.115 A 
BRANCH  15  16
ATOM     16  O   UNL A   1      44.682  25.985  31.451  1.00  0.00    -0.508 OA
ATOM     17  H   UNL A   1      43.791  26.092  31.718  1.00  0.00     0.293 HD
ENDBRANCH  15  16
ENDBRANCH   8  10
ENDBRANCH   7   8
ENDBRANCH   4   7
ENDBRANCH   2   3
ENDBRANCH   1   2
BRANCH   1  18
ATOM     18  C   UNL A   1      41.300  19.982  26.945  1.00  0.00     0.118 C 
BRANCH  18  19
ATOM     19  N   UNL A   1      40.021  20.308  26.328  1.00  0.00    -0.352 N 
ATOM     20  C   UNL A   1      39.280  21.454  26.179  1.00  0.00     0.251 C 
ATOM     21  H   UNL A   1      39.586  19.522  25.925  1.00  0.00     0.163 HD
ATOM     22  O   UNL A   1      38.131  21.315  25.754  1.00  0.00    -0.269 OA
BRANCH  20  23
ATOM     23  C   UNL A   1      39.755  22.823  26.526  1.00  0.00     0.039 A 
ATOM     24  C   UNL A   1      40.556  22.969  27.671  1.00  0.00     0.014 A 
ATOM     25  C   UNL A   1      39.397  23.974  25.830  1.00  0.00     0.014 A 
ATOM     26  C   UNL A   1      41.021  24.229  28.070  1.00  0.00     0.010 A 
ATOM     27  C   UNL A   1      39.966  25.210  26.149  1.00  0.00     0.010 A 
ATOM     28  C   UNL A   1      40.766  25.363  27.287  1.00  0.00    -0.014 A 
BRANCH  28  29
ATOM     29  C   UNL A   1      41.282  26.713  27.656  1.00  0.00     0.031 A 
ATOM     30  C   UNL A   1      42.700  27.105  27.311  1.00  0.00     0.074 A 
ATOM     31  C   UNL A   1      40.504  27.562  28.358  1.00  0.00     0.049 A 
ATOM     32  N   UNL A   1      43.373  28.177  27.649  1.00  0.00    -0.248 NA
ATOM     33  C   UNL A   1      43.478  26.143  26.514  1.00  0.00     0.031 C 
ATOM     34  C   UNL A   1      39.131  27.292  28.789  1.00  0.00     0.029 A 
ATOM     35  N   UNL A   1      40.755  28.824  28.840  1.00  0.00    -0.354 N 
ATOM     36  C   UNL A   1      44.654  28.003  27.133  1.00  0.00     0.074 A 
ATOM     37  C   UNL A   1      44.683  26.689  26.527  1.00  0.00     0.031 C 
ATOM     38  C   UNL A   1      38.650  28.368  29.432  1.00  0.00     0.029 A 
ATOM     39  C   UNL A   1      39.694  29.381  29.517  1.00  0.00     0.049 A 
ATOM     40  H   UNL A   1      41.615  29.287  28.711  1.00  0.00     0.167 HD
ATOM     41  C   UNL A   1      45.701  28.867  27.135  1.00  0.00     0.034 A 
ATOM     42  C   UNL A   1      39.578  30.566  30.147  1.00  0.00     0.034 A 
ATOM     43  C   UNL A   1      45.645  30.186  27.716  1.00  0.00     0.049 A 
ATOM     44  C   UNL A   1      40.759  31.505  30.152  1.00  0.00     0.074 A 
ATOM     45  C   UNL A   1      46.623  31.166  27.727  1.00  0.00     0.029 A 
ATOM     46  N   UNL A   1      44.550  30.715  28.388  1.00  0.00    -0.354 N 
ATOM     47  N   UNL A   1      41.951  31.336  29.627  1.00  0.00    -0.248 NA
ATOM     48  C   UNL A   1      40.574  32.796  30.825  1.00  0.00     0.031 C 
ATOM     49  C   UNL A   1      46.147  32.254  28.466  1.00  0.00     0.029 A 
ATOM     50  C   UNL A   1      44.840  31.992  28.843  1.00  0.00     0.049 A 
ATOM     51  H   UNL A   1      43.693  30.249  28.522  1.00  0.00     0.167 HD
ATOM     52  C   UNL A   1      42.645  32.517  29.878  1.00  0.00     0.074 A 
ATOM     53  C   UNL A   1      41.732  33.392  30.583  1.00  0.00     0.031 C 
ATOM     54  C   UNL A   1      43.922  32.850  29.553  1.00  0.00     0.034 A 
BRANCH  41  55
ATOM     55  C   UNL A   1      46.995  28.401  26.503  1.00  0.00     0.023 A 
ATOM     56  C   UNL A   1      47.175  28.387  25.108  1.00  0.00     0.031 A 
ATOM     57  C   UNL A   1      48.055  27.936  27.303  1.00  0.00     0.131 A 
ATOM     58  C   UNL A   1      48.342  27.838  24.555  1.00  0.00     0.055 A 
ATOM     59  C   UNL A   1      49.252  27.478  26.749  1.00  0.00     0.041 A 
ATOM     60  F   UNL A   1      47.940  27.904  28.640  1.00  0.00    -0.206 F 
ATOM     61  C   UNL A   1      49.395  27.410  25.366  1.00  0.00     0.022 A 
BRANCH  58  62
ATOM     62  S   UNL A   1      48.392  27.545  22.765  1.00  0.00     0.124 S 
ATOM     63  O   UNL A   1      47.162  28.205  22.326  1.00  0.00    -0.237 OA
ATOM     64  O   UNL A   1      49.635  28.184  22.372  1.00  0.00    -0.237 OA
ATOM     65  O   UNL A   1      48.374  26.084  22.658  1.00  0.00    -0.744 OA
ENDBRANCH  58  62
ENDBRANCH  41  55
BRANCH  42  66
ATOM     66  C   UNL A   1      38.305  30.941  30.830  1.00  0.00     0.023 A 
ATOM     67  C   UNL A   1      37.291  31.625  30.140  1.00  0.00     0.031 A 
ATOM     68  C   UNL A   1      38.097  30.659  32.192  1.00  0.00     0.131 A 
ATOM     69  C   UNL A   1      36.141  32.049  30.823  1.00  0.00     0.055 A 
ATOM     70  C   UNL A   1      36.925  31.030  32.853  1.00  0.00     0.041 A 
ATOM     71  F   UNL A   1      39.032  30.005  32.900  1.00  0.00    -0.206 F 
ATOM     72  C   UNL A   1      35.943  31.742  32.171  1.00  0.00     0.022 A 
BRANCH  69  73
ATOM     73  S   UNL A   1      34.946  33.094  29.946  1.00  0.00     0.124 S 
ATOM     74  O   UNL A   1      35.808  34.143  29.410  1.00  0.00    -0.237 OA
ATOM     75  O   UNL A   1      34.388  32.163  28.971  1.00  0.00    -0.237 OA
ATOM     76  O   UNL A   1      34.026  33.519  30.999  1.00  0.00    -0.744 OA
ENDBRANCH  69  73
ENDBRANCH  42  66
BRANCH  54  77
ATOM     77  C   UNL A   1      44.380  34.242  29.918  1.00  0.00     0.023 A 
ATOM     78  C   UNL A   1      44.167  35.340  29.067  1.00  0.00     0.031 A 
ATOM     79  C   UNL A   1      45.057  34.468  31.130  1.00  0.00     0.131 A 
ATOM     80  C   UNL A   1      44.686  36.598  29.406  1.00  0.00     0.055 A 
ATOM     81  C   UNL A   1      45.509  35.737  31.495  1.00  0.00     0.041 A 
ATOM     82  F   UNL A   1      45.292  33.456  31.981  1.00  0.00    -0.206 F 
ATOM     83  C   UNL A   1      45.338  36.809  30.624  1.00  0.00     0.022 A 
BRANCH  80  84
ATOM     84  S   UNL A   1      44.595  37.935  28.183  1.00  0.00     0.124 S 
ATOM     85  O   UNL A   1      45.537  37.477  27.166  1.00  0.00    -0.237 OA
ATOM     86  O   UNL A   1      43.187  37.914  27.803  1.00  0.00    -0.237 OA
ATOM     87  O   UNL A   1      45.017  39.116  28.933  1.00  0.00    -0.744 OA
ENDBRANCH  80  84
ENDBRANCH  54  77
ENDBRANCH  28  29
ENDBRANCH  20  23
ENDBRANCH  18  19
ENDBRANCH   1  18
TORSDOF 16
ENDMDL
MODEL 2
REMARK VINA RESULT:      -9.7      3.126      5.748
REMARK SMILES C[C@H](CC(=O)NCCCNC(=O)c1ccc(-c2c3nc(c(-c4cc(S(=O)(=O)[O-])ccc4F)c4ccc([nH]4)c(-c4cc(S(=O)(=O)[O-])ccc4F)c4nc(c(-c5cc(S(=O)(=O)[O-])ccc5F)c5ccc2[nH]5)C=C4)C=C3)cc1)c1ccc(O)cc1
REMARK SMILES IDX 8 1 7 2 6 3 4 4 5 5 3 7 2 8 1 9 76 10 77 11 82 12 78 13
REMARK SMILES IDX 81 14 79 15 80 16 9 18 10 19 11 20 12 22 13 23 14 24 75 25
REMARK SMILES IDX 15 26 74 27 16 28 17 29 18 30 68 31 19 32 73 33 67 34 69 35
REMARK SMILES IDX 20 36 72 37 66 38 65 39 21 41 53 42 33 43 52 44 34 45 37 46
REMARK SMILES IDX 51 47 70 48 35 49 36 50 50 52 71 53 38 54 22 55 23 56 31 57
REMARK SMILES IDX 24 58 30 59 32 60 29 61 25 62 26 63 27 64 28 65 54 66 55 67
REMARK SMILES IDX 63 68 56 69 62 70 64 71 61 72 57 73 58 74 59 75 60 76 39 77
REMARK SMILES IDX 40 78 48 79 41 80 47 81 49 82 46 83 42 84 43 85 44 86 45 87
REMARK H PARENT 6 6 80 17 10 21 69 40 37 51
REMARK Flexibility Score: inf
ROOT
ATOM      1  C   UNL A   1      35.743  21.352  25.742  1.00  0.00     0.042 C 
ENDROOT
BRANCH   1   2
ATOM      2  C   UNL A   1      34.674  22.344  25.280  1.00  0.00     0.117 C 
BRANCH   2   3
ATOM      3  N   UNL A   1      33.352  21.870  25.656  1.00  0.00    -0.356 N 
ATOM      4  C   UNL A   1      32.454  21.122  24.961  1.00  0.00     0.220 C 
ATOM      5  O   UNL A   1      31.331  20.971  25.450  1.00  0.00    -0.275 OA
ATOM      6  H   UNL A   1      33.060  22.132  26.558  1.00  0.00     0.163 HD
BRANCH   4   7
ATOM      7  C   UNL A   1      32.826  20.441  23.658  1.00  0.00     0.108 C 
BRANCH   7   8
ATOM      8  C   UNL A   1      32.335  18.989  23.436  1.00  0.00     0.025 C 
ATOM      9  C   UNL A   1      32.076  18.651  21.965  1.00  0.00     0.013 C 
BRANCH   8  10
ATOM     10  C   UNL A   1      33.211  18.005  24.201  1.00  0.00    -0.044 A 
ATOM     11  C   UNL A   1      34.588  18.275  24.309  1.00  0.00     0.008 A 
ATOM     12  C   UNL A   1      32.738  16.792  24.715  1.00  0.00     0.008 A 
ATOM     13  C   UNL A   1      35.476  17.309  24.781  1.00  0.00     0.046 A 
ATOM     14  C   UNL A   1      33.629  15.812  25.168  1.00  0.00     0.046 A 
ATOM     15  C   UNL A   1      34.994  16.063  25.151  1.00  0.00     0.115 A 
BRANCH  15  16
ATOM     16  O   UNL A   1      35.901  15.096  25.463  1.00  0.00    -0.508 OA
ATOM     17  H   UNL A   1      36.751  15.335  25.779  1.00  0.00     0.293 HD
ENDBRANCH  15  16
ENDBRANCH   8  10
ENDBRANCH   7   8
ENDBRANCH   4   7
ENDBRANCH   2   3
ENDBRANCH   1   2
BRANCH   1  18
ATOM     18  C   UNL A   1      36.925  21.216  24.793  1.00  0.00     0.118 C 
BRANCH  18  19
ATOM     19  N   UNL A   1      37.997  20.404  25.352  1.00  0.00    -0.352 N 
ATOM     20  C   UNL A   1      39.225  20.666  25.907  1.00  0.00     0.251 C 
ATOM     21  H   UNL A   1      37.794  19.440  25.324  1.00  0.00     0.163 HD
ATOM     22  O   UNL A   1      39.958  19.695  26.106  1.00  0.00    -0.269 OA
BRANCH  20  23
ATOM     23  C   UNL A   1      39.731  22.027  26.243  1.00  0.00     0.039 A 
ATOM     24  C   UNL A   1      40.971  22.123  26.895  1.00  0.00     0.014 A 
ATOM     25  C   UNL A   1      39.021  23.202  26.016  1.00  0.00     0.014 A 
ATOM     26  C   UNL A   1      41.499  23.368  27.261  1.00  0.00     0.010 A 
ATOM     27  C   UNL A   1      39.603  24.449  26.259  1.00  0.00     0.010 A 
ATOM     28  C   UNL A   1      40.839  24.553  26.908  1.00  0.00    -0.014 A 
BRANCH  28  29
ATOM     29  C   UNL A   1      41.392  25.898  27.240  1.00  0.00     0.031 A 
ATOM     30  C   UNL A   1      42.761  26.300  26.744  1.00  0.00     0.074 A 
ATOM     31  C   UNL A   1      40.698  26.733  28.040  1.00  0.00     0.049 A 
ATOM     32  N   UNL A   1      43.467  27.368  27.023  1.00  0.00    -0.248 NA
ATOM     33  C   UNL A   1      43.445  25.355  25.848  1.00  0.00     0.031 C 
ATOM     34  C   UNL A   1      39.382  26.451  28.619  1.00  0.00     0.029 A 
ATOM     35  N   UNL A   1      41.000  27.987  28.513  1.00  0.00    -0.354 N 
ATOM     36  C   UNL A   1      44.682  27.207  26.363  1.00  0.00     0.074 A 
ATOM     37  C   UNL A   1      44.643  25.904  25.734  1.00  0.00     0.031 C 
ATOM     38  C   UNL A   1      38.975  27.513  29.331  1.00  0.00     0.029 A 
ATOM     39  C   UNL A   1      40.022  28.528  29.315  1.00  0.00     0.049 A 
ATOM     40  H   UNL A   1      41.840  28.455  28.296  1.00  0.00     0.167 HD
ATOM     41  C   UNL A   1      45.721  28.074  26.261  1.00  0.00     0.034 A 
ATOM     42  C   UNL A   1      39.977  29.702  29.976  1.00  0.00     0.034 A 
ATOM     43  C   UNL A   1      45.731  29.383  26.868  1.00  0.00     0.049 A 
ATOM     44  C   UNL A   1      41.150  30.644  29.863  1.00  0.00     0.074 A 
ATOM     45  C   UNL A   1      46.703  30.365  26.786  1.00  0.00     0.029 A 
ATOM     46  N   UNL A   1      44.718  29.896  27.669  1.00  0.00    -0.354 N 
ATOM     47  N   UNL A   1      42.275  30.488  29.205  1.00  0.00    -0.248 NA
ATOM     48  C   UNL A   1      41.040  31.923  30.576  1.00  0.00     0.031 C 
ATOM     49  C   UNL A   1      46.312  31.438  27.594  1.00  0.00     0.029 A 
ATOM     50  C   UNL A   1      45.056  31.166  28.111  1.00  0.00     0.049 A 
ATOM     51  H   UNL A   1      43.881  29.426  27.891  1.00  0.00     0.167 HD
ATOM     52  C   UNL A   1      42.991  31.666  29.397  1.00  0.00     0.074 A 
ATOM     53  C   UNL A   1      42.163  32.526  30.216  1.00  0.00     0.031 C 
ATOM     54  C   UNL A   1      44.223  32.009  28.936  1.00  0.00     0.034 A 
BRANCH  41  55
ATOM     55  C   UNL A   1      46.936  27.623  25.479  1.00  0.00     0.023 A 
ATOM     56  C   UNL A   1      47.150  28.022  24.147  1.00  0.00     0.031 A 
ATOM     57  C   UNL A   1      47.881  26.758  26.061  1.00  0.00     0.131 A 
ATOM     58  C   UNL A   1      48.224  27.490  23.417  1.00  0.00     0.055 A 
ATOM     59  C   UNL A   1      49.000  26.307  25.358  1.00  0.00     0.041 A 
ATOM     60  F   UNL A   1      47.726  26.323  27.321  1.00  0.00    -0.206 F 
ATOM     61  C   UNL A   1      49.168  26.658  24.022  1.00  0.00     0.022 A 
BRANCH  58  62
ATOM     62  S   UNL A   1      48.273  27.776  21.626  1.00  0.00     0.124 S 
ATOM     63  O   UNL A   1      48.609  26.443  21.126  1.00  0.00    -0.237 OA
ATOM     64  O   UNL A   1      46.929  28.246  21.342  1.00  0.00    -0.237 OA
ATOM     65  O   UNL A   1      49.334  28.774  21.470  1.00  0.00    -0.744 OA
ENDBRANCH  58  62
ENDBRANCH  41  55
BRANCH  42  66
ATOM     66  C   UNL A   1      38.788  30.061  30.804  1.00  0.00     0.023 A 
ATOM     67  C   UNL A   1      37.742  30.830  30.270  1.00  0.00     0.031 A 
ATOM     68  C   UNL A   1      38.698  29.677  32.155  1.00  0.00     0.131 A 
ATOM     69  C   UNL A   1      36.678  31.235  31.092  1.00  0.00     0.055 A 
ATOM     70  C   UNL A   1      37.607  30.030  32.951  1.00  0.00     0.041 A 
ATOM     71  F   UNL A   1      39.667  28.938  32.717  1.00  0.00    -0.206 F 
ATOM     72  C   UNL A   1      36.595  30.826  32.424  1.00  0.00     0.022 A 
BRANCH  69  73
ATOM     73  S   UNL A   1      35.449  32.385  30.416  1.00  0.00     0.124 S 
ATOM     74  O   UNL A   1      36.241  33.598  30.248  1.00  0.00    -0.237 OA
ATOM     75  O   UNL A   1      35.044  31.708  29.188  1.00  0.00    -0.237 OA
ATOM     76  O   UNL A   1      34.429  32.444  31.460  1.00  0.00    -0.744 OA
ENDBRANCH  69  73
ENDBRANCH  42  66
BRANCH  54  77
ATOM     77  C   UNL A   1      44.718  33.395  29.271  1.00  0.00     0.023 A 
ATOM     78  C   UNL A   1      44.534  34.480  28.397  1.00  0.00     0.031 A 
ATOM     79  C   UNL A   1      45.401  33.629  30.478  1.00  0.00     0.131 A 
ATOM     80  C   UNL A   1      45.087  35.731  28.709  1.00  0.00     0.055 A 
ATOM     81  C   UNL A   1      45.886  34.893  30.817  1.00  0.00     0.041 A 
ATOM     82  F   UNL A   1      45.609  32.629  31.351  1.00  0.00    -0.206 F 
ATOM     83  C   UNL A   1      45.744  35.950  29.923  1.00  0.00     0.022 A 
BRANCH  80  84
ATOM     84  S   UNL A   1      45.032  37.043  27.458  1.00  0.00     0.124 S 
ATOM     85  O   UNL A   1      45.540  38.191  28.203  1.00  0.00    -0.237 OA
ATOM     86  O   UNL A   1      45.912  36.519  26.418  1.00  0.00    -0.237 OA
ATOM     87  O   UNL A   1      43.618  37.114  27.095  1.00  0.00    -0.744 OA
ENDBRANCH  80  84
ENDBRANCH  54  77
ENDBRANCH  28  29
ENDBRANCH  20  23
ENDBRANCH  18  19
ENDBRANCH   1  18
TORSDOF 16
ENDMDL
MODEL 3
REMARK VINA RESULT:      -9.6      3.437      9.877
REMARK SMILES C[C@H](CC(=O)NCCCNC(=O)c1ccc(-c2c3nc(c(-c4cc(S(=O)(=O)[O-])ccc4F)c4ccc([nH]4)c(-c4cc(S(=O)(=O)[O-])ccc4F)c4nc(c(-c5cc(S(=O)(=O)[O-])ccc5F)c5ccc2[nH]5)C=C4)C=C3)cc1)c1ccc(O)cc1
REMARK SMILES IDX 8 1 7 2 6 3 4 4 5 5 3 7 2 8 1 9 76 10 77 11 82 12 78 13
REMARK SMILES IDX 81 14 79 15 80 16 9 18 10 19 11 20 12 22 13 23 14 24 75 25
REMARK SMILES IDX 15 26 74 27 16 28 17 29 18 30 68 31 19 32 73 33 67 34 69 35
REMARK SMILES IDX 20 36 72 37 66 38 65 39 21 41 53 42 33 43 52 44 34 45 37 46
REMARK SMILES IDX 51 47 70 48 35 49 36 50 50 52 71 53 38 54 22 55 23 56 31 57
REMARK SMILES IDX 24 58 30 59 32 60 29 61 25 62 26 63 27 64 28 65 54 66 55 67
REMARK SMILES IDX 63 68 56 69 62 70 64 71 61 72 57 73 58 74 59 75 60 76 39 77
REMARK SMILES IDX 40 78 48 79 41 80 47 81 49 82 46 83 42 84 43 85 44 86 45 87
REMARK H PARENT 6 6 80 17 10 21 69 40 37 51
REMARK Flexibility Score: inf
ROOT
ATOM      1  C   UNL A   1      35.220  22.240  26.897  1.00  0.00     0.042 C 
ENDROOT
BRANCH   1   2
ATOM      2  C   UNL A   1      33.826  21.699  27.220  1.00  0.00     0.117 C 
BRANCH   2   3
ATOM      3  N   UNL A   1      32.928  22.793  27.554  1.00  0.00    -0.356 N 
ATOM      4  C   UNL A   1      31.823  23.254  26.911  1.00  0.00     0.220 C 
ATOM      5  O   UNL A   1      31.311  24.299  27.323  1.00  0.00    -0.275 OA
ATOM      6  H   UNL A   1      33.158  23.278  28.379  1.00  0.00     0.163 HD
BRANCH   4   7
ATOM      7  C   UNL A   1      31.195  22.489  25.761  1.00  0.00     0.108 C 
BRANCH   7   8
ATOM      8  C   UNL A   1      31.791  22.694  24.347  1.00  0.00     0.025 C 
ATOM      9  C   UNL A   1      32.905  23.742  24.301  1.00  0.00     0.013 C 
BRANCH   8  10
ATOM     10  C   UNL A   1      32.112  21.351  23.701  1.00  0.00    -0.044 A 
ATOM     11  C   UNL A   1      31.922  21.212  22.314  1.00  0.00     0.008 A 
ATOM     12  C   UNL A   1      32.489  20.217  24.430  1.00  0.00     0.008 A 
ATOM     13  C   UNL A   1      31.965  19.957  21.704  1.00  0.00     0.046 A 
ATOM     14  C   UNL A   1      32.511  18.955  23.825  1.00  0.00     0.046 A 
ATOM     15  C   UNL A   1      32.201  18.832  22.478  1.00  0.00     0.115 A 
BRANCH  15  16
ATOM     16  O   UNL A   1      32.087  17.613  21.881  1.00  0.00    -0.508 OA
ATOM     17  H   UNL A   1      31.242  17.223  21.769  1.00  0.00     0.293 HD
ENDBRANCH  15  16
ENDBRANCH   8  10
ENDBRANCH   7   8
ENDBRANCH   4   7
ENDBRANCH   2   3
ENDBRANCH   1   2
BRANCH   1  18
ATOM     18  C   UNL A   1      35.717  21.901  25.499  1.00  0.00     0.118 C 
BRANCH  18  19
ATOM     19  N   UNL A   1      36.824  20.954  25.516  1.00  0.00    -0.352 N 
ATOM     20  C   UNL A   1      38.183  21.054  25.685  1.00  0.00     0.251 C 
ATOM     21  H   UNL A   1      36.529  20.026  25.371  1.00  0.00     0.163 HD
ATOM     22  O   UNL A   1      38.842  20.039  25.447  1.00  0.00    -0.269 OA
BRANCH  20  23
ATOM     23  C   UNL A   1      38.898  22.294  26.095  1.00  0.00     0.039 A 
ATOM     24  C   UNL A   1      40.060  22.156  26.873  1.00  0.00     0.014 A 
ATOM     25  C   UNL A   1      38.451  23.582  25.816  1.00  0.00     0.014 A 
ATOM     26  C   UNL A   1      40.772  23.279  27.313  1.00  0.00     0.010 A 
ATOM     27  C   UNL A   1      39.229  24.697  26.140  1.00  0.00     0.010 A 
ATOM     28  C   UNL A   1      40.388  24.567  26.914  1.00  0.00    -0.014 A 
BRANCH  28  29
ATOM     29  C   UNL A   1      41.147  25.783  27.325  1.00  0.00     0.031 A 
ATOM     30  C   UNL A   1      40.494  26.829  28.197  1.00  0.00     0.074 A 
ATOM     31  C   UNL A   1      42.399  25.983  26.863  1.00  0.00     0.049 A 
ATOM     32  N   UNL A   1      40.939  28.006  28.560  1.00  0.00    -0.248 NA
ATOM     33  C   UNL A   1      39.141  26.528  28.692  1.00  0.00     0.031 C 
ATOM     34  C   UNL A   1      43.131  25.070  25.982  1.00  0.00     0.029 A 
ATOM     35  N   UNL A   1      43.278  27.019  27.063  1.00  0.00    -0.354 N 
ATOM     36  C   UNL A   1      39.914  28.592  29.298  1.00  0.00     0.074 A 
ATOM     37  C   UNL A   1      38.798  27.671  29.263  1.00  0.00     0.031 C 
ATOM     38  C   UNL A   1      44.357  25.566  25.753  1.00  0.00     0.029 A 
ATOM     39  C   UNL A   1      44.482  26.858  26.415  1.00  0.00     0.049 A 
ATOM     40  H   UNL A   1      43.066  27.804  27.620  1.00  0.00     0.167 HD
ATOM     41  C   UNL A   1      39.910  29.773  29.968  1.00  0.00     0.034 A 
ATOM     42  C   UNL A   1      45.559  27.665  26.349  1.00  0.00     0.034 A 
ATOM     43  C   UNL A   1      41.042  30.665  30.020  1.00  0.00     0.049 A 
ATOM     44  C   UNL A   1      45.527  28.981  27.088  1.00  0.00     0.074 A 
ATOM     45  C   UNL A   1      41.171  31.857  30.711  1.00  0.00     0.029 A 
ATOM     46  N   UNL A   1      42.245  30.464  29.354  1.00  0.00    -0.354 N 
ATOM     47  N   UNL A   1      44.561  29.501  27.809  1.00  0.00    -0.248 NA
ATOM     48  C   UNL A   1      46.736  29.810  27.011  1.00  0.00     0.031 C 
ATOM     49  C   UNL A   1      42.419  32.410  30.406  1.00  0.00     0.029 A 
ATOM     50  C   UNL A   1      43.107  31.523  29.595  1.00  0.00     0.049 A 
ATOM     51  H   UNL A   1      42.455  29.682  28.793  1.00  0.00     0.167 HD
ATOM     52  C   UNL A   1      45.061  30.704  28.299  1.00  0.00     0.074 A 
ATOM     53  C   UNL A   1      46.418  30.820  27.807  1.00  0.00     0.031 C 
ATOM     54  C   UNL A   1      44.455  31.629  29.088  1.00  0.00     0.034 A 
BRANCH  41  55
ATOM     55  C   UNL A   1      38.636  30.168  30.683  1.00  0.00     0.023 A 
ATOM     56  C   UNL A   1      37.597  30.850  30.023  1.00  0.00     0.031 A 
ATOM     57  C   UNL A   1      38.466  29.887  32.051  1.00  0.00     0.131 A 
ATOM     58  C   UNL A   1      36.483  31.303  30.745  1.00  0.00     0.055 A 
ATOM     59  C   UNL A   1      37.311  30.258  32.743  1.00  0.00     0.041 A 
ATOM     60  F   UNL A   1      39.427  29.257  32.744  1.00  0.00    -0.206 F 
ATOM     61  C   UNL A   1      36.318  30.987  32.095  1.00  0.00     0.022 A 
BRANCH  58  62
ATOM     62  S   UNL A   1      35.336  32.448  29.930  1.00  0.00     0.124 S 
ATOM     63  O   UNL A   1      36.235  33.536  29.540  1.00  0.00    -0.237 OA
ATOM     64  O   UNL A   1      34.799  31.644  28.847  1.00  0.00    -0.237 OA
ATOM     65  O   UNL A   1      34.385  32.791  30.990  1.00  0.00    -0.744 OA
ENDBRANCH  58  62
ENDBRANCH  41  55
BRANCH  42  66
ATOM     66  C   UNL A   1      46.759  27.265  25.558  1.00  0.00     0.023 A 
ATOM     67  C   UNL A   1      46.967  27.763  24.261  1.00  0.00     0.031 A 
ATOM     68  C   UNL A   1      47.696  26.347  26.067  1.00  0.00     0.131 A 
ATOM     69  C   UNL A   1      48.053  27.304  23.499  1.00  0.00     0.055 A 
ATOM     70  C   UNL A   1      48.807  25.939  25.328  1.00  0.00     0.041 A 
ATOM     71  F   UNL A   1      47.548  25.841  27.302  1.00  0.00    -0.206 F 
ATOM     72  C   UNL A   1      48.984  26.408  24.029  1.00  0.00     0.022 A 
BRANCH  69  73
ATOM     73  S   UNL A   1      48.178  27.823  21.766  1.00  0.00     0.124 S 
ATOM     74  O   UNL A   1      46.882  28.460  21.554  1.00  0.00    -0.237 OA
ATOM     75  O   UNL A   1      49.333  28.715  21.800  1.00  0.00    -0.237 OA
ATOM     76  O   UNL A   1      48.382  26.567  21.048  1.00  0.00    -0.744 OA
ENDBRANCH  69  73
ENDBRANCH  42  66
BRANCH  54  77
ATOM     77  C   UNL A   1      45.283  32.822  29.504  1.00  0.00     0.023 A 
ATOM     78  C   UNL A   1      45.302  34.010  28.753  1.00  0.00     0.031 A 
ATOM     79  C   UNL A   1      46.079  32.760  30.662  1.00  0.00     0.131 A 
ATOM     80  C   UNL A   1      46.152  35.060  29.129  1.00  0.00     0.055 A 
ATOM     81  C   UNL A   1      46.868  33.836  31.071  1.00  0.00     0.041 A 
ATOM     82  F   UNL A   1      46.103  31.650  31.417  1.00  0.00    -0.206 F 
ATOM     83  C   UNL A   1      46.920  34.990  30.295  1.00  0.00     0.022 A 
BRANCH  80  84
ATOM     84  S   UNL A   1      46.325  36.480  28.014  1.00  0.00     0.124 S 
ATOM     85  O   UNL A   1      45.157  36.331  27.152  1.00  0.00    -0.237 OA
ATOM     86  O   UNL A   1      46.295  37.609  28.939  1.00  0.00    -0.237 OA
ATOM     87  O   UNL A   1      47.612  36.249  27.360  1.00  0.00    -0.744 OA
ENDBRANCH  80  84
ENDBRANCH  54  77
ENDBRANCH  28  29
ENDBRANCH  20  23
ENDBRANCH  18  19
ENDBRANCH   1  18
TORSDOF 16
ENDMDL
