MODEL 1
REMARK VINA RESULT:     -13.5      0.000      0.000
REMARK SMILES Cc1nsc(NC(=O)[C@H]2Cc3[nH]cnc3C[NH2+]2)c1C(=O)NCCCNC(=O)c1ccc(-c2c3nc(c(-c4cc(S(=O)(=O)[O-])ccc4F)c4ccc([nH]4)c(-c4cc(S(=O)(=O)[O-])ccc4F)c4nc(c(-c5cc(S(=O)(=O)[O-])ccc5F)c5ccc2[nH]5)C=C4)C=C3)cc1
REMARK SMILES IDX 23 1 22 2 21 3 19 4 20 5 18 7 1 8 2 9 3 10 4 11 5 12 6 13
REMARK SMILES IDX 7 14 8 16 9 17 10 18 17 19 11 20 16 21 12 24 15 25 13 26
REMARK SMILES IDX 14 28 24 29 25 30 26 31 27 33 28 34 29 35 90 36 30 37 89 38
REMARK SMILES IDX 31 39 32 40 33 41 83 42 34 43 88 44 82 45 84 46 35 47 87 48
REMARK SMILES IDX 81 49 80 50 36 52 68 53 48 54 67 55 49 56 52 57 66 58 85 59
REMARK SMILES IDX 50 60 51 61 65 63 86 64 53 65 37 66 38 67 46 68 39 69 45 70
REMARK SMILES IDX 47 71 44 72 40 73 41 74 42 75 43 76 69 77 70 78 78 79 71 80
REMARK SMILES IDX 77 81 79 82 76 83 72 84 73 85 74 86 75 87 54 88 55 89 63 90
REMARK SMILES IDX 56 91 62 92 64 93 61 94 57 95 58 96 59 97 60 98
REMARK H PARENT 21 6 6 15 17 22 17 23 12 27 25 32 84 51 52 62
REMARK Flexibility Score: inf
ROOT
ATOM      1  C   UNL A   1      33.773  28.958  27.332  1.00  0.00     0.042 C 
ENDROOT
BRANCH   1   2
ATOM      2  C   UNL A   1      33.132  29.597  26.101  1.00  0.00     0.118 C 
BRANCH   2   3
ATOM      3  N   UNL A   1      33.705  29.219  24.830  1.00  0.00    -0.352 N 
ATOM      4  C   UNL A   1      33.167  28.914  23.612  1.00  0.00     0.256 C 
ATOM      5  O   UNL A   1      33.945  28.979  22.656  1.00  0.00    -0.269 OA
ATOM      6  H   UNL A   1      34.689  29.172  24.844  1.00  0.00     0.163 HD
BRANCH   4   7
ATOM      7  C   UNL A   1      31.820  28.380  23.423  1.00  0.00     0.097 A 
ATOM      8  C   UNL A   1      29.962  30.214  23.859  1.00  0.00     0.069 C 
ATOM      9  C   UNL A   1      30.474  28.821  23.724  1.00  0.00     0.066 A 
ATOM     10  N   UNL A   1      29.539  27.855  23.732  1.00  0.00    -0.195 NA
ATOM     11  S   UNL A   1      30.225  26.471  23.103  1.00  0.00    -0.017 S 
ATOM     12  C   UNL A   1      31.633  27.278  22.590  1.00  0.00     0.129 A 
BRANCH  12  13
ATOM     13  N   UNL A   1      32.474  26.762  21.631  1.00  0.00    -0.311 N 
ATOM     14  C   UNL A   1      32.934  25.462  21.605  1.00  0.00     0.283 C 
ATOM     15  H   UNL A   1      32.770  27.365  20.911  1.00  0.00     0.171 HD
ATOM     16  O   UNL A   1      33.223  24.999  20.492  1.00  0.00    -0.268 OA
BRANCH  14  17
ATOM     17  C   UNL A   1      33.155  24.626  22.888  1.00  0.00     0.279 C 
ATOM     18  C   UNL A   1      33.651  23.157  22.740  1.00  0.00     0.131 C 
ATOM     19  N   UNL A   1      34.087  25.349  23.846  1.00  0.00    -0.331 N 
ATOM     20  C   UNL A   1      33.339  22.593  24.080  1.00  0.00     0.050 A 
ATOM     21  C   UNL A   1      34.384  24.619  25.119  1.00  0.00     0.320 C 
ATOM     22  H   UNL A   1      33.659  26.243  24.087  1.00  0.00     0.347 HD
ATOM     23  H   UNL A   1      34.977  25.440  23.357  1.00  0.00     0.347 HD
ATOM     24  N   UNL A   1      32.354  21.721  24.438  1.00  0.00    -0.348 N 
ATOM     25  C   UNL A   1      33.630  23.327  25.208  1.00  0.00     0.116 A 
ATOM     26  C   UNL A   1      32.063  21.994  25.754  1.00  0.00     0.197 A 
ATOM     27  H   UNL A   1      31.934  21.035  23.870  1.00  0.00     0.167 HD
ATOM     28  N   UNL A   1      32.858  22.916  26.259  1.00  0.00    -0.236 NA
ENDBRANCH  14  17
ENDBRANCH  12  13
ENDBRANCH   4   7
ENDBRANCH   2   3
ENDBRANCH   1   2
BRANCH   1  29
ATOM     29  C   UNL A   1      35.237  29.330  27.480  1.00  0.00     0.118 C 
BRANCH  29  30
ATOM     30  N   UNL A   1      35.533  29.836  28.828  1.00  0.00    -0.352 N 
ATOM     31  C   UNL A   1      36.621  29.567  29.636  1.00  0.00     0.251 C 
ATOM     32  H   UNL A   1      34.864  30.450  29.208  1.00  0.00     0.163 HD
ATOM     33  O   UNL A   1      36.584  29.827  30.836  1.00  0.00    -0.269 OA
BRANCH  31  34
ATOM     34  C   UNL A   1      37.799  28.940  29.022  1.00  0.00     0.039 A 
ATOM     35  C   UNL A   1      38.394  29.485  27.885  1.00  0.00     0.014 A 
ATOM     36  C   UNL A   1      38.391  27.886  29.712  1.00  0.00     0.014 A 
ATOM     37  C   UNL A   1      39.665  29.042  27.533  1.00  0.00     0.010 A 
ATOM     38  C   UNL A   1      39.710  27.594  29.476  1.00  0.00     0.010 A 
ATOM     39  C   UNL A   1      40.348  28.136  28.368  1.00  0.00    -0.014 A 
BRANCH  39  40
ATOM     40  C   UNL A   1      41.763  27.844  28.154  1.00  0.00     0.031 A 
ATOM     41  C   UNL A   1      42.032  26.618  27.360  1.00  0.00     0.074 A 
ATOM     42  C   UNL A   1      42.785  28.648  28.520  1.00  0.00     0.049 A 
ATOM     43  N   UNL A   1      42.288  25.445  27.830  1.00  0.00    -0.248 NA
ATOM     44  C   UNL A   1      41.817  26.636  25.906  1.00  0.00     0.031 C 
ATOM     45  C   UNL A   1      42.749  30.005  29.074  1.00  0.00     0.029 A 
ATOM     46  N   UNL A   1      44.121  28.407  28.414  1.00  0.00    -0.354 N 
ATOM     47  C   UNL A   1      42.539  24.633  26.734  1.00  0.00     0.074 A 
ATOM     48  C   UNL A   1      42.020  25.351  25.599  1.00  0.00     0.031 C 
ATOM     49  C   UNL A   1      43.991  30.540  29.067  1.00  0.00     0.029 A 
ATOM     50  C   UNL A   1      44.932  29.499  28.701  1.00  0.00     0.049 A 
ATOM     51  H   UNL A   1      44.484  27.530  28.155  1.00  0.00     0.167 HD
ATOM     52  C   UNL A   1      43.373  23.560  26.846  1.00  0.00     0.034 A 
ATOM     53  C   UNL A   1      46.289  29.544  28.709  1.00  0.00     0.034 A 
ATOM     54  C   UNL A   1      43.643  23.267  28.241  1.00  0.00     0.049 A 
ATOM     55  C   UNL A   1      46.747  28.156  28.961  1.00  0.00     0.074 A 
ATOM     56  C   UNL A   1      42.862  22.948  29.336  1.00  0.00     0.029 A 
ATOM     57  N   UNL A   1      44.844  23.697  28.764  1.00  0.00    -0.354 N 
ATOM     58  N   UNL A   1      46.513  27.525  30.080  1.00  0.00    -0.248 NA
ATOM     59  C   UNL A   1      47.024  27.301  27.818  1.00  0.00     0.031 C 
ATOM     60  C   UNL A   1      43.431  23.688  30.418  1.00  0.00     0.029 A 
ATOM     61  C   UNL A   1      44.578  24.336  29.951  1.00  0.00     0.049 A 
ATOM     62  H   UNL A   1      45.733  23.570  28.360  1.00  0.00     0.167 HD
ATOM     63  C   UNL A   1      46.173  26.235  29.702  1.00  0.00     0.074 A 
ATOM     64  C   UNL A   1      46.604  26.130  28.308  1.00  0.00     0.031 C 
ATOM     65  C   UNL A   1      45.337  25.465  30.463  1.00  0.00     0.034 A 
BRANCH  52  66
ATOM     66  C   UNL A   1      44.248  23.009  25.741  1.00  0.00     0.023 A 
ATOM     67  C   UNL A   1      44.186  21.620  25.512  1.00  0.00     0.031 A 
ATOM     68  C   UNL A   1      45.320  23.683  25.118  1.00  0.00     0.131 A 
ATOM     69  C   UNL A   1      45.206  20.953  24.813  1.00  0.00     0.055 A 
ATOM     70  C   UNL A   1      46.296  23.024  24.365  1.00  0.00     0.041 A 
ATOM     71  F   UNL A   1      45.542  24.993  25.272  1.00  0.00    -0.206 F 
ATOM     72  C   UNL A   1      46.265  21.647  24.238  1.00  0.00     0.022 A 
BRANCH  69  73
ATOM     73  S   UNL A   1      45.216  19.143  24.834  1.00  0.00     0.124 S 
ATOM     74  O   UNL A   1      44.085  18.856  25.711  1.00  0.00    -0.237 OA
ATOM     75  O   UNL A   1      45.033  18.825  23.421  1.00  0.00    -0.237 OA
ATOM     76  O   UNL A   1      46.530  18.818  25.382  1.00  0.00    -0.744 OA
ENDBRANCH  69  73
ENDBRANCH  52  66
BRANCH  53  77
ATOM     77  C   UNL A   1      47.143  30.616  28.131  1.00  0.00     0.023 A 
ATOM     78  C   UNL A   1      46.625  31.662  27.339  1.00  0.00     0.031 A 
ATOM     79  C   UNL A   1      48.477  30.758  28.577  1.00  0.00     0.131 A 
ATOM     80  C   UNL A   1      47.424  32.791  27.038  1.00  0.00     0.055 A 
ATOM     81  C   UNL A   1      49.259  31.876  28.281  1.00  0.00     0.041 A 
ATOM     82  F   UNL A   1      49.037  29.850  29.393  1.00  0.00    -0.206 F 
ATOM     83  C   UNL A   1      48.731  32.904  27.518  1.00  0.00     0.022 A 
BRANCH  80  84
ATOM     84  S   UNL A   1      46.737  34.182  26.081  1.00  0.00     0.124 S 
ATOM     85  O   UNL A   1      45.615  33.560  25.391  1.00  0.00    -0.237 OA
ATOM     86  O   UNL A   1      46.405  35.145  27.124  1.00  0.00    -0.237 OA
ATOM     87  O   UNL A   1      47.847  34.582  25.214  1.00  0.00    -0.744 OA
ENDBRANCH  80  84
ENDBRANCH  53  77
BRANCH  65  88
ATOM     88  C   UNL A   1      45.036  25.912  31.883  1.00  0.00     0.023 A 
ATOM     89  C   UNL A   1      43.873  26.604  32.299  1.00  0.00     0.031 A 
ATOM     90  C   UNL A   1      45.945  25.515  32.882  1.00  0.00     0.131 A 
ATOM     91  C   UNL A   1      43.666  26.877  33.669  1.00  0.00     0.055 A 
ATOM     92  C   UNL A   1      45.726  25.768  34.235  1.00  0.00     0.041 A 
ATOM     93  F   UNL A   1      47.059  24.838  32.557  1.00  0.00    -0.206 F 
ATOM     94  C   UNL A   1      44.587  26.455  34.634  1.00  0.00     0.022 A 
BRANCH  91  95
ATOM     95  S   UNL A   1      42.200  27.809  34.228  1.00  0.00     0.124 S 
ATOM     96  O   UNL A   1      42.744  28.759  35.190  1.00  0.00    -0.237 OA
ATOM     97  O   UNL A   1      41.694  28.382  32.982  1.00  0.00    -0.237 OA
ATOM     98  O   UNL A   1      41.342  26.776  34.812  1.00  0.00    -0.744 OA
ENDBRANCH  91  95
ENDBRANCH  65  88
ENDBRANCH  39  40
ENDBRANCH  31  34
ENDBRANCH  29  30
ENDBRANCH   1  29
TORSDOF 15
ENDMDL
MODEL 2
REMARK VINA RESULT:     -13.4      1.586      2.242
REMARK SMILES Cc1nsc(NC(=O)[C@H]2Cc3[nH]cnc3C[NH2+]2)c1C(=O)NCCCNC(=O)c1ccc(-c2c3nc(c(-c4cc(S(=O)(=O)[O-])ccc4F)c4ccc([nH]4)c(-c4cc(S(=O)(=O)[O-])ccc4F)c4nc(c(-c5cc(S(=O)(=O)[O-])ccc5F)c5ccc2[nH]5)C=C4)C=C3)cc1
REMARK SMILES IDX 23 1 22 2 21 3 19 4 20 5 18 7 1 8 2 9 3 10 4 11 5 12 6 13
REMARK SMILES IDX 7 14 8 16 9 17 10 18 17 19 11 20 16 21 12 24 15 25 13 26
REMARK SMILES IDX 14 28 24 29 25 30 26 31 27 33 28 34 29 35 90 36 30 37 89 38
REMARK SMILES IDX 31 39 32 40 33 41 83 42 34 43 88 44 82 45 84 46 35 47 87 48
REMARK SMILES IDX 81 49 80 50 36 52 68 53 48 54 67 55 49 56 52 57 66 58 85 59
REMARK SMILES IDX 50 60 51 61 65 63 86 64 53 65 37 66 38 67 46 68 39 69 45 70
REMARK SMILES IDX 47 71 44 72 40 73 41 74 42 75 43 76 69 77 70 78 78 79 71 80
REMARK SMILES IDX 77 81 79 82 76 83 72 84 73 85 74 86 75 87 54 88 55 89 63 90
REMARK SMILES IDX 56 91 62 92 64 93 61 94 57 95 58 96 59 97 60 98
REMARK H PARENT 21 6 6 15 17 22 17 23 12 27 25 32 84 51 52 62
REMARK Flexibility Score: inf
ROOT
ATOM      1  C   UNL A   1      33.907  29.428  27.262  1.00  0.00     0.042 C 
ENDROOT
BRANCH   1   2
ATOM      2  C   UNL A   1      33.464  28.131  26.585  1.00  0.00     0.118 C 
BRANCH   2   3
ATOM      3  N   UNL A   1      32.068  27.789  26.742  1.00  0.00    -0.352 N 
ATOM      4  C   UNL A   1      31.302  26.751  26.293  1.00  0.00     0.256 C 
ATOM      5  O   UNL A   1      30.239  26.578  26.895  1.00  0.00    -0.269 OA
ATOM      6  H   UNL A   1      31.566  28.439  27.284  1.00  0.00     0.163 HD
BRANCH   4   7
ATOM      7  C   UNL A   1      31.593  25.980  25.086  1.00  0.00     0.097 A 
ATOM      8  C   UNL A   1      34.031  26.462  24.173  1.00  0.00     0.069 C 
ATOM      9  C   UNL A   1      32.620  25.994  24.065  1.00  0.00     0.066 A 
ATOM     10  N   UNL A   1      32.303  25.366  22.920  1.00  0.00    -0.195 NA
ATOM     11  S   UNL A   1      30.889  24.519  23.174  1.00  0.00    -0.017 S 
ATOM     12  C   UNL A   1      30.907  24.790  24.854  1.00  0.00     0.129 A 
BRANCH  12  13
ATOM     13  N   UNL A   1      30.190  24.015  25.737  1.00  0.00    -0.311 N 
ATOM     14  C   UNL A   1      30.748  23.174  26.678  1.00  0.00     0.283 C 
ATOM     15  H   UNL A   1      29.207  24.062  25.693  1.00  0.00     0.171 HD
ATOM     16  O   UNL A   1      30.073  22.957  27.694  1.00  0.00    -0.268 OA
BRANCH  14  17
ATOM     17  C   UNL A   1      32.110  22.471  26.471  1.00  0.00     0.279 C 
ATOM     18  C   UNL A   1      33.041  22.277  27.705  1.00  0.00     0.131 C 
ATOM     19  N   UNL A   1      31.920  21.120  25.802  1.00  0.00    -0.331 N 
ATOM     20  C   UNL A   1      34.346  21.981  27.059  1.00  0.00     0.050 A 
ATOM     21  C   UNL A   1      33.177  20.342  25.568  1.00  0.00     0.320 C 
ATOM     22  H   UNL A   1      31.472  21.276  24.899  1.00  0.00     0.347 HD
ATOM     23  H   UNL A   1      31.359  20.564  26.446  1.00  0.00     0.347 HD
ATOM     24  N   UNL A   1      35.451  22.772  26.948  1.00  0.00    -0.348 N 
ATOM     25  C   UNL A   1      34.392  21.107  25.996  1.00  0.00     0.116 A 
ATOM     26  C   UNL A   1      36.094  22.371  25.801  1.00  0.00     0.197 A 
ATOM     27  H   UNL A   1      35.732  23.487  27.564  1.00  0.00     0.167 HD
ATOM     28  N   UNL A   1      35.510  21.331  25.239  1.00  0.00    -0.236 NA
ENDBRANCH  14  17
ENDBRANCH  12  13
ENDBRANCH   4   7
ENDBRANCH   2   3
ENDBRANCH   1   2
BRANCH   1  29
ATOM     29  C   UNL A   1      35.398  29.448  27.550  1.00  0.00     0.118 C 
BRANCH  29  30
ATOM     30  N   UNL A   1      35.671  29.753  28.962  1.00  0.00    -0.352 N 
ATOM     31  C   UNL A   1      36.727  29.339  29.750  1.00  0.00     0.251 C 
ATOM     32  H   UNL A   1      35.010  30.331  29.407  1.00  0.00     0.163 HD
ATOM     33  O   UNL A   1      36.664  29.432  30.973  1.00  0.00    -0.269 OA
BRANCH  31  34
ATOM     34  C   UNL A   1      37.902  28.763  29.083  1.00  0.00     0.039 A 
ATOM     35  C   UNL A   1      38.468  29.375  27.966  1.00  0.00     0.014 A 
ATOM     36  C   UNL A   1      38.522  27.684  29.707  1.00  0.00     0.014 A 
ATOM     37  C   UNL A   1      39.738  28.971  27.568  1.00  0.00     0.010 A 
ATOM     38  C   UNL A   1      39.841  27.425  29.432  1.00  0.00     0.010 A 
ATOM     39  C   UNL A   1      40.450  28.033  28.341  1.00  0.00    -0.014 A 
BRANCH  39  40
ATOM     40  C   UNL A   1      41.865  27.775  28.088  1.00  0.00     0.031 A 
ATOM     41  C   UNL A   1      42.141  26.539  27.312  1.00  0.00     0.074 A 
ATOM     42  C   UNL A   1      42.876  28.614  28.401  1.00  0.00     0.049 A 
ATOM     43  N   UNL A   1      42.445  25.384  27.800  1.00  0.00    -0.248 NA
ATOM     44  C   UNL A   1      41.878  26.517  25.866  1.00  0.00     0.031 C 
ATOM     45  C   UNL A   1      42.820  29.983  28.925  1.00  0.00     0.029 A 
ATOM     46  N   UNL A   1      44.213  28.407  28.256  1.00  0.00    -0.354 N 
ATOM     47  C   UNL A   1      42.682  24.554  26.714  1.00  0.00     0.074 A 
ATOM     48  C   UNL A   1      42.107  25.231  25.581  1.00  0.00     0.031 C 
ATOM     49  C   UNL A   1      44.045  30.550  28.865  1.00  0.00     0.029 A 
ATOM     50  C   UNL A   1      45.003  29.527  28.491  1.00  0.00     0.049 A 
ATOM     51  H   UNL A   1      44.592  27.534  28.005  1.00  0.00     0.167 HD
ATOM     52  C   UNL A   1      43.549  23.506  26.822  1.00  0.00     0.034 A 
ATOM     53  C   UNL A   1      46.358  29.608  28.453  1.00  0.00     0.034 A 
ATOM     54  C   UNL A   1      43.873  23.254  28.214  1.00  0.00     0.049 A 
ATOM     55  C   UNL A   1      46.862  28.240  28.721  1.00  0.00     0.074 A 
ATOM     56  C   UNL A   1      43.137  22.939  29.341  1.00  0.00     0.029 A 
ATOM     57  N   UNL A   1      45.078  23.727  28.686  1.00  0.00    -0.354 N 
ATOM     58  N   UNL A   1      46.682  27.628  29.861  1.00  0.00    -0.248 NA
ATOM     59  C   UNL A   1      47.125  27.367  27.589  1.00  0.00     0.031 C 
ATOM     60  C   UNL A   1      43.721  23.719  30.387  1.00  0.00     0.029 A 
ATOM     61  C   UNL A   1      44.833  24.387  29.867  1.00  0.00     0.049 A 
ATOM     62  H   UNL A   1      45.956  23.615  28.256  1.00  0.00     0.167 HD
ATOM     63  C   UNL A   1      46.366  26.321  29.523  1.00  0.00     0.074 A 
ATOM     64  C   UNL A   1      46.753  26.196  28.118  1.00  0.00     0.031 C 
ATOM     65  C   UNL A   1      45.577  25.547  30.328  1.00  0.00     0.034 A 
BRANCH  52  66
ATOM     66  C   UNL A   1      44.402  22.954  25.702  1.00  0.00     0.023 A 
ATOM     67  C   UNL A   1      44.394  21.556  25.524  1.00  0.00     0.031 A 
ATOM     68  C   UNL A   1      45.416  23.651  25.010  1.00  0.00     0.131 A 
ATOM     69  C   UNL A   1      45.414  20.909  24.807  1.00  0.00     0.055 A 
ATOM     70  C   UNL A   1      46.390  23.008  24.240  1.00  0.00     0.041 A 
ATOM     71  F   UNL A   1      45.585  24.974  25.108  1.00  0.00    -0.206 F 
ATOM     72  C   UNL A   1      46.416  21.627  24.163  1.00  0.00     0.022 A 
BRANCH  69  73
ATOM     73  S   UNL A   1      45.507  19.103  24.891  1.00  0.00     0.124 S 
ATOM     74  O   UNL A   1      44.249  18.778  25.555  1.00  0.00    -0.237 OA
ATOM     75  O   UNL A   1      45.605  18.741  23.481  1.00  0.00    -0.237 OA
ATOM     76  O   UNL A   1      46.711  18.863  25.683  1.00  0.00    -0.744 OA
ENDBRANCH  69  73
ENDBRANCH  52  66
BRANCH  53  77
ATOM     77  C   UNL A   1      47.162  30.690  27.823  1.00  0.00     0.023 A 
ATOM     78  C   UNL A   1      46.580  31.760  27.113  1.00  0.00     0.031 A 
ATOM     79  C   UNL A   1      48.534  30.810  28.141  1.00  0.00     0.131 A 
ATOM     80  C   UNL A   1      47.358  32.891  26.765  1.00  0.00     0.055 A 
ATOM     81  C   UNL A   1      49.295  31.930  27.800  1.00  0.00     0.041 A 
ATOM     82  F   UNL A   1      49.162  29.876  28.875  1.00  0.00    -0.206 F 
ATOM     83  C   UNL A   1      48.706  32.981  27.119  1.00  0.00     0.022 A 
BRANCH  80  84
ATOM     84  S   UNL A   1      46.595  34.313  25.916  1.00  0.00     0.124 S 
ATOM     85  O   UNL A   1      47.663  34.752  25.028  1.00  0.00    -0.237 OA
ATOM     86  O   UNL A   1      45.429  33.710  25.282  1.00  0.00    -0.237 OA
ATOM     87  O   UNL A   1      46.286  35.237  27.009  1.00  0.00    -0.744 OA
ENDBRANCH  80  84
ENDBRANCH  53  77
BRANCH  65  88
ATOM     88  C   UNL A   1      45.310  26.019  31.748  1.00  0.00     0.023 A 
ATOM     89  C   UNL A   1      44.128  26.656  32.195  1.00  0.00     0.031 A 
ATOM     90  C   UNL A   1      46.281  25.703  32.716  1.00  0.00     0.131 A 
ATOM     91  C   UNL A   1      43.963  26.958  33.564  1.00  0.00     0.055 A 
ATOM     92  C   UNL A   1      46.104  25.983  34.071  1.00  0.00     0.041 A 
ATOM     93  F   UNL A   1      47.417  25.080  32.362  1.00  0.00    -0.206 F 
ATOM     94  C   UNL A   1      44.946  26.618  34.499  1.00  0.00     0.022 A 
BRANCH  91  95
ATOM     95  S   UNL A   1      42.471  27.824  34.160  1.00  0.00     0.124 S 
ATOM     96  O   UNL A   1      42.968  28.653  35.250  1.00  0.00    -0.237 OA
ATOM     97  O   UNL A   1      42.021  28.538  32.967  1.00  0.00    -0.237 OA
ATOM     98  O   UNL A   1      41.589  26.732  34.580  1.00  0.00    -0.744 OA
ENDBRANCH  91  95
ENDBRANCH  65  88
ENDBRANCH  39  40
ENDBRANCH  31  34
ENDBRANCH  29  30
ENDBRANCH   1  29
TORSDOF 15
ENDMDL
MODEL 3
REMARK VINA RESULT:     -13.3      1.228      1.475
REMARK SMILES Cc1nsc(NC(=O)[C@H]2Cc3[nH]cnc3C[NH2+]2)c1C(=O)NCCCNC(=O)c1ccc(-c2c3nc(c(-c4cc(S(=O)(=O)[O-])ccc4F)c4ccc([nH]4)c(-c4cc(S(=O)(=O)[O-])ccc4F)c4nc(c(-c5cc(S(=O)(=O)[O-])ccc5F)c5ccc2[nH]5)C=C4)C=C3)cc1
REMARK SMILES IDX 23 1 22 2 21 3 19 4 20 5 18 7 1 8 2 9 3 10 4 11 5 12 6 13
REMARK SMILES IDX 7 14 8 16 9 17 10 18 17 19 11 20 16 21 12 24 15 25 13 26
REMARK SMILES IDX 14 28 24 29 25 30 26 31 27 33 28 34 29 35 90 36 30 37 89 38
REMARK SMILES IDX 31 39 32 40 33 41 83 42 34 43 88 44 82 45 84 46 35 47 87 48
REMARK SMILES IDX 81 49 80 50 36 52 68 53 48 54 67 55 49 56 52 57 66 58 85 59
REMARK SMILES IDX 50 60 51 61 65 63 86 64 53 65 37 66 38 67 46 68 39 69 45 70
REMARK SMILES IDX 47 71 44 72 40 73 41 74 42 75 43 76 69 77 70 78 78 79 71 80
REMARK SMILES IDX 77 81 79 82 76 83 72 84 73 85 74 86 75 87 54 88 55 89 63 90
REMARK SMILES IDX 56 91 62 92 64 93 61 94 57 95 58 96 59 97 60 98
REMARK H PARENT 21 6 6 15 17 22 17 23 12 27 25 32 84 51 52 62
REMARK Flexibility Score: inf
ROOT
ATOM      1  C   UNL A   1      33.815  28.891  27.355  1.00  0.00     0.042 C 
ENDROOT
BRANCH   1   2
ATOM      2  C   UNL A   1      33.154  29.516  26.127  1.00  0.00     0.118 C 
BRANCH   2   3
ATOM      3  N   UNL A   1      33.740  29.165  24.853  1.00  0.00    -0.352 N 
ATOM      4  C   UNL A   1      33.213  28.881  23.626  1.00  0.00     0.256 C 
ATOM      5  O   UNL A   1      33.999  28.967  22.678  1.00  0.00    -0.269 OA
ATOM      6  H   UNL A   1      34.723  29.120  24.876  1.00  0.00     0.163 HD
BRANCH   4   7
ATOM      7  C   UNL A   1      31.869  28.347  23.415  1.00  0.00     0.097 A 
ATOM      8  C   UNL A   1      30.002  30.165  23.878  1.00  0.00     0.069 C 
ATOM      9  C   UNL A   1      30.519  28.777  23.715  1.00  0.00     0.066 A 
ATOM     10  N   UNL A   1      29.588  27.808  23.695  1.00  0.00    -0.195 NA
ATOM     11  S   UNL A   1      30.283  26.442  23.040  1.00  0.00    -0.017 S 
ATOM     12  C   UNL A   1      31.692  27.264  22.556  1.00  0.00     0.129 A 
BRANCH  12  13
ATOM     13  N   UNL A   1      32.542  26.773  21.591  1.00  0.00    -0.311 N 
ATOM     14  C   UNL A   1      32.973  25.465  21.516  1.00  0.00     0.283 C 
ATOM     15  H   UNL A   1      32.866  27.401  20.905  1.00  0.00     0.171 HD
ATOM     16  O   UNL A   1      33.276  25.046  20.389  1.00  0.00    -0.268 OA
BRANCH  14  17
ATOM     17  C   UNL A   1      33.148  24.567  22.763  1.00  0.00     0.279 C 
ATOM     18  C   UNL A   1      33.732  23.136  22.572  1.00  0.00     0.131 C 
ATOM     19  N   UNL A   1      33.970  25.278  23.825  1.00  0.00    -0.331 N 
ATOM     20  C   UNL A   1      33.358  22.479  23.852  1.00  0.00     0.050 A 
ATOM     21  C   UNL A   1      34.217  24.491  25.074  1.00  0.00     0.320 C 
ATOM     22  H   UNL A   1      33.479  26.134  24.083  1.00  0.00     0.347 HD
ATOM     23  H   UNL A   1      34.886  25.442  23.409  1.00  0.00     0.347 HD
ATOM     24  N   UNL A   1      32.398  21.540  24.089  1.00  0.00    -0.348 N 
ATOM     25  C   UNL A   1      33.529  23.160  25.037  1.00  0.00     0.116 A 
ATOM     26  C   UNL A   1      32.001  21.720  25.393  1.00  0.00     0.197 A 
ATOM     27  H   UNL A   1      32.057  20.869  23.455  1.00  0.00     0.167 HD
ATOM     28  N   UNL A   1      32.708  22.650  26.005  1.00  0.00    -0.236 NA
ENDBRANCH  14  17
ENDBRANCH  12  13
ENDBRANCH   4   7
ENDBRANCH   2   3
ENDBRANCH   1   2
BRANCH   1  29
ATOM     29  C   UNL A   1      35.274  29.290  27.491  1.00  0.00     0.118 C 
BRANCH  29  30
ATOM     30  N   UNL A   1      35.576  29.782  28.842  1.00  0.00    -0.352 N 
ATOM     31  C   UNL A   1      36.663  29.497  29.646  1.00  0.00     0.251 C 
ATOM     32  H   UNL A   1      34.914  30.399  29.228  1.00  0.00     0.163 HD
ATOM     33  O   UNL A   1      36.629  29.747  30.848  1.00  0.00    -0.269 OA
BRANCH  31  34
ATOM     34  C   UNL A   1      37.834  28.863  29.026  1.00  0.00     0.039 A 
ATOM     35  C   UNL A   1      38.429  29.408  27.889  1.00  0.00     0.014 A 
ATOM     36  C   UNL A   1      38.420  27.802  29.710  1.00  0.00     0.014 A 
ATOM     37  C   UNL A   1      39.695  28.957  27.531  1.00  0.00     0.010 A 
ATOM     38  C   UNL A   1      39.737  27.501  29.469  1.00  0.00     0.010 A 
ATOM     39  C   UNL A   1      40.374  28.042  28.360  1.00  0.00    -0.014 A 
BRANCH  39  40
ATOM     40  C   UNL A   1      41.786  27.741  28.140  1.00  0.00     0.031 A 
ATOM     41  C   UNL A   1      42.043  26.527  27.325  1.00  0.00     0.074 A 
ATOM     42  C   UNL A   1      42.816  28.528  28.519  1.00  0.00     0.049 A 
ATOM     43  N   UNL A   1      42.288  25.343  27.775  1.00  0.00    -0.248 NA
ATOM     44  C   UNL A   1      41.827  26.572  25.872  1.00  0.00     0.031 C 
ATOM     45  C   UNL A   1      42.793  29.876  29.096  1.00  0.00     0.029 A 
ATOM     46  N   UNL A   1      44.150  28.276  28.408  1.00  0.00    -0.354 N 
ATOM     47  C   UNL A   1      42.531  24.547  26.664  1.00  0.00     0.074 A 
ATOM     48  C   UNL A   1      42.018  25.290  25.542  1.00  0.00     0.031 C 
ATOM     49  C   UNL A   1      44.040  30.399  29.097  1.00  0.00     0.029 A 
ATOM     50  C   UNL A   1      44.971  29.356  28.713  1.00  0.00     0.049 A 
ATOM     51  H   UNL A   1      44.504  27.401  28.133  1.00  0.00     0.167 HD
ATOM     52  C   UNL A   1      43.354  23.465  26.757  1.00  0.00     0.034 A 
ATOM     53  C   UNL A   1      46.329  29.388  28.720  1.00  0.00     0.034 A 
ATOM     54  C   UNL A   1      43.623  23.146  28.147  1.00  0.00     0.049 A 
ATOM     55  C   UNL A   1      46.774  27.992  28.949  1.00  0.00     0.074 A 
ATOM     56  C   UNL A   1      42.840  22.815  29.237  1.00  0.00     0.029 A 
ATOM     57  N   UNL A   1      44.828  23.555  28.676  1.00  0.00    -0.354 N 
ATOM     58  N   UNL A   1      46.534  27.343  30.057  1.00  0.00    -0.248 NA
ATOM     59  C   UNL A   1      47.042  27.154  27.791  1.00  0.00     0.031 C 
ATOM     60  C   UNL A   1      43.416  23.531  30.331  1.00  0.00     0.029 A 
ATOM     61  C   UNL A   1      44.569  24.176  29.874  1.00  0.00     0.049 A 
ATOM     62  H   UNL A   1      45.716  23.426  28.269  1.00  0.00     0.167 HD
ATOM     63  C   UNL A   1      46.182  26.063  29.657  1.00  0.00     0.074 A 
ATOM     64  C   UNL A   1      46.611  25.979  28.261  1.00  0.00     0.031 C 
ATOM     65  C   UNL A   1      45.339  25.289  30.405  1.00  0.00     0.034 A 
BRANCH  52  66
ATOM     66  C   UNL A   1      44.223  22.925  25.642  1.00  0.00     0.023 A 
ATOM     67  C   UNL A   1      44.161  21.538  25.400  1.00  0.00     0.031 A 
ATOM     68  C   UNL A   1      45.292  23.605  25.020  1.00  0.00     0.131 A 
ATOM     69  C   UNL A   1      45.177  20.878  24.689  1.00  0.00     0.055 A 
ATOM     70  C   UNL A   1      46.265  22.954  24.255  1.00  0.00     0.041 A 
ATOM     71  F   UNL A   1      45.515  24.914  25.185  1.00  0.00    -0.206 F 
ATOM     72  C   UNL A   1      46.233  21.578  24.115  1.00  0.00     0.022 A 
BRANCH  69  73
ATOM     73  S   UNL A   1      45.188  19.068  24.693  1.00  0.00     0.124 S 
ATOM     74  O   UNL A   1      45.141  18.773  23.265  1.00  0.00    -0.237 OA
ATOM     75  O   UNL A   1      46.447  18.776  25.372  1.00  0.00    -0.237 OA
ATOM     76  O   UNL A   1      43.981  18.724  25.442  1.00  0.00    -0.744 OA
ENDBRANCH  69  73
ENDBRANCH  52  66
BRANCH  53  77
ATOM     77  C   UNL A   1      47.192  30.462  28.160  1.00  0.00     0.023 A 
ATOM     78  C   UNL A   1      46.687  31.512  27.366  1.00  0.00     0.031 A 
ATOM     79  C   UNL A   1      48.520  30.600  28.627  1.00  0.00     0.131 A 
ATOM     80  C   UNL A   1      47.493  32.641  27.082  1.00  0.00     0.055 A 
ATOM     81  C   UNL A   1      49.308  31.718  28.348  1.00  0.00     0.041 A 
ATOM     82  F   UNL A   1      49.067  29.687  29.447  1.00  0.00    -0.206 F 
ATOM     83  C   UNL A   1      48.792  32.750  27.583  1.00  0.00     0.022 A 
BRANCH  80  84
ATOM     84  S   UNL A   1      46.822  34.039  26.122  1.00  0.00     0.124 S 
ATOM     85  O   UNL A   1      45.654  33.444  25.484  1.00  0.00    -0.237 OA
ATOM     86  O   UNL A   1      46.561  35.032  27.157  1.00  0.00    -0.237 OA
ATOM     87  O   UNL A   1      47.914  34.381  25.209  1.00  0.00    -0.744 OA
ENDBRANCH  80  84
ENDBRANCH  53  77
BRANCH  65  88
ATOM     88  C   UNL A   1      45.043  25.714  31.833  1.00  0.00     0.023 A 
ATOM     89  C   UNL A   1      45.842  25.417  32.962  1.00  0.00     0.031 A 
ATOM     90  C   UNL A   1      43.935  26.560  32.028  1.00  0.00     0.131 A 
ATOM     91  C   UNL A   1      45.510  25.955  34.224  1.00  0.00     0.055 A 
ATOM     92  C   UNL A   1      43.623  27.107  33.273  1.00  0.00     0.041 A 
ATOM     93  F   UNL A   1      43.147  26.897  30.994  1.00  0.00    -0.206 F 
ATOM     94  C   UNL A   1      44.406  26.801  34.378  1.00  0.00     0.022 A 
BRANCH  91  95
ATOM     95  S   UNL A   1      46.494  25.547  35.706  1.00  0.00     0.124 S 
ATOM     96  O   UNL A   1      47.705  24.948  35.160  1.00  0.00    -0.237 OA
ATOM     97  O   UNL A   1      46.659  26.851  36.346  1.00  0.00    -0.237 OA
ATOM     98  O   UNL A   1      45.634  24.617  36.441  1.00  0.00    -0.744 OA
ENDBRANCH  91  95
ENDBRANCH  65  88
ENDBRANCH  39  40
ENDBRANCH  31  34
ENDBRANCH  29  30
ENDBRANCH   1  29
TORSDOF 15
ENDMDL
