MODEL 1
REMARK VINA RESULT:     -10.7      0.000      0.000
REMARK SMILES O=C(CSc1nc(-c2cccc(F)c2)n[nH]1)NCCCNC(=O)c1ccc(-c2c3nc(c(-c4cc(S(=O)(=O)[O-])ccc4F)c4ccc([nH]4)c(-c4cc(S(=O)(=O)[O-])ccc4F)c4nc(c(-c5cc(S(=O)(=O)[O-])ccc5F)c5ccc2[nH]5)C=C4)C=C3)cc1
REMARK SMILES IDX 19 1 18 2 17 3 1 4 2 5 3 7 4 8 5 9 6 10 16 11 7 12 15 13
REMARK SMILES IDX 8 15 9 16 14 17 10 18 12 19 11 20 13 21 20 22 21 23 22 24
REMARK SMILES IDX 23 26 24 27 25 28 86 29 26 30 85 31 27 32 28 33 29 34 79 35
REMARK SMILES IDX 30 36 84 37 78 38 80 39 31 40 83 41 77 42 76 43 32 45 64 46
REMARK SMILES IDX 44 47 63 48 45 49 48 50 62 51 81 52 46 53 47 54 61 56 82 57
REMARK SMILES IDX 49 58 33 59 34 60 42 61 35 62 41 63 43 64 40 65 36 66 37 67
REMARK SMILES IDX 38 68 39 69 65 70 66 71 74 72 67 73 73 74 75 75 72 76 68 77
REMARK SMILES IDX 69 78 70 79 71 80 50 81 51 82 59 83 52 84 58 85 60 86 57 87
REMARK SMILES IDX 53 88 54 89 55 90 56 91
REMARK H PARENT 17 6 16 14 21 25 80 44 48 55
REMARK Flexibility Score: inf
ROOT
ATOM      1  C   UNL A   1      35.454  33.629  28.402  1.00  0.00     0.042 C 
ENDROOT
BRANCH   1   2
ATOM      2  C   UNL A   1      34.789  34.976  28.131  1.00  0.00     0.117 C 
BRANCH   2   3
ATOM      3  N   UNL A   1      34.454  35.690  29.350  1.00  0.00    -0.355 N 
ATOM      4  O   UNL A   1      32.234  36.040  28.848  1.00  0.00    -0.274 OA
ATOM      5  C   UNL A   1      33.186  36.154  29.616  1.00  0.00     0.230 C 
ATOM      6  H   UNL A   1      35.163  35.849  30.013  1.00  0.00     0.163 HD
BRANCH   5   7
ATOM      7  C   UNL A   1      33.030  36.882  30.938  1.00  0.00     0.178 C 
BRANCH   7   8
ATOM      8  S   UNL A   1      32.422  35.806  32.264  1.00  0.00    -0.077 SA
BRANCH   8   9
ATOM      9  C   UNL A   1      33.854  35.018  32.803  1.00  0.00     0.184 A 
ATOM     10  N   UNL A   1      35.083  35.381  32.538  1.00  0.00    -0.201 NA
ATOM     11  N   UNL A   1      33.860  33.924  33.608  1.00  0.00    -0.254 N 
ATOM     12  C   UNL A   1      35.836  34.410  33.161  1.00  0.00     0.182 A 
ATOM     13  N   UNL A   1      35.115  33.503  33.842  1.00  0.00    -0.153 NA
ATOM     14  H   UNL A   1      33.052  33.495  33.971  1.00  0.00     0.192 HD
BRANCH  12  15
ATOM     15  C   UNL A   1      37.285  34.377  33.056  1.00  0.00     0.024 A 
ATOM     16  C   UNL A   1      38.076  34.277  34.210  1.00  0.00     0.012 A 
ATOM     17  C   UNL A   1      37.906  34.472  31.804  1.00  0.00     0.051 A 
ATOM     18  C   UNL A   1      39.470  34.265  34.116  1.00  0.00     0.004 A 
ATOM     19  C   UNL A   1      39.293  34.475  31.725  1.00  0.00     0.123 A 
ATOM     20  C   UNL A   1      40.081  34.370  32.867  1.00  0.00     0.039 A 
ATOM     21  F   UNL A   1      39.886  34.588  30.528  1.00  0.00    -0.207 F 
ENDBRANCH  12  15
ENDBRANCH   8   9
ENDBRANCH   7   8
ENDBRANCH   5   7
ENDBRANCH   2   3
ENDBRANCH   1   2
BRANCH   1  22
ATOM     22  C   UNL A   1      34.609  32.636  29.199  1.00  0.00     0.118 C 
BRANCH  22  23
ATOM     23  N   UNL A   1      34.008  31.600  28.373  1.00  0.00    -0.352 N 
ATOM     24  C   UNL A   1      34.532  30.429  27.886  1.00  0.00     0.251 C 
ATOM     25  H   UNL A   1      33.071  31.767  28.122  1.00  0.00     0.163 HD
ATOM     26  O   UNL A   1      33.858  29.772  27.088  1.00  0.00    -0.269 OA
BRANCH  24  27
ATOM     27  C   UNL A   1      35.882  29.953  28.271  1.00  0.00     0.039 A 
ATOM     28  C   UNL A   1      36.925  30.109  27.351  1.00  0.00     0.014 A 
ATOM     29  C   UNL A   1      36.131  29.315  29.490  1.00  0.00     0.014 A 
ATOM     30  C   UNL A   1      38.218  29.684  27.674  1.00  0.00     0.010 A 
ATOM     31  C   UNL A   1      37.434  28.948  29.837  1.00  0.00     0.010 A 
ATOM     32  C   UNL A   1      38.492  29.129  28.935  1.00  0.00    -0.014 A 
BRANCH  32  33
ATOM     33  C   UNL A   1      39.881  28.747  29.313  1.00  0.00     0.031 A 
ATOM     34  C   UNL A   1      40.619  29.503  30.387  1.00  0.00     0.074 A 
ATOM     35  C   UNL A   1      40.491  27.731  28.670  1.00  0.00     0.049 A 
ATOM     36  N   UNL A   1      41.846  29.340  30.814  1.00  0.00    -0.248 NA
ATOM     37  C   UNL A   1      39.893  30.594  31.051  1.00  0.00     0.031 C 
ATOM     38  C   UNL A   1      39.894  26.934  27.595  1.00  0.00     0.029 A 
ATOM     39  N   UNL A   1      41.743  27.188  28.826  1.00  0.00    -0.354 N 
ATOM     40  C   UNL A   1      42.040  30.311  31.790  1.00  0.00     0.074 A 
ATOM     41  C   UNL A   1      40.822  31.089  31.857  1.00  0.00     0.031 C 
ATOM     42  C   UNL A   1      40.763  25.983  27.218  1.00  0.00     0.029 A 
ATOM     43  C   UNL A   1      41.996  26.128  27.988  1.00  0.00     0.049 A 
ATOM     44  H   UNL A   1      42.399  27.528  29.478  1.00  0.00     0.167 HD
ATOM     45  C   UNL A   1      43.128  30.521  32.572  1.00  0.00     0.034 A 
ATOM     46  C   UNL A   1      43.095  25.359  27.846  1.00  0.00     0.034 A 
ATOM     47  C   UNL A   1      44.327  29.723  32.522  1.00  0.00     0.049 A 
ATOM     48  C   UNL A   1      44.298  25.627  28.707  1.00  0.00     0.074 A 
ATOM     49  C   UNL A   1      45.460  29.825  33.313  1.00  0.00     0.029 A 
ATOM     50  N   UNL A   1      44.555  28.681  31.635  1.00  0.00    -0.354 N 
ATOM     51  N   UNL A   1      44.460  26.547  29.628  1.00  0.00    -0.248 NA
ATOM     52  C   UNL A   1      45.467  24.758  28.512  1.00  0.00     0.031 C 
ATOM     53  C   UNL A   1      46.392  28.884  32.868  1.00  0.00     0.029 A 
ATOM     54  C   UNL A   1      45.818  28.150  31.843  1.00  0.00     0.049 A 
ATOM     55  H   UNL A   1      43.913  28.364  30.960  1.00  0.00     0.167 HD
ATOM     56  C   UNL A   1      45.742  26.355  30.135  1.00  0.00     0.074 A 
ATOM     57  C   UNL A   1      46.311  25.232  29.419  1.00  0.00     0.031 C 
ATOM     58  C   UNL A   1      46.383  27.042  31.111  1.00  0.00     0.034 A 
BRANCH  45  59
ATOM     59  C   UNL A   1      43.078  31.668  33.549  1.00  0.00     0.023 A 
ATOM     60  C   UNL A   1      42.657  31.484  34.876  1.00  0.00     0.031 A 
ATOM     61  C   UNL A   1      43.485  32.954  33.154  1.00  0.00     0.131 A 
ATOM     62  C   UNL A   1      42.610  32.579  35.751  1.00  0.00     0.055 A 
ATOM     63  C   UNL A   1      43.497  34.026  34.047  1.00  0.00     0.041 A 
ATOM     64  F   UNL A   1      43.882  33.186  31.892  1.00  0.00    -0.206 F 
ATOM     65  C   UNL A   1      43.051  33.844  35.352  1.00  0.00     0.022 A 
BRANCH  62  66
ATOM     66  S   UNL A   1      41.892  32.347  37.399  1.00  0.00     0.124 S 
ATOM     67  O   UNL A   1      40.469  32.538  37.127  1.00  0.00    -0.237 OA
ATOM     68  O   UNL A   1      42.301  30.988  37.736  1.00  0.00    -0.237 OA
ATOM     69  O   UNL A   1      42.515  33.401  38.196  1.00  0.00    -0.744 OA
ENDBRANCH  62  66
ENDBRANCH  45  59
BRANCH  46  70
ATOM     70  C   UNL A   1      43.106  24.263  26.838  1.00  0.00     0.023 A 
ATOM     71  C   UNL A   1      42.441  23.052  27.081  1.00  0.00     0.031 A 
ATOM     72  C   UNL A   1      43.772  24.421  25.610  1.00  0.00     0.131 A 
ATOM     73  C   UNL A   1      42.472  22.034  26.115  1.00  0.00     0.055 A 
ATOM     74  C   UNL A   1      43.769  23.420  24.637  1.00  0.00     0.041 A 
ATOM     75  F   UNL A   1      44.413  25.567  25.329  1.00  0.00    -0.206 F 
ATOM     76  C   UNL A   1      43.120  22.216  24.891  1.00  0.00     0.022 A 
BRANCH  73  77
ATOM     77  S   UNL A   1      41.665  20.453  26.488  1.00  0.00     0.124 S 
ATOM     78  O   UNL A   1      42.251  20.119  27.780  1.00  0.00    -0.237 OA
ATOM     79  O   UNL A   1      40.254  20.825  26.498  1.00  0.00    -0.237 OA
ATOM     80  O   UNL A   1      42.070  19.595  25.376  1.00  0.00    -0.744 OA
ENDBRANCH  73  77
ENDBRANCH  46  70
BRANCH  58  81
ATOM     81  C   UNL A   1      47.767  26.590  31.489  1.00  0.00     0.023 A 
ATOM     82  C   UNL A   1      48.908  27.118  30.864  1.00  0.00     0.031 A 
ATOM     83  C   UNL A   1      47.945  25.665  32.533  1.00  0.00     0.131 A 
ATOM     84  C   UNL A   1      50.183  26.700  31.276  1.00  0.00     0.055 A 
ATOM     85  C   UNL A   1      49.215  25.284  32.967  1.00  0.00     0.041 A 
ATOM     86  F   UNL A   1      46.884  25.137  33.165  1.00  0.00    -0.206 F 
ATOM     87  C   UNL A   1      50.342  25.801  32.335  1.00  0.00     0.022 A 
BRANCH  84  88
ATOM     88  S   UNL A   1      51.639  27.341  30.404  1.00  0.00     0.124 S 
ATOM     89  O   UNL A   1      52.574  27.562  31.501  1.00  0.00    -0.237 OA
ATOM     90  O   UNL A   1      51.970  26.250  29.494  1.00  0.00    -0.237 OA
ATOM     91  O   UNL A   1      51.142  28.554  29.756  1.00  0.00    -0.744 OA
ENDBRANCH  84  88
ENDBRANCH  58  81
ENDBRANCH  32  33
ENDBRANCH  24  27
ENDBRANCH  22  23
ENDBRANCH   1  22
TORSDOF 16
ENDMDL
MODEL 2
REMARK VINA RESULT:     -10.5      2.409      2.824
REMARK SMILES O=C(CSc1nc(-c2cccc(F)c2)n[nH]1)NCCCNC(=O)c1ccc(-c2c3nc(c(-c4cc(S(=O)(=O)[O-])ccc4F)c4ccc([nH]4)c(-c4cc(S(=O)(=O)[O-])ccc4F)c4nc(c(-c5cc(S(=O)(=O)[O-])ccc5F)c5ccc2[nH]5)C=C4)C=C3)cc1
REMARK SMILES IDX 19 1 18 2 17 3 1 4 2 5 3 7 4 8 5 9 6 10 16 11 7 12 15 13
REMARK SMILES IDX 8 15 9 16 14 17 10 18 12 19 11 20 13 21 20 22 21 23 22 24
REMARK SMILES IDX 23 26 24 27 25 28 86 29 26 30 85 31 27 32 28 33 29 34 79 35
REMARK SMILES IDX 30 36 84 37 78 38 80 39 31 40 83 41 77 42 76 43 32 45 64 46
REMARK SMILES IDX 44 47 63 48 45 49 48 50 62 51 81 52 46 53 47 54 61 56 82 57
REMARK SMILES IDX 49 58 33 59 34 60 42 61 35 62 41 63 43 64 40 65 36 66 37 67
REMARK SMILES IDX 38 68 39 69 65 70 66 71 74 72 67 73 73 74 75 75 72 76 68 77
REMARK SMILES IDX 69 78 70 79 71 80 50 81 51 82 59 83 52 84 58 85 60 86 57 87
REMARK SMILES IDX 53 88 54 89 55 90 56 91
REMARK H PARENT 17 6 16 14 21 25 80 44 48 55
REMARK Flexibility Score: inf
ROOT
ATOM      1  C   UNL A   1      34.390  34.843  28.129  1.00  0.00     0.042 C 
ENDROOT
BRANCH   1   2
ATOM      2  C   UNL A   1      33.842  36.011  28.944  1.00  0.00     0.117 C 
BRANCH   2   3
ATOM      3  N   UNL A   1      34.038  35.838  30.373  1.00  0.00    -0.355 N 
ATOM      4  O   UNL A   1      32.058  36.810  31.032  1.00  0.00    -0.274 OA
ATOM      5  C   UNL A   1      33.112  36.242  31.307  1.00  0.00     0.230 C 
ATOM      6  H   UNL A   1      34.869  35.413  30.686  1.00  0.00     0.163 HD
BRANCH   5   7
ATOM      7  C   UNL A   1      33.497  35.983  32.751  1.00  0.00     0.178 C 
BRANCH   7   8
ATOM      8  S   UNL A   1      34.039  34.277  33.036  1.00  0.00    -0.077 SA
BRANCH   8   9
ATOM      9  C   UNL A   1      35.753  34.423  33.087  1.00  0.00     0.184 A 
ATOM     10  N   UNL A   1      36.556  34.472  32.055  1.00  0.00    -0.201 NA
ATOM     11  N   UNL A   1      36.470  34.538  34.235  1.00  0.00    -0.254 N 
ATOM     12  C   UNL A   1      37.803  34.547  32.633  1.00  0.00     0.182 A 
ATOM     13  N   UNL A   1      37.787  34.604  33.977  1.00  0.00    -0.153 NA
ATOM     14  H   UNL A   1      36.077  34.567  35.137  1.00  0.00     0.192 HD
BRANCH  12  15
ATOM     15  C   UNL A   1      39.020  34.541  31.838  1.00  0.00     0.024 A 
ATOM     16  C   UNL A   1      40.272  34.425  32.462  1.00  0.00     0.012 A 
ATOM     17  C   UNL A   1      38.956  34.676  30.447  1.00  0.00     0.051 A 
ATOM     18  C   UNL A   1      41.446  34.438  31.704  1.00  0.00     0.004 A 
ATOM     19  C   UNL A   1      40.131  34.705  29.705  1.00  0.00     0.123 A 
ATOM     20  C   UNL A   1      41.374  34.584  30.319  1.00  0.00     0.039 A 
ATOM     21  F   UNL A   1      40.069  34.857  28.375  1.00  0.00    -0.207 F 
ENDBRANCH  12  15
ENDBRANCH   8   9
ENDBRANCH   7   8
ENDBRANCH   5   7
ENDBRANCH   2   3
ENDBRANCH   1   2
BRANCH   1  22
ATOM     22  C   UNL A   1      34.378  33.491  28.841  1.00  0.00     0.118 C 
BRANCH  22  23
ATOM     23  N   UNL A   1      33.848  32.414  28.020  1.00  0.00    -0.352 N 
ATOM     24  C   UNL A   1      34.393  31.203  27.672  1.00  0.00     0.251 C 
ATOM     25  H   UNL A   1      32.949  32.581  27.653  1.00  0.00     0.163 HD
ATOM     26  O   UNL A   1      33.796  30.508  26.846  1.00  0.00    -0.269 OA
BRANCH  24  27
ATOM     27  C   UNL A   1      35.677  30.729  28.238  1.00  0.00     0.039 A 
ATOM     28  C   UNL A   1      35.641  29.706  29.194  1.00  0.00     0.014 A 
ATOM     29  C   UNL A   1      36.905  31.299  27.890  1.00  0.00     0.014 A 
ATOM     30  C   UNL A   1      36.829  29.219  29.749  1.00  0.00     0.010 A 
ATOM     31  C   UNL A   1      38.095  30.769  28.396  1.00  0.00     0.010 A 
ATOM     32  C   UNL A   1      38.071  29.723  29.330  1.00  0.00    -0.014 A 
BRANCH  32  33
ATOM     33  C   UNL A   1      39.341  29.154  29.860  1.00  0.00     0.031 A 
ATOM     34  C   UNL A   1      39.980  29.725  31.099  1.00  0.00     0.074 A 
ATOM     35  C   UNL A   1      39.938  28.135  29.209  1.00  0.00     0.049 A 
ATOM     36  N   UNL A   1      41.105  29.388  31.677  1.00  0.00    -0.248 NA
ATOM     37  C   UNL A   1      39.273  30.830  31.762  1.00  0.00     0.031 C 
ATOM     38  C   UNL A   1      39.435  27.508  27.984  1.00  0.00     0.029 A 
ATOM     39  N   UNL A   1      41.092  27.443  29.484  1.00  0.00    -0.354 N 
ATOM     40  C   UNL A   1      41.245  30.242  32.765  1.00  0.00     0.074 A 
ATOM     41  C   UNL A   1      40.114  31.144  32.738  1.00  0.00     0.031 C 
ATOM     42  C   UNL A   1      40.252  26.500  27.638  1.00  0.00     0.029 A 
ATOM     43  C   UNL A   1      41.363  26.438  28.586  1.00  0.00     0.049 A 
ATOM     44  H   UNL A   1      41.672  27.648  30.253  1.00  0.00     0.167 HD
ATOM     45  C   UNL A   1      42.217  30.259  33.710  1.00  0.00     0.034 A 
ATOM     46  C   UNL A   1      42.388  25.564  28.522  1.00  0.00     0.034 A 
ATOM     47  C   UNL A   1      43.325  29.338  33.749  1.00  0.00     0.049 A 
ATOM     48  C   UNL A   1      43.468  25.619  29.568  1.00  0.00     0.074 A 
ATOM     49  C   UNL A   1      44.329  29.242  34.698  1.00  0.00     0.029 A 
ATOM     50  N   UNL A   1      43.580  28.358  32.801  1.00  0.00    -0.354 N 
ATOM     51  N   UNL A   1      43.579  26.431  30.592  1.00  0.00    -0.248 NA
ATOM     52  C   UNL A   1      44.561  24.643  29.451  1.00  0.00     0.031 C 
ATOM     53  C   UNL A   1      45.219  28.243  34.295  1.00  0.00     0.029 A 
ATOM     54  C   UNL A   1      44.738  27.671  33.129  1.00  0.00     0.049 A 
ATOM     55  H   UNL A   1      43.019  28.175  32.012  1.00  0.00     0.167 HD
ATOM     56  C   UNL A   1      44.743  26.051  31.253  1.00  0.00     0.074 A 
ATOM     57  C   UNL A   1      45.300  24.938  30.513  1.00  0.00     0.031 C 
ATOM     58  C   UNL A   1      45.294  26.574  32.375  1.00  0.00     0.034 A 
BRANCH  45  59
ATOM     59  C   UNL A   1      42.133  31.315  34.782  1.00  0.00     0.023 A 
ATOM     60  C   UNL A   1      42.796  32.547  34.653  1.00  0.00     0.031 A 
ATOM     61  C   UNL A   1      41.356  31.097  35.933  1.00  0.00     0.131 A 
ATOM     62  C   UNL A   1      42.705  33.498  35.679  1.00  0.00     0.055 A 
ATOM     63  C   UNL A   1      41.218  32.073  36.921  1.00  0.00     0.041 A 
ATOM     64  F   UNL A   1      40.714  29.931  36.113  1.00  0.00    -0.206 F 
ATOM     65  C   UNL A   1      41.901  33.280  36.801  1.00  0.00     0.022 A 
BRANCH  62  66
ATOM     66  S   UNL A   1      43.716  34.999  35.566  1.00  0.00     0.124 S 
ATOM     67  O   UNL A   1      43.692  35.472  36.948  1.00  0.00    -0.237 OA
ATOM     68  O   UNL A   1      44.994  34.486  35.088  1.00  0.00    -0.237 OA
ATOM     69  O   UNL A   1      42.984  35.833  34.615  1.00  0.00    -0.744 OA
ENDBRANCH  62  66
ENDBRANCH  45  59
BRANCH  46  70
ATOM     70  C   UNL A   1      42.443  24.566  27.419  1.00  0.00     0.023 A 
ATOM     71  C   UNL A   1      41.740  23.356  27.505  1.00  0.00     0.031 A 
ATOM     72  C   UNL A   1      43.191  24.819  26.255  1.00  0.00     0.131 A 
ATOM     73  C   UNL A   1      41.814  22.431  26.452  1.00  0.00     0.055 A 
ATOM     74  C   UNL A   1      43.231  23.912  25.195  1.00  0.00     0.041 A 
ATOM     75  F   UNL A   1      43.871  25.969  26.123  1.00  0.00    -0.206 F 
ATOM     76  C   UNL A   1      42.544  22.707  25.293  1.00  0.00     0.022 A 
BRANCH  73  77
ATOM     77  S   UNL A   1      40.952  20.843  26.624  1.00  0.00     0.124 S 
ATOM     78  O   UNL A   1      41.908  19.921  26.021  1.00  0.00    -0.237 OA
ATOM     79  O   UNL A   1      40.784  20.741  28.070  1.00  0.00    -0.237 OA
ATOM     80  O   UNL A   1      39.717  21.044  25.869  1.00  0.00    -0.744 OA
ENDBRANCH  73  77
ENDBRANCH  46  70
BRANCH  58  81
ATOM     81  C   UNL A   1      46.553  25.936  32.897  1.00  0.00     0.023 A 
ATOM     82  C   UNL A   1      46.511  24.835  33.767  1.00  0.00     0.031 A 
ATOM     83  C   UNL A   1      47.808  26.400  32.465  1.00  0.00     0.131 A 
ATOM     84  C   UNL A   1      47.709  24.243  34.196  1.00  0.00     0.055 A 
ATOM     85  C   UNL A   1      48.994  25.782  32.862  1.00  0.00     0.041 A 
ATOM     86  F   UNL A   1      47.897  27.446  31.628  1.00  0.00    -0.206 F 
ATOM     87  C   UNL A   1      48.948  24.698  33.734  1.00  0.00     0.022 A 
BRANCH  84  88
ATOM     88  S   UNL A   1      47.632  22.869  35.378  1.00  0.00     0.124 S 
ATOM     89  O   UNL A   1      46.220  22.506  35.325  1.00  0.00    -0.237 OA
ATOM     90  O   UNL A   1      48.560  21.902  34.802  1.00  0.00    -0.237 OA
ATOM     91  O   UNL A   1      48.071  23.473  36.634  1.00  0.00    -0.744 OA
ENDBRANCH  84  88
ENDBRANCH  58  81
ENDBRANCH  32  33
ENDBRANCH  24  27
ENDBRANCH  22  23
ENDBRANCH   1  22
TORSDOF 16
ENDMDL
MODEL 3
REMARK VINA RESULT:     -10.4      6.204     10.164
REMARK SMILES O=C(CSc1nc(-c2cccc(F)c2)n[nH]1)NCCCNC(=O)c1ccc(-c2c3nc(c(-c4cc(S(=O)(=O)[O-])ccc4F)c4ccc([nH]4)c(-c4cc(S(=O)(=O)[O-])ccc4F)c4nc(c(-c5cc(S(=O)(=O)[O-])ccc5F)c5ccc2[nH]5)C=C4)C=C3)cc1
REMARK SMILES IDX 19 1 18 2 17 3 1 4 2 5 3 7 4 8 5 9 6 10 16 11 7 12 15 13
REMARK SMILES IDX 8 15 9 16 14 17 10 18 12 19 11 20 13 21 20 22 21 23 22 24
REMARK SMILES IDX 23 26 24 27 25 28 86 29 26 30 85 31 27 32 28 33 29 34 79 35
REMARK SMILES IDX 30 36 84 37 78 38 80 39 31 40 83 41 77 42 76 43 32 45 64 46
REMARK SMILES IDX 44 47 63 48 45 49 48 50 62 51 81 52 46 53 47 54 61 56 82 57
REMARK SMILES IDX 49 58 33 59 34 60 42 61 35 62 41 63 43 64 40 65 36 66 37 67
REMARK SMILES IDX 38 68 39 69 65 70 66 71 74 72 67 73 73 74 75 75 72 76 68 77
REMARK SMILES IDX 69 78 70 79 71 80 50 81 51 82 59 83 52 84 58 85 60 86 57 87
REMARK SMILES IDX 53 88 54 89 55 90 56 91
REMARK H PARENT 17 6 16 14 21 25 80 44 48 55
REMARK Flexibility Score: inf
ROOT
ATOM      1  C   UNL A   1      35.780  22.353  24.195  1.00  0.00     0.042 C 
ENDROOT
BRANCH   1   2
ATOM      2  C   UNL A   1      35.222  23.769  24.087  1.00  0.00     0.117 C 
BRANCH   2   3
ATOM      3  N   UNL A   1      33.770  23.802  24.113  1.00  0.00    -0.355 N 
ATOM      4  O   UNL A   1      33.571  25.747  25.328  1.00  0.00    -0.274 OA
ATOM      5  C   UNL A   1      33.059  24.809  24.724  1.00  0.00     0.230 C 
ATOM      6  H   UNL A   1      33.275  23.074  23.673  1.00  0.00     0.163 HD
BRANCH   5   7
ATOM      7  C   UNL A   1      31.550  24.667  24.652  1.00  0.00     0.178 C 
BRANCH   7   8
ATOM      8  S   UNL A   1      30.878  23.636  25.983  1.00  0.00    -0.077 SA
BRANCH   8   9
ATOM      9  C   UNL A   1      31.855  22.222  25.901  1.00  0.00     0.184 A 
ATOM     10  N   UNL A   1      31.933  21.392  24.892  1.00  0.00    -0.201 NA
ATOM     11  N   UNL A   1      32.695  21.823  26.891  1.00  0.00    -0.254 N 
ATOM     12  C   UNL A   1      32.806  20.429  25.346  1.00  0.00     0.182 A 
ATOM     13  N   UNL A   1      33.307  20.670  26.570  1.00  0.00    -0.153 NA
ATOM     14  H   UNL A   1      32.837  22.312  27.733  1.00  0.00     0.192 HD
BRANCH  12  15
ATOM     15  C   UNL A   1      33.125  19.249  24.559  1.00  0.00     0.024 A 
ATOM     16  C   UNL A   1      32.435  18.988  23.365  1.00  0.00     0.012 A 
ATOM     17  C   UNL A   1      34.103  18.350  24.998  1.00  0.00     0.051 A 
ATOM     18  C   UNL A   1      32.725  17.845  22.614  1.00  0.00     0.004 A 
ATOM     19  C   UNL A   1      34.369  17.208  24.252  1.00  0.00     0.123 A 
ATOM     20  C   UNL A   1      33.693  16.949  23.064  1.00  0.00     0.039 A 
ATOM     21  F   UNL A   1      35.291  16.336  24.686  1.00  0.00    -0.207 F 
ENDBRANCH  12  15
ENDBRANCH   8   9
ENDBRANCH   7   8
ENDBRANCH   5   7
ENDBRANCH   2   3
ENDBRANCH   1   2
BRANCH   1  22
ATOM     22  C   UNL A   1      36.191  21.922  25.602  1.00  0.00     0.118 C 
BRANCH  22  23
ATOM     23  N   UNL A   1      37.236  20.910  25.611  1.00  0.00    -0.352 N 
ATOM     24  C   UNL A   1      38.588  21.023  25.814  1.00  0.00     0.251 C 
ATOM     25  H   UNL A   1      36.920  19.992  25.444  1.00  0.00     0.163 HD
ATOM     26  O   UNL A   1      39.292  20.024  25.640  1.00  0.00    -0.269 OA
BRANCH  24  27
ATOM     27  C   UNL A   1      39.219  22.304  26.209  1.00  0.00     0.039 A 
ATOM     28  C   UNL A   1      40.435  22.258  26.900  1.00  0.00     0.014 A 
ATOM     29  C   UNL A   1      38.619  23.542  25.959  1.00  0.00     0.014 A 
ATOM     30  C   UNL A   1      41.072  23.442  27.284  1.00  0.00     0.010 A 
ATOM     31  C   UNL A   1      39.286  24.726  26.285  1.00  0.00     0.010 A 
ATOM     32  C   UNL A   1      40.521  24.690  26.951  1.00  0.00    -0.014 A 
BRANCH  32  33
ATOM     33  C   UNL A   1      41.233  25.953  27.288  1.00  0.00     0.031 A 
ATOM     34  C   UNL A   1      40.573  27.002  28.144  1.00  0.00     0.074 A 
ATOM     35  C   UNL A   1      42.472  26.170  26.801  1.00  0.00     0.049 A 
ATOM     36  N   UNL A   1      41.023  28.178  28.501  1.00  0.00    -0.248 NA
ATOM     37  C   UNL A   1      39.226  26.698  28.647  1.00  0.00     0.031 C 
ATOM     38  C   UNL A   1      43.213  25.244  25.940  1.00  0.00     0.029 A 
ATOM     39  N   UNL A   1      43.330  27.230  26.960  1.00  0.00    -0.354 N 
ATOM     40  C   UNL A   1      40.014  28.757  29.263  1.00  0.00     0.074 A 
ATOM     41  C   UNL A   1      38.910  27.822  29.275  1.00  0.00     0.031 C 
ATOM     42  C   UNL A   1      44.426  25.759  25.682  1.00  0.00     0.029 A 
ATOM     43  C   UNL A   1      44.535  27.070  26.317  1.00  0.00     0.049 A 
ATOM     44  H   UNL A   1      43.103  28.032  27.486  1.00  0.00     0.167 HD
ATOM     45  C   UNL A   1      40.017  29.949  29.908  1.00  0.00     0.034 A 
ATOM     46  C   UNL A   1      45.607  27.883  26.237  1.00  0.00     0.034 A 
ATOM     47  C   UNL A   1      41.131  30.862  29.917  1.00  0.00     0.049 A 
ATOM     48  C   UNL A   1      45.577  29.213  26.941  1.00  0.00     0.074 A 
ATOM     49  C   UNL A   1      41.248  32.069  30.587  1.00  0.00     0.029 A 
ATOM     50  N   UNL A   1      42.319  30.677  29.224  1.00  0.00    -0.354 N 
ATOM     51  N   UNL A   1      44.614  29.739  27.661  1.00  0.00    -0.248 NA
ATOM     52  C   UNL A   1      46.773  30.059  26.823  1.00  0.00     0.031 C 
ATOM     53  C   UNL A   1      42.481  32.638  30.256  1.00  0.00     0.029 A 
ATOM     54  C   UNL A   1      43.162  31.758  29.430  1.00  0.00     0.049 A 
ATOM     55  H   UNL A   1      42.533  29.892  28.669  1.00  0.00     0.167 HD
ATOM     56  C   UNL A   1      45.097  30.970  28.097  1.00  0.00     0.074 A 
ATOM     57  C   UNL A   1      46.435  31.109  27.560  1.00  0.00     0.031 C 
ATOM     58  C   UNL A   1      44.487  31.895  28.877  1.00  0.00     0.034 A 
BRANCH  45  59
ATOM     59  C   UNL A   1      38.769  30.344  30.655  1.00  0.00     0.023 A 
ATOM     60  C   UNL A   1      37.726  31.043  30.025  1.00  0.00     0.031 A 
ATOM     61  C   UNL A   1      38.610  29.989  32.006  1.00  0.00     0.131 A 
ATOM     62  C   UNL A   1      36.587  31.405  30.759  1.00  0.00     0.055 A 
ATOM     63  C   UNL A   1      37.447  30.296  32.713  1.00  0.00     0.041 A 
ATOM     64  F   UNL A   1      39.583  29.333  32.659  1.00  0.00    -0.206 F 
ATOM     65  C   UNL A   1      36.429  31.014  32.092  1.00  0.00     0.022 A 
BRANCH  62  66
ATOM     66  S   UNL A   1      35.343  32.461  29.970  1.00  0.00     0.124 S 
ATOM     67  O   UNL A   1      34.862  31.595  28.897  1.00  0.00    -0.237 OA
ATOM     68  O   UNL A   1      34.404  32.714  31.057  1.00  0.00    -0.237 OA
ATOM     69  O   UNL A   1      36.112  33.623  29.529  1.00  0.00    -0.744 OA
ENDBRANCH  62  66
ENDBRANCH  45  59
BRANCH  46  70
ATOM     70  C   UNL A   1      46.799  27.462  25.452  1.00  0.00     0.023 A 
ATOM     71  C   UNL A   1      46.942  27.826  24.105  1.00  0.00     0.031 A 
ATOM     72  C   UNL A   1      47.820  26.698  26.046  1.00  0.00     0.131 A 
ATOM     73  C   UNL A   1      48.074  27.410  23.387  1.00  0.00     0.055 A 
ATOM     74  C   UNL A   1      48.961  26.318  25.338  1.00  0.00     0.041 A 
ATOM     75  F   UNL A   1      47.731  26.335  27.335  1.00  0.00    -0.206 F 
ATOM     76  C   UNL A   1      49.090  26.670  23.998  1.00  0.00     0.022 A 
BRANCH  73  77
ATOM     77  S   UNL A   1      48.196  27.836  21.628  1.00  0.00     0.124 S 
ATOM     78  O   UNL A   1      49.358  28.717  21.617  1.00  0.00    -0.237 OA
ATOM     79  O   UNL A   1      48.376  26.527  21.008  1.00  0.00    -0.237 OA
ATOM     80  O   UNL A   1      46.917  28.484  21.346  1.00  0.00    -0.744 OA
ENDBRANCH  73  77
ENDBRANCH  46  70
BRANCH  58  81
ATOM     81  C   UNL A   1      45.265  33.134  29.228  1.00  0.00     0.023 A 
ATOM     82  C   UNL A   1      45.155  34.309  28.466  1.00  0.00     0.031 A 
ATOM     83  C   UNL A   1      46.077  33.154  30.375  1.00  0.00     0.131 A 
ATOM     84  C   UNL A   1      45.865  35.456  28.853  1.00  0.00     0.055 A 
ATOM     85  C   UNL A   1      46.748  34.309  30.778  1.00  0.00     0.041 A 
ATOM     86  F   UNL A   1      46.208  32.056  31.137  1.00  0.00    -0.206 F 
ATOM     87  C   UNL A   1      46.645  35.468  30.013  1.00  0.00     0.022 A 
BRANCH  84  88
ATOM     88  S   UNL A   1      45.764  36.939  27.813  1.00  0.00     0.124 S 
ATOM     89  O   UNL A   1      44.514  37.540  28.266  1.00  0.00    -0.237 OA
ATOM     90  O   UNL A   1      46.982  37.659  28.167  1.00  0.00    -0.237 OA
ATOM     91  O   UNL A   1      45.738  36.402  26.453  1.00  0.00    -0.744 OA
ENDBRANCH  84  88
ENDBRANCH  58  81
ENDBRANCH  32  33
ENDBRANCH  24  27
ENDBRANCH  22  23
ENDBRANCH   1  22
TORSDOF 16
ENDMDL
