MODEL 1
REMARK VINA RESULT:     -11.9      0.000      0.000
REMARK SMILES O=C(NCCCNC(=O)[C@]1(CCc2cccnc2)CCC[NH2+]C1)c1ccc(-c2c3nc(c(-c4cc(S(=O)(=O)[O-])ccc4F)c4ccc([nH]4)c(-c4cc(S(=O)(=O)[O-])ccc4F)c4nc(c(-c5cc(S(=O)(=O)[O-])ccc5F)c5ccc2[nH]5)C=C4)C=C3)cc1
REMARK SMILES IDX 5 1 4 2 3 3 1 4 2 5 24 7 25 8 86 9 26 10 85 11 27 12 28 13
REMARK SMILES IDX 29 14 79 15 30 16 84 17 78 18 80 19 31 20 83 21 77 22 76 23
REMARK SMILES IDX 32 25 64 26 44 27 63 28 45 29 48 30 62 31 81 32 46 33 47 34
REMARK SMILES IDX 61 36 82 37 49 38 33 39 34 40 42 41 35 42 41 43 43 44 40 45
REMARK SMILES IDX 36 46 37 47 38 48 39 49 65 50 66 51 74 52 67 53 73 54 75 55
REMARK SMILES IDX 72 56 68 57 69 58 70 59 71 60 50 61 51 62 59 63 52 64 58 65
REMARK SMILES IDX 60 66 57 67 53 68 54 69 55 70 56 71 6 72 7 73 8 74 9 76
REMARK SMILES IDX 10 77 19 78 23 79 20 80 22 81 21 82 11 85 12 86 13 87 14 88
REMARK SMILES IDX 18 89 15 90 17 91 16 92
REMARK H PARENT 3 6 80 24 48 35 7 75 22 83 22 84
REMARK Flexibility Score: inf
ROOT
ATOM      1  C   UNL A   1      36.727  22.171  23.882  1.00  0.00     0.042 C 
ENDROOT
BRANCH   1   2
ATOM      2  C   UNL A   1      36.792  21.750  25.341  1.00  0.00     0.118 C 
BRANCH   2   3
ATOM      3  N   UNL A   1      37.776  20.702  25.581  1.00  0.00    -0.352 N 
ATOM      4  O   UNL A   1      39.780  19.755  25.934  1.00  0.00    -0.269 OA
ATOM      5  C   UNL A   1      39.087  20.766  25.992  1.00  0.00     0.251 C 
ATOM      6  H   UNL A   1      37.444  19.788  25.421  1.00  0.00     0.163 HD
BRANCH   5   7
ATOM      7  C   UNL A   1      39.676  22.038  26.472  1.00  0.00     0.039 A 
ATOM      8  C   UNL A   1      39.205  23.270  26.025  1.00  0.00     0.014 A 
ATOM      9  C   UNL A   1      40.699  21.999  27.428  1.00  0.00     0.014 A 
ATOM     10  C   UNL A   1      39.871  24.439  26.375  1.00  0.00     0.010 A 
ATOM     11  C   UNL A   1      41.288  23.189  27.875  1.00  0.00     0.010 A 
ATOM     12  C   UNL A   1      40.909  24.419  27.318  1.00  0.00    -0.014 A 
BRANCH  12  13
ATOM     13  C   UNL A   1      41.542  25.705  27.722  1.00  0.00     0.031 A 
ATOM     14  C   UNL A   1      42.940  26.057  27.287  1.00  0.00     0.074 A 
ATOM     15  C   UNL A   1      40.820  26.585  28.447  1.00  0.00     0.049 A 
ATOM     16  N   UNL A   1      43.622  27.154  27.503  1.00  0.00    -0.248 NA
ATOM     17  C   UNL A   1      43.674  25.040  26.519  1.00  0.00     0.031 C 
ATOM     18  C   UNL A   1      39.456  26.352  28.933  1.00  0.00     0.029 A 
ATOM     19  N   UNL A   1      41.108  27.856  28.874  1.00  0.00    -0.354 N 
ATOM     20  C   UNL A   1      44.869  26.954  26.921  1.00  0.00     0.074 A 
ATOM     21  C   UNL A   1      44.861  25.612  26.375  1.00  0.00     0.031 C 
ATOM     22  C   UNL A   1      39.003  27.466  29.525  1.00  0.00     0.029 A 
ATOM     23  C   UNL A   1      40.065  28.465  29.535  1.00  0.00     0.049 A 
ATOM     24  H   UNL A   1      41.977  28.292  28.721  1.00  0.00     0.167 HD
ATOM     25  C   UNL A   1      45.918  27.813  26.841  1.00  0.00     0.034 A 
ATOM     26  C   UNL A   1      39.974  29.684  30.100  1.00  0.00     0.034 A 
ATOM     27  C   UNL A   1      45.902  29.152  27.386  1.00  0.00     0.049 A 
ATOM     28  C   UNL A   1      41.164  30.603  30.029  1.00  0.00     0.074 A 
ATOM     29  C   UNL A   1      46.893  30.117  27.329  1.00  0.00     0.029 A 
ATOM     30  N   UNL A   1      44.848  29.714  28.099  1.00  0.00    -0.354 N 
ATOM     31  N   UNL A   1      42.328  30.404  29.452  1.00  0.00    -0.248 NA
ATOM     32  C   UNL A   1      41.026  31.909  30.681  1.00  0.00     0.031 C 
ATOM     33  C   UNL A   1      46.472  31.228  28.070  1.00  0.00     0.029 A 
ATOM     34  C   UNL A   1      45.181  30.996  28.516  1.00  0.00     0.049 A 
ATOM     35  H   UNL A   1      43.989  29.267  28.279  1.00  0.00     0.167 HD
ATOM     36  C   UNL A   1      43.049  31.579  29.646  1.00  0.00     0.074 A 
ATOM     37  C   UNL A   1      42.180  32.482  30.376  1.00  0.00     0.031 C 
ATOM     38  C   UNL A   1      44.313  31.883  29.255  1.00  0.00     0.034 A 
BRANCH  25  39
ATOM     39  C   UNL A   1      47.185  27.309  26.187  1.00  0.00     0.023 A 
ATOM     40  C   UNL A   1      48.113  26.507  26.875  1.00  0.00     0.031 A 
ATOM     41  C   UNL A   1      47.482  27.658  24.856  1.00  0.00     0.131 A 
ATOM     42  C   UNL A   1      49.322  26.145  26.259  1.00  0.00     0.055 A 
ATOM     43  C   UNL A   1      48.647  27.224  24.221  1.00  0.00     0.041 A 
ATOM     44  F   UNL A   1      46.647  28.438  24.151  1.00  0.00    -0.206 F 
ATOM     45  C   UNL A   1      49.584  26.477  24.927  1.00  0.00     0.022 A 
BRANCH  42  46
ATOM     46  S   UNL A   1      50.614  25.368  27.269  1.00  0.00     0.124 S 
ATOM     47  O   UNL A   1      49.883  24.266  27.892  1.00  0.00    -0.237 OA
ATOM     48  O   UNL A   1      51.610  24.990  26.273  1.00  0.00    -0.237 OA
ATOM     49  O   UNL A   1      51.020  26.431  28.186  1.00  0.00    -0.744 OA
ENDBRANCH  42  46
ENDBRANCH  25  39
BRANCH  26  50
ATOM     50  C   UNL A   1      38.725  30.099  30.800  1.00  0.00     0.023 A 
ATOM     51  C   UNL A   1      37.713  30.801  30.125  1.00  0.00     0.031 A 
ATOM     52  C   UNL A   1      38.539  29.832  32.169  1.00  0.00     0.131 A 
ATOM     53  C   UNL A   1      36.585  31.250  30.828  1.00  0.00     0.055 A 
ATOM     54  C   UNL A   1      37.387  30.227  32.850  1.00  0.00     0.041 A 
ATOM     55  F   UNL A   1      39.474  29.163  32.864  1.00  0.00    -0.206 F 
ATOM     56  C   UNL A   1      36.407  30.953  32.182  1.00  0.00     0.022 A 
BRANCH  53  57
ATOM     57  S   UNL A   1      35.392  32.311  29.968  1.00  0.00     0.124 S 
ATOM     58  O   UNL A   1      36.214  33.467  29.628  1.00  0.00    -0.237 OA
ATOM     59  O   UNL A   1      34.981  31.464  28.854  1.00  0.00    -0.237 OA
ATOM     60  O   UNL A   1      34.362  32.552  30.978  1.00  0.00    -0.744 OA
ENDBRANCH  53  57
ENDBRANCH  26  50
BRANCH  38  61
ATOM     61  C   UNL A   1      44.805  33.276  29.571  1.00  0.00     0.023 A 
ATOM     62  C   UNL A   1      44.575  34.360  28.705  1.00  0.00     0.031 A 
ATOM     63  C   UNL A   1      45.549  33.513  30.742  1.00  0.00     0.131 A 
ATOM     64  C   UNL A   1      45.146  35.611  28.984  1.00  0.00     0.055 A 
ATOM     65  C   UNL A   1      46.054  34.776  31.049  1.00  0.00     0.041 A 
ATOM     66  F   UNL A   1      45.802  32.515  31.604  1.00  0.00    -0.206 F 
ATOM     67  C   UNL A   1      45.869  35.831  30.160  1.00  0.00     0.022 A 
BRANCH  64  68
ATOM     68  S   UNL A   1      45.034  36.919  27.731  1.00  0.00     0.124 S 
ATOM     69  O   UNL A   1      46.407  36.988  27.242  1.00  0.00    -0.237 OA
ATOM     70  O   UNL A   1      44.052  36.374  26.799  1.00  0.00    -0.237 OA
ATOM     71  O   UNL A   1      44.587  38.084  28.491  1.00  0.00    -0.744 OA
ENDBRANCH  64  68
ENDBRANCH  38  61
ENDBRANCH  12  13
ENDBRANCH   5   7
ENDBRANCH   2   3
ENDBRANCH   1   2
BRANCH   1  72
ATOM     72  C   UNL A   1      35.825  23.371  23.617  1.00  0.00     0.117 C 
BRANCH  72  73
ATOM     73  N   UNL A   1      34.959  23.714  24.733  1.00  0.00    -0.355 N 
ATOM     74  C   UNL A   1      33.724  23.329  25.144  1.00  0.00     0.231 C 
ATOM     75  H   UNL A   1      35.364  24.383  25.332  1.00  0.00     0.163 HD
ATOM     76  O   UNL A   1      33.369  23.810  26.230  1.00  0.00    -0.274 OA
BRANCH  74  77
ATOM     77  C   UNL A   1      32.786  22.398  24.339  1.00  0.00     0.098 C 
ATOM     78  C   UNL A   1      32.653  22.897  22.867  1.00  0.00     0.028 C 
ATOM     79  C   UNL A   1      31.349  22.419  24.927  1.00  0.00     0.277 C 
ATOM     80  C   UNL A   1      31.869  24.207  22.733  1.00  0.00     0.063 C 
ATOM     81  N   UNL A   1      30.698  23.731  24.851  1.00  0.00    -0.345 N 
ATOM     82  C   UNL A   1      30.535  24.158  23.466  1.00  0.00     0.260 C 
ATOM     83  H   UNL A   1      29.779  23.674  25.291  1.00  0.00     0.346 HD
ATOM     84  H   UNL A   1      31.284  24.412  25.333  1.00  0.00     0.346 HD
BRANCH  77  85
ATOM     85  C   UNL A   1      33.327  20.932  24.331  1.00  0.00     0.028 C 
BRANCH  85  86
ATOM     86  C   UNL A   1      32.465  19.815  23.699  1.00  0.00     0.038 C 
BRANCH  86  87
ATOM     87  C   UNL A   1      32.783  18.393  24.069  1.00  0.00    -0.030 A 
ATOM     88  C   UNL A   1      32.575  17.906  25.362  1.00  0.00     0.007 A 
ATOM     89  C   UNL A   1      33.339  17.506  23.153  1.00  0.00     0.114 A 
ATOM     90  C   UNL A   1      32.865  16.580  25.671  1.00  0.00     0.020 A 
ATOM     91  N   UNL A   1      33.633  16.211  23.423  1.00  0.00    -0.264 NA
ATOM     92  C   UNL A   1      33.391  15.779  24.677  1.00  0.00     0.111 A 
ENDBRANCH  86  87
ENDBRANCH  85  86
ENDBRANCH  77  85
ENDBRANCH  74  77
ENDBRANCH  72  73
ENDBRANCH   1  72
TORSDOF 16
ENDMDL
MODEL 2
REMARK VINA RESULT:     -11.9      5.230     10.037
REMARK SMILES O=C(NCCCNC(=O)[C@]1(CCc2cccnc2)CCC[NH2+]C1)c1ccc(-c2c3nc(c(-c4cc(S(=O)(=O)[O-])ccc4F)c4ccc([nH]4)c(-c4cc(S(=O)(=O)[O-])ccc4F)c4nc(c(-c5cc(S(=O)(=O)[O-])ccc5F)c5ccc2[nH]5)C=C4)C=C3)cc1
REMARK SMILES IDX 5 1 4 2 3 3 1 4 2 5 24 7 25 8 86 9 26 10 85 11 27 12 28 13
REMARK SMILES IDX 29 14 79 15 30 16 84 17 78 18 80 19 31 20 83 21 77 22 76 23
REMARK SMILES IDX 32 25 64 26 44 27 63 28 45 29 48 30 62 31 81 32 46 33 47 34
REMARK SMILES IDX 61 36 82 37 49 38 33 39 34 40 42 41 35 42 41 43 43 44 40 45
REMARK SMILES IDX 36 46 37 47 38 48 39 49 65 50 66 51 74 52 67 53 73 54 75 55
REMARK SMILES IDX 72 56 68 57 69 58 70 59 71 60 50 61 51 62 59 63 52 64 58 65
REMARK SMILES IDX 60 66 57 67 53 68 54 69 55 70 56 71 6 72 7 73 8 74 9 76
REMARK SMILES IDX 10 77 19 78 23 79 20 80 22 81 21 82 11 85 12 86 13 87 14 88
REMARK SMILES IDX 18 89 15 90 17 91 16 92
REMARK H PARENT 3 6 80 24 48 35 7 75 22 83 22 84
REMARK Flexibility Score: inf
ROOT
ATOM      1  C   UNL A   1      31.783  28.939  27.223  1.00  0.00     0.042 C 
ENDROOT
BRANCH   1   2
ATOM      2  C   UNL A   1      32.758  29.739  26.374  1.00  0.00     0.118 C 
BRANCH   2   3
ATOM      3  N   UNL A   1      32.688  31.172  26.635  1.00  0.00    -0.352 N 
ATOM      4  O   UNL A   1      33.109  33.140  27.626  1.00  0.00    -0.269 OA
ATOM      5  C   UNL A   1      33.482  31.993  27.400  1.00  0.00     0.251 C 
ATOM      6  H   UNL A   1      31.941  31.631  26.185  1.00  0.00     0.163 HD
BRANCH   5   7
ATOM      7  C   UNL A   1      34.759  31.505  27.972  1.00  0.00     0.039 A 
ATOM      8  C   UNL A   1      34.885  30.207  28.461  1.00  0.00     0.014 A 
ATOM      9  C   UNL A   1      35.872  32.355  27.983  1.00  0.00     0.014 A 
ATOM     10  C   UNL A   1      36.043  29.823  29.126  1.00  0.00     0.010 A 
ATOM     11  C   UNL A   1      37.080  31.923  28.545  1.00  0.00     0.010 A 
ATOM     12  C   UNL A   1      37.164  30.667  29.163  1.00  0.00    -0.014 A 
BRANCH  12  13
ATOM     13  C   UNL A   1      38.410  30.183  29.819  1.00  0.00     0.031 A 
ATOM     14  C   UNL A   1      38.766  30.603  31.221  1.00  0.00     0.074 A 
ATOM     15  C   UNL A   1      39.199  29.314  29.155  1.00  0.00     0.049 A 
ATOM     16  N   UNL A   1      39.781  30.235  31.961  1.00  0.00    -0.248 NA
ATOM     17  C   UNL A   1      37.872  31.570  31.874  1.00  0.00     0.031 C 
ATOM     18  C   UNL A   1      38.960  28.840  27.788  1.00  0.00     0.029 A 
ATOM     19  N   UNL A   1      40.334  28.648  29.540  1.00  0.00    -0.354 N 
ATOM     20  C   UNL A   1      39.664  30.939  33.155  1.00  0.00     0.074 A 
ATOM     21  C   UNL A   1      38.497  31.786  33.023  1.00  0.00     0.031 C 
ATOM     22  C   UNL A   1      39.874  27.910  27.478  1.00  0.00     0.029 A 
ATOM     23  C   UNL A   1      40.812  27.777  28.586  1.00  0.00     0.049 A 
ATOM     24  H   UNL A   1      40.766  28.779  30.414  1.00  0.00     0.167 HD
ATOM     25  C   UNL A   1      40.451  30.877  34.260  1.00  0.00     0.034 A 
ATOM     26  C   UNL A   1      41.890  26.970  28.593  1.00  0.00     0.034 A 
ATOM     27  C   UNL A   1      41.608  30.018  34.375  1.00  0.00     0.049 A 
ATOM     28  C   UNL A   1      42.766  26.948  29.817  1.00  0.00     0.074 A 
ATOM     29  C   UNL A   1      42.452  29.849  35.459  1.00  0.00     0.029 A 
ATOM     30  N   UNL A   1      42.094  29.192  33.367  1.00  0.00    -0.354 N 
ATOM     31  N   UNL A   1      42.625  27.604  30.947  1.00  0.00    -0.248 NA
ATOM     32  C   UNL A   1      43.943  26.074  29.768  1.00  0.00     0.031 C 
ATOM     33  C   UNL A   1      43.487  28.985  35.083  1.00  0.00     0.029 A 
ATOM     34  C   UNL A   1      43.243  28.540  33.794  1.00  0.00     0.049 A 
ATOM     35  H   UNL A   1      41.681  29.083  32.480  1.00  0.00     0.167 HD
ATOM     36  C   UNL A   1      43.682  27.195  31.755  1.00  0.00     0.074 A 
ATOM     37  C   UNL A   1      44.436  26.223  30.988  1.00  0.00     0.031 C 
ATOM     38  C   UNL A   1      43.997  27.584  33.016  1.00  0.00     0.034 A 
BRANCH  25  39
ATOM     39  C   UNL A   1      40.116  31.802  35.409  1.00  0.00     0.023 A 
ATOM     40  C   UNL A   1      39.203  31.442  36.417  1.00  0.00     0.031 A 
ATOM     41  C   UNL A   1      40.704  33.078  35.485  1.00  0.00     0.131 A 
ATOM     42  C   UNL A   1      38.849  32.371  37.409  1.00  0.00     0.055 A 
ATOM     43  C   UNL A   1      40.411  33.966  36.521  1.00  0.00     0.041 A 
ATOM     44  F   UNL A   1      41.568  33.490  34.543  1.00  0.00    -0.206 F 
ATOM     45  C   UNL A   1      39.467  33.622  37.483  1.00  0.00     0.022 A 
BRANCH  42  46
ATOM     46  S   UNL A   1      37.460  31.981  38.509  1.00  0.00     0.124 S 
ATOM     47  O   UNL A   1      36.476  32.989  38.117  1.00  0.00    -0.237 OA
ATOM     48  O   UNL A   1      37.143  30.606  38.144  1.00  0.00    -0.237 OA
ATOM     49  O   UNL A   1      38.020  32.159  39.847  1.00  0.00    -0.744 OA
ENDBRANCH  42  46
ENDBRANCH  25  39
BRANCH  26  50
ATOM     50  C   UNL A   1      42.217  26.137  27.401  1.00  0.00     0.023 A 
ATOM     51  C   UNL A   1      41.850  24.783  27.339  1.00  0.00     0.031 A 
ATOM     52  C   UNL A   1      42.935  26.674  26.317  1.00  0.00     0.131 A 
ATOM     53  C   UNL A   1      42.240  24.002  26.241  1.00  0.00     0.055 A 
ATOM     54  C   UNL A   1      43.268  25.909  25.199  1.00  0.00     0.041 A 
ATOM     55  F   UNL A   1      43.311  27.963  26.323  1.00  0.00    -0.206 F 
ATOM     56  C   UNL A   1      42.933  24.560  25.162  1.00  0.00     0.022 A 
BRANCH  53  57
ATOM     57  S   UNL A   1      41.911  22.219  26.282  1.00  0.00     0.124 S 
ATOM     58  O   UNL A   1      42.779  21.733  25.215  1.00  0.00    -0.237 OA
ATOM     59  O   UNL A   1      42.306  21.869  27.642  1.00  0.00    -0.237 OA
ATOM     60  O   UNL A   1      40.477  22.132  26.010  1.00  0.00    -0.744 OA
ENDBRANCH  53  57
ENDBRANCH  26  50
BRANCH  38  61
ATOM     61  C   UNL A   1      45.189  26.912  33.656  1.00  0.00     0.023 A 
ATOM     62  C   UNL A   1      45.067  25.705  34.370  1.00  0.00     0.031 A 
ATOM     63  C   UNL A   1      46.460  27.509  33.584  1.00  0.00     0.131 A 
ATOM     64  C   UNL A   1      46.179  25.175  35.042  1.00  0.00     0.055 A 
ATOM     65  C   UNL A   1      47.577  26.940  34.195  1.00  0.00     0.041 A 
ATOM     66  F   UNL A   1      46.635  28.664  32.920  1.00  0.00    -0.206 F 
ATOM     67  C   UNL A   1      47.437  25.776  34.944  1.00  0.00     0.022 A 
BRANCH  64  68
ATOM     68  S   UNL A   1      45.935  23.756  36.146  1.00  0.00     0.124 S 
ATOM     69  O   UNL A   1      44.714  23.163  35.612  1.00  0.00    -0.237 OA
ATOM     70  O   UNL A   1      47.159  22.988  35.942  1.00  0.00    -0.237 OA
ATOM     71  O   UNL A   1      45.802  24.369  37.466  1.00  0.00    -0.744 OA
ENDBRANCH  64  68
ENDBRANCH  38  61
ENDBRANCH  12  13
ENDBRANCH   5   7
ENDBRANCH   2   3
ENDBRANCH   1   2
BRANCH   1  72
ATOM     72  C   UNL A   1      31.591  27.498  26.765  1.00  0.00     0.117 C 
BRANCH  72  73
ATOM     73  N   UNL A   1      30.977  27.374  25.453  1.00  0.00    -0.355 N 
ATOM     74  C   UNL A   1      31.337  26.806  24.274  1.00  0.00     0.231 C 
ATOM     75  H   UNL A   1      30.092  27.805  25.410  1.00  0.00     0.163 HD
ATOM     76  O   UNL A   1      30.464  26.848  23.395  1.00  0.00    -0.274 OA
BRANCH  74  77
ATOM     77  C   UNL A   1      32.723  26.177  23.995  1.00  0.00     0.098 C 
ATOM     78  C   UNL A   1      33.860  27.191  24.330  1.00  0.00     0.028 C 
ATOM     79  C   UNL A   1      32.882  25.843  22.486  1.00  0.00     0.277 C 
ATOM     80  C   UNL A   1      33.930  28.376  23.362  1.00  0.00     0.063 C 
ATOM     81  N   UNL A   1      32.843  27.019  21.612  1.00  0.00    -0.345 N 
ATOM     82  C   UNL A   1      33.943  27.931  21.906  1.00  0.00     0.260 C 
ATOM     83  H   UNL A   1      32.913  26.716  20.640  1.00  0.00     0.346 HD
ATOM     84  H   UNL A   1      31.964  27.512  21.771  1.00  0.00     0.346 HD
BRANCH  77  85
ATOM     85  C   UNL A   1      32.930  24.882  24.843  1.00  0.00     0.028 C 
BRANCH  85  86
ATOM     86  C   UNL A   1      34.225  24.726  25.674  1.00  0.00     0.038 C 
BRANCH  86  87
ATOM     87  C   UNL A   1      35.245  23.729  25.197  1.00  0.00    -0.030 A 
ATOM     88  C   UNL A   1      35.714  23.730  23.881  1.00  0.00     0.007 A 
ATOM     89  C   UNL A   1      35.740  22.733  26.033  1.00  0.00     0.114 A 
ATOM     90  C   UNL A   1      36.670  22.804  23.473  1.00  0.00     0.020 A 
ATOM     91  N   UNL A   1      36.668  21.817  25.665  1.00  0.00    -0.264 NA
ATOM     92  C   UNL A   1      37.111  21.873  24.393  1.00  0.00     0.111 A 
ENDBRANCH  86  87
ENDBRANCH  85  86
ENDBRANCH  77  85
ENDBRANCH  74  77
ENDBRANCH  72  73
ENDBRANCH   1  72
TORSDOF 16
ENDMDL
MODEL 3
REMARK VINA RESULT:     -11.9      2.117      2.442
REMARK SMILES O=C(NCCCNC(=O)[C@]1(CCc2cccnc2)CCC[NH2+]C1)c1ccc(-c2c3nc(c(-c4cc(S(=O)(=O)[O-])ccc4F)c4ccc([nH]4)c(-c4cc(S(=O)(=O)[O-])ccc4F)c4nc(c(-c5cc(S(=O)(=O)[O-])ccc5F)c5ccc2[nH]5)C=C4)C=C3)cc1
REMARK SMILES IDX 5 1 4 2 3 3 1 4 2 5 24 7 25 8 86 9 26 10 85 11 27 12 28 13
REMARK SMILES IDX 29 14 79 15 30 16 84 17 78 18 80 19 31 20 83 21 77 22 76 23
REMARK SMILES IDX 32 25 64 26 44 27 63 28 45 29 48 30 62 31 81 32 46 33 47 34
REMARK SMILES IDX 61 36 82 37 49 38 33 39 34 40 42 41 35 42 41 43 43 44 40 45
REMARK SMILES IDX 36 46 37 47 38 48 39 49 65 50 66 51 74 52 67 53 73 54 75 55
REMARK SMILES IDX 72 56 68 57 69 58 70 59 71 60 50 61 51 62 59 63 52 64 58 65
REMARK SMILES IDX 60 66 57 67 53 68 54 69 55 70 56 71 6 72 7 73 8 74 9 76
REMARK SMILES IDX 10 77 19 78 23 79 20 80 22 81 21 82 11 85 12 86 13 87 14 88
REMARK SMILES IDX 18 89 15 90 17 91 16 92
REMARK H PARENT 3 6 80 24 48 35 7 75 22 83 22 84
REMARK Flexibility Score: inf
ROOT
ATOM      1  C   UNL A   1      35.801  21.725  25.870  1.00  0.00     0.042 C 
ENDROOT
BRANCH   1   2
ATOM      2  C   UNL A   1      36.990  21.600  24.931  1.00  0.00     0.118 C 
BRANCH   2   3
ATOM      3  N   UNL A   1      37.925  20.560  25.342  1.00  0.00    -0.352 N 
ATOM      4  O   UNL A   1      39.865  19.618  25.964  1.00  0.00    -0.269 OA
ATOM      5  C   UNL A   1      39.188  20.638  25.880  1.00  0.00     0.251 C 
ATOM      6  H   UNL A   1      37.595  19.641  25.211  1.00  0.00     0.163 HD
BRANCH   5   7
ATOM      7  C   UNL A   1      39.749  21.934  26.331  1.00  0.00     0.039 A 
ATOM      8  C   UNL A   1      39.196  23.145  25.920  1.00  0.00     0.014 A 
ATOM      9  C   UNL A   1      40.829  21.938  27.222  1.00  0.00     0.014 A 
ATOM     10  C   UNL A   1      39.829  24.341  26.235  1.00  0.00     0.010 A 
ATOM     11  C   UNL A   1      41.391  23.152  27.638  1.00  0.00     0.010 A 
ATOM     12  C   UNL A   1      40.924  24.366  27.112  1.00  0.00    -0.014 A 
BRANCH  12  13
ATOM     13  C   UNL A   1      41.522  25.678  27.484  1.00  0.00     0.031 A 
ATOM     14  C   UNL A   1      42.868  26.098  26.957  1.00  0.00     0.074 A 
ATOM     15  C   UNL A   1      40.811  26.518  28.266  1.00  0.00     0.049 A 
ATOM     16  N   UNL A   1      43.511  27.225  27.136  1.00  0.00    -0.248 NA
ATOM     17  C   UNL A   1      43.594  25.122  26.131  1.00  0.00     0.031 C 
ATOM     18  C   UNL A   1      39.497  26.217  28.842  1.00  0.00     0.029 A 
ATOM     19  N   UNL A   1      41.068  27.798  28.683  1.00  0.00    -0.354 N 
ATOM     20  C   UNL A   1      44.723  27.088  26.467  1.00  0.00     0.074 A 
ATOM     21  C   UNL A   1      44.740  25.751  25.911  1.00  0.00     0.031 C 
ATOM     22  C   UNL A   1      39.034  27.305  29.474  1.00  0.00     0.029 A 
ATOM     23  C   UNL A   1      40.046  28.353  29.420  1.00  0.00     0.049 A 
ATOM     24  H   UNL A   1      41.903  28.276  28.475  1.00  0.00     0.167 HD
ATOM     25  C   UNL A   1      45.722  27.996  26.323  1.00  0.00     0.034 A 
ATOM     26  C   UNL A   1      39.937  29.563  30.002  1.00  0.00     0.034 A 
ATOM     27  C   UNL A   1      45.682  29.329  26.880  1.00  0.00     0.049 A 
ATOM     28  C   UNL A   1      41.075  30.537  29.857  1.00  0.00     0.074 A 
ATOM     29  C   UNL A   1      46.620  30.341  26.764  1.00  0.00     0.029 A 
ATOM     30  N   UNL A   1      44.654  29.836  27.669  1.00  0.00    -0.354 N 
ATOM     31  N   UNL A   1      42.204  30.398  29.200  1.00  0.00    -0.248 NA
ATOM     32  C   UNL A   1      40.922  31.832  30.530  1.00  0.00     0.031 C 
ATOM     33  C   UNL A   1      46.199  31.426  27.543  1.00  0.00     0.029 A 
ATOM     34  C   UNL A   1      44.954  31.130  28.075  1.00  0.00     0.049 A 
ATOM     35  H   UNL A   1      43.832  29.348  27.905  1.00  0.00     0.167 HD
ATOM     36  C   UNL A   1      42.882  31.604  29.355  1.00  0.00     0.074 A 
ATOM     37  C   UNL A   1      42.024  32.460  30.151  1.00  0.00     0.031 C 
ATOM     38  C   UNL A   1      44.100  31.971  28.881  1.00  0.00     0.034 A 
BRANCH  25  39
ATOM     39  C   UNL A   1      46.963  27.557  25.579  1.00  0.00     0.023 A 
ATOM     40  C   UNL A   1      47.195  27.908  24.237  1.00  0.00     0.031 A 
ATOM     41  C   UNL A   1      47.924  26.752  26.218  1.00  0.00     0.131 A 
ATOM     42  C   UNL A   1      48.312  27.396  23.558  1.00  0.00     0.055 A 
ATOM     43  C   UNL A   1      49.076  26.314  25.563  1.00  0.00     0.041 A 
ATOM     44  F   UNL A   1      47.753  26.364  27.492  1.00  0.00    -0.206 F 
ATOM     45  C   UNL A   1      49.268  26.622  24.220  1.00  0.00     0.022 A 
BRANCH  42  46
ATOM     46  S   UNL A   1      48.419  27.626  21.761  1.00  0.00     0.124 S 
ATOM     47  O   UNL A   1      49.534  28.563  21.646  1.00  0.00    -0.237 OA
ATOM     48  O   UNL A   1      48.673  26.272  21.283  1.00  0.00    -0.237 OA
ATOM     49  O   UNL A   1      47.113  28.179  21.407  1.00  0.00    -0.744 OA
ENDBRANCH  42  46
ENDBRANCH  25  39
BRANCH  26  50
ATOM     50  C   UNL A   1      38.722  29.914  30.790  1.00  0.00     0.023 A 
ATOM     51  C   UNL A   1      37.715  30.728  30.248  1.00  0.00     0.031 A 
ATOM     52  C   UNL A   1      38.565  29.470  32.116  1.00  0.00     0.131 A 
ATOM     53  C   UNL A   1      36.621  31.109  31.039  1.00  0.00     0.055 A 
ATOM     54  C   UNL A   1      37.445  29.801  32.880  1.00  0.00     0.041 A 
ATOM     55  F   UNL A   1      39.497  28.688  32.685  1.00  0.00    -0.206 F 
ATOM     56  C   UNL A   1      36.471  30.637  32.346  1.00  0.00     0.022 A 
BRANCH  53  57
ATOM     57  S   UNL A   1      35.438  32.309  30.367  1.00  0.00     0.124 S 
ATOM     58  O   UNL A   1      35.021  31.654  29.133  1.00  0.00    -0.237 OA
ATOM     59  O   UNL A   1      34.440  32.378  31.429  1.00  0.00    -0.237 OA
ATOM     60  O   UNL A   1      36.244  33.517  30.192  1.00  0.00    -0.744 OA
ENDBRANCH  53  57
ENDBRANCH  26  50
BRANCH  38  61
ATOM     61  C   UNL A   1      44.546  33.383  29.175  1.00  0.00     0.023 A 
ATOM     62  C   UNL A   1      45.283  33.706  30.329  1.00  0.00     0.031 A 
ATOM     63  C   UNL A   1      44.193  34.431  28.304  1.00  0.00     0.131 A 
ATOM     64  C   UNL A   1      45.579  35.046  30.617  1.00  0.00     0.055 A 
ATOM     65  C   UNL A   1      44.552  35.753  28.561  1.00  0.00     0.041 A 
ATOM     66  F   UNL A   1      43.486  34.183  27.189  1.00  0.00    -0.206 F 
ATOM     67  C   UNL A   1      45.233  36.071  29.732  1.00  0.00     0.022 A 
BRANCH  64  68
ATOM     68  S   UNL A   1      46.316  35.449  32.226  1.00  0.00     0.124 S 
ATOM     69  O   UNL A   1      46.835  36.793  31.994  1.00  0.00    -0.237 OA
ATOM     70  O   UNL A   1      45.171  35.355  33.125  1.00  0.00    -0.237 OA
ATOM     71  O   UNL A   1      47.332  34.414  32.406  1.00  0.00    -0.744 OA
ENDBRANCH  64  68
ENDBRANCH  38  61
ENDBRANCH  12  13
ENDBRANCH   5   7
ENDBRANCH   2   3
ENDBRANCH   1   2
BRANCH   1  72
ATOM     72  C   UNL A   1      35.005  23.014  25.702  1.00  0.00     0.117 C 
BRANCH  72  73
ATOM     73  N   UNL A   1      34.055  23.262  26.774  1.00  0.00    -0.355 N 
ATOM     74  C   UNL A   1      32.712  23.128  26.918  1.00  0.00     0.231 C 
ATOM     75  H   UNL A   1      34.488  23.611  27.588  1.00  0.00     0.163 HD
ATOM     76  O   UNL A   1      32.289  23.374  28.056  1.00  0.00    -0.274 OA
BRANCH  74  77
ATOM     77  C   UNL A   1      31.746  22.734  25.775  1.00  0.00     0.098 C 
ATOM     78  C   UNL A   1      31.995  23.627  24.519  1.00  0.00     0.028 C 
ATOM     79  C   UNL A   1      30.270  22.984  26.189  1.00  0.00     0.277 C 
ATOM     80  C   UNL A   1      31.566  25.085  24.710  1.00  0.00     0.063 C 
ATOM     81  N   UNL A   1      29.959  24.393  26.448  1.00  0.00    -0.345 N 
ATOM     82  C   UNL A   1      30.148  25.203  25.250  1.00  0.00     0.260 C 
ATOM     83  H   UNL A   1      28.988  24.471  26.752  1.00  0.00     0.346 HD
ATOM     84  H   UNL A   1      30.590  24.736  27.173  1.00  0.00     0.346 HD
BRANCH  77  85
ATOM     85  C   UNL A   1      31.932  21.235  25.377  1.00  0.00     0.028 C 
BRANCH  85  86
ATOM     86  C   UNL A   1      32.517  20.892  23.987  1.00  0.00     0.038 C 
BRANCH  86  87
ATOM     87  C   UNL A   1      32.971  19.478  23.750  1.00  0.00    -0.030 A 
ATOM     88  C   UNL A   1      34.008  18.905  24.491  1.00  0.00     0.007 A 
ATOM     89  C   UNL A   1      32.407  18.686  22.755  1.00  0.00     0.114 A 
ATOM     90  C   UNL A   1      34.396  17.588  24.259  1.00  0.00     0.020 A 
ATOM     91  N   UNL A   1      32.763  17.404  22.504  1.00  0.00    -0.264 NA
ATOM     92  C   UNL A   1      33.751  16.885  23.261  1.00  0.00     0.111 A 
ENDBRANCH  86  87
ENDBRANCH  85  86
ENDBRANCH  77  85
ENDBRANCH  74  77
ENDBRANCH  72  73
ENDBRANCH   1  72
TORSDOF 16
ENDMDL
