MODEL 1
REMARK VINA RESULT:     -12.5      0.000      0.000
REMARK SMILES O=C(NCCCNC(=O)[C@@H]1CN(C(=O)C2CCCC2)C[C@H]1c1ccccc1)c1ccc(-c2c3nc(c(-c4cc(S(=O)(=O)[O-])ccc4F)c4ccc([nH]4)c(-c4cc(S(=O)(=O)[O-])ccc4F)c4nc(c(-c5cc(S(=O)(=O)[O-])ccc5F)c5ccc2[nH]5)C=C4)C=C3)cc1
REMARK SMILES IDX 4 1 3 2 1 3 2 4 28 6 29 7 90 8 30 9 89 10 31 11 32 12 33 13
REMARK SMILES IDX 83 14 34 15 88 16 82 17 84 18 35 19 87 20 81 21 80 22 36 24
REMARK SMILES IDX 68 25 48 26 67 27 49 28 52 29 66 30 85 31 50 32 51 33 65 35
REMARK SMILES IDX 86 36 53 37 37 38 38 39 46 40 39 41 45 42 47 43 44 44 40 45
REMARK SMILES IDX 41 46 42 47 43 48 69 49 70 50 78 51 71 52 77 53 79 54 76 55
REMARK SMILES IDX 72 56 73 57 74 58 75 59 54 60 55 61 63 62 56 63 62 64 64 65
REMARK SMILES IDX 61 66 57 67 58 68 59 69 60 70 5 71 6 72 7 73 8 74 9 76 10 77
REMARK SMILES IDX 11 78 21 79 12 80 20 81 22 82 23 83 27 84 24 85 26 86 25 87
REMARK SMILES IDX 13 88 14 89 15 90 16 91 19 92 17 93 18 94
REMARK H PARENT 3 5 84 23 52 34 7 75
REMARK Flexibility Score: inf
ROOT
ATOM      1  C   UNL A   1      32.831  32.431  27.161  1.00  0.00     0.118 C 
ENDROOT
BRANCH   1   2
ATOM      2  N   UNL A   1      32.675  33.818  27.579  1.00  0.00    -0.352 N 
ATOM      3  O   UNL A   1      32.827  35.578  28.972  1.00  0.00    -0.269 OA
ATOM      4  C   UNL A   1      33.266  34.482  28.625  1.00  0.00     0.251 C 
ATOM      5  H   UNL A   1      32.058  34.357  27.031  1.00  0.00     0.163 HD
BRANCH   4   6
ATOM      6  C   UNL A   1      34.419  33.879  29.324  1.00  0.00     0.039 A 
ATOM      7  C   UNL A   1      34.218  32.890  30.288  1.00  0.00     0.014 A 
ATOM      8  C   UNL A   1      35.716  34.286  28.996  1.00  0.00     0.014 A 
ATOM      9  C   UNL A   1      35.292  32.413  31.026  1.00  0.00     0.010 A 
ATOM     10  C   UNL A   1      36.806  33.723  29.666  1.00  0.00     0.010 A 
ATOM     11  C   UNL A   1      36.602  32.795  30.699  1.00  0.00    -0.014 A 
BRANCH  11  12
ATOM     12  C   UNL A   1      37.735  32.140  31.400  1.00  0.00     0.031 A 
ATOM     13  C   UNL A   1      38.520  31.038  30.749  1.00  0.00     0.074 A 
ATOM     14  C   UNL A   1      38.068  32.584  32.629  1.00  0.00     0.049 A 
ATOM     15  N   UNL A   1      39.536  30.362  31.222  1.00  0.00    -0.248 NA
ATOM     16  C   UNL A   1      38.109  30.637  29.396  1.00  0.00     0.031 C 
ATOM     17  C   UNL A   1      37.372  33.653  33.353  1.00  0.00     0.029 A 
ATOM     18  N   UNL A   1      39.079  32.218  33.477  1.00  0.00    -0.354 N 
ATOM     19  C   UNL A   1      39.884  29.451  30.230  1.00  0.00     0.074 A 
ATOM     20  C   UNL A   1      38.939  29.634  29.148  1.00  0.00     0.031 C 
ATOM     21  C   UNL A   1      38.007  33.889  34.509  1.00  0.00     0.029 A 
ATOM     22  C   UNL A   1      39.098  32.936  34.651  1.00  0.00     0.049 A 
ATOM     23  H   UNL A   1      39.730  31.509  33.269  1.00  0.00     0.167 HD
ATOM     24  C   UNL A   1      40.906  28.558  30.224  1.00  0.00     0.034 A 
ATOM     25  C   UNL A   1      39.884  32.820  35.738  1.00  0.00     0.034 A 
ATOM     26  C   UNL A   1      41.828  28.386  31.323  1.00  0.00     0.049 A 
ATOM     27  C   UNL A   1      40.963  31.770  35.732  1.00  0.00     0.074 A 
ATOM     28  C   UNL A   1      42.901  27.516  31.422  1.00  0.00     0.029 A 
ATOM     29  N   UNL A   1      41.785  29.093  32.520  1.00  0.00    -0.354 N 
ATOM     30  N   UNL A   1      41.283  30.922  34.782  1.00  0.00    -0.248 NA
ATOM     31  C   UNL A   1      41.788  31.665  36.941  1.00  0.00     0.031 C 
ATOM     32  C   UNL A   1      43.457  27.645  32.700  1.00  0.00     0.029 A 
ATOM     33  C   UNL A   1      42.790  28.657  33.372  1.00  0.00     0.049 A 
ATOM     34  H   UNL A   1      41.135  29.803  32.732  1.00  0.00     0.167 HD
ATOM     35  C   UNL A   1      42.367  30.200  35.271  1.00  0.00     0.074 A 
ATOM     36  C   UNL A   1      42.657  30.731  36.588  1.00  0.00     0.031 C 
ATOM     37  C   UNL A   1      43.060  29.189  34.687  1.00  0.00     0.034 A 
BRANCH  24  38
ATOM     38  C   UNL A   1      41.050  27.673  29.008  1.00  0.00     0.023 A 
ATOM     39  C   UNL A   1      42.043  27.904  28.039  1.00  0.00     0.031 A 
ATOM     40  C   UNL A   1      40.174  26.591  28.803  1.00  0.00     0.131 A 
ATOM     41  C   UNL A   1      42.092  27.112  26.881  1.00  0.00     0.055 A 
ATOM     42  C   UNL A   1      40.281  25.756  27.688  1.00  0.00     0.041 A 
ATOM     43  F   UNL A   1      39.192  26.332  29.680  1.00  0.00    -0.206 F 
ATOM     44  C   UNL A   1      41.235  26.023  26.712  1.00  0.00     0.022 A 
BRANCH  41  45
ATOM     45  S   UNL A   1      43.198  27.617  25.534  1.00  0.00     0.124 S 
ATOM     46  O   UNL A   1      42.265  28.252  24.607  1.00  0.00    -0.237 OA
ATOM     47  O   UNL A   1      44.133  28.508  26.210  1.00  0.00    -0.237 OA
ATOM     48  O   UNL A   1      43.767  26.353  25.067  1.00  0.00    -0.744 OA
ENDBRANCH  41  45
ENDBRANCH  24  38
BRANCH  25  49
ATOM     49  C   UNL A   1      39.657  33.684  36.931  1.00  0.00     0.023 A 
ATOM     50  C   UNL A   1      39.035  33.182  38.083  1.00  0.00     0.031 A 
ATOM     51  C   UNL A   1      40.019  35.045  36.917  1.00  0.00     0.131 A 
ATOM     52  C   UNL A   1      38.741  34.044  39.151  1.00  0.00     0.055 A 
ATOM     53  C   UNL A   1      39.787  35.882  38.009  1.00  0.00     0.041 A 
ATOM     54  F   UNL A   1      40.619  35.580  35.842  1.00  0.00    -0.206 F 
ATOM     55  C   UNL A   1      39.128  35.386  39.129  1.00  0.00     0.022 A 
BRANCH  52  56
ATOM     56  S   UNL A   1      37.742  33.410  40.524  1.00  0.00     0.124 S 
ATOM     57  O   UNL A   1      37.573  34.604  41.345  1.00  0.00    -0.237 OA
ATOM     58  O   UNL A   1      36.548  32.933  39.833  1.00  0.00    -0.237 OA
ATOM     59  O   UNL A   1      38.585  32.367  41.104  1.00  0.00    -0.744 OA
ENDBRANCH  52  56
ENDBRANCH  25  49
BRANCH  37  60
ATOM     60  C   UNL A   1      44.230  28.633  35.461  1.00  0.00     0.023 A 
ATOM     61  C   UNL A   1      44.082  27.563  36.362  1.00  0.00     0.031 A 
ATOM     62  C   UNL A   1      45.507  29.204  35.318  1.00  0.00     0.131 A 
ATOM     63  C   UNL A   1      45.176  27.143  37.133  1.00  0.00     0.055 A 
ATOM     64  C   UNL A   1      46.608  28.735  36.036  1.00  0.00     0.041 A 
ATOM     65  F   UNL A   1      45.707  30.231  34.475  1.00  0.00    -0.206 F 
ATOM     66  C   UNL A   1      46.442  27.709  36.962  1.00  0.00     0.022 A 
BRANCH  63  67
ATOM     67  S   UNL A   1      44.898  25.920  38.443  1.00  0.00     0.124 S 
ATOM     68  O   UNL A   1      44.127  26.686  39.415  1.00  0.00    -0.237 OA
ATOM     69  O   UNL A   1      44.171  24.868  37.739  1.00  0.00    -0.237 OA
ATOM     70  O   UNL A   1      46.250  25.559  38.868  1.00  0.00    -0.744 OA
ENDBRANCH  63  67
ENDBRANCH  37  60
ENDBRANCH  11  12
ENDBRANCH   4   6
ENDBRANCH   1   2
BRANCH   1  71
ATOM     71  C   UNL A   1      31.533  31.849  26.625  1.00  0.00     0.042 C 
BRANCH  71  72
ATOM     72  C   UNL A   1      31.644  30.371  26.279  1.00  0.00     0.117 C 
BRANCH  72  73
ATOM     73  N   UNL A   1      32.595  30.150  25.202  1.00  0.00    -0.356 N 
ATOM     74  C   UNL A   1      32.805  29.092  24.380  1.00  0.00     0.225 C 
ATOM     75  H   UNL A   1      33.198  30.910  25.037  1.00  0.00     0.163 HD
ATOM     76  O   UNL A   1      33.755  29.180  23.595  1.00  0.00    -0.275 OA
BRANCH  74  77
ATOM     77  C   UNL A   1      31.888  27.887  24.317  1.00  0.00     0.107 C 
ATOM     78  C   UNL A   1      32.698  26.653  24.672  1.00  0.00     0.133 C 
ATOM     79  C   UNL A   1      31.171  27.525  23.002  1.00  0.00     0.053 C 
ATOM     80  N   UNL A   1      31.929  25.543  24.160  1.00  0.00    -0.341 N 
ATOM     81  C   UNL A   1      31.006  25.993  23.126  1.00  0.00     0.128 C 
BRANCH  79  82
ATOM     82  C   UNL A   1      29.909  28.326  22.706  1.00  0.00    -0.042 A 
ATOM     83  C   UNL A   1      29.948  29.540  22.001  1.00  0.00     0.004 A 
ATOM     84  C   UNL A   1      28.670  27.927  23.238  1.00  0.00     0.004 A 
ATOM     85  C   UNL A   1      28.792  30.301  21.805  1.00  0.00     0.000 A 
ATOM     86  C   UNL A   1      27.515  28.692  23.049  1.00  0.00     0.000 A 
ATOM     87  C   UNL A   1      27.575  29.878  22.328  1.00  0.00     0.000 A 
ENDBRANCH  79  82
BRANCH  80  88
ATOM     88  C   UNL A   1      31.970  24.218  24.520  1.00  0.00     0.225 C 
ATOM     89  O   UNL A   1      30.985  23.674  25.032  1.00  0.00    -0.275 OA
BRANCH  88  90
ATOM     90  C   UNL A   1      33.250  23.403  24.351  1.00  0.00     0.078 C 
ATOM     91  C   UNL A   1      34.018  23.604  23.050  1.00  0.00     0.013 C 
ATOM     92  C   UNL A   1      34.261  23.595  25.485  1.00  0.00     0.013 C 
ATOM     93  C   UNL A   1      35.432  23.160  23.385  1.00  0.00     0.001 C 
ATOM     94  C   UNL A   1      35.643  23.552  24.841  1.00  0.00     0.001 C 
ENDBRANCH  88  90
ENDBRANCH  80  88
ENDBRANCH  74  77
ENDBRANCH  72  73
ENDBRANCH  71  72
ENDBRANCH   1  71
TORSDOF 16
ENDMDL
MODEL 2
REMARK VINA RESULT:     -12.5      3.061      8.430
REMARK SMILES O=C(NCCCNC(=O)[C@@H]1CN(C(=O)C2CCCC2)C[C@H]1c1ccccc1)c1ccc(-c2c3nc(c(-c4cc(S(=O)(=O)[O-])ccc4F)c4ccc([nH]4)c(-c4cc(S(=O)(=O)[O-])ccc4F)c4nc(c(-c5cc(S(=O)(=O)[O-])ccc5F)c5ccc2[nH]5)C=C4)C=C3)cc1
REMARK SMILES IDX 4 1 3 2 1 3 2 4 28 6 29 7 90 8 30 9 89 10 31 11 32 12 33 13
REMARK SMILES IDX 83 14 34 15 88 16 82 17 84 18 35 19 87 20 81 21 80 22 36 24
REMARK SMILES IDX 68 25 48 26 67 27 49 28 52 29 66 30 85 31 50 32 51 33 65 35
REMARK SMILES IDX 86 36 53 37 37 38 38 39 46 40 39 41 45 42 47 43 44 44 40 45
REMARK SMILES IDX 41 46 42 47 43 48 69 49 70 50 78 51 71 52 77 53 79 54 76 55
REMARK SMILES IDX 72 56 73 57 74 58 75 59 54 60 55 61 63 62 56 63 62 64 64 65
REMARK SMILES IDX 61 66 57 67 58 68 59 69 60 70 5 71 6 72 7 73 8 74 9 76 10 77
REMARK SMILES IDX 11 78 21 79 12 80 20 81 22 82 23 83 27 84 24 85 26 86 25 87
REMARK SMILES IDX 13 88 14 89 15 90 16 91 19 92 17 93 18 94
REMARK H PARENT 3 5 84 23 52 34 7 75
REMARK Flexibility Score: inf
ROOT
ATOM      1  C   UNL A   1      34.027  28.760  25.812  1.00  0.00     0.118 C 
ENDROOT
BRANCH   1   2
ATOM      2  N   UNL A   1      33.757  30.111  26.285  1.00  0.00    -0.352 N 
ATOM      3  O   UNL A   1      33.836  31.845  27.716  1.00  0.00    -0.269 OA
ATOM      4  C   UNL A   1      34.360  30.814  27.298  1.00  0.00     0.251 C 
ATOM      5  H   UNL A   1      33.038  30.589  25.809  1.00  0.00     0.163 HD
BRANCH   4   6
ATOM      6  C   UNL A   1      35.629  30.329  27.877  1.00  0.00     0.039 A 
ATOM      7  C   UNL A   1      35.635  29.669  29.107  1.00  0.00     0.014 A 
ATOM      8  C   UNL A   1      36.824  30.510  27.174  1.00  0.00     0.014 A 
ATOM      9  C   UNL A   1      36.838  29.323  29.703  1.00  0.00     0.010 A 
ATOM     10  C   UNL A   1      38.027  30.061  27.728  1.00  0.00     0.010 A 
ATOM     11  C   UNL A   1      38.046  29.480  29.006  1.00  0.00    -0.014 A 
BRANCH  11  12
ATOM     12  C   UNL A   1      39.295  28.947  29.606  1.00  0.00     0.031 A 
ATOM     13  C   UNL A   1      39.844  29.508  30.886  1.00  0.00     0.074 A 
ATOM     14  C   UNL A   1      39.909  27.917  28.990  1.00  0.00     0.049 A 
ATOM     15  N   UNL A   1      40.921  29.157  31.542  1.00  0.00    -0.248 NA
ATOM     16  C   UNL A   1      39.094  30.610  31.507  1.00  0.00     0.031 C 
ATOM     17  C   UNL A   1      39.458  27.294  27.742  1.00  0.00     0.029 A 
ATOM     18  N   UNL A   1      41.024  27.196  29.332  1.00  0.00    -0.354 N 
ATOM     19  C   UNL A   1      40.984  29.996  32.650  1.00  0.00     0.074 A 
ATOM     20  C   UNL A   1      39.858  30.902  32.549  1.00  0.00     0.031 C 
ATOM     21  C   UNL A   1      40.254  26.256  27.452  1.00  0.00     0.029 A 
ATOM     22  C   UNL A   1      41.322  26.192  28.440  1.00  0.00     0.049 A 
ATOM     23  H   UNL A   1      41.560  27.379  30.137  1.00  0.00     0.167 HD
ATOM     24  C   UNL A   1      41.890  29.995  33.660  1.00  0.00     0.034 A 
ATOM     25  C   UNL A   1      42.358  25.333  28.401  1.00  0.00     0.034 A 
ATOM     26  C   UNL A   1      43.012  29.087  33.731  1.00  0.00     0.049 A 
ATOM     27  C   UNL A   1      43.389  25.404  29.496  1.00  0.00     0.074 A 
ATOM     28  C   UNL A   1      43.989  28.996  34.708  1.00  0.00     0.029 A 
ATOM     29  N   UNL A   1      43.315  28.117  32.782  1.00  0.00    -0.354 N 
ATOM     30  N   UNL A   1      43.428  26.199  30.541  1.00  0.00    -0.248 NA
ATOM     31  C   UNL A   1      44.510  24.463  29.409  1.00  0.00     0.031 C 
ATOM     32  C   UNL A   1      44.917  28.025  34.315  1.00  0.00     0.029 A 
ATOM     33  C   UNL A   1      44.478  27.446  33.135  1.00  0.00     0.049 A 
ATOM     34  H   UNL A   1      42.781  27.931  31.974  1.00  0.00     0.167 HD
ATOM     35  C   UNL A   1      44.567  25.832  31.250  1.00  0.00     0.074 A 
ATOM     36  C   UNL A   1      45.168  24.730  30.526  1.00  0.00     0.031 C 
ATOM     37  C   UNL A   1      45.071  26.357  32.396  1.00  0.00     0.034 A 
BRANCH  24  38
ATOM     38  C   UNL A   1      41.725  31.034  34.744  1.00  0.00     0.023 A 
ATOM     39  C   UNL A   1      40.606  31.044  35.595  1.00  0.00     0.031 A 
ATOM     40  C   UNL A   1      42.693  32.040  34.923  1.00  0.00     0.131 A 
ATOM     41  C   UNL A   1      40.446  32.074  36.535  1.00  0.00     0.055 A 
ATOM     42  C   UNL A   1      42.569  33.016  35.915  1.00  0.00     0.041 A 
ATOM     43  F   UNL A   1      43.773  32.098  34.129  1.00  0.00    -0.206 F 
ATOM     44  C   UNL A   1      41.434  33.045  36.719  1.00  0.00     0.022 A 
BRANCH  41  45
ATOM     45  S   UNL A   1      38.864  32.209  37.412  1.00  0.00     0.124 S 
ATOM     46  O   UNL A   1      38.303  33.424  36.826  1.00  0.00    -0.237 OA
ATOM     47  O   UNL A   1      38.198  30.961  37.056  1.00  0.00    -0.237 OA
ATOM     48  O   UNL A   1      39.259  32.327  38.815  1.00  0.00    -0.744 OA
ENDBRANCH  41  45
ENDBRANCH  24  38
BRANCH  25  49
ATOM     49  C   UNL A   1      42.497  24.366  27.275  1.00  0.00     0.023 A 
ATOM     50  C   UNL A   1      41.872  23.111  27.315  1.00  0.00     0.031 A 
ATOM     51  C   UNL A   1      43.299  24.668  26.158  1.00  0.00     0.131 A 
ATOM     52  C   UNL A   1      42.104  22.182  26.288  1.00  0.00     0.055 A 
ATOM     53  C   UNL A   1      43.470  23.767  25.106  1.00  0.00     0.041 A 
ATOM     54  F   UNL A   1      43.919  25.855  26.065  1.00  0.00    -0.206 F 
ATOM     55  C   UNL A   1      42.885  22.508  25.177  1.00  0.00     0.022 A 
BRANCH  52  56
ATOM     56  S   UNL A   1      41.461  20.498  26.484  1.00  0.00     0.124 S 
ATOM     57  O   UNL A   1      40.037  20.694  26.239  1.00  0.00    -0.237 OA
ATOM     58  O   UNL A   1      42.196  19.773  25.453  1.00  0.00    -0.237 OA
ATOM     59  O   UNL A   1      41.817  20.157  27.859  1.00  0.00    -0.744 OA
ENDBRANCH  52  56
ENDBRANCH  25  49
BRANCH  37  60
ATOM     60  C   UNL A   1      46.313  25.702  32.953  1.00  0.00     0.023 A 
ATOM     61  C   UNL A   1      46.243  24.609  33.835  1.00  0.00     0.031 A 
ATOM     62  C   UNL A   1      47.584  26.203  32.620  1.00  0.00     0.131 A 
ATOM     63  C   UNL A   1      47.417  24.095  34.405  1.00  0.00     0.055 A 
ATOM     64  C   UNL A   1      48.754  25.642  33.136  1.00  0.00     0.041 A 
ATOM     65  F   UNL A   1      47.711  27.249  31.787  1.00  0.00    -0.206 F 
ATOM     66  C   UNL A   1      48.673  24.593  34.047  1.00  0.00     0.022 A 
BRANCH  63  67
ATOM     67  S   UNL A   1      47.275  22.841  35.706  1.00  0.00     0.124 S 
ATOM     68  O   UNL A   1      46.065  23.262  36.404  1.00  0.00    -0.237 OA
ATOM     69  O   UNL A   1      47.170  21.604  34.938  1.00  0.00    -0.237 OA
ATOM     70  O   UNL A   1      48.515  22.993  36.466  1.00  0.00    -0.744 OA
ENDBRANCH  63  67
ENDBRANCH  37  60
ENDBRANCH  11  12
ENDBRANCH   4   6
ENDBRANCH   1   2
BRANCH   1  71
ATOM     71  C   UNL A   1      33.227  27.719  26.578  1.00  0.00     0.042 C 
BRANCH  71  72
ATOM     72  C   UNL A   1      31.763  28.101  26.747  1.00  0.00     0.117 C 
BRANCH  72  73
ATOM     73  N   UNL A   1      30.926  26.925  26.919  1.00  0.00    -0.356 N 
ATOM     74  C   UNL A   1      30.341  26.090  26.026  1.00  0.00     0.225 C 
ATOM     75  H   UNL A   1      30.752  26.691  27.859  1.00  0.00     0.163 HD
ATOM     76  O   UNL A   1      29.617  25.202  26.489  1.00  0.00    -0.275 OA
BRANCH  74  77
ATOM     77  C   UNL A   1      30.614  26.134  24.536  1.00  0.00     0.107 C 
ATOM     78  C   UNL A   1      31.787  25.216  24.239  1.00  0.00     0.133 C 
ATOM     79  C   UNL A   1      30.970  27.467  23.850  1.00  0.00     0.053 C 
ATOM     80  N   UNL A   1      32.275  25.642  22.948  1.00  0.00    -0.341 N 
ATOM     81  C   UNL A   1      31.844  27.005  22.661  1.00  0.00     0.128 C 
BRANCH  79  82
ATOM     82  C   UNL A   1      29.786  28.366  23.519  1.00  0.00    -0.042 A 
ATOM     83  C   UNL A   1      29.902  29.766  23.487  1.00  0.00     0.004 A 
ATOM     84  C   UNL A   1      28.501  27.820  23.348  1.00  0.00     0.004 A 
ATOM     85  C   UNL A   1      28.789  30.580  23.256  1.00  0.00     0.000 A 
ATOM     86  C   UNL A   1      27.387  28.634  23.126  1.00  0.00     0.000 A 
ATOM     87  C   UNL A   1      27.532  30.015  23.076  1.00  0.00     0.000 A 
ENDBRANCH  79  82
BRANCH  80  88
ATOM     88  C   UNL A   1      33.036  24.953  22.036  1.00  0.00     0.225 C 
ATOM     89  O   UNL A   1      33.188  25.384  20.888  1.00  0.00    -0.275 OA
BRANCH  88  90
ATOM     90  C   UNL A   1      33.661  23.609  22.400  1.00  0.00     0.078 C 
ATOM     91  C   UNL A   1      34.691  23.619  23.524  1.00  0.00     0.013 C 
ATOM     92  C   UNL A   1      32.640  22.526  22.758  1.00  0.00     0.013 C 
ATOM     93  C   UNL A   1      34.699  22.186  24.030  1.00  0.00     0.001 C 
ATOM     94  C   UNL A   1      33.266  21.696  23.876  1.00  0.00     0.001 C 
ENDBRANCH  88  90
ENDBRANCH  80  88
ENDBRANCH  74  77
ENDBRANCH  72  73
ENDBRANCH  71  72
ENDBRANCH   1  71
TORSDOF 16
ENDMDL
MODEL 3
REMARK VINA RESULT:     -12.5      3.865      8.499
REMARK SMILES O=C(NCCCNC(=O)[C@@H]1CN(C(=O)C2CCCC2)C[C@H]1c1ccccc1)c1ccc(-c2c3nc(c(-c4cc(S(=O)(=O)[O-])ccc4F)c4ccc([nH]4)c(-c4cc(S(=O)(=O)[O-])ccc4F)c4nc(c(-c5cc(S(=O)(=O)[O-])ccc5F)c5ccc2[nH]5)C=C4)C=C3)cc1
REMARK SMILES IDX 4 1 3 2 1 3 2 4 28 6 29 7 90 8 30 9 89 10 31 11 32 12 33 13
REMARK SMILES IDX 83 14 34 15 88 16 82 17 84 18 35 19 87 20 81 21 80 22 36 24
REMARK SMILES IDX 68 25 48 26 67 27 49 28 52 29 66 30 85 31 50 32 51 33 65 35
REMARK SMILES IDX 86 36 53 37 37 38 38 39 46 40 39 41 45 42 47 43 44 44 40 45
REMARK SMILES IDX 41 46 42 47 43 48 69 49 70 50 78 51 71 52 77 53 79 54 76 55
REMARK SMILES IDX 72 56 73 57 74 58 75 59 54 60 55 61 63 62 56 63 62 64 64 65
REMARK SMILES IDX 61 66 57 67 58 68 59 69 60 70 5 71 6 72 7 73 8 74 9 76 10 77
REMARK SMILES IDX 11 78 21 79 12 80 20 81 22 82 23 83 27 84 24 85 26 86 25 87
REMARK SMILES IDX 13 88 14 89 15 90 16 91 19 92 17 93 18 94
REMARK H PARENT 3 5 84 23 52 34 7 75
REMARK Flexibility Score: inf
ROOT
ATOM      1  C   UNL A   1      34.110  28.801  25.969  1.00  0.00     0.118 C 
ENDROOT
BRANCH   1   2
ATOM      2  N   UNL A   1      33.826  30.127  26.501  1.00  0.00    -0.352 N 
ATOM      3  O   UNL A   1      33.898  31.802  28.002  1.00  0.00    -0.269 OA
ATOM      4  C   UNL A   1      34.432  30.797  27.535  1.00  0.00     0.251 C 
ATOM      5  H   UNL A   1      33.094  30.613  26.055  1.00  0.00     0.163 HD
BRANCH   4   6
ATOM      6  C   UNL A   1      35.716  30.308  28.077  1.00  0.00     0.039 A 
ATOM      7  C   UNL A   1      35.750  29.618  29.290  1.00  0.00     0.014 A 
ATOM      8  C   UNL A   1      36.896  30.517  27.356  1.00  0.00     0.014 A 
ATOM      9  C   UNL A   1      36.968  29.267  29.853  1.00  0.00     0.010 A 
ATOM     10  C   UNL A   1      38.112  30.064  27.874  1.00  0.00     0.010 A 
ATOM     11  C   UNL A   1      38.161  29.451  29.137  1.00  0.00    -0.014 A 
BRANCH  11  12
ATOM     12  C   UNL A   1      39.425  28.914  29.699  1.00  0.00     0.031 A 
ATOM     13  C   UNL A   1      40.048  29.513  30.927  1.00  0.00     0.074 A 
ATOM     14  C   UNL A   1      39.986  27.844  29.099  1.00  0.00     0.049 A 
ATOM     15  N   UNL A   1      41.147  29.163  31.546  1.00  0.00    -0.248 NA
ATOM     16  C   UNL A   1      39.353  30.657  31.536  1.00  0.00     0.031 C 
ATOM     17  C   UNL A   1      39.462  27.182  27.900  1.00  0.00     0.029 A 
ATOM     18  N   UNL A   1      41.100  27.112  29.417  1.00  0.00    -0.354 N 
ATOM     19  C   UNL A   1      41.281  30.045  32.613  1.00  0.00     0.074 A 
ATOM     20  C   UNL A   1      40.172  30.973  32.528  1.00  0.00     0.031 C 
ATOM     21  C   UNL A   1      40.221  26.115  27.618  1.00  0.00     0.029 A 
ATOM     22  C   UNL A   1      41.333  26.065  28.556  1.00  0.00     0.049 A 
ATOM     23  H   UNL A   1      41.678  27.315  30.188  1.00  0.00     0.167 HD
ATOM     24  C   UNL A   1      42.235  30.064  33.578  1.00  0.00     0.034 A 
ATOM     25  C   UNL A   1      42.347  25.181  28.504  1.00  0.00     0.034 A 
ATOM     26  C   UNL A   1      43.339  29.134  33.634  1.00  0.00     0.049 A 
ATOM     27  C   UNL A   1      43.431  25.273  29.545  1.00  0.00     0.074 A 
ATOM     28  C   UNL A   1      44.359  29.059  34.567  1.00  0.00     0.029 A 
ATOM     29  N   UNL A   1      43.575  28.118  32.713  1.00  0.00    -0.354 N 
ATOM     30  N   UNL A   1      43.538  26.108  30.552  1.00  0.00    -0.248 NA
ATOM     31  C   UNL A   1      44.525  24.302  29.444  1.00  0.00     0.031 C 
ATOM     32  C   UNL A   1      45.246  28.051  34.172  1.00  0.00     0.029 A 
ATOM     33  C   UNL A   1      44.738  27.435  33.040  1.00  0.00     0.049 A 
ATOM     34  H   UNL A   1      42.999  27.913  31.941  1.00  0.00     0.167 HD
ATOM     35  C   UNL A   1      44.701  25.743  31.222  1.00  0.00     0.074 A 
ATOM     36  C   UNL A   1      45.242  24.599  30.517  1.00  0.00     0.031 C 
ATOM     37  C   UNL A   1      45.271  26.302  32.320  1.00  0.00     0.034 A 
BRANCH  24  38
ATOM     38  C   UNL A   1      42.146  31.150  34.625  1.00  0.00     0.023 A 
ATOM     39  C   UNL A   1      42.812  32.379  34.475  1.00  0.00     0.031 A 
ATOM     40  C   UNL A   1      41.396  30.950  35.798  1.00  0.00     0.131 A 
ATOM     41  C   UNL A   1      42.773  33.330  35.507  1.00  0.00     0.055 A 
ATOM     42  C   UNL A   1      41.294  31.934  36.786  1.00  0.00     0.041 A 
ATOM     43  F   UNL A   1      40.755  29.791  36.011  1.00  0.00    -0.206 F 
ATOM     44  C   UNL A   1      41.997  33.127  36.650  1.00  0.00     0.022 A 
BRANCH  41  45
ATOM     45  S   UNL A   1      43.868  34.773  35.396  1.00  0.00     0.124 S 
ATOM     46  O   UNL A   1      42.913  35.876  35.480  1.00  0.00    -0.237 OA
ATOM     47  O   UNL A   1      44.742  34.596  36.549  1.00  0.00    -0.237 OA
ATOM     48  O   UNL A   1      44.512  34.615  34.093  1.00  0.00    -0.744 OA
ENDBRANCH  41  45
ENDBRANCH  24  38
BRANCH  25  49
ATOM     49  C   UNL A   1      42.410  24.166  27.414  1.00  0.00     0.023 A 
ATOM     50  C   UNL A   1      41.727  22.945  27.519  1.00  0.00     0.031 A 
ATOM     51  C   UNL A   1      43.197  24.385  26.267  1.00  0.00     0.131 A 
ATOM     52  C   UNL A   1      41.887  21.968  26.524  1.00  0.00     0.055 A 
ATOM     53  C   UNL A   1      43.298  23.437  25.249  1.00  0.00     0.041 A 
ATOM     54  F   UNL A   1      43.871  25.535  26.113  1.00  0.00    -0.206 F 
ATOM     55  C   UNL A   1      42.654  22.211  25.382  1.00  0.00     0.022 A 
BRANCH  52  56
ATOM     56  S   UNL A   1      41.169  20.326  26.802  1.00  0.00     0.124 S 
ATOM     57  O   UNL A   1      39.977  20.378  25.963  1.00  0.00    -0.237 OA
ATOM     58  O   UNL A   1      42.239  19.447  26.343  1.00  0.00    -0.237 OA
ATOM     59  O   UNL A   1      40.920  20.304  28.241  1.00  0.00    -0.744 OA
ENDBRANCH  52  56
ENDBRANCH  25  49
BRANCH  37  60
ATOM     60  C   UNL A   1      46.524  25.642  32.844  1.00  0.00     0.023 A 
ATOM     61  C   UNL A   1      47.790  25.914  32.298  1.00  0.00     0.031 A 
ATOM     62  C   UNL A   1      46.442  24.702  33.887  1.00  0.00     0.131 A 
ATOM     63  C   UNL A   1      48.913  25.205  32.750  1.00  0.00     0.055 A 
ATOM     64  C   UNL A   1      47.573  24.051  34.381  1.00  0.00     0.041 A 
ATOM     65  F   UNL A   1      45.258  24.399  34.444  1.00  0.00    -0.206 F 
ATOM     66  C   UNL A   1      48.816  24.289  33.800  1.00  0.00     0.022 A 
BRANCH  63  67
ATOM     67  S   UNL A   1      50.486  25.415  31.871  1.00  0.00     0.124 S 
ATOM     68  O   UNL A   1      50.102  26.285  30.765  1.00  0.00    -0.237 OA
ATOM     69  O   UNL A   1      51.336  26.019  32.892  1.00  0.00    -0.237 OA
ATOM     70  O   UNL A   1      50.850  24.051  31.491  1.00  0.00    -0.744 OA
ENDBRANCH  63  67
ENDBRANCH  37  60
ENDBRANCH  11  12
ENDBRANCH   4   6
ENDBRANCH   1   2
BRANCH   1  71
ATOM     71  C   UNL A   1      33.262  27.729  26.634  1.00  0.00     0.042 C 
BRANCH  71  72
ATOM     72  C   UNL A   1      31.802  28.134  26.784  1.00  0.00     0.117 C 
BRANCH  72  73
ATOM     73  N   UNL A   1      30.945  26.971  26.948  1.00  0.00    -0.356 N 
ATOM     74  C   UNL A   1      30.348  26.151  26.049  1.00  0.00     0.225 C 
ATOM     75  H   UNL A   1      30.765  26.735  27.887  1.00  0.00     0.163 HD
ATOM     76  O   UNL A   1      29.608  25.274  26.505  1.00  0.00    -0.275 OA
BRANCH  74  77
ATOM     77  C   UNL A   1      30.624  26.200  24.559  1.00  0.00     0.107 C 
ATOM     78  C   UNL A   1      31.800  25.287  24.263  1.00  0.00     0.133 C 
ATOM     79  C   UNL A   1      30.977  27.536  23.878  1.00  0.00     0.053 C 
ATOM     80  N   UNL A   1      32.290  25.719  22.975  1.00  0.00    -0.341 N 
ATOM     81  C   UNL A   1      31.854  27.080  22.690  1.00  0.00     0.128 C 
BRANCH  79  82
ATOM     82  C   UNL A   1      29.790  28.432  23.546  1.00  0.00    -0.042 A 
ATOM     83  C   UNL A   1      29.882  29.833  23.587  1.00  0.00     0.004 A 
ATOM     84  C   UNL A   1      28.522  27.875  23.300  1.00  0.00     0.004 A 
ATOM     85  C   UNL A   1      28.764  30.640  23.355  1.00  0.00     0.000 A 
ATOM     86  C   UNL A   1      27.403  28.681  23.075  1.00  0.00     0.000 A 
ATOM     87  C   UNL A   1      27.525  30.065  23.098  1.00  0.00     0.000 A 
ENDBRANCH  79  82
BRANCH  80  88
ATOM     88  C   UNL A   1      33.055  25.034  22.062  1.00  0.00     0.225 C 
ATOM     89  O   UNL A   1      33.207  25.468  20.915  1.00  0.00    -0.275 OA
BRANCH  88  90
ATOM     90  C   UNL A   1      33.687  23.692  22.426  1.00  0.00     0.078 C 
ATOM     91  C   UNL A   1      34.688  23.700  23.575  1.00  0.00     0.013 C 
ATOM     92  C   UNL A   1      32.669  22.594  22.744  1.00  0.00     0.013 C 
ATOM     93  C   UNL A   1      34.699  22.261  24.063  1.00  0.00     0.001 C 
ATOM     94  C   UNL A   1      33.276  21.757  23.866  1.00  0.00     0.001 C 
ENDBRANCH  88  90
ENDBRANCH  80  88
ENDBRANCH  74  77
ENDBRANCH  72  73
ENDBRANCH  71  72
ENDBRANCH   1  71
TORSDOF 16
ENDMDL
