MODEL 1
REMARK VINA RESULT:     -10.1      0.000      0.000
REMARK SMILES O=C(CSc1nc2cnccc2n1CCC1CC1)NCCCNC(=O)c1ccc(-c2c3nc(c(-c4cc(S(=O)(=O)[O-])ccc4F)c4ccc([nH]4)c(-c4cc(S(=O)(=O)[O-])ccc4F)c4nc(c(-c5cc(S(=O)(=O)[O-])ccc5F)c5ccc2[nH]5)C=C4)C=C3)cc1
REMARK SMILES IDX 20 1 19 2 1 3 2 4 3 6 4 7 5 8 6 9 13 10 7 11 12 12 8 13
REMARK SMILES IDX 11 14 9 15 10 16 14 17 15 18 16 19 17 20 18 21 21 22 22 23
REMARK SMILES IDX 23 24 24 25 25 27 26 28 27 29 88 30 28 31 87 32 29 33 30 34
REMARK SMILES IDX 31 35 81 36 32 37 86 38 80 39 82 40 33 41 85 42 79 43 78 44
REMARK SMILES IDX 34 46 66 47 46 48 65 49 47 50 50 51 64 52 83 53 48 54 49 55
REMARK SMILES IDX 63 57 84 58 51 59 35 60 36 61 44 62 37 63 43 64 45 65 42 66
REMARK SMILES IDX 38 67 39 68 40 69 41 70 67 71 68 72 76 73 69 74 75 75 77 76
REMARK SMILES IDX 74 77 70 78 71 79 72 80 73 81 52 82 53 83 61 84 54 85 60 86
REMARK SMILES IDX 62 87 59 88 55 89 56 90 57 91 58 92
REMARK H PARENT 19 5 23 26 82 45 50 56
REMARK Flexibility Score: inf
ROOT
ATOM      1  C   UNL A   1      33.555  35.438  29.921  1.00  0.00     0.117 C 
ENDROOT
BRANCH   1   2
ATOM      2  N   UNL A   1      34.267  35.740  31.173  1.00  0.00    -0.355 N 
ATOM      3  O   UNL A   1      32.765  34.615  32.497  1.00  0.00    -0.274 OA
ATOM      4  C   UNL A   1      33.835  35.214  32.396  1.00  0.00     0.230 C 
ATOM      5  H   UNL A   1      35.060  36.323  31.150  1.00  0.00     0.163 HD
BRANCH   4   6
ATOM      6  C   UNL A   1      34.748  35.436  33.606  1.00  0.00     0.178 C 
BRANCH   6   7
ATOM      7  S   UNL A   1      36.009  34.177  34.017  1.00  0.00    -0.078 SA
BRANCH   7   8
ATOM      8  C   UNL A   1      37.438  34.343  33.031  1.00  0.00     0.169 A 
ATOM      9  N   UNL A   1      37.411  34.902  31.837  1.00  0.00    -0.221 NA
ATOM     10  N   UNL A   1      38.622  33.625  33.208  1.00  0.00    -0.319 N 
ATOM     11  C   UNL A   1      38.642  34.646  31.270  1.00  0.00     0.108 A 
ATOM     12  C   UNL A   1      39.466  33.974  32.163  1.00  0.00     0.072 A 
ATOM     13  C   UNL A   1      39.138  34.913  29.989  1.00  0.00     0.141 A 
ATOM     14  C   UNL A   1      40.796  33.663  31.873  1.00  0.00     0.049 A 
ATOM     15  N   UNL A   1      40.416  34.576  29.655  1.00  0.00    -0.262 NA
ATOM     16  C   UNL A   1      41.206  34.003  30.593  1.00  0.00     0.113 A 
BRANCH  10  17
ATOM     17  C   UNL A   1      38.899  32.427  34.003  1.00  0.00     0.125 C 
BRANCH  17  18
ATOM     18  C   UNL A   1      38.913  31.087  33.266  1.00  0.00     0.025 C 
BRANCH  18  19
ATOM     19  C   UNL A   1      37.661  30.292  33.395  1.00  0.00    -0.009 C 
ATOM     20  C   UNL A   1      36.631  30.846  32.494  1.00  0.00     0.004 C 
ATOM     21  C   UNL A   1      36.973  29.391  32.395  1.00  0.00     0.004 C 
ENDBRANCH  18  19
ENDBRANCH  17  18
ENDBRANCH  10  17
ENDBRANCH   7   8
ENDBRANCH   6   7
ENDBRANCH   4   6
ENDBRANCH   1   2
BRANCH   1  22
ATOM     22  C   UNL A   1      34.391  34.847  28.763  1.00  0.00     0.042 C 
BRANCH  22  23
ATOM     23  C   UNL A   1      35.580  33.929  29.091  1.00  0.00     0.118 C 
BRANCH  23  24
ATOM     24  N   UNL A   1      35.956  33.009  28.027  1.00  0.00    -0.352 N 
ATOM     25  C   UNL A   1      35.861  31.641  28.064  1.00  0.00     0.251 C 
ATOM     26  H   UNL A   1      36.313  33.409  27.200  1.00  0.00     0.163 HD
ATOM     27  O   UNL A   1      35.113  31.061  27.281  1.00  0.00    -0.269 OA
BRANCH  25  28
ATOM     28  C   UNL A   1      36.938  30.926  28.775  1.00  0.00     0.039 A 
ATOM     29  C   UNL A   1      38.019  31.612  29.328  1.00  0.00     0.014 A 
ATOM     30  C   UNL A   1      36.969  29.530  28.631  1.00  0.00     0.014 A 
ATOM     31  C   UNL A   1      39.199  30.938  29.553  1.00  0.00     0.010 A 
ATOM     32  C   UNL A   1      38.147  28.849  28.878  1.00  0.00     0.010 A 
ATOM     33  C   UNL A   1      39.275  29.577  29.251  1.00  0.00    -0.014 A 
BRANCH  33  34
ATOM     34  C   UNL A   1      40.569  28.937  29.418  1.00  0.00     0.031 A 
ATOM     35  C   UNL A   1      40.875  28.588  30.832  1.00  0.00     0.074 A 
ATOM     36  C   UNL A   1      41.346  28.630  28.361  1.00  0.00     0.049 A 
ATOM     37  N   UNL A   1      41.846  29.013  31.573  1.00  0.00    -0.248 NA
ATOM     38  C   UNL A   1      39.856  27.816  31.564  1.00  0.00     0.031 C 
ATOM     39  C   UNL A   1      41.002  28.713  26.938  1.00  0.00     0.029 A 
ATOM     40  N   UNL A   1      42.578  28.058  28.335  1.00  0.00    -0.354 N 
ATOM     41  C   UNL A   1      41.674  28.388  32.809  1.00  0.00     0.074 A 
ATOM     42  C   UNL A   1      40.343  27.841  32.801  1.00  0.00     0.031 C 
ATOM     43  C   UNL A   1      41.875  27.966  26.226  1.00  0.00     0.029 A 
ATOM     44  C   UNL A   1      42.905  27.469  27.120  1.00  0.00     0.049 A 
ATOM     45  H   UNL A   1      43.186  28.062  29.109  1.00  0.00     0.167 HD
ATOM     46  C   UNL A   1      42.720  28.164  33.656  1.00  0.00     0.034 A 
ATOM     47  C   UNL A   1      43.874  26.540  26.913  1.00  0.00     0.034 A 
ATOM     48  C   UNL A   1      43.845  28.991  33.320  1.00  0.00     0.049 A 
ATOM     49  C   UNL A   1      44.795  26.573  28.077  1.00  0.00     0.074 A 
ATOM     50  C   UNL A   1      44.064  30.354  33.304  1.00  0.00     0.029 A 
ATOM     51  N   UNL A   1      44.845  28.433  32.562  1.00  0.00    -0.354 N 
ATOM     52  N   UNL A   1      45.599  27.566  28.333  1.00  0.00    -0.248 NA
ATOM     53  C   UNL A   1      44.461  25.729  29.218  1.00  0.00     0.031 C 
ATOM     54  C   UNL A   1      44.881  30.578  32.163  1.00  0.00     0.029 A 
ATOM     55  C   UNL A   1      45.183  29.341  31.591  1.00  0.00     0.049 A 
ATOM     56  H   UNL A   1      45.245  27.544  32.692  1.00  0.00     0.167 HD
ATOM     57  C   UNL A   1      45.499  27.749  29.705  1.00  0.00     0.074 A 
ATOM     58  C   UNL A   1      44.850  26.538  30.207  1.00  0.00     0.031 C 
ATOM     59  C   UNL A   1      45.664  28.979  30.273  1.00  0.00     0.034 A 
BRANCH  46  60
ATOM     60  C   UNL A   1      42.830  26.944  34.541  1.00  0.00     0.023 A 
ATOM     61  C   UNL A   1      43.586  25.809  34.193  1.00  0.00     0.031 A 
ATOM     62  C   UNL A   1      42.371  26.983  35.874  1.00  0.00     0.131 A 
ATOM     63  C   UNL A   1      43.866  24.790  35.113  1.00  0.00     0.055 A 
ATOM     64  C   UNL A   1      42.704  25.998  36.814  1.00  0.00     0.041 A 
ATOM     65  F   UNL A   1      41.637  28.014  36.323  1.00  0.00    -0.206 F 
ATOM     66  C   UNL A   1      43.459  24.896  36.436  1.00  0.00     0.022 A 
BRANCH  63  67
ATOM     67  S   UNL A   1      44.788  23.320  34.584  1.00  0.00     0.124 S 
ATOM     68  O   UNL A   1      44.504  22.383  35.674  1.00  0.00    -0.237 OA
ATOM     69  O   UNL A   1      44.144  23.012  33.307  1.00  0.00    -0.237 OA
ATOM     70  O   UNL A   1      46.159  23.786  34.489  1.00  0.00    -0.744 OA
ENDBRANCH  63  67
ENDBRANCH  46  60
BRANCH  47  71
ATOM     71  C   UNL A   1      43.722  25.327  26.070  1.00  0.00     0.023 A 
ATOM     72  C   UNL A   1      42.780  24.344  26.433  1.00  0.00     0.031 A 
ATOM     73  C   UNL A   1      44.675  24.973  25.100  1.00  0.00     0.131 A 
ATOM     74  C   UNL A   1      42.830  23.060  25.879  1.00  0.00     0.055 A 
ATOM     75  C   UNL A   1      44.712  23.692  24.531  1.00  0.00     0.041 A 
ATOM     76  F   UNL A   1      45.630  25.842  24.736  1.00  0.00    -0.206 F 
ATOM     77  C   UNL A   1      43.794  22.723  24.929  1.00  0.00     0.022 A 
BRANCH  74  78
ATOM     78  S   UNL A   1      41.689  21.778  26.466  1.00  0.00     0.124 S 
ATOM     79  O   UNL A   1      42.120  20.607  25.706  1.00  0.00    -0.237 OA
ATOM     80  O   UNL A   1      41.987  21.748  27.894  1.00  0.00    -0.237 OA
ATOM     81  O   UNL A   1      40.374  22.297  26.102  1.00  0.00    -0.744 OA
ENDBRANCH  74  78
ENDBRANCH  47  71
BRANCH  59  82
ATOM     82  C   UNL A   1      46.143  30.130  29.412  1.00  0.00     0.023 A 
ATOM     83  C   UNL A   1      45.180  30.775  28.620  1.00  0.00     0.031 A 
ATOM     84  C   UNL A   1      47.497  30.414  29.147  1.00  0.00     0.131 A 
ATOM     85  C   UNL A   1      45.573  31.612  27.570  1.00  0.00     0.055 A 
ATOM     86  C   UNL A   1      47.884  31.315  28.149  1.00  0.00     0.041 A 
ATOM     87  F   UNL A   1      48.485  29.763  29.770  1.00  0.00    -0.206 F 
ATOM     88  C   UNL A   1      46.920  31.901  27.339  1.00  0.00     0.022 A 
BRANCH  85  89
ATOM     89  S   UNL A   1      44.351  32.184  26.363  1.00  0.00     0.124 S 
ATOM     90  O   UNL A   1      43.754  33.327  27.049  1.00  0.00    -0.237 OA
ATOM     91  O   UNL A   1      45.187  32.511  25.209  1.00  0.00    -0.237 OA
ATOM     92  O   UNL A   1      43.470  31.034  26.180  1.00  0.00    -0.744 OA
ENDBRANCH  85  89
ENDBRANCH  59  82
ENDBRANCH  33  34
ENDBRANCH  25  28
ENDBRANCH  23  24
ENDBRANCH  22  23
ENDBRANCH   1  22
TORSDOF 18
ENDMDL
MODEL 2
REMARK VINA RESULT:      -9.8      1.775      2.620
REMARK SMILES O=C(CSc1nc2cnccc2n1CCC1CC1)NCCCNC(=O)c1ccc(-c2c3nc(c(-c4cc(S(=O)(=O)[O-])ccc4F)c4ccc([nH]4)c(-c4cc(S(=O)(=O)[O-])ccc4F)c4nc(c(-c5cc(S(=O)(=O)[O-])ccc5F)c5ccc2[nH]5)C=C4)C=C3)cc1
REMARK SMILES IDX 20 1 19 2 1 3 2 4 3 6 4 7 5 8 6 9 13 10 7 11 12 12 8 13
REMARK SMILES IDX 11 14 9 15 10 16 14 17 15 18 16 19 17 20 18 21 21 22 22 23
REMARK SMILES IDX 23 24 24 25 25 27 26 28 27 29 88 30 28 31 87 32 29 33 30 34
REMARK SMILES IDX 31 35 81 36 32 37 86 38 80 39 82 40 33 41 85 42 79 43 78 44
REMARK SMILES IDX 34 46 66 47 46 48 65 49 47 50 50 51 64 52 83 53 48 54 49 55
REMARK SMILES IDX 63 57 84 58 51 59 35 60 36 61 44 62 37 63 43 64 45 65 42 66
REMARK SMILES IDX 38 67 39 68 40 69 41 70 67 71 68 72 76 73 69 74 75 75 77 76
REMARK SMILES IDX 74 77 70 78 71 79 72 80 73 81 52 82 53 83 61 84 54 85 60 86
REMARK SMILES IDX 62 87 59 88 55 89 56 90 57 91 58 92
REMARK H PARENT 19 5 23 26 82 45 50 56
REMARK Flexibility Score: inf
ROOT
ATOM      1  C   UNL A   1      32.995  35.909  29.477  1.00  0.00     0.117 C 
ENDROOT
BRANCH   1   2
ATOM      2  N   UNL A   1      33.854  36.003  30.668  1.00  0.00    -0.355 N 
ATOM      3  O   UNL A   1      32.218  35.288  32.113  1.00  0.00    -0.274 OA
ATOM      4  C   UNL A   1      33.395  35.591  31.925  1.00  0.00     0.230 C 
ATOM      5  H   UNL A   1      34.766  36.361  30.579  1.00  0.00     0.163 HD
BRANCH   4   6
ATOM      6  C   UNL A   1      34.425  35.556  33.059  1.00  0.00     0.178 C 
BRANCH   6   7
ATOM      7  S   UNL A   1      36.106  34.921  32.719  1.00  0.00    -0.078 SA
BRANCH   7   8
ATOM      8  C   UNL A   1      36.621  33.771  33.925  1.00  0.00     0.169 A 
ATOM      9  N   UNL A   1      36.753  34.093  35.197  1.00  0.00    -0.221 NA
ATOM     10  N   UNL A   1      37.270  32.564  33.657  1.00  0.00    -0.319 N 
ATOM     11  C   UNL A   1      37.392  33.027  35.795  1.00  0.00     0.108 A 
ATOM     12  C   UNL A   1      37.597  32.001  34.882  1.00  0.00     0.072 A 
ATOM     13  C   UNL A   1      37.873  32.855  37.098  1.00  0.00     0.141 A 
ATOM     14  C   UNL A   1      38.153  30.771  35.243  1.00  0.00     0.049 A 
ATOM     15  N   UNL A   1      38.468  31.687  37.470  1.00  0.00    -0.262 NA
ATOM     16  C   UNL A   1      38.561  30.685  36.565  1.00  0.00     0.113 A 
BRANCH  10  17
ATOM     17  C   UNL A   1      37.915  32.082  32.434  1.00  0.00     0.125 C 
BRANCH  17  18
ATOM     18  C   UNL A   1      39.403  32.393  32.259  1.00  0.00     0.025 C 
BRANCH  18  19
ATOM     19  C   UNL A   1      39.693  33.658  31.529  1.00  0.00    -0.009 C 
ATOM     20  C   UNL A   1      41.082  34.077  31.803  1.00  0.00     0.004 C 
ATOM     21  C   UNL A   1      40.639  33.923  30.381  1.00  0.00     0.004 C 
ENDBRANCH  18  19
ENDBRANCH  17  18
ENDBRANCH  10  17
ENDBRANCH   7   8
ENDBRANCH   6   7
ENDBRANCH   4   6
ENDBRANCH   1   2
BRANCH   1  22
ATOM     22  C   UNL A   1      33.234  34.711  28.530  1.00  0.00     0.042 C 
BRANCH  22  23
ATOM     23  C   UNL A   1      34.154  33.567  28.988  1.00  0.00     0.118 C 
BRANCH  23  24
ATOM     24  N   UNL A   1      34.769  32.807  27.910  1.00  0.00    -0.352 N 
ATOM     25  C   UNL A   1      34.972  31.450  27.885  1.00  0.00     0.251 C 
ATOM     26  H   UNL A   1      35.067  33.316  27.121  1.00  0.00     0.163 HD
ATOM     27  O   UNL A   1      34.405  30.763  27.039  1.00  0.00    -0.269 OA
BRANCH  25  28
ATOM     28  C   UNL A   1      36.146  30.947  28.625  1.00  0.00     0.039 A 
ATOM     29  C   UNL A   1      37.288  31.731  28.787  1.00  0.00     0.014 A 
ATOM     30  C   UNL A   1      36.169  29.573  28.912  1.00  0.00     0.014 A 
ATOM     31  C   UNL A   1      38.494  31.117  29.043  1.00  0.00     0.010 A 
ATOM     32  C   UNL A   1      37.376  28.959  29.191  1.00  0.00     0.010 A 
ATOM     33  C   UNL A   1      38.539  29.727  29.164  1.00  0.00    -0.014 A 
BRANCH  33  34
ATOM     34  C   UNL A   1      39.849  29.123  29.339  1.00  0.00     0.031 A 
ATOM     35  C   UNL A   1      40.192  28.861  30.763  1.00  0.00     0.074 A 
ATOM     36  C   UNL A   1      40.611  28.772  28.284  1.00  0.00     0.049 A 
ATOM     37  N   UNL A   1      41.168  29.346  31.458  1.00  0.00    -0.248 NA
ATOM     38  C   UNL A   1      39.204  28.112  31.559  1.00  0.00     0.031 C 
ATOM     39  C   UNL A   1      40.236  28.767  26.867  1.00  0.00     0.029 A 
ATOM     40  N   UNL A   1      41.854  28.224  28.264  1.00  0.00    -0.354 N 
ATOM     41  C   UNL A   1      41.035  28.790  32.731  1.00  0.00     0.074 A 
ATOM     42  C   UNL A   1      39.716  28.216  32.782  1.00  0.00     0.031 C 
ATOM     43  C   UNL A   1      41.109  27.999  26.179  1.00  0.00     0.029 A 
ATOM     44  C   UNL A   1      42.168  27.574  27.077  1.00  0.00     0.049 A 
ATOM     45  H   UNL A   1      42.477  28.284  29.023  1.00  0.00     0.167 HD
ATOM     46  C   UNL A   1      42.102  28.634  33.565  1.00  0.00     0.034 A 
ATOM     47  C   UNL A   1      43.152  26.654  26.901  1.00  0.00     0.034 A 
ATOM     48  C   UNL A   1      43.202  29.464  33.160  1.00  0.00     0.049 A 
ATOM     49  C   UNL A   1      44.096  26.771  28.042  1.00  0.00     0.074 A 
ATOM     50  C   UNL A   1      43.393  30.827  33.062  1.00  0.00     0.029 A 
ATOM     51  N   UNL A   1      44.199  28.883  32.412  1.00  0.00    -0.354 N 
ATOM     52  N   UNL A   1      44.884  27.794  28.224  1.00  0.00    -0.248 NA
ATOM     53  C   UNL A   1      43.803  25.987  29.235  1.00  0.00     0.031 C 
ATOM     54  C   UNL A   1      44.181  31.003  31.893  1.00  0.00     0.029 A 
ATOM     55  C   UNL A   1      44.498  29.741  31.385  1.00  0.00     0.049 A 
ATOM     56  H   UNL A   1      44.620  28.011  32.583  1.00  0.00     0.167 HD
ATOM     57  C   UNL A   1      44.808  28.051  29.585  1.00  0.00     0.074 A 
ATOM     58  C   UNL A   1      44.195  26.858  30.168  1.00  0.00     0.031 C 
ATOM     59  C   UNL A   1      44.959  29.315  30.079  1.00  0.00     0.034 A 
BRANCH  46  60
ATOM     60  C   UNL A   1      42.257  27.469  34.516  1.00  0.00     0.023 A 
ATOM     61  C   UNL A   1      43.011  26.321  34.206  1.00  0.00     0.031 A 
ATOM     62  C   UNL A   1      41.845  27.582  35.859  1.00  0.00     0.131 A 
ATOM     63  C   UNL A   1      43.334  25.361  35.173  1.00  0.00     0.055 A 
ATOM     64  C   UNL A   1      42.221  26.657  36.842  1.00  0.00     0.041 A 
ATOM     65  F   UNL A   1      41.118  28.632  36.274  1.00  0.00    -0.206 F 
ATOM     66  C   UNL A   1      42.974  25.540  36.502  1.00  0.00     0.022 A 
BRANCH  63  67
ATOM     67  S   UNL A   1      44.251  23.870  34.697  1.00  0.00     0.124 S 
ATOM     68  O   UNL A   1      44.491  23.240  35.998  1.00  0.00    -0.237 OA
ATOM     69  O   UNL A   1      43.281  23.189  33.839  1.00  0.00    -0.237 OA
ATOM     70  O   UNL A   1      45.424  24.386  34.016  1.00  0.00    -0.744 OA
ENDBRANCH  63  67
ENDBRANCH  46  60
BRANCH  47  71
ATOM     71  C   UNL A   1      43.008  25.392  26.132  1.00  0.00     0.023 A 
ATOM     72  C   UNL A   1      42.060  24.434  26.541  1.00  0.00     0.031 A 
ATOM     73  C   UNL A   1      43.972  24.980  25.197  1.00  0.00     0.131 A 
ATOM     74  C   UNL A   1      42.115  23.119  26.067  1.00  0.00     0.055 A 
ATOM     75  C   UNL A   1      44.014  23.666  24.706  1.00  0.00     0.041 A 
ATOM     76  F   UNL A   1      44.934  25.824  24.793  1.00  0.00    -0.206 F 
ATOM     77  C   UNL A   1      43.089  22.724  25.151  1.00  0.00     0.022 A 
BRANCH  74  78
ATOM     78  S   UNL A   1      40.964  21.876  26.716  1.00  0.00     0.124 S 
ATOM     79  O   UNL A   1      41.516  20.633  26.183  1.00  0.00    -0.237 OA
ATOM     80  O   UNL A   1      41.107  22.063  28.156  1.00  0.00    -0.237 OA
ATOM     81  O   UNL A   1      39.678  22.270  26.148  1.00  0.00    -0.744 OA
ENDBRANCH  74  78
ENDBRANCH  47  71
BRANCH  59  82
ATOM     82  C   UNL A   1      45.396  30.424  29.145  1.00  0.00     0.023 A 
ATOM     83  C   UNL A   1      46.743  30.813  29.205  1.00  0.00     0.031 A 
ATOM     84  C   UNL A   1      44.511  31.259  28.434  1.00  0.00     0.131 A 
ATOM     85  C   UNL A   1      47.158  32.020  28.633  1.00  0.00     0.055 A 
ATOM     86  C   UNL A   1      44.945  32.425  27.794  1.00  0.00     0.041 A 
ATOM     87  F   UNL A   1      43.193  31.033  28.419  1.00  0.00    -0.206 F 
ATOM     88  C   UNL A   1      46.270  32.822  27.911  1.00  0.00     0.022 A 
BRANCH  85  89
ATOM     89  S   UNL A   1      48.812  32.667  28.983  1.00  0.00     0.124 S 
ATOM     90  O   UNL A   1      49.070  32.144  30.321  1.00  0.00    -0.237 OA
ATOM     91  O   UNL A   1      49.609  32.073  27.912  1.00  0.00    -0.237 OA
ATOM     92  O   UNL A   1      48.649  34.116  28.898  1.00  0.00    -0.744 OA
ENDBRANCH  85  89
ENDBRANCH  59  82
ENDBRANCH  33  34
ENDBRANCH  25  28
ENDBRANCH  23  24
ENDBRANCH  22  23
ENDBRANCH   1  22
TORSDOF 18
ENDMDL
MODEL 3
REMARK VINA RESULT:      -9.8      4.417      6.862
REMARK SMILES O=C(CSc1nc2cnccc2n1CCC1CC1)NCCCNC(=O)c1ccc(-c2c3nc(c(-c4cc(S(=O)(=O)[O-])ccc4F)c4ccc([nH]4)c(-c4cc(S(=O)(=O)[O-])ccc4F)c4nc(c(-c5cc(S(=O)(=O)[O-])ccc5F)c5ccc2[nH]5)C=C4)C=C3)cc1
REMARK SMILES IDX 20 1 19 2 1 3 2 4 3 6 4 7 5 8 6 9 13 10 7 11 12 12 8 13
REMARK SMILES IDX 11 14 9 15 10 16 14 17 15 18 16 19 17 20 18 21 21 22 22 23
REMARK SMILES IDX 23 24 24 25 25 27 26 28 27 29 88 30 28 31 87 32 29 33 30 34
REMARK SMILES IDX 31 35 81 36 32 37 86 38 80 39 82 40 33 41 85 42 79 43 78 44
REMARK SMILES IDX 34 46 66 47 46 48 65 49 47 50 50 51 64 52 83 53 48 54 49 55
REMARK SMILES IDX 63 57 84 58 51 59 35 60 36 61 44 62 37 63 43 64 45 65 42 66
REMARK SMILES IDX 38 67 39 68 40 69 41 70 67 71 68 72 76 73 69 74 75 75 77 76
REMARK SMILES IDX 74 77 70 78 71 79 72 80 73 81 52 82 53 83 61 84 54 85 60 86
REMARK SMILES IDX 62 87 59 88 55 89 56 90 57 91 58 92
REMARK H PARENT 19 5 23 26 82 45 50 56
REMARK Flexibility Score: inf
ROOT
ATOM      1  C   UNL A   1      32.028  27.956  26.726  1.00  0.00     0.117 C 
ENDROOT
BRANCH   1   2
ATOM      2  N   UNL A   1      31.742  26.724  25.977  1.00  0.00    -0.355 N 
ATOM      3  O   UNL A   1      30.647  27.811  24.275  1.00  0.00    -0.274 OA
ATOM      4  C   UNL A   1      31.118  26.767  24.723  1.00  0.00     0.230 C 
ATOM      5  H   UNL A   1      31.992  25.854  26.362  1.00  0.00     0.163 HD
BRANCH   4   6
ATOM      6  C   UNL A   1      31.034  25.449  23.947  1.00  0.00     0.178 C 
BRANCH   6   7
ATOM      7  S   UNL A   1      31.150  23.867  24.858  1.00  0.00    -0.078 SA
BRANCH   7   8
ATOM      8  C   UNL A   1      32.803  23.336  25.027  1.00  0.00     0.169 A 
ATOM      9  N   UNL A   1      33.826  24.085  24.665  1.00  0.00    -0.221 NA
ATOM     10  N   UNL A   1      33.205  22.010  25.200  1.00  0.00    -0.319 N 
ATOM     11  C   UNL A   1      34.934  23.265  24.718  1.00  0.00     0.108 A 
ATOM     12  C   UNL A   1      34.592  22.004  25.187  1.00  0.00     0.072 A 
ATOM     13  C   UNL A   1      36.265  23.493  24.351  1.00  0.00     0.141 A 
ATOM     14  C   UNL A   1      35.540  21.003  25.415  1.00  0.00     0.049 A 
ATOM     15  N   UNL A   1      37.206  22.520  24.511  1.00  0.00    -0.262 NA
ATOM     16  C   UNL A   1      36.836  21.338  25.057  1.00  0.00     0.113 A 
BRANCH  10  17
ATOM     17  C   UNL A   1      32.466  20.759  25.015  1.00  0.00     0.125 C 
BRANCH  17  18
ATOM     18  C   UNL A   1      32.554  20.093  23.641  1.00  0.00     0.025 C 
BRANCH  18  19
ATOM     19  C   UNL A   1      32.398  18.612  23.656  1.00  0.00    -0.009 C 
ATOM     20  C   UNL A   1      32.308  18.113  22.269  1.00  0.00     0.004 C 
ATOM     21  C   UNL A   1      33.341  17.530  23.183  1.00  0.00     0.004 C 
ENDBRANCH  18  19
ENDBRANCH  17  18
ENDBRANCH  10  17
ENDBRANCH   7   8
ENDBRANCH   6   7
ENDBRANCH   4   6
ENDBRANCH   1   2
BRANCH   1  22
ATOM     22  C   UNL A   1      33.512  28.367  26.864  1.00  0.00     0.042 C 
BRANCH  22  23
ATOM     23  C   UNL A   1      33.867  29.855  27.006  1.00  0.00     0.118 C 
BRANCH  23  24
ATOM     24  N   UNL A   1      34.368  30.243  28.317  1.00  0.00    -0.352 N 
ATOM     25  C   UNL A   1      35.284  31.231  28.578  1.00  0.00     0.251 C 
ATOM     26  H   UNL A   1      34.015  29.748  29.091  1.00  0.00     0.163 HD
ATOM     27  O   UNL A   1      34.953  32.209  29.243  1.00  0.00    -0.269 OA
BRANCH  25  28
ATOM     28  C   UNL A   1      36.703  30.884  28.371  1.00  0.00     0.039 A 
ATOM     29  C   UNL A   1      37.072  29.722  27.695  1.00  0.00     0.014 A 
ATOM     30  C   UNL A   1      37.645  31.614  29.113  1.00  0.00     0.014 A 
ATOM     31  C   UNL A   1      38.320  29.182  27.915  1.00  0.00     0.010 A 
ATOM     32  C   UNL A   1      38.906  31.085  29.317  1.00  0.00     0.010 A 
ATOM     33  C   UNL A   1      39.197  29.829  28.788  1.00  0.00    -0.014 A 
BRANCH  33  34
ATOM     34  C   UNL A   1      40.464  29.168  29.058  1.00  0.00     0.031 A 
ATOM     35  C   UNL A   1      40.674  28.864  30.500  1.00  0.00     0.074 A 
ATOM     36  C   UNL A   1      41.297  28.808  28.063  1.00  0.00     0.049 A 
ATOM     37  N   UNL A   1      41.605  29.295  31.285  1.00  0.00    -0.248 NA
ATOM     38  C   UNL A   1      39.593  28.140  31.192  1.00  0.00     0.031 C 
ATOM     39  C   UNL A   1      41.044  28.847  26.619  1.00  0.00     0.029 A 
ATOM     40  N   UNL A   1      42.515  28.210  28.134  1.00  0.00    -0.354 N 
ATOM     41  C   UNL A   1      41.344  28.719  32.529  1.00  0.00     0.074 A 
ATOM     42  C   UNL A   1      40.004  28.199  32.456  1.00  0.00     0.031 C 
ATOM     43  C   UNL A   1      41.942  28.057  25.990  1.00  0.00     0.029 A 
ATOM     44  C   UNL A   1      42.903  27.571  26.963  1.00  0.00     0.049 A 
ATOM     45  H   UNL A   1      43.074  28.229  28.944  1.00  0.00     0.167 HD
ATOM     46  C   UNL A   1      42.329  28.503  33.446  1.00  0.00     0.034 A 
ATOM     47  C   UNL A   1      43.861  26.615  26.849  1.00  0.00     0.034 A 
ATOM     48  C   UNL A   1      43.491  29.295  33.154  1.00  0.00     0.049 A 
ATOM     49  C   UNL A   1      44.709  26.671  28.067  1.00  0.00     0.074 A 
ATOM     50  C   UNL A   1      43.742  30.651  33.104  1.00  0.00     0.029 A 
ATOM     51  N   UNL A   1      44.524  28.689  32.479  1.00  0.00    -0.354 N 
ATOM     52  N   UNL A   1      45.518  27.656  28.339  1.00  0.00    -0.248 NA
ATOM     53  C   UNL A   1      44.286  25.876  29.213  1.00  0.00     0.031 C 
ATOM     54  C   UNL A   1      44.633  30.818  32.010  1.00  0.00     0.029 A 
ATOM     55  C   UNL A   1      44.942  29.554  31.501  1.00  0.00     0.049 A 
ATOM     56  H   UNL A   1      44.895  27.797  32.665  1.00  0.00     0.167 HD
ATOM     57  C   UNL A   1      45.338  27.890  29.694  1.00  0.00     0.074 A 
ATOM     58  C   UNL A   1      44.631  26.711  30.196  1.00  0.00     0.031 C 
ATOM     59  C   UNL A   1      45.496  29.136  30.229  1.00  0.00     0.034 A 
BRANCH  46  60
ATOM     60  C   UNL A   1      42.357  27.314  34.379  1.00  0.00     0.023 A 
ATOM     61  C   UNL A   1      43.082  26.139  34.103  1.00  0.00     0.031 A 
ATOM     62  C   UNL A   1      41.845  27.419  35.688  1.00  0.00     0.131 A 
ATOM     63  C   UNL A   1      43.285  25.146  35.070  1.00  0.00     0.055 A 
ATOM     64  C   UNL A   1      42.102  26.459  36.676  1.00  0.00     0.041 A 
ATOM     65  F   UNL A   1      41.134  28.492  36.069  1.00  0.00    -0.206 F 
ATOM     66  C   UNL A   1      42.829  25.316  36.370  1.00  0.00     0.022 A 
BRANCH  63  67
ATOM     67  S   UNL A   1      44.171  23.625  34.632  1.00  0.00     0.124 S 
ATOM     68  O   UNL A   1      45.450  24.153  34.151  1.00  0.00    -0.237 OA
ATOM     69  O   UNL A   1      44.222  22.933  35.920  1.00  0.00    -0.237 OA
ATOM     70  O   UNL A   1      43.323  23.006  33.630  1.00  0.00    -0.744 OA
ENDBRANCH  63  67
ENDBRANCH  46  60
BRANCH  47  71
ATOM     71  C   UNL A   1      43.734  25.376  26.041  1.00  0.00     0.023 A 
ATOM     72  C   UNL A   1      42.786  24.402  26.410  1.00  0.00     0.031 A 
ATOM     73  C   UNL A   1      44.712  24.997  25.106  1.00  0.00     0.131 A 
ATOM     74  C   UNL A   1      42.855  23.102  25.898  1.00  0.00     0.055 A 
ATOM     75  C   UNL A   1      44.767  23.698  24.578  1.00  0.00     0.041 A 
ATOM     76  F   UNL A   1      45.674  25.857  24.739  1.00  0.00    -0.206 F 
ATOM     77  C   UNL A   1      43.842  22.739  24.983  1.00  0.00     0.022 A 
BRANCH  74  78
ATOM     78  S   UNL A   1      41.703  21.833  26.495  1.00  0.00     0.124 S 
ATOM     79  O   UNL A   1      40.405  22.391  26.122  1.00  0.00    -0.237 OA
ATOM     80  O   UNL A   1      42.129  20.665  25.733  1.00  0.00    -0.237 OA
ATOM     81  O   UNL A   1      41.961  21.784  27.931  1.00  0.00    -0.744 OA
ENDBRANCH  74  78
ENDBRANCH  47  71
BRANCH  59  82
ATOM     82  C   UNL A   1      46.053  30.245  29.361  1.00  0.00     0.023 A 
ATOM     83  C   UNL A   1      45.134  30.963  28.578  1.00  0.00     0.031 A 
ATOM     84  C   UNL A   1      47.421  30.422  29.080  1.00  0.00     0.131 A 
ATOM     85  C   UNL A   1      45.579  31.765  27.523  1.00  0.00     0.055 A 
ATOM     86  C   UNL A   1      47.867  31.289  28.076  1.00  0.00     0.041 A 
ATOM     87  F   UNL A   1      48.363  29.697  29.693  1.00  0.00    -0.206 F 
ATOM     88  C   UNL A   1      46.943  31.948  27.276  1.00  0.00     0.022 A 
BRANCH  85  89
ATOM     89  S   UNL A   1      44.392  32.430  26.329  1.00  0.00     0.124 S 
ATOM     90  O   UNL A   1      43.491  31.300  26.129  1.00  0.00    -0.237 OA
ATOM     91  O   UNL A   1      43.826  33.566  27.055  1.00  0.00    -0.237 OA
ATOM     92  O   UNL A   1      45.214  32.787  25.175  1.00  0.00    -0.744 OA
ENDBRANCH  85  89
ENDBRANCH  59  82
ENDBRANCH  33  34
ENDBRANCH  25  28
ENDBRANCH  23  24
ENDBRANCH  22  23
ENDBRANCH   1  22
TORSDOF 18
ENDMDL
