MODEL 1
REMARK VINA RESULT:     -11.8      0.000      0.000
REMARK SMILES CNC(=O)[C@H](C)S(=O)(=O)c1cc(C(=O)NCCCNC(=O)c2ccc(-c3c4nc(c(-c5cc(S(=O)(=O)[O-])ccc5F)c5ccc([nH]5)c(-c5cc(S(=O)(=O)[O-])ccc5F)c5nc(c(-c6cc(S(=O)(=O)[O-])ccc6F)c6ccc3[nH]6)C=C5)C=C4)cc2)c(C)cc1C
REMARK SMILES IDX 17 1 16 2 15 3 13 4 14 5 12 7 10 8 11 9 88 10 87 11 89 12
REMARK SMILES IDX 85 13 86 14 7 15 8 16 9 17 5 18 6 19 3 20 1 21 2 22 4 24
REMARK SMILES IDX 18 25 19 26 20 27 21 29 22 30 23 31 84 32 24 33 83 34 25 35
REMARK SMILES IDX 26 36 27 37 77 38 28 39 82 40 76 41 78 42 29 43 81 44 75 45
REMARK SMILES IDX 74 46 30 48 62 49 42 50 61 51 43 52 46 53 60 54 79 55 44 56
REMARK SMILES IDX 45 57 59 59 80 60 47 61 31 62 32 63 40 64 33 65 39 66 41 67
REMARK SMILES IDX 38 68 34 69 35 70 36 71 37 72 63 73 64 74 72 75 65 76 71 77
REMARK SMILES IDX 73 78 70 79 66 80 67 81 68 82 69 83 48 84 49 85 57 86 50 87
REMARK SMILES IDX 56 88 58 89 55 90 51 91 52 92 53 93 54 94
REMARK H PARENT 15 6 2 23 19 28 78 47 46 58
REMARK Flexibility Score: inf
ROOT
ATOM      1  C   UNL A   1      31.557  28.593  25.243  1.00  0.00     0.042 C 
ENDROOT
BRANCH   1   2
ATOM      2  C   UNL A   1      31.271  28.213  23.792  1.00  0.00     0.118 C 
BRANCH   2   3
ATOM      3  N   UNL A   1      32.455  28.391  22.983  1.00  0.00    -0.352 N 
ATOM      4  C   UNL A   1      33.354  27.567  22.370  1.00  0.00     0.251 C 
ATOM      5  O   UNL A   1      34.255  28.169  21.773  1.00  0.00    -0.269 OA
ATOM      6  H   UNL A   1      32.666  29.342  22.840  1.00  0.00     0.163 HD
BRANCH   4   7
ATOM      7  C   UNL A   1      33.352  26.060  22.285  1.00  0.00     0.044 A 
ATOM      8  C   UNL A   1      33.663  24.066  23.762  1.00  0.00     0.071 A 
ATOM      9  C   UNL A   1      33.738  25.454  23.514  1.00  0.00     0.034 A 
ATOM     10  C   UNL A   1      33.126  23.233  22.780  1.00  0.00    -0.032 A 
ATOM     11  C   UNL A   1      32.840  23.809  21.533  1.00  0.00     0.009 A 
ATOM     12  C   UNL A   1      32.802  21.774  22.895  1.00  0.00     0.046 C 
ATOM     13  C   UNL A   1      32.920  25.196  21.265  1.00  0.00    -0.038 A 
ATOM     14  C   UNL A   1      32.416  25.562  19.906  1.00  0.00     0.045 C 
BRANCH   8  15
ATOM     15  S   UNL A   1      34.141  23.497  25.391  1.00  0.00     0.190 S 
ATOM     16  O   UNL A   1      33.026  22.715  25.888  1.00  0.00    -0.223 OA
ATOM     17  O   UNL A   1      34.545  24.675  26.144  1.00  0.00    -0.223 OA
BRANCH  15  18
ATOM     18  C   UNL A   1      35.547  22.442  25.311  1.00  0.00     0.199 C 
ATOM     19  C   UNL A   1      35.320  20.955  25.140  1.00  0.00     0.036 C 
BRANCH  18  20
ATOM     20  C   UNL A   1      36.697  22.979  24.500  1.00  0.00     0.238 C 
ATOM     21  C   UNL A   1      38.158  24.022  26.338  1.00  0.00     0.142 C 
ATOM     22  N   UNL A   1      37.742  23.684  25.001  1.00  0.00    -0.358 N 
ATOM     23  H   UNL A   1      38.340  24.041  24.305  1.00  0.00     0.163 HD
ATOM     24  O   UNL A   1      36.665  22.889  23.266  1.00  0.00    -0.274 OA
ENDBRANCH  18  20
ENDBRANCH  15  18
ENDBRANCH   8  15
ENDBRANCH   4   7
ENDBRANCH   2   3
ENDBRANCH   1   2
BRANCH   1  25
ATOM     25  C   UNL A   1      32.770  29.488  25.439  1.00  0.00     0.118 C 
BRANCH  25  26
ATOM     26  N   UNL A   1      32.392  30.827  25.852  1.00  0.00    -0.352 N 
ATOM     27  C   UNL A   1      32.844  31.592  26.900  1.00  0.00     0.251 C 
ATOM     28  H   UNL A   1      31.703  31.254  25.293  1.00  0.00     0.163 HD
ATOM     29  O   UNL A   1      32.192  32.582  27.225  1.00  0.00    -0.269 OA
BRANCH  27  30
ATOM     30  C   UNL A   1      34.077  31.233  27.645  1.00  0.00     0.039 A 
ATOM     31  C   UNL A   1      34.982  32.248  27.974  1.00  0.00     0.014 A 
ATOM     32  C   UNL A   1      34.382  29.911  27.976  1.00  0.00     0.014 A 
ATOM     33  C   UNL A   1      36.155  31.943  28.671  1.00  0.00     0.010 A 
ATOM     34  C   UNL A   1      35.499  29.621  28.758  1.00  0.00     0.010 A 
ATOM     35  C   UNL A   1      36.410  30.630  29.098  1.00  0.00    -0.014 A 
BRANCH  35  36
ATOM     36  C   UNL A   1      37.638  30.290  29.866  1.00  0.00     0.031 A 
ATOM     37  C   UNL A   1      38.682  29.388  29.259  1.00  0.00     0.074 A 
ATOM     38  C   UNL A   1      37.796  30.759  31.121  1.00  0.00     0.049 A 
ATOM     39  N   UNL A   1      39.785  28.923  29.790  1.00  0.00    -0.248 NA
ATOM     40  C   UNL A   1      38.441  28.929  27.883  1.00  0.00     0.031 C 
ATOM     41  C   UNL A   1      36.843  31.620  31.824  1.00  0.00     0.029 A 
ATOM     42  N   UNL A   1      38.812  30.583  32.026  1.00  0.00    -0.354 N 
ATOM     43  C   UNL A   1      40.362  28.112  28.817  1.00  0.00     0.074 A 
ATOM     44  C   UNL A   1      39.450  28.093  27.693  1.00  0.00     0.031 C 
ATOM     45  C   UNL A   1      37.338  31.928  33.033  1.00  0.00     0.029 A 
ATOM     46  C   UNL A   1      38.614  31.245  33.216  1.00  0.00     0.049 A 
ATOM     47  H   UNL A   1      39.607  30.034  31.840  1.00  0.00     0.167 HD
ATOM     48  C   UNL A   1      41.554  27.467  28.845  1.00  0.00     0.034 A 
ATOM     49  C   UNL A   1      39.370  31.288  34.331  1.00  0.00     0.034 A 
ATOM     50  C   UNL A   1      42.456  27.502  29.972  1.00  0.00     0.049 A 
ATOM     51  C   UNL A   1      40.668  30.522  34.358  1.00  0.00     0.074 A 
ATOM     52  C   UNL A   1      43.700  26.909  30.099  1.00  0.00     0.029 A 
ATOM     53  N   UNL A   1      42.208  28.163  31.168  1.00  0.00    -0.354 N 
ATOM     54  N   UNL A   1      41.210  29.779  33.421  1.00  0.00    -0.248 NA
ATOM     55  C   UNL A   1      41.462  30.610  35.590  1.00  0.00     0.031 C 
ATOM     56  C   UNL A   1      44.171  27.150  31.393  1.00  0.00     0.029 A 
ATOM     57  C   UNL A   1      43.263  27.967  32.047  1.00  0.00     0.049 A 
ATOM     58  H   UNL A   1      41.401  28.692  31.365  1.00  0.00     0.167 HD
ATOM     59  C   UNL A   1      42.424  29.338  33.939  1.00  0.00     0.074 A 
ATOM     60  C   UNL A   1      42.541  29.912  35.265  1.00  0.00     0.031 C 
ATOM     61  C   UNL A   1      43.361  28.537  33.370  1.00  0.00     0.034 A 
BRANCH  48  62
ATOM     62  C   UNL A   1      41.937  26.655  27.630  1.00  0.00     0.023 A 
ATOM     63  C   UNL A   1      41.813  25.254  27.610  1.00  0.00     0.031 A 
ATOM     64  C   UNL A   1      42.447  27.284  26.480  1.00  0.00     0.131 A 
ATOM     65  C   UNL A   1      42.258  24.525  26.498  1.00  0.00     0.055 A 
ATOM     66  C   UNL A   1      42.809  26.559  25.342  1.00  0.00     0.041 A 
ATOM     67  F   UNL A   1      42.611  28.615  26.444  1.00  0.00    -0.206 F 
ATOM     68  C   UNL A   1      42.729  25.169  25.352  1.00  0.00     0.022 A 
BRANCH  65  69
ATOM     69  S   UNL A   1      42.346  22.718  26.626  1.00  0.00     0.124 S 
ATOM     70  O   UNL A   1      43.709  22.524  27.116  1.00  0.00    -0.237 OA
ATOM     71  O   UNL A   1      41.278  22.415  27.571  1.00  0.00    -0.237 OA
ATOM     72  O   UNL A   1      42.115  22.265  25.255  1.00  0.00    -0.744 OA
ENDBRANCH  65  69
ENDBRANCH  48  62
BRANCH  49  73
ATOM     73  C   UNL A   1      38.927  32.081  35.515  1.00  0.00     0.023 A 
ATOM     74  C   UNL A   1      38.323  31.455  36.617  1.00  0.00     0.031 A 
ATOM     75  C   UNL A   1      39.068  33.480  35.549  1.00  0.00     0.131 A 
ATOM     76  C   UNL A   1      37.842  32.229  37.685  1.00  0.00     0.055 A 
ATOM     77  C   UNL A   1      38.641  34.239  36.638  1.00  0.00     0.041 A 
ATOM     78  F   UNL A   1      39.643  34.129  34.523  1.00  0.00    -0.206 F 
ATOM     79  C   UNL A   1      38.011  33.615  37.711  1.00  0.00     0.022 A 
BRANCH  76  80
ATOM     80  S   UNL A   1      36.916  31.404  39.008  1.00  0.00     0.124 S 
ATOM     81  O   UNL A   1      37.849  31.496  40.125  1.00  0.00    -0.237 OA
ATOM     82  O   UNL A   1      35.718  32.232  39.102  1.00  0.00    -0.237 OA
ATOM     83  O   UNL A   1      36.699  30.057  38.483  1.00  0.00    -0.744 OA
ENDBRANCH  76  80
ENDBRANCH  49  73
BRANCH  61  84
ATOM     84  C   UNL A   1      44.619  28.277  34.165  1.00  0.00     0.023 A 
ATOM     85  C   UNL A   1      44.738  27.172  35.025  1.00  0.00     0.031 A 
ATOM     86  C   UNL A   1      45.713  29.155  34.063  1.00  0.00     0.131 A 
ATOM     87  C   UNL A   1      45.900  27.007  35.793  1.00  0.00     0.055 A 
ATOM     88  C   UNL A   1      46.893  28.947  34.776  1.00  0.00     0.041 A 
ATOM     89  F   UNL A   1      45.654  30.230  33.260  1.00  0.00    -0.206 F 
ATOM     90  C   UNL A   1      46.986  27.876  35.660  1.00  0.00     0.022 A 
BRANCH  87  91
ATOM     91  S   UNL A   1      45.933  25.700  37.050  1.00  0.00     0.124 S 
ATOM     92  O   UNL A   1      46.922  26.212  37.994  1.00  0.00    -0.237 OA
ATOM     93  O   UNL A   1      44.552  25.683  37.520  1.00  0.00    -0.237 OA
ATOM     94  O   UNL A   1      46.347  24.514  36.302  1.00  0.00    -0.744 OA
ENDBRANCH  87  91
ENDBRANCH  61  84
ENDBRANCH  35  36
ENDBRANCH  27  30
ENDBRANCH  25  26
ENDBRANCH   1  25
TORSDOF 16
ENDMDL
MODEL 2
REMARK VINA RESULT:     -11.8      4.977     10.128
REMARK SMILES CNC(=O)[C@H](C)S(=O)(=O)c1cc(C(=O)NCCCNC(=O)c2ccc(-c3c4nc(c(-c5cc(S(=O)(=O)[O-])ccc5F)c5ccc([nH]5)c(-c5cc(S(=O)(=O)[O-])ccc5F)c5nc(c(-c6cc(S(=O)(=O)[O-])ccc6F)c6ccc3[nH]6)C=C5)C=C4)cc2)c(C)cc1C
REMARK SMILES IDX 17 1 16 2 15 3 13 4 14 5 12 7 10 8 11 9 88 10 87 11 89 12
REMARK SMILES IDX 85 13 86 14 7 15 8 16 9 17 5 18 6 19 3 20 1 21 2 22 4 24
REMARK SMILES IDX 18 25 19 26 20 27 21 29 22 30 23 31 84 32 24 33 83 34 25 35
REMARK SMILES IDX 26 36 27 37 77 38 28 39 82 40 76 41 78 42 29 43 81 44 75 45
REMARK SMILES IDX 74 46 30 48 62 49 42 50 61 51 43 52 46 53 60 54 79 55 44 56
REMARK SMILES IDX 45 57 59 59 80 60 47 61 31 62 32 63 40 64 33 65 39 66 41 67
REMARK SMILES IDX 38 68 34 69 35 70 36 71 37 72 63 73 64 74 72 75 65 76 71 77
REMARK SMILES IDX 73 78 70 79 66 80 67 81 68 82 69 83 48 84 49 85 57 86 50 87
REMARK SMILES IDX 56 88 58 89 55 90 51 91 52 92 53 93 54 94
REMARK H PARENT 15 6 2 23 19 28 78 47 46 58
REMARK Flexibility Score: inf
ROOT
ATOM      1  C   UNL A   1      35.073  22.459  27.118  1.00  0.00     0.042 C 
ENDROOT
BRANCH   1   2
ATOM      2  C   UNL A   1      33.941  21.489  27.455  1.00  0.00     0.118 C 
BRANCH   2   3
ATOM      3  N   UNL A   1      32.706  22.209  27.659  1.00  0.00    -0.352 N 
ATOM      4  C   UNL A   1      31.895  22.997  26.894  1.00  0.00     0.251 C 
ATOM      5  O   UNL A   1      30.910  23.435  27.501  1.00  0.00    -0.269 OA
ATOM      6  H   UNL A   1      32.365  22.108  28.577  1.00  0.00     0.163 HD
BRANCH   4   7
ATOM      7  C   UNL A   1      32.018  23.343  25.430  1.00  0.00     0.044 A 
ATOM      8  C   UNL A   1      32.415  25.332  23.966  1.00  0.00     0.071 A 
ATOM      9  C   UNL A   1      32.124  24.747  25.218  1.00  0.00     0.034 A 
ATOM     10  C   UNL A   1      32.676  24.500  22.877  1.00  0.00    -0.032 A 
ATOM     11  C   UNL A   1      32.474  23.123  23.055  1.00  0.00     0.009 A 
ATOM     12  C   UNL A   1      33.163  24.900  21.517  1.00  0.00     0.046 C 
ATOM     13  C   UNL A   1      32.172  22.522  24.300  1.00  0.00    -0.038 A 
ATOM     14  C   UNL A   1      32.158  21.028  24.243  1.00  0.00     0.045 C 
BRANCH   8  15
ATOM     15  S   UNL A   1      32.563  27.115  23.909  1.00  0.00     0.190 S 
ATOM     16  O   UNL A   1      32.007  27.525  22.634  1.00  0.00    -0.223 OA
ATOM     17  O   UNL A   1      33.958  27.429  24.184  1.00  0.00    -0.223 OA
BRANCH  15  18
ATOM     18  C   UNL A   1      31.614  27.874  25.181  1.00  0.00     0.199 C 
ATOM     19  C   UNL A   1      31.781  27.371  26.599  1.00  0.00     0.036 C 
BRANCH  18  20
ATOM     20  C   UNL A   1      31.498  29.373  25.078  1.00  0.00     0.238 C 
ATOM     21  C   UNL A   1      29.594  29.609  23.369  1.00  0.00     0.142 C 
ATOM     22  N   UNL A   1      30.653  30.034  24.248  1.00  0.00    -0.358 N 
ATOM     23  H   UNL A   1      30.795  31.008  24.245  1.00  0.00     0.163 HD
ATOM     24  O   UNL A   1      32.296  30.088  25.697  1.00  0.00    -0.274 OA
ENDBRANCH  18  20
ENDBRANCH  15  18
ENDBRANCH   8  15
ENDBRANCH   4   7
ENDBRANCH   2   3
ENDBRANCH   1   2
BRANCH   1  25
ATOM     25  C   UNL A   1      35.671  22.281  25.733  1.00  0.00     0.118 C 
BRANCH  25  26
ATOM     26  N   UNL A   1      36.629  21.191  25.695  1.00  0.00    -0.352 N 
ATOM     27  C   UNL A   1      38.003  21.217  25.726  1.00  0.00     0.251 C 
ATOM     28  H   UNL A   1      36.232  20.292  25.637  1.00  0.00     0.163 HD
ATOM     29  O   UNL A   1      38.614  20.200  25.407  1.00  0.00    -0.269 OA
BRANCH  27  30
ATOM     30  C   UNL A   1      38.745  22.442  26.115  1.00  0.00     0.039 A 
ATOM     31  C   UNL A   1      39.907  22.307  26.884  1.00  0.00     0.014 A 
ATOM     32  C   UNL A   1      38.289  23.720  25.784  1.00  0.00     0.014 A 
ATOM     33  C   UNL A   1      40.627  23.442  27.271  1.00  0.00     0.010 A 
ATOM     34  C   UNL A   1      39.059  24.842  26.082  1.00  0.00     0.010 A 
ATOM     35  C   UNL A   1      40.227  24.720  26.847  1.00  0.00    -0.014 A 
BRANCH  35  36
ATOM     36  C   UNL A   1      40.996  25.937  27.223  1.00  0.00     0.031 A 
ATOM     37  C   UNL A   1      40.354  27.001  28.076  1.00  0.00     0.074 A 
ATOM     38  C   UNL A   1      42.255  26.102  26.769  1.00  0.00     0.049 A 
ATOM     39  N   UNL A   1      40.832  28.159  28.455  1.00  0.00    -0.248 NA
ATOM     40  C   UNL A   1      38.983  26.739  28.540  1.00  0.00     0.031 C 
ATOM     41  C   UNL A   1      42.974  25.153  25.917  1.00  0.00     0.029 A 
ATOM     42  N   UNL A   1      43.153  27.122  26.959  1.00  0.00    -0.354 N 
ATOM     43  C   UNL A   1      39.819  28.764  29.194  1.00  0.00     0.074 A 
ATOM     44  C   UNL A   1      38.678  27.876  29.147  1.00  0.00     0.031 C 
ATOM     45  C   UNL A   1      44.214  25.616  25.693  1.00  0.00     0.029 A 
ATOM     46  C   UNL A   1      44.362  26.918  26.334  1.00  0.00     0.049 A 
ATOM     47  H   UNL A   1      42.950  27.924  27.492  1.00  0.00     0.167 HD
ATOM     48  C   UNL A   1      39.848  29.938  29.873  1.00  0.00     0.034 A 
ATOM     49  C   UNL A   1      45.461  27.696  26.276  1.00  0.00     0.034 A 
ATOM     50  C   UNL A   1      40.997  30.809  29.916  1.00  0.00     0.049 A 
ATOM     51  C   UNL A   1      45.452  29.020  26.998  1.00  0.00     0.074 A 
ATOM     52  C   UNL A   1      41.147  32.007  30.594  1.00  0.00     0.029 A 
ATOM     53  N   UNL A   1      42.195  30.580  29.249  1.00  0.00    -0.354 N 
ATOM     54  N   UNL A   1      44.494  29.567  27.710  1.00  0.00    -0.248 NA
ATOM     55  C   UNL A   1      46.676  29.827  26.915  1.00  0.00     0.031 C 
ATOM     56  C   UNL A   1      42.402  32.535  30.281  1.00  0.00     0.029 A 
ATOM     57  C   UNL A   1      43.075  31.628  29.477  1.00  0.00     0.049 A 
ATOM     58  H   UNL A   1      42.390  29.790  28.695  1.00  0.00     0.167 HD
ATOM     59  C   UNL A   1      45.014  30.766  28.189  1.00  0.00     0.074 A 
ATOM     60  C   UNL A   1      46.374  30.854  27.695  1.00  0.00     0.031 C 
ATOM     61  C   UNL A   1      44.424  31.707  28.970  1.00  0.00     0.034 A 
BRANCH  48  62
ATOM     62  C   UNL A   1      38.592  30.351  30.605  1.00  0.00     0.023 A 
ATOM     63  C   UNL A   1      37.571  31.074  29.965  1.00  0.00     0.031 A 
ATOM     64  C   UNL A   1      38.417  30.031  31.963  1.00  0.00     0.131 A 
ATOM     65  C   UNL A   1      36.458  31.516  30.697  1.00  0.00     0.055 A 
ATOM     66  C   UNL A   1      37.267  30.400  32.665  1.00  0.00     0.041 A 
ATOM     67  F   UNL A   1      39.366  29.361  32.636  1.00  0.00    -0.206 F 
ATOM     68  C   UNL A   1      36.285  31.159  32.035  1.00  0.00     0.022 A 
BRANCH  65  69
ATOM     69  S   UNL A   1      35.313  32.682  29.911  1.00  0.00     0.124 S 
ATOM     70  O   UNL A   1      34.802  31.887  28.797  1.00  0.00    -0.237 OA
ATOM     71  O   UNL A   1      34.364  32.964  30.982  1.00  0.00    -0.237 OA
ATOM     72  O   UNL A   1      36.171  33.800  29.526  1.00  0.00    -0.744 OA
ENDBRANCH  65  69
ENDBRANCH  48  62
BRANCH  49  73
ATOM     73  C   UNL A   1      46.662  27.253  25.510  1.00  0.00     0.023 A 
ATOM     74  C   UNL A   1      46.929  27.760  24.229  1.00  0.00     0.031 A 
ATOM     75  C   UNL A   1      47.544  26.289  26.034  1.00  0.00     0.131 A 
ATOM     76  C   UNL A   1      48.022  27.270  23.496  1.00  0.00     0.055 A 
ATOM     77  C   UNL A   1      48.661  25.847  25.324  1.00  0.00     0.041 A 
ATOM     78  F   UNL A   1      47.338  25.774  27.256  1.00  0.00    -0.206 F 
ATOM     79  C   UNL A   1      48.898  26.329  24.040  1.00  0.00     0.022 A 
BRANCH  76  80
ATOM     80  S   UNL A   1      48.234  27.821  21.781  1.00  0.00     0.124 S 
ATOM     81  O   UNL A   1      47.034  28.626  21.578  1.00  0.00    -0.237 OA
ATOM     82  O   UNL A   1      49.494  28.553  21.851  1.00  0.00    -0.237 OA
ATOM     83  O   UNL A   1      48.283  26.571  21.026  1.00  0.00    -0.744 OA
ENDBRANCH  76  80
ENDBRANCH  49  73
BRANCH  61  84
ATOM     84  C   UNL A   1      45.269  32.891  29.379  1.00  0.00     0.023 A 
ATOM     85  C   UNL A   1      45.326  34.064  28.608  1.00  0.00     0.031 A 
ATOM     86  C   UNL A   1      46.034  32.838  30.558  1.00  0.00     0.131 A 
ATOM     87  C   UNL A   1      46.175  35.112  28.992  1.00  0.00     0.055 A 
ATOM     88  C   UNL A   1      46.823  33.910  30.972  1.00  0.00     0.041 A 
ATOM     89  F   UNL A   1      46.022  31.740  31.333  1.00  0.00    -0.206 F 
ATOM     90  C   UNL A   1      46.909  35.051  30.179  1.00  0.00     0.022 A 
BRANCH  87  91
ATOM     91  S   UNL A   1      46.391  36.515  27.864  1.00  0.00     0.124 S 
ATOM     92  O   UNL A   1      47.744  36.959  28.187  1.00  0.00    -0.237 OA
ATOM     93  O   UNL A   1      46.221  35.892  26.555  1.00  0.00    -0.237 OA
ATOM     94  O   UNL A   1      45.326  37.437  28.254  1.00  0.00    -0.744 OA
ENDBRANCH  87  91
ENDBRANCH  61  84
ENDBRANCH  35  36
ENDBRANCH  27  30
ENDBRANCH  25  26
ENDBRANCH   1  25
TORSDOF 16
ENDMDL
MODEL 3
REMARK VINA RESULT:     -11.7      2.889      8.171
REMARK SMILES CNC(=O)[C@H](C)S(=O)(=O)c1cc(C(=O)NCCCNC(=O)c2ccc(-c3c4nc(c(-c5cc(S(=O)(=O)[O-])ccc5F)c5ccc([nH]5)c(-c5cc(S(=O)(=O)[O-])ccc5F)c5nc(c(-c6cc(S(=O)(=O)[O-])ccc6F)c6ccc3[nH]6)C=C5)C=C4)cc2)c(C)cc1C
REMARK SMILES IDX 17 1 16 2 15 3 13 4 14 5 12 7 10 8 11 9 88 10 87 11 89 12
REMARK SMILES IDX 85 13 86 14 7 15 8 16 9 17 5 18 6 19 3 20 1 21 2 22 4 24
REMARK SMILES IDX 18 25 19 26 20 27 21 29 22 30 23 31 84 32 24 33 83 34 25 35
REMARK SMILES IDX 26 36 27 37 77 38 28 39 82 40 76 41 78 42 29 43 81 44 75 45
REMARK SMILES IDX 74 46 30 48 62 49 42 50 61 51 43 52 46 53 60 54 79 55 44 56
REMARK SMILES IDX 45 57 59 59 80 60 47 61 31 62 32 63 40 64 33 65 39 66 41 67
REMARK SMILES IDX 38 68 34 69 35 70 36 71 37 72 63 73 64 74 72 75 65 76 71 77
REMARK SMILES IDX 73 78 70 79 66 80 67 81 68 82 69 83 48 84 49 85 57 86 50 87
REMARK SMILES IDX 56 88 58 89 55 90 51 91 52 92 53 93 54 94
REMARK H PARENT 15 6 2 23 19 28 78 47 46 58
REMARK Flexibility Score: inf
ROOT
ATOM      1  C   UNL A   1      33.305  28.129  27.026  1.00  0.00     0.042 C 
ENDROOT
BRANCH   1   2
ATOM      2  C   UNL A   1      31.865  28.433  27.437  1.00  0.00     0.118 C 
BRANCH   2   3
ATOM      3  N   UNL A   1      31.029  27.273  27.234  1.00  0.00    -0.352 N 
ATOM      4  C   UNL A   1      30.752  26.438  26.190  1.00  0.00     0.251 C 
ATOM      5  O   UNL A   1      29.935  25.550  26.466  1.00  0.00    -0.269 OA
ATOM      6  H   UNL A   1      30.537  27.023  28.049  1.00  0.00     0.163 HD
BRANCH   4   7
ATOM      7  C   UNL A   1      31.342  26.430  24.801  1.00  0.00     0.044 A 
ATOM      8  C   UNL A   1      32.452  24.853  23.208  1.00  0.00     0.071 A 
ATOM      9  C   UNL A   1      31.968  25.189  24.491  1.00  0.00     0.034 A 
ATOM     10  C   UNL A   1      32.260  25.750  22.158  1.00  0.00    -0.032 A 
ATOM     11  C   UNL A   1      31.737  27.013  22.477  1.00  0.00     0.009 A 
ATOM     12  C   UNL A   1      32.539  25.528  20.702  1.00  0.00     0.046 C 
ATOM     13  C   UNL A   1      31.257  27.369  23.759  1.00  0.00    -0.038 A 
ATOM     14  C   UNL A   1      30.613  28.718  23.791  1.00  0.00     0.045 C 
BRANCH   8  15
ATOM     15  S   UNL A   1      33.159  23.221  23.000  1.00  0.00     0.190 S 
ATOM     16  O   UNL A   1      33.856  23.243  21.729  1.00  0.00    -0.223 OA
ATOM     17  O   UNL A   1      32.072  22.268  23.173  1.00  0.00    -0.223 OA
BRANCH  15  18
ATOM     18  C   UNL A   1      34.339  22.873  24.258  1.00  0.00     0.199 C 
ATOM     19  C   UNL A   1      35.365  23.935  24.592  1.00  0.00     0.036 C 
BRANCH  18  20
ATOM     20  C   UNL A   1      33.791  22.156  25.463  1.00  0.00     0.238 C 
ATOM     21  C   UNL A   1      33.993  19.705  24.721  1.00  0.00     0.142 C 
ATOM     22  N   UNL A   1      33.626  20.814  25.564  1.00  0.00    -0.358 N 
ATOM     23  H   UNL A   1      33.156  20.540  26.385  1.00  0.00     0.163 HD
ATOM     24  O   UNL A   1      33.338  22.816  26.409  1.00  0.00    -0.274 OA
ENDBRANCH  18  20
ENDBRANCH  15  18
ENDBRANCH   8  15
ENDBRANCH   4   7
ENDBRANCH   2   3
ENDBRANCH   1   2
BRANCH   1  25
ATOM     25  C   UNL A   1      33.972  29.214  26.197  1.00  0.00     0.118 C 
BRANCH  25  26
ATOM     26  N   UNL A   1      33.793  30.529  26.786  1.00  0.00    -0.352 N 
ATOM     27  C   UNL A   1      34.485  31.148  27.798  1.00  0.00     0.251 C 
ATOM     28  H   UNL A   1      33.060  31.059  26.398  1.00  0.00     0.163 HD
ATOM     29  O   UNL A   1      33.991  32.146  28.319  1.00  0.00    -0.269 OA
BRANCH  27  30
ATOM     30  C   UNL A   1      35.790  30.627  28.275  1.00  0.00     0.039 A 
ATOM     31  C   UNL A   1      35.806  29.755  29.369  1.00  0.00     0.014 A 
ATOM     32  C   UNL A   1      37.001  31.025  27.700  1.00  0.00     0.014 A 
ATOM     33  C   UNL A   1      37.020  29.249  29.846  1.00  0.00     0.010 A 
ATOM     34  C   UNL A   1      38.199  30.444  28.110  1.00  0.00     0.010 A 
ATOM     35  C   UNL A   1      38.227  29.565  29.201  1.00  0.00    -0.014 A 
BRANCH  35  36
ATOM     36  C   UNL A   1      39.525  29.014  29.675  1.00  0.00     0.031 A 
ATOM     37  C   UNL A   1      40.257  29.680  30.811  1.00  0.00     0.074 A 
ATOM     38  C   UNL A   1      40.063  27.941  29.060  1.00  0.00     0.049 A 
ATOM     39  N   UNL A   1      41.427  29.394  31.324  1.00  0.00    -0.248 NA
ATOM     40  C   UNL A   1      39.598  30.838  31.436  1.00  0.00     0.031 C 
ATOM     41  C   UNL A   1      39.461  27.225  27.933  1.00  0.00     0.029 A 
ATOM     42  N   UNL A   1      41.233  27.263  29.294  1.00  0.00    -0.354 N 
ATOM     43  C   UNL A   1      41.645  30.339  32.323  1.00  0.00     0.074 A 
ATOM     44  C   UNL A   1      40.519  31.248  32.293  1.00  0.00     0.031 C 
ATOM     45  C   UNL A   1      40.245  26.187  27.602  1.00  0.00     0.029 A 
ATOM     46  C   UNL A   1      41.431  26.194  28.451  1.00  0.00     0.049 A 
ATOM     47  H   UNL A   1      41.870  27.519  29.999  1.00  0.00     0.167 HD
ATOM     48  C   UNL A   1      42.673  30.423  33.203  1.00  0.00     0.034 A 
ATOM     49  C   UNL A   1      42.456  25.323  28.366  1.00  0.00     0.034 A 
ATOM     50  C   UNL A   1      43.785  29.504  33.225  1.00  0.00     0.049 A 
ATOM     51  C   UNL A   1      43.613  25.467  29.322  1.00  0.00     0.074 A 
ATOM     52  C   UNL A   1      44.866  29.479  34.089  1.00  0.00     0.029 A 
ATOM     53  N   UNL A   1      43.962  28.449  32.338  1.00  0.00    -0.354 N 
ATOM     54  N   UNL A   1      43.792  26.352  30.275  1.00  0.00    -0.248 NA
ATOM     55  C   UNL A   1      44.700  24.489  29.197  1.00  0.00     0.031 C 
ATOM     56  C   UNL A   1      45.730  28.458  33.682  1.00  0.00     0.029 A 
ATOM     57  C   UNL A   1      45.149  27.787  32.618  1.00  0.00     0.049 A 
ATOM     58  H   UNL A   1      43.338  28.207  31.617  1.00  0.00     0.167 HD
ATOM     59  C   UNL A   1      44.997  26.015  30.885  1.00  0.00     0.074 A 
ATOM     60  C   UNL A   1      45.492  24.837  30.201  1.00  0.00     0.031 C 
ATOM     61  C   UNL A   1      45.635  26.619  31.921  1.00  0.00     0.034 A 
BRANCH  48  62
ATOM     62  C   UNL A   1      42.648  31.561  34.198  1.00  0.00     0.023 A 
ATOM     63  C   UNL A   1      41.937  31.465  35.408  1.00  0.00     0.031 A 
ATOM     64  C   UNL A   1      43.330  32.761  33.931  1.00  0.00     0.131 A 
ATOM     65  C   UNL A   1      41.864  32.571  36.269  1.00  0.00     0.055 A 
ATOM     66  C   UNL A   1      43.324  33.828  34.832  1.00  0.00     0.041 A 
ATOM     67  F   UNL A   1      44.007  32.922  32.784  1.00  0.00    -0.206 F 
ATOM     68  C   UNL A   1      42.576  33.742  36.003  1.00  0.00     0.022 A 
BRANCH  65  69
ATOM     69  S   UNL A   1      40.711  32.505  37.667  1.00  0.00     0.124 S 
ATOM     70  O   UNL A   1      39.647  31.660  37.132  1.00  0.00    -0.237 OA
ATOM     71  O   UNL A   1      41.526  31.914  38.722  1.00  0.00    -0.237 OA
ATOM     72  O   UNL A   1      40.341  33.904  37.874  1.00  0.00    -0.744 OA
ENDBRANCH  65  69
ENDBRANCH  48  62
BRANCH  49  73
ATOM     73  C   UNL A   1      42.444  24.238  27.341  1.00  0.00     0.023 A 
ATOM     74  C   UNL A   1      41.828  23.005  27.604  1.00  0.00     0.031 A 
ATOM     75  C   UNL A   1      43.078  24.406  26.097  1.00  0.00     0.131 A 
ATOM     76  C   UNL A   1      41.897  21.972  26.655  1.00  0.00     0.055 A 
ATOM     77  C   UNL A   1      43.095  23.395  25.134  1.00  0.00     0.041 A 
ATOM     78  F   UNL A   1      43.680  25.567  25.792  1.00  0.00    -0.206 F 
ATOM     79  C   UNL A   1      42.513  22.164  25.416  1.00  0.00     0.022 A 
BRANCH  76  80
ATOM     80  S   UNL A   1      41.241  20.340  27.099  1.00  0.00     0.124 S 
ATOM     81  O   UNL A   1      40.777  20.569  28.463  1.00  0.00    -0.237 OA
ATOM     82  O   UNL A   1      40.203  20.146  26.092  1.00  0.00    -0.237 OA
ATOM     83  O   UNL A   1      42.401  19.461  26.972  1.00  0.00    -0.744 OA
ENDBRANCH  76  80
ENDBRANCH  49  73
BRANCH  61  84
ATOM     84  C   UNL A   1      46.915  25.983  32.407  1.00  0.00     0.023 A 
ATOM     85  C   UNL A   1      48.151  26.233  31.786  1.00  0.00     0.031 A 
ATOM     86  C   UNL A   1      46.894  25.106  33.507  1.00  0.00     0.131 A 
ATOM     87  C   UNL A   1      49.303  25.568  32.231  1.00  0.00     0.055 A 
ATOM     88  C   UNL A   1      48.054  24.501  33.989  1.00  0.00     0.041 A 
ATOM     89  F   UNL A   1      45.740  24.826  34.136  1.00  0.00    -0.206 F 
ATOM     90  C   UNL A   1      49.266  24.719  33.340  1.00  0.00     0.022 A 
BRANCH  87  91
ATOM     91  S   UNL A   1      50.833  25.744  31.274  1.00  0.00     0.124 S 
ATOM     92  O   UNL A   1      50.915  27.191  31.097  1.00  0.00    -0.237 OA
ATOM     93  O   UNL A   1      51.827  25.154  32.164  1.00  0.00    -0.237 OA
ATOM     94  O   UNL A   1      50.565  24.984  30.055  1.00  0.00    -0.744 OA
ENDBRANCH  87  91
ENDBRANCH  61  84
ENDBRANCH  35  36
ENDBRANCH  27  30
ENDBRANCH  25  26
ENDBRANCH   1  25
TORSDOF 16
ENDMDL
