MODEL 1
REMARK VINA RESULT:     -12.2      0.000      0.000
REMARK SMILES C[C@@H]1[C@@H](C)CCC[C@H]1NC(=O)N[C@@](C)(C(=O)NCCCNC(=O)c1ccc(-c2c3nc(c(-c4cc(S(=O)(=O)[O-])ccc4F)c4ccc([nH]4)c(-c4cc(S(=O)(=O)[O-])ccc4F)c4nc(c(-c5cc(S(=O)(=O)[O-])ccc5F)c5ccc2[nH]5)C=C4)C=C3)cc1)C(F)(F)F
REMARK SMILES IDX 19 1 18 2 17 3 15 4 16 5 13 7 14 8 12 9 9 10 10 11 11 13
REMARK SMILES IDX 8 15 1 16 2 17 3 18 5 19 4 20 7 21 6 22 87 23 88 24 89 25
REMARK SMILES IDX 90 26 20 27 21 28 22 29 23 31 24 32 25 33 86 34 26 35 85 36
REMARK SMILES IDX 27 37 28 38 29 39 79 40 30 41 84 42 78 43 80 44 31 45 83 46
REMARK SMILES IDX 77 47 76 48 32 50 64 51 44 52 63 53 45 54 48 55 62 56 81 57
REMARK SMILES IDX 46 58 47 59 61 61 82 62 49 63 33 64 34 65 42 66 35 67 41 68
REMARK SMILES IDX 43 69 40 70 36 71 37 72 38 73 39 74 65 75 66 76 74 77 67 78
REMARK SMILES IDX 73 79 75 80 72 81 68 82 69 83 70 84 71 85 50 86 51 87 59 88
REMARK SMILES IDX 52 89 58 90 60 91 57 92 53 93 54 94 55 95 56 96
REMARK H PARENT 17 6 9 12 12 14 21 30 80 49 48 60
REMARK Flexibility Score: inf
ROOT
ATOM      1  C   UNL A   1      36.660  20.654  25.001  1.00  0.00     0.042 C 
ENDROOT
BRANCH   1   2
ATOM      2  C   UNL A   1      35.518  21.608  24.683  1.00  0.00     0.117 C 
BRANCH   2   3
ATOM      3  N   UNL A   1      34.239  20.930  24.740  1.00  0.00    -0.354 N 
ATOM      4  C   UNL A   1      32.974  21.323  25.004  1.00  0.00     0.255 C 
ATOM      5  O   UNL A   1      32.217  20.386  25.280  1.00  0.00    -0.272 OA
ATOM      6  H   UNL A   1      34.307  19.967  24.542  1.00  0.00     0.163 HD
BRANCH   4   7
ATOM      7  C   UNL A   1      32.540  22.800  25.118  1.00  0.00     0.213 C 
ATOM      8  C   UNL A   1      31.016  23.016  25.133  1.00  0.00     0.056 C 
BRANCH   7   9
ATOM      9  N   UNL A   1      33.140  23.413  23.876  1.00  0.00    -0.316 N 
ATOM     10  N   UNL A   1      32.953  25.757  23.491  1.00  0.00    -0.335 N 
ATOM     11  C   UNL A   1      33.218  24.507  23.134  1.00  0.00     0.316 C 
ATOM     12  H   UNL A   1      32.963  26.383  22.731  1.00  0.00     0.165 HD
ATOM     13  O   UNL A   1      33.609  24.336  21.973  1.00  0.00    -0.249 OA
ATOM     14  H   UNL A   1      33.697  22.724  23.445  1.00  0.00     0.166 HD
BRANCH  10  15
ATOM     15  C   UNL A   1      32.653  26.408  24.750  1.00  0.00     0.087 C 
ATOM     16  C   UNL A   1      33.687  27.779  26.617  1.00  0.00     0.010 C 
ATOM     17  C   UNL A   1      33.611  27.572  25.090  1.00  0.00     0.011 C 
ATOM     18  C   UNL A   1      33.217  28.913  24.428  1.00  0.00    -0.009 C 
ATOM     19  C   UNL A   1      31.723  29.223  24.623  1.00  0.00     0.004 C 
ATOM     20  C   UNL A   1      33.609  28.980  22.949  1.00  0.00     0.008 C 
ATOM     21  C   UNL A   1      31.170  26.761  24.851  1.00  0.00     0.025 C 
ATOM     22  C   UNL A   1      30.809  28.082  24.185  1.00  0.00     0.002 C 
ENDBRANCH  10  15
ENDBRANCH   7   9
BRANCH   7  23
ATOM     23  C   UNL A   1      33.010  23.129  26.550  1.00  0.00     0.420 C 
ATOM     24  F   UNL A   1      33.284  22.041  27.296  1.00  0.00    -0.168 F 
ATOM     25  F   UNL A   1      34.113  23.926  26.540  1.00  0.00    -0.168 F 
ATOM     26  F   UNL A   1      32.079  23.856  27.225  1.00  0.00    -0.168 F 
ENDBRANCH   7  23
ENDBRANCH   4   7
ENDBRANCH   2   3
ENDBRANCH   1   2
BRANCH   1  27
ATOM     27  C   UNL A   1      37.964  21.343  25.378  1.00  0.00     0.118 C 
BRANCH  27  28
ATOM     28  N   UNL A   1      38.977  20.409  25.851  1.00  0.00    -0.352 N 
ATOM     29  C   UNL A   1      40.196  20.660  26.434  1.00  0.00     0.251 C 
ATOM     30  H   UNL A   1      38.756  19.457  25.734  1.00  0.00     0.163 HD
ATOM     31  O   UNL A   1      41.011  19.756  26.550  1.00  0.00    -0.269 OA
BRANCH  29  32
ATOM     32  C   UNL A   1      40.510  22.030  26.884  1.00  0.00     0.039 A 
ATOM     33  C   UNL A   1      41.307  22.209  28.014  1.00  0.00     0.014 A 
ATOM     34  C   UNL A   1      40.042  23.134  26.166  1.00  0.00     0.014 A 
ATOM     35  C   UNL A   1      41.690  23.499  28.382  1.00  0.00     0.010 A 
ATOM     36  C   UNL A   1      40.520  24.401  26.464  1.00  0.00     0.010 A 
ATOM     37  C   UNL A   1      41.334  24.601  27.586  1.00  0.00    -0.014 A 
BRANCH  37  38
ATOM     38  C   UNL A   1      41.787  25.972  27.928  1.00  0.00     0.031 A 
ATOM     39  C   UNL A   1      43.179  26.416  27.565  1.00  0.00     0.074 A 
ATOM     40  C   UNL A   1      40.963  26.796  28.602  1.00  0.00     0.049 A 
ATOM     41  N   UNL A   1      43.766  27.565  27.785  1.00  0.00    -0.248 NA
ATOM     42  C   UNL A   1      44.035  25.423  26.900  1.00  0.00     0.031 C 
ATOM     43  C   UNL A   1      39.610  26.456  29.051  1.00  0.00     0.029 A 
ATOM     44  N   UNL A   1      41.134  28.091  29.019  1.00  0.00    -0.354 N 
ATOM     45  C   UNL A   1      45.061  27.426  27.296  1.00  0.00     0.074 A 
ATOM     46  C   UNL A   1      45.197  26.056  26.854  1.00  0.00     0.031 C 
ATOM     47  C   UNL A   1      39.054  27.535  29.625  1.00  0.00     0.029 A 
ATOM     48  C   UNL A   1      40.025  28.624  29.633  1.00  0.00     0.049 A 
ATOM     49  H   UNL A   1      41.972  28.592  28.891  1.00  0.00     0.167 HD
ATOM     50  C   UNL A   1      46.036  28.364  27.193  1.00  0.00     0.034 A 
ATOM     51  C   UNL A   1      39.814  29.855  30.137  1.00  0.00     0.034 A 
ATOM     52  C   UNL A   1      45.877  29.726  27.643  1.00  0.00     0.049 A 
ATOM     53  C   UNL A   1      40.925  30.870  30.051  1.00  0.00     0.074 A 
ATOM     54  C   UNL A   1      46.771  30.777  27.546  1.00  0.00     0.029 A 
ATOM     55  N   UNL A   1      44.751  30.224  28.290  1.00  0.00    -0.354 N 
ATOM     56  N   UNL A   1      42.122  30.747  29.526  1.00  0.00    -0.248 NA
ATOM     57  C   UNL A   1      40.645  32.194  30.617  1.00  0.00     0.031 C 
ATOM     58  C   UNL A   1      46.222  31.882  28.208  1.00  0.00     0.029 A 
ATOM     59  C   UNL A   1      44.946  31.553  28.636  1.00  0.00     0.049 A 
ATOM     60  H   UNL A   1      43.934  29.707  28.476  1.00  0.00     0.167 HD
ATOM     61  C   UNL A   1      42.728  31.993  29.668  1.00  0.00     0.074 A 
ATOM     62  C   UNL A   1      41.752  32.853  30.310  1.00  0.00     0.031 C 
ATOM     63  C   UNL A   1      43.973  32.393  29.297  1.00  0.00     0.034 A 
BRANCH  50  64
ATOM     64  C   UNL A   1      47.358  27.922  26.605  1.00  0.00     0.023 A 
ATOM     65  C   UNL A   1      47.604  27.970  25.220  1.00  0.00     0.031 A 
ATOM     66  C   UNL A   1      48.362  27.380  27.427  1.00  0.00     0.131 A 
ATOM     67  C   UNL A   1      48.766  27.387  24.691  1.00  0.00     0.055 A 
ATOM     68  C   UNL A   1      49.563  26.896  26.902  1.00  0.00     0.041 A 
ATOM     69  F   UNL A   1      48.184  27.284  28.753  1.00  0.00    -0.206 F 
ATOM     70  C   UNL A   1      49.761  26.875  25.524  1.00  0.00     0.022 A 
BRANCH  67  71
ATOM     71  S   UNL A   1      48.859  27.125  22.898  1.00  0.00     0.124 S 
ATOM     72  O   UNL A   1      48.261  25.799  22.761  1.00  0.00    -0.237 OA
ATOM     73  O   UNL A   1      48.073  28.237  22.376  1.00  0.00    -0.237 OA
ATOM     74  O   UNL A   1      50.293  27.185  22.617  1.00  0.00    -0.744 OA
ENDBRANCH  67  71
ENDBRANCH  50  64
BRANCH  51  75
ATOM     75  C   UNL A   1      38.498  30.209  30.742  1.00  0.00     0.023 A 
ATOM     76  C   UNL A   1      37.545  30.932  30.006  1.00  0.00     0.031 A 
ATOM     77  C   UNL A   1      38.185  29.862  32.068  1.00  0.00     0.131 A 
ATOM     78  C   UNL A   1      36.342  31.323  30.614  1.00  0.00     0.055 A 
ATOM     79  C   UNL A   1      36.964  30.206  32.650  1.00  0.00     0.041 A 
ATOM     80  F   UNL A   1      39.059  29.167  32.812  1.00  0.00    -0.206 F 
ATOM     81  C   UNL A   1      36.038  30.952  31.927  1.00  0.00     0.022 A 
BRANCH  78  82
ATOM     82  S   UNL A   1      35.210  32.395  29.688  1.00  0.00     0.124 S 
ATOM     83  O   UNL A   1      36.108  33.445  29.223  1.00  0.00    -0.237 OA
ATOM     84  O   UNL A   1      34.701  31.486  28.666  1.00  0.00    -0.237 OA
ATOM     85  O   UNL A   1      34.233  32.807  30.693  1.00  0.00    -0.744 OA
ENDBRANCH  78  82
ENDBRANCH  51  75
BRANCH  63  86
ATOM     86  C   UNL A   1      44.323  33.842  29.546  1.00  0.00     0.023 A 
ATOM     87  C   UNL A   1      43.986  34.854  28.630  1.00  0.00     0.031 A 
ATOM     88  C   UNL A   1      45.042  34.209  30.698  1.00  0.00     0.131 A 
ATOM     89  C   UNL A   1      44.436  36.167  28.840  1.00  0.00     0.055 A 
ATOM     90  C   UNL A   1      45.418  35.531  30.941  1.00  0.00     0.041 A 
ATOM     91  F   UNL A   1      45.398  33.287  31.607  1.00  0.00    -0.206 F 
ATOM     92  C   UNL A   1      45.132  36.515  30.000  1.00  0.00     0.022 A 
BRANCH  89  93
ATOM     93  S   UNL A   1      44.218  37.382  27.511  1.00  0.00     0.124 S 
ATOM     94  O   UNL A   1      43.211  36.737  26.675  1.00  0.00    -0.237 OA
ATOM     95  O   UNL A   1      43.778  38.566  28.240  1.00  0.00    -0.237 OA
ATOM     96  O   UNL A   1      45.549  37.479  26.914  1.00  0.00    -0.744 OA
ENDBRANCH  89  93
ENDBRANCH  63  86
ENDBRANCH  37  38
ENDBRANCH  29  32
ENDBRANCH  27  28
ENDBRANCH   1  27
TORSDOF 16
ENDMDL
MODEL 2
REMARK VINA RESULT:     -12.2      5.146     10.435
REMARK SMILES C[C@@H]1[C@@H](C)CCC[C@H]1NC(=O)N[C@@](C)(C(=O)NCCCNC(=O)c1ccc(-c2c3nc(c(-c4cc(S(=O)(=O)[O-])ccc4F)c4ccc([nH]4)c(-c4cc(S(=O)(=O)[O-])ccc4F)c4nc(c(-c5cc(S(=O)(=O)[O-])ccc5F)c5ccc2[nH]5)C=C4)C=C3)cc1)C(F)(F)F
REMARK SMILES IDX 19 1 18 2 17 3 15 4 16 5 13 7 14 8 12 9 9 10 10 11 11 13
REMARK SMILES IDX 8 15 1 16 2 17 3 18 5 19 4 20 7 21 6 22 87 23 88 24 89 25
REMARK SMILES IDX 90 26 20 27 21 28 22 29 23 31 24 32 25 33 86 34 26 35 85 36
REMARK SMILES IDX 27 37 28 38 29 39 79 40 30 41 84 42 78 43 80 44 31 45 83 46
REMARK SMILES IDX 77 47 76 48 32 50 64 51 44 52 63 53 45 54 48 55 62 56 81 57
REMARK SMILES IDX 46 58 47 59 61 61 82 62 49 63 33 64 34 65 42 66 35 67 41 68
REMARK SMILES IDX 43 69 40 70 36 71 37 72 38 73 39 74 65 75 66 76 74 77 67 78
REMARK SMILES IDX 73 79 75 80 72 81 68 82 69 83 70 84 71 85 50 86 51 87 59 88
REMARK SMILES IDX 52 89 58 90 60 91 57 92 53 93 54 94 55 95 56 96
REMARK H PARENT 17 6 9 12 12 14 21 30 80 49 48 60
REMARK Flexibility Score: inf
ROOT
ATOM      1  C   UNL A   1      31.769  30.617  26.098  1.00  0.00     0.042 C 
ENDROOT
BRANCH   1   2
ATOM      2  C   UNL A   1      32.345  29.553  25.176  1.00  0.00     0.117 C 
BRANCH   2   3
ATOM      3  N   UNL A   1      31.526  29.387  23.993  1.00  0.00    -0.354 N 
ATOM      4  C   UNL A   1      31.352  28.389  23.098  1.00  0.00     0.255 C 
ATOM      5  O   UNL A   1      30.817  28.761  22.048  1.00  0.00    -0.272 OA
ATOM      6  H   UNL A   1      30.972  30.177  23.797  1.00  0.00     0.163 HD
BRANCH   4   7
ATOM      7  C   UNL A   1      31.909  26.962  23.284  1.00  0.00     0.213 C 
ATOM      8  C   UNL A   1      31.387  25.936  22.262  1.00  0.00     0.056 C 
BRANCH   7   9
ATOM      9  N   UNL A   1      31.433  26.604  24.671  1.00  0.00    -0.316 N 
ATOM     10  N   UNL A   1      32.199  24.605  25.719  1.00  0.00    -0.335 N 
ATOM     11  C   UNL A   1      31.401  25.659  25.599  1.00  0.00     0.316 C 
ATOM     12  H   UNL A   1      31.901  23.977  26.416  1.00  0.00     0.165 HD
ATOM     13  O   UNL A   1      30.533  25.796  26.468  1.00  0.00    -0.249 OA
ATOM     14  H   UNL A   1      30.954  27.386  25.030  1.00  0.00     0.166 HD
BRANCH  10  15
ATOM     15  C   UNL A   1      33.411  24.173  25.054  1.00  0.00     0.087 C 
ATOM     16  C   UNL A   1      35.929  24.034  25.325  1.00  0.00     0.010 C 
ATOM     17  C   UNL A   1      34.567  23.845  26.025  1.00  0.00     0.011 C 
ATOM     18  C   UNL A   1      34.504  22.413  26.605  1.00  0.00    -0.009 C 
ATOM     19  C   UNL A   1      34.265  21.367  25.503  1.00  0.00     0.004 C 
ATOM     20  C   UNL A   1      33.476  22.275  27.732  1.00  0.00     0.008 C 
ATOM     21  C   UNL A   1      33.120  23.080  24.028  1.00  0.00     0.025 C 
ATOM     22  C   UNL A   1      33.056  21.680  24.627  1.00  0.00     0.002 C 
ENDBRANCH  10  15
ENDBRANCH   7   9
BRANCH   7  23
ATOM     23  C   UNL A   1      33.392  27.181  22.916  1.00  0.00     0.420 C 
ATOM     24  F   UNL A   1      33.607  28.266  22.149  1.00  0.00    -0.168 F 
ATOM     25  F   UNL A   1      34.169  27.287  24.029  1.00  0.00    -0.168 F 
ATOM     26  F   UNL A   1      33.904  26.109  22.254  1.00  0.00    -0.168 F 
ENDBRANCH   7  23
ENDBRANCH   4   7
ENDBRANCH   2   3
ENDBRANCH   1   2
BRANCH   1  27
ATOM     27  C   UNL A   1      32.768  31.189  27.094  1.00  0.00     0.118 C 
BRANCH  27  28
ATOM     28  N   UNL A   1      32.655  32.634  27.236  1.00  0.00    -0.352 N 
ATOM     29  C   UNL A   1      33.365  33.494  28.041  1.00  0.00     0.251 C 
ATOM     30  H   UNL A   1      31.969  33.058  26.672  1.00  0.00     0.163 HD
ATOM     31  O   UNL A   1      32.973  34.641  28.198  1.00  0.00    -0.269 OA
BRANCH  29  32
ATOM     32  C   UNL A   1      34.576  33.002  28.727  1.00  0.00     0.039 A 
ATOM     33  C   UNL A   1      34.446  32.354  29.955  1.00  0.00     0.014 A 
ATOM     34  C   UNL A   1      35.833  33.153  28.137  1.00  0.00     0.014 A 
ATOM     35  C   UNL A   1      35.574  31.799  30.557  1.00  0.00     0.010 A 
ATOM     36  C   UNL A   1      36.930  32.499  28.677  1.00  0.00     0.010 A 
ATOM     37  C   UNL A   1      36.818  31.830  29.903  1.00  0.00    -0.014 A 
BRANCH  37  38
ATOM     38  C   UNL A   1      38.015  31.187  30.499  1.00  0.00     0.031 A 
ATOM     39  C   UNL A   1      38.450  31.554  31.892  1.00  0.00     0.074 A 
ATOM     40  C   UNL A   1      38.730  30.310  29.771  1.00  0.00     0.049 A 
ATOM     41  N   UNL A   1      39.471  31.115  32.584  1.00  0.00    -0.248 NA
ATOM     42  C   UNL A   1      37.653  32.579  32.583  1.00  0.00     0.031 C 
ATOM     43  C   UNL A   1      38.433  29.916  28.391  1.00  0.00     0.029 A 
ATOM     44  N   UNL A   1      39.848  29.582  30.088  1.00  0.00    -0.354 N 
ATOM     45  C   UNL A   1      39.443  31.819  33.784  1.00  0.00     0.074 A 
ATOM     46  C   UNL A   1      38.361  32.773  33.684  1.00  0.00     0.031 C 
ATOM     47  C   UNL A   1      39.307  28.973  28.005  1.00  0.00     0.029 A 
ATOM     48  C   UNL A   1      40.258  28.735  29.085  1.00  0.00     0.049 A 
ATOM     49  H   UNL A   1      40.313  29.659  30.952  1.00  0.00     0.167 HD
ATOM     50  C   UNL A   1      40.224  31.660  34.882  1.00  0.00     0.034 A 
ATOM     51  C   UNL A   1      41.281  27.859  29.047  1.00  0.00     0.034 A 
ATOM     52  C   UNL A   1      41.299  30.699  34.957  1.00  0.00     0.049 A 
ATOM     53  C   UNL A   1      42.164  27.727  30.261  1.00  0.00     0.074 A 
ATOM     54  C   UNL A   1      42.125  30.410  36.029  1.00  0.00     0.029 A 
ATOM     55  N   UNL A   1      41.708  29.879  33.911  1.00  0.00    -0.354 N 
ATOM     56  N   UNL A   1      42.086  28.350  31.415  1.00  0.00    -0.248 NA
ATOM     57  C   UNL A   1      43.265  26.762  30.167  1.00  0.00     0.031 C 
ATOM     58  C   UNL A   1      43.083  29.481  35.606  1.00  0.00     0.029 A 
ATOM     59  C   UNL A   1      42.800  29.116  34.299  1.00  0.00     0.049 A 
ATOM     60  H   UNL A   1      41.284  29.845  33.023  1.00  0.00     0.167 HD
ATOM     61  C   UNL A   1      43.111  27.824  32.199  1.00  0.00     0.074 A 
ATOM     62  C   UNL A   1      43.774  26.821  31.388  1.00  0.00     0.031 C 
ATOM     63  C   UNL A   1      43.467  28.136  33.472  1.00  0.00     0.034 A 
BRANCH  50  64
ATOM     64  C   UNL A   1      39.955  32.572  36.058  1.00  0.00     0.023 A 
ATOM     65  C   UNL A   1      39.108  32.186  37.115  1.00  0.00     0.031 A 
ATOM     66  C   UNL A   1      40.493  33.870  36.095  1.00  0.00     0.131 A 
ATOM     67  C   UNL A   1      38.737  33.118  38.095  1.00  0.00     0.055 A 
ATOM     68  C   UNL A   1      40.201  34.760  37.132  1.00  0.00     0.041 A 
ATOM     69  F   UNL A   1      41.289  34.310  35.108  1.00  0.00    -0.206 F 
ATOM     70  C   UNL A   1      39.299  34.395  38.128  1.00  0.00     0.022 A 
BRANCH  67  71
ATOM     71  S   UNL A   1      37.359  32.704  39.201  1.00  0.00     0.124 S 
ATOM     72  O   UNL A   1      36.208  32.902  38.324  1.00  0.00    -0.237 OA
ATOM     73  O   UNL A   1      37.654  31.324  39.568  1.00  0.00    -0.237 OA
ATOM     74  O   UNL A   1      37.483  33.680  40.283  1.00  0.00    -0.744 OA
ENDBRANCH  67  71
ENDBRANCH  50  64
BRANCH  51  75
ATOM     75  C   UNL A   1      41.514  27.021  27.836  1.00  0.00     0.023 A 
ATOM     76  C   UNL A   1      41.087  25.684  27.800  1.00  0.00     0.031 A 
ATOM     77  C   UNL A   1      42.191  27.529  26.714  1.00  0.00     0.131 A 
ATOM     78  C   UNL A   1      41.380  24.886  26.683  1.00  0.00     0.055 A 
ATOM     79  C   UNL A   1      42.432  26.747  25.583  1.00  0.00     0.041 A 
ATOM     80  F   UNL A   1      42.615  28.802  26.695  1.00  0.00    -0.206 F 
ATOM     81  C   UNL A   1      42.037  25.412  25.568  1.00  0.00     0.022 A 
BRANCH  78  82
ATOM     82  S   UNL A   1      40.960  23.123  26.742  1.00  0.00     0.124 S 
ATOM     83  O   UNL A   1      41.345  22.771  28.103  1.00  0.00    -0.237 OA
ATOM     84  O   UNL A   1      39.528  23.144  26.464  1.00  0.00    -0.237 OA
ATOM     85  O   UNL A   1      41.787  22.541  25.688  1.00  0.00    -0.744 OA
ENDBRANCH  78  82
ENDBRANCH  51  75
BRANCH  63  86
ATOM     86  C   UNL A   1      44.607  27.344  34.072  1.00  0.00     0.023 A 
ATOM     87  C   UNL A   1      44.391  26.130  34.748  1.00  0.00     0.031 A 
ATOM     88  C   UNL A   1      45.924  27.834  34.002  1.00  0.00     0.131 A 
ATOM     89  C   UNL A   1      45.460  25.490  35.395  1.00  0.00     0.055 A 
ATOM     90  C   UNL A   1      46.995  27.151  34.578  1.00  0.00     0.041 A 
ATOM     91  F   UNL A   1      46.192  28.990  33.374  1.00  0.00    -0.206 F 
ATOM     92  C   UNL A   1      46.763  25.982  35.297  1.00  0.00     0.022 A 
BRANCH  89  93
ATOM     93  S   UNL A   1      45.098  24.082  36.480  1.00  0.00     0.124 S 
ATOM     94  O   UNL A   1      46.420  23.485  36.649  1.00  0.00    -0.237 OA
ATOM     95  O   UNL A   1      44.538  24.733  37.659  1.00  0.00    -0.237 OA
ATOM     96  O   UNL A   1      44.153  23.284  35.702  1.00  0.00    -0.744 OA
ENDBRANCH  89  93
ENDBRANCH  63  86
ENDBRANCH  37  38
ENDBRANCH  29  32
ENDBRANCH  27  28
ENDBRANCH   1  27
TORSDOF 16
ENDMDL
MODEL 3
REMARK VINA RESULT:     -12.1      5.109     10.389
REMARK SMILES C[C@@H]1[C@@H](C)CCC[C@H]1NC(=O)N[C@@](C)(C(=O)NCCCNC(=O)c1ccc(-c2c3nc(c(-c4cc(S(=O)(=O)[O-])ccc4F)c4ccc([nH]4)c(-c4cc(S(=O)(=O)[O-])ccc4F)c4nc(c(-c5cc(S(=O)(=O)[O-])ccc5F)c5ccc2[nH]5)C=C4)C=C3)cc1)C(F)(F)F
REMARK SMILES IDX 19 1 18 2 17 3 15 4 16 5 13 7 14 8 12 9 9 10 10 11 11 13
REMARK SMILES IDX 8 15 1 16 2 17 3 18 5 19 4 20 7 21 6 22 87 23 88 24 89 25
REMARK SMILES IDX 90 26 20 27 21 28 22 29 23 31 24 32 25 33 86 34 26 35 85 36
REMARK SMILES IDX 27 37 28 38 29 39 79 40 30 41 84 42 78 43 80 44 31 45 83 46
REMARK SMILES IDX 77 47 76 48 32 50 64 51 44 52 63 53 45 54 48 55 62 56 81 57
REMARK SMILES IDX 46 58 47 59 61 61 82 62 49 63 33 64 34 65 42 66 35 67 41 68
REMARK SMILES IDX 43 69 40 70 36 71 37 72 38 73 39 74 65 75 66 76 74 77 67 78
REMARK SMILES IDX 73 79 75 80 72 81 68 82 69 83 70 84 71 85 50 86 51 87 59 88
REMARK SMILES IDX 52 89 58 90 60 91 57 92 53 93 54 94 55 95 56 96
REMARK H PARENT 17 6 9 12 12 14 21 30 80 49 48 60
REMARK Flexibility Score: inf
ROOT
ATOM      1  C   UNL A   1      31.737  30.775  26.102  1.00  0.00     0.042 C 
ENDROOT
BRANCH   1   2
ATOM      2  C   UNL A   1      31.964  29.358  25.599  1.00  0.00     0.117 C 
BRANCH   2   3
ATOM      3  N   UNL A   1      32.566  29.362  24.281  1.00  0.00    -0.354 N 
ATOM      4  C   UNL A   1      32.252  28.786  23.099  1.00  0.00     0.255 C 
ATOM      5  O   UNL A   1      33.195  28.761  22.301  1.00  0.00    -0.272 OA
ATOM      6  H   UNL A   1      33.386  29.904  24.236  1.00  0.00     0.163 HD
BRANCH   4   7
ATOM      7  C   UNL A   1      30.909  28.079  22.818  1.00  0.00     0.213 C 
ATOM      8  C   UNL A   1      30.254  27.441  24.056  1.00  0.00     0.056 C 
BRANCH   7   9
ATOM      9  N   UNL A   1      31.305  27.009  21.829  1.00  0.00    -0.316 N 
ATOM     10  N   UNL A   1      32.852  25.310  22.463  1.00  0.00    -0.335 N 
ATOM     11  C   UNL A   1      32.137  26.007  21.588  1.00  0.00     0.316 C 
ATOM     12  H   UNL A   1      33.491  24.698  22.032  1.00  0.00     0.165 HD
ATOM     13  O   UNL A   1      32.236  25.672  20.402  1.00  0.00    -0.249 OA
ATOM     14  H   UNL A   1      30.705  27.088  21.052  1.00  0.00     0.166 HD
BRANCH  10  15
ATOM     15  C   UNL A   1      32.900  25.248  23.909  1.00  0.00     0.087 C 
ATOM     16  C   UNL A   1      31.601  24.478  25.947  1.00  0.00     0.010 C 
ATOM     17  C   UNL A   1      32.035  24.119  24.510  1.00  0.00     0.011 C 
ATOM     18  C   UNL A   1      32.741  22.743  24.537  1.00  0.00    -0.009 C 
ATOM     19  C   UNL A   1      34.163  22.848  25.113  1.00  0.00     0.004 C 
ATOM     20  C   UNL A   1      32.747  22.054  23.169  1.00  0.00     0.008 C 
ATOM     21  C   UNL A   1      34.340  25.278  24.417  1.00  0.00     0.025 C 
ATOM     22  C   UNL A   1      35.014  23.912  24.425  1.00  0.00     0.002 C 
ENDBRANCH  10  15
ENDBRANCH   7   9
BRANCH   7  23
ATOM     23  C   UNL A   1      30.016  29.286  22.464  1.00  0.00     0.420 C 
ATOM     24  F   UNL A   1      30.546  30.101  21.532  1.00  0.00    -0.168 F 
ATOM     25  F   UNL A   1      28.789  28.886  22.031  1.00  0.00    -0.168 F 
ATOM     26  F   UNL A   1      29.750  30.046  23.561  1.00  0.00    -0.168 F 
ENDBRANCH   7  23
ENDBRANCH   4   7
ENDBRANCH   2   3
ENDBRANCH   1   2
BRANCH   1  27
ATOM     27  C   UNL A   1      32.654  31.188  27.245  1.00  0.00     0.118 C 
BRANCH  27  28
ATOM     28  N   UNL A   1      32.872  32.627  27.299  1.00  0.00    -0.352 N 
ATOM     29  C   UNL A   1      33.894  33.337  27.884  1.00  0.00     0.251 C 
ATOM     30  H   UNL A   1      32.186  33.172  26.851  1.00  0.00     0.163 HD
ATOM     31  O   UNL A   1      33.786  34.546  28.030  1.00  0.00    -0.269 OA
BRANCH  29  32
ATOM     32  C   UNL A   1      35.093  32.617  28.354  1.00  0.00     0.039 A 
ATOM     33  C   UNL A   1      36.335  33.247  28.287  1.00  0.00     0.014 A 
ATOM     34  C   UNL A   1      34.980  31.331  28.889  1.00  0.00     0.014 A 
ATOM     35  C   UNL A   1      37.454  32.611  28.823  1.00  0.00     0.010 A 
ATOM     36  C   UNL A   1      36.069  30.753  29.526  1.00  0.00     0.010 A 
ATOM     37  C   UNL A   1      37.322  31.377  29.484  1.00  0.00    -0.014 A 
BRANCH  37  38
ATOM     38  C   UNL A   1      38.491  30.717  30.117  1.00  0.00     0.031 A 
ATOM     39  C   UNL A   1      38.884  31.072  31.526  1.00  0.00     0.074 A 
ATOM     40  C   UNL A   1      39.221  29.836  29.408  1.00  0.00     0.049 A 
ATOM     41  N   UNL A   1      39.875  30.618  32.249  1.00  0.00    -0.248 NA
ATOM     42  C   UNL A   1      38.075  32.102  32.196  1.00  0.00     0.031 C 
ATOM     43  C   UNL A   1      38.966  29.453  28.016  1.00  0.00     0.029 A 
ATOM     44  N   UNL A   1      40.319  29.094  29.758  1.00  0.00    -0.354 N 
ATOM     45  C   UNL A   1      39.815  31.315  33.452  1.00  0.00     0.074 A 
ATOM     46  C   UNL A   1      38.748  32.283  33.321  1.00  0.00     0.031 C 
ATOM     47  C   UNL A   1      39.842  28.503  27.654  1.00  0.00     0.029 A 
ATOM     48  C   UNL A   1      40.753  28.248  28.765  1.00  0.00     0.049 A 
ATOM     49  H   UNL A   1      40.756  29.161  30.638  1.00  0.00     0.167 HD
ATOM     50  C   UNL A   1      40.557  31.142  34.574  1.00  0.00     0.034 A 
ATOM     51  C   UNL A   1      41.767  27.361  28.756  1.00  0.00     0.034 A 
ATOM     52  C   UNL A   1      41.618  30.169  34.680  1.00  0.00     0.049 A 
ATOM     53  C   UNL A   1      42.607  27.212  29.998  1.00  0.00     0.074 A 
ATOM     54  C   UNL A   1      42.403  29.864  35.777  1.00  0.00     0.029 A 
ATOM     55  N   UNL A   1      42.052  29.349  33.643  1.00  0.00    -0.354 N 
ATOM     56  N   UNL A   1      42.497  27.830  31.152  1.00  0.00    -0.248 NA
ATOM     57  C   UNL A   1      43.699  26.236  29.936  1.00  0.00     0.031 C 
ATOM     58  C   UNL A   1      43.365  28.927  35.381  1.00  0.00     0.029 A 
ATOM     59  C   UNL A   1      43.122  28.572  34.063  1.00  0.00     0.049 A 
ATOM     60  H   UNL A   1      41.658  29.325  32.742  1.00  0.00     0.167 HD
ATOM     61  C   UNL A   1      43.489  27.288  31.967  1.00  0.00     0.074 A 
ATOM     62  C   UNL A   1      44.168  26.282  31.174  1.00  0.00     0.031 C 
ATOM     63  C   UNL A   1      43.806  27.589  33.254  1.00  0.00     0.034 A 
BRANCH  50  64
ATOM     64  C   UNL A   1      40.258  32.050  35.746  1.00  0.00     0.023 A 
ATOM     65  C   UNL A   1      39.223  31.767  36.657  1.00  0.00     0.031 A 
ATOM     66  C   UNL A   1      40.968  33.252  35.919  1.00  0.00     0.131 A 
ATOM     67  C   UNL A   1      38.855  32.717  37.622  1.00  0.00     0.055 A 
ATOM     68  C   UNL A   1      40.665  34.145  36.949  1.00  0.00     0.041 A 
ATOM     69  F   UNL A   1      41.952  33.594  35.073  1.00  0.00    -0.206 F 
ATOM     70  C   UNL A   1      39.587  33.892  37.793  1.00  0.00     0.022 A 
BRANCH  67  71
ATOM     71  S   UNL A   1      37.289  32.484  38.507  1.00  0.00     0.124 S 
ATOM     72  O   UNL A   1      37.173  31.028  38.525  1.00  0.00    -0.237 OA
ATOM     73  O   UNL A   1      37.556  33.120  39.792  1.00  0.00    -0.237 OA
ATOM     74  O   UNL A   1      36.312  33.168  37.661  1.00  0.00    -0.744 OA
ENDBRANCH  67  71
ENDBRANCH  50  64
BRANCH  51  75
ATOM     75  C   UNL A   1      42.031  26.527  27.549  1.00  0.00     0.023 A 
ATOM     76  C   UNL A   1      41.623  25.183  27.505  1.00  0.00     0.031 A 
ATOM     77  C   UNL A   1      42.720  27.044  26.438  1.00  0.00     0.131 A 
ATOM     78  C   UNL A   1      41.945  24.390  26.393  1.00  0.00     0.055 A 
ATOM     79  C   UNL A   1      42.990  26.266  25.311  1.00  0.00     0.041 A 
ATOM     80  F   UNL A   1      43.127  28.323  26.427  1.00  0.00    -0.206 F 
ATOM     81  C   UNL A   1      42.613  24.926  25.289  1.00  0.00     0.022 A 
BRANCH  78  82
ATOM     82  S   UNL A   1      41.548  22.622  26.445  1.00  0.00     0.124 S 
ATOM     83  O   UNL A   1      40.094  22.641  26.347  1.00  0.00    -0.237 OA
ATOM     84  O   UNL A   1      42.264  22.116  25.278  1.00  0.00    -0.237 OA
ATOM     85  O   UNL A   1      42.083  22.191  27.735  1.00  0.00    -0.744 OA
ENDBRANCH  78  82
ENDBRANCH  51  75
BRANCH  63  86
ATOM     86  C   UNL A   1      44.916  26.781  33.887  1.00  0.00     0.023 A 
ATOM     87  C   UNL A   1      44.675  25.533  34.487  1.00  0.00     0.031 A 
ATOM     88  C   UNL A   1      46.227  27.289  33.927  1.00  0.00     0.131 A 
ATOM     89  C   UNL A   1      45.708  24.873  35.170  1.00  0.00     0.055 A 
ATOM     90  C   UNL A   1      47.269  26.590  34.538  1.00  0.00     0.041 A 
ATOM     91  F   UNL A   1      46.519  28.478  33.376  1.00  0.00    -0.206 F 
ATOM     92  C   UNL A   1      47.008  25.384  35.182  1.00  0.00     0.022 A 
BRANCH  89  93
ATOM     93  S   UNL A   1      45.298  23.408  36.158  1.00  0.00     0.124 S 
ATOM     94  O   UNL A   1      44.101  22.915  35.484  1.00  0.00    -0.237 OA
ATOM     95  O   UNL A   1      46.495  22.588  36.012  1.00  0.00    -0.237 OA
ATOM     96  O   UNL A   1      45.076  23.950  37.497  1.00  0.00    -0.744 OA
ENDBRANCH  89  93
ENDBRANCH  63  86
ENDBRANCH  37  38
ENDBRANCH  29  32
ENDBRANCH  27  28
ENDBRANCH   1  27
TORSDOF 16
ENDMDL
