MODEL 1
REMARK VINA RESULT:     -14.1      0.000      0.000
REMARK SMILES C[C@H]1c2ccc(O)cc2OC(=O)[C@@H]1CC(=O)N[C@@H](CC1=c2ccccc2=NC1)C(=O)NCCCNC(=O)c1ccc(-c2c3nc(c(-c4cc(S(=O)(=O)[O-])ccc4F)c4ccc([nH]4)c(-c4cc(S(=O)(=O)[O-])ccc4F)c4nc(c(-c5cc(S(=O)(=O)[O-])ccc5F)c5ccc2[nH]5)C=C4)C=C3)cc1
REMARK SMILES IDX 32 1 31 2 29 3 30 4 18 6 17 7 15 8 16 9 14 11 13 12 1 13
REMARK SMILES IDX 2 14 3 15 4 16 9 17 11 18 5 19 8 20 10 21 12 22 6 23 7 24
REMARK SMILES IDX 19 26 20 27 21 28 28 29 22 30 26 31 27 32 23 33 25 34 24 35
REMARK SMILES IDX 33 36 34 37 35 38 36 39 37 41 38 42 39 43 100 44 40 45 99 46
REMARK SMILES IDX 41 47 42 48 43 49 93 50 44 51 98 52 92 53 94 54 45 55 97 56
REMARK SMILES IDX 91 57 90 58 46 60 78 61 58 62 77 63 59 64 62 65 76 66 95 67
REMARK SMILES IDX 60 68 61 69 75 71 96 72 63 73 47 74 48 75 56 76 49 77 55 78
REMARK SMILES IDX 57 79 54 80 50 81 51 82 52 83 53 84 79 85 80 86 88 87 81 88
REMARK SMILES IDX 87 89 89 90 86 91 82 92 83 93 84 94 85 95 64 96 65 97 73 98
REMARK SMILES IDX 66 99 72 100 74 101 71 102 67 103 68 104 69 105 70 106
REMARK H PARENT 31 5 17 10 7 25 35 40 94 59 62 70
REMARK Flexibility Score: inf
ROOT
ATOM      1  C   UNL A   1      32.347  28.698  26.858  1.00  0.00     0.117 C 
ENDROOT
BRANCH   1   2
ATOM      2  N   UNL A   1      33.250  28.575  25.746  1.00  0.00    -0.354 N 
ATOM      3  C   UNL A   1      32.813  28.319  24.470  1.00  0.00     0.242 C 
ATOM      4  O   UNL A   1      33.367  28.939  23.555  1.00  0.00    -0.273 OA
ATOM      5  H   UNL A   1      34.216  28.677  25.905  1.00  0.00     0.163 HD
BRANCH   3   6
ATOM      6  C   UNL A   1      31.634  27.343  24.146  1.00  0.00     0.175 C 
BRANCH   6   7
ATOM      7  N   UNL A   1      31.080  26.529  25.235  1.00  0.00    -0.344 N 
ATOM      8  C   UNL A   1      31.394  25.252  25.608  1.00  0.00     0.221 C 
ATOM      9  O   UNL A   1      30.684  24.690  26.443  1.00  0.00    -0.275 OA
ATOM     10  H   UNL A   1      30.382  26.966  25.773  1.00  0.00     0.164 HD
BRANCH   8  11
ATOM     11  C   UNL A   1      32.608  24.540  25.032  1.00  0.00     0.116 C 
BRANCH  11  12
ATOM     12  C   UNL A   1      32.331  23.767  23.721  1.00  0.00     0.116 C 
ATOM     13  C   UNL A   1      32.221  21.493  22.558  1.00  0.00     0.014 C 
ATOM     14  C   UNL A   1      32.658  22.259  23.814  1.00  0.00     0.034 C 
ATOM     15  C   UNL A   1      34.142  22.099  24.041  1.00  0.00    -0.001 A 
ATOM     16  C   UNL A   1      34.673  21.029  24.763  1.00  0.00     0.011 A 
ATOM     17  C   UNL A   1      35.012  23.080  23.557  1.00  0.00     0.138 A 
ATOM     18  C   UNL A   1      33.171  24.294  22.582  1.00  0.00     0.315 C 
ATOM     19  C   UNL A   1      36.042  20.988  25.048  1.00  0.00     0.047 A 
ATOM     20  C   UNL A   1      36.369  23.072  23.859  1.00  0.00     0.093 A 
ATOM     21  O   UNL A   1      34.540  24.107  22.720  1.00  0.00    -0.426 OA
ATOM     22  O   UNL A   1      32.696  24.890  21.621  1.00  0.00    -0.251 OA
ATOM     23  C   UNL A   1      36.871  22.023  24.617  1.00  0.00     0.119 A 
BRANCH  23  24
ATOM     24  O   UNL A   1      38.201  22.036  24.918  1.00  0.00    -0.508 OA
ATOM     25  H   UNL A   1      38.593  21.297  25.341  1.00  0.00     0.293 HD
ENDBRANCH  23  24
ENDBRANCH  11  12
ENDBRANCH   8  11
ENDBRANCH   6   7
BRANCH   6  26
ATOM     26  C   UNL A   1      30.556  27.762  23.088  1.00  0.00     0.068 C 
BRANCH  26  27
ATOM     27  C   UNL A   1      29.440  28.746  23.405  1.00  0.00    -0.037 C 
ATOM     28  C   UNL A   1      29.457  30.025  22.990  1.00  0.00     0.001 A 
ATOM     29  C   UNL A   1      28.042  28.217  23.370  1.00  0.00     0.174 C 
ATOM     30  C   UNL A   1      29.283  31.224  23.813  1.00  0.00     0.010 A 
ATOM     31  C   UNL A   1      28.253  29.957  22.105  1.00  0.00     0.065 A 
ATOM     32  N   UNL A   1      27.403  29.002  22.294  1.00  0.00    -0.280 NA
ATOM     33  C   UNL A   1      28.745  32.313  23.222  1.00  0.00     0.001 A 
ATOM     34  C   UNL A   1      28.136  31.111  21.196  1.00  0.00     0.028 A 
ATOM     35  C   UNL A   1      28.407  32.281  21.800  1.00  0.00     0.002 A 
ENDBRANCH  26  27
ENDBRANCH   6  26
ENDBRANCH   3   6
ENDBRANCH   1   2
BRANCH   1  36
ATOM     36  C   UNL A   1      31.438  29.908  26.946  1.00  0.00     0.042 C 
BRANCH  36  37
ATOM     37  C   UNL A   1      31.960  31.108  26.151  1.00  0.00     0.118 C 
BRANCH  37  38
ATOM     38  N   UNL A   1      31.958  32.396  26.860  1.00  0.00    -0.352 N 
ATOM     39  C   UNL A   1      32.868  33.102  27.626  1.00  0.00     0.251 C 
ATOM     40  H   UNL A   1      31.101  32.871  26.767  1.00  0.00     0.163 HD
ATOM     41  O   UNL A   1      32.534  34.186  28.082  1.00  0.00    -0.269 OA
BRANCH  39  42
ATOM     42  C   UNL A   1      34.207  32.555  27.960  1.00  0.00     0.039 A 
ATOM     43  C   UNL A   1      34.394  31.211  28.223  1.00  0.00     0.014 A 
ATOM     44  C   UNL A   1      35.311  33.417  28.031  1.00  0.00     0.014 A 
ATOM     45  C   UNL A   1      35.553  30.789  28.855  1.00  0.00     0.010 A 
ATOM     46  C   UNL A   1      36.546  32.948  28.506  1.00  0.00     0.010 A 
ATOM     47  C   UNL A   1      36.653  31.646  29.014  1.00  0.00    -0.014 A 
BRANCH  47  48
ATOM     48  C   UNL A   1      37.859  31.144  29.739  1.00  0.00     0.031 A 
ATOM     49  C   UNL A   1      38.087  31.480  31.193  1.00  0.00     0.074 A 
ATOM     50  C   UNL A   1      38.690  30.279  29.117  1.00  0.00     0.049 A 
ATOM     51  N   UNL A   1      39.052  31.082  31.986  1.00  0.00    -0.248 NA
ATOM     52  C   UNL A   1      37.124  32.383  31.846  1.00  0.00     0.031 C 
ATOM     53  C   UNL A   1      38.567  29.868  27.716  1.00  0.00     0.029 A 
ATOM     54  N   UNL A   1      39.751  29.539  29.581  1.00  0.00    -0.354 N 
ATOM     55  C   UNL A   1      38.836  31.717  33.206  1.00  0.00     0.074 A 
ATOM     56  C   UNL A   1      37.664  32.545  33.047  1.00  0.00     0.031 C 
ATOM     57  C   UNL A   1      39.418  28.864  27.474  1.00  0.00     0.029 A 
ATOM     58  C   UNL A   1      40.246  28.646  28.655  1.00  0.00     0.049 A 
ATOM     59  H   UNL A   1      40.122  29.639  30.487  1.00  0.00     0.167 HD
ATOM     60  C   UNL A   1      39.545  31.606  34.355  1.00  0.00     0.034 A 
ATOM     61  C   UNL A   1      41.260  27.758  28.733  1.00  0.00     0.034 A 
ATOM     62  C   UNL A   1      40.677  30.729  34.517  1.00  0.00     0.049 A 
ATOM     63  C   UNL A   1      42.037  27.665  30.017  1.00  0.00     0.074 A 
ATOM     64  C   UNL A   1      41.445  30.531  35.650  1.00  0.00     0.029 A 
ATOM     65  N   UNL A   1      41.189  29.893  33.537  1.00  0.00    -0.354 N 
ATOM     66  N   UNL A   1      41.819  28.281  31.155  1.00  0.00    -0.248 NA
ATOM     67  C   UNL A   1      43.207  26.778  30.030  1.00  0.00     0.031 C 
ATOM     68  C   UNL A   1      42.456  29.622  35.340  1.00  0.00     0.029 A 
ATOM     69  C   UNL A   1      42.278  29.195  34.034  1.00  0.00     0.049 A 
ATOM     70  H   UNL A   1      40.833  29.807  32.623  1.00  0.00     0.167 HD
ATOM     71  C   UNL A   1      42.820  27.852  32.020  1.00  0.00     0.074 A 
ATOM     72  C   UNL A   1      43.621  26.895  31.285  1.00  0.00     0.031 C 
ATOM     73  C   UNL A   1      43.061  28.230  33.299  1.00  0.00     0.034 A 
BRANCH  60  74
ATOM     74  C   UNL A   1      39.136  32.434  35.551  1.00  0.00     0.023 A 
ATOM     75  C   UNL A   1      39.645  33.739  35.701  1.00  0.00     0.031 A 
ATOM     76  C   UNL A   1      38.379  31.892  36.603  1.00  0.00     0.131 A 
ATOM     77  C   UNL A   1      39.429  34.440  36.895  1.00  0.00     0.055 A 
ATOM     78  C   UNL A   1      38.128  32.612  37.773  1.00  0.00     0.041 A 
ATOM     79  F   UNL A   1      37.868  30.654  36.508  1.00  0.00    -0.206 F 
ATOM     80  C   UNL A   1      38.667  33.886  37.929  1.00  0.00     0.022 A 
BRANCH  77  81
ATOM     81  S   UNL A   1      40.184  36.064  37.181  1.00  0.00     0.124 S 
ATOM     82  O   UNL A   1      41.600  35.721  37.289  1.00  0.00    -0.237 OA
ATOM     83  O   UNL A   1      39.809  36.792  35.973  1.00  0.00    -0.237 OA
ATOM     84  O   UNL A   1      39.564  36.527  38.417  1.00  0.00    -0.744 OA
ENDBRANCH  77  81
ENDBRANCH  60  74
BRANCH  61  85
ATOM     85  C   UNL A   1      41.566  26.888  27.556  1.00  0.00     0.023 A 
ATOM     86  C   UNL A   1      41.229  25.521  27.559  1.00  0.00     0.031 A 
ATOM     87  C   UNL A   1      42.302  27.380  26.466  1.00  0.00     0.131 A 
ATOM     88  C   UNL A   1      41.712  24.678  26.551  1.00  0.00     0.055 A 
ATOM     89  C   UNL A   1      42.707  26.551  25.416  1.00  0.00     0.041 A 
ATOM     90  F   UNL A   1      42.656  28.674  26.415  1.00  0.00    -0.206 F 
ATOM     91  C   UNL A   1      42.434  25.188  25.468  1.00  0.00     0.022 A 
BRANCH  88  92
ATOM     92  S   UNL A   1      41.568  22.876  26.705  1.00  0.00     0.124 S 
ATOM     93  O   UNL A   1      42.472  22.592  27.814  1.00  0.00    -0.237 OA
ATOM     94  O   UNL A   1      40.144  22.712  26.993  1.00  0.00    -0.237 OA
ATOM     95  O   UNL A   1      41.993  22.385  25.399  1.00  0.00    -0.744 OA
ENDBRANCH  88  92
ENDBRANCH  61  85
BRANCH  73  96
ATOM     96  C   UNL A   1      44.236  27.619  34.021  1.00  0.00     0.023 A 
ATOM     97  C   UNL A   1      44.079  26.407  34.720  1.00  0.00     0.031 A 
ATOM     98  C   UNL A   1      45.454  28.309  34.148  1.00  0.00     0.131 A 
ATOM     99  C   UNL A   1      45.107  25.946  35.550  1.00  0.00     0.055 A 
ATOM    100  C   UNL A   1      46.493  27.820  34.938  1.00  0.00     0.041 A 
ATOM    101  F   UNL A   1      45.646  29.475  33.508  1.00  0.00    -0.206 F 
ATOM    102  C   UNL A   1      46.316  26.640  35.657  1.00  0.00     0.022 A 
BRANCH  99 103
ATOM    103  S   UNL A   1      44.879  24.478  36.593  1.00  0.00     0.124 S 
ATOM    104  O   UNL A   1      46.253  24.017  36.770  1.00  0.00    -0.237 OA
ATOM    105  O   UNL A   1      44.253  25.044  37.785  1.00  0.00    -0.237 OA
ATOM    106  O   UNL A   1      44.028  23.605  35.792  1.00  0.00    -0.744 OA
ENDBRANCH  99 103
ENDBRANCH  73  96
ENDBRANCH  47  48
ENDBRANCH  39  42
ENDBRANCH  37  38
ENDBRANCH  36  37
ENDBRANCH   1  36
TORSDOF 19
ENDMDL
MODEL 2
REMARK VINA RESULT:     -13.8      4.735      8.334
REMARK SMILES C[C@H]1c2ccc(O)cc2OC(=O)[C@@H]1CC(=O)N[C@@H](CC1=c2ccccc2=NC1)C(=O)NCCCNC(=O)c1ccc(-c2c3nc(c(-c4cc(S(=O)(=O)[O-])ccc4F)c4ccc([nH]4)c(-c4cc(S(=O)(=O)[O-])ccc4F)c4nc(c(-c5cc(S(=O)(=O)[O-])ccc5F)c5ccc2[nH]5)C=C4)C=C3)cc1
REMARK SMILES IDX 32 1 31 2 29 3 30 4 18 6 17 7 15 8 16 9 14 11 13 12 1 13
REMARK SMILES IDX 2 14 3 15 4 16 9 17 11 18 5 19 8 20 10 21 12 22 6 23 7 24
REMARK SMILES IDX 19 26 20 27 21 28 28 29 22 30 26 31 27 32 23 33 25 34 24 35
REMARK SMILES IDX 33 36 34 37 35 38 36 39 37 41 38 42 39 43 100 44 40 45 99 46
REMARK SMILES IDX 41 47 42 48 43 49 93 50 44 51 98 52 92 53 94 54 45 55 97 56
REMARK SMILES IDX 91 57 90 58 46 60 78 61 58 62 77 63 59 64 62 65 76 66 95 67
REMARK SMILES IDX 60 68 61 69 75 71 96 72 63 73 47 74 48 75 56 76 49 77 55 78
REMARK SMILES IDX 57 79 54 80 50 81 51 82 52 83 53 84 79 85 80 86 88 87 81 88
REMARK SMILES IDX 87 89 89 90 86 91 82 92 83 93 84 94 85 95 64 96 65 97 73 98
REMARK SMILES IDX 66 99 72 100 74 101 71 102 67 103 68 104 69 105 70 106
REMARK H PARENT 31 5 17 10 7 25 35 40 94 59 62 70
REMARK Flexibility Score: inf
ROOT
ATOM      1  C   UNL A   1      36.450  23.356  23.785  1.00  0.00     0.117 C 
ENDROOT
BRANCH   1   2
ATOM      2  N   UNL A   1      35.835  24.101  24.848  1.00  0.00    -0.354 N 
ATOM      3  C   UNL A   1      34.513  24.472  24.817  1.00  0.00     0.242 C 
ATOM      4  O   UNL A   1      33.880  24.374  25.874  1.00  0.00    -0.273 OA
ATOM      5  H   UNL A   1      36.380  24.355  25.627  1.00  0.00     0.163 HD
BRANCH   3   6
ATOM      6  C   UNL A   1      33.786  24.946  23.514  1.00  0.00     0.175 C 
BRANCH   6   7
ATOM      7  N   UNL A   1      34.257  26.170  22.855  1.00  0.00    -0.344 N 
ATOM      8  C   UNL A   1      33.548  27.106  22.158  1.00  0.00     0.221 C 
ATOM      9  O   UNL A   1      34.165  27.970  21.533  1.00  0.00    -0.275 OA
ATOM     10  H   UNL A   1      35.224  26.339  22.925  1.00  0.00     0.164 HD
BRANCH   8  11
ATOM     11  C   UNL A   1      32.026  27.109  22.167  1.00  0.00     0.116 C 
BRANCH  11  12
ATOM     12  C   UNL A   1      31.395  28.401  22.737  1.00  0.00     0.116 C 
ATOM     13  C   UNL A   1      31.197  29.989  24.731  1.00  0.00     0.014 C 
ATOM     14  C   UNL A   1      31.697  28.624  24.237  1.00  0.00     0.034 C 
ATOM     15  C   UNL A   1      31.058  27.509  25.029  1.00  0.00    -0.001 A 
ATOM     16  C   UNL A   1      31.602  27.040  26.227  1.00  0.00     0.011 A 
ATOM     17  C   UNL A   1      29.911  26.889  24.525  1.00  0.00     0.138 A 
ATOM     18  C   UNL A   1      29.889  28.374  22.626  1.00  0.00     0.315 C 
ATOM     19  C   UNL A   1      31.042  25.927  26.862  1.00  0.00     0.047 A 
ATOM     20  C   UNL A   1      29.361  25.762  25.126  1.00  0.00     0.093 A 
ATOM     21  O   UNL A   1      29.256  27.404  23.393  1.00  0.00    -0.426 OA
ATOM     22  O   UNL A   1      29.261  29.116  21.880  1.00  0.00    -0.251 OA
ATOM     23  C   UNL A   1      29.944  25.284  26.291  1.00  0.00     0.119 A 
BRANCH  23  24
ATOM     24  O   UNL A   1      29.404  24.168  26.862  1.00  0.00    -0.508 OA
ATOM     25  H   UNL A   1      29.713  23.871  27.695  1.00  0.00     0.293 HD
ENDBRANCH  23  24
ENDBRANCH  11  12
ENDBRANCH   8  11
ENDBRANCH   6   7
BRANCH   6  26
ATOM     26  C   UNL A   1      33.244  23.877  22.504  1.00  0.00     0.068 C 
BRANCH  26  27
ATOM     27  C   UNL A   1      32.307  22.755  22.928  1.00  0.00    -0.037 C 
ATOM     28  C   UNL A   1      32.746  21.526  23.254  1.00  0.00     0.001 A 
ATOM     29  C   UNL A   1      31.151  23.131  23.797  1.00  0.00     0.174 C 
ATOM     30  C   UNL A   1      32.282  20.248  22.707  1.00  0.00     0.010 A 
ATOM     31  C   UNL A   1      32.313  21.540  24.686  1.00  0.00     0.065 A 
ATOM     32  N   UNL A   1      31.396  22.379  25.043  1.00  0.00    -0.280 NA
ATOM     33  C   UNL A   1      32.359  19.163  23.507  1.00  0.00     0.001 A 
ATOM     34  C   UNL A   1      32.922  20.463  25.486  1.00  0.00     0.028 A 
ATOM     35  C   UNL A   1      32.937  19.281  24.845  1.00  0.00     0.002 A 
ENDBRANCH  26  27
ENDBRANCH   6  26
ENDBRANCH   3   6
ENDBRANCH   1   2
BRANCH   1  36
ATOM     36  C   UNL A   1      36.594  21.851  23.918  1.00  0.00     0.042 C 
BRANCH  36  37
ATOM     37  C   UNL A   1      36.889  21.404  25.352  1.00  0.00     0.118 C 
BRANCH  37  38
ATOM     38  N   UNL A   1      38.130  20.641  25.542  1.00  0.00    -0.352 N 
ATOM     39  C   UNL A   1      39.369  20.895  26.104  1.00  0.00     0.251 C 
ATOM     40  H   UNL A   1      38.065  19.727  25.182  1.00  0.00     0.163 HD
ATOM     41  O   UNL A   1      40.208  20.007  26.098  1.00  0.00    -0.269 OA
BRANCH  39  42
ATOM     42  C   UNL A   1      39.725  22.227  26.653  1.00  0.00     0.039 A 
ATOM     43  C   UNL A   1      39.044  23.370  26.277  1.00  0.00     0.014 A 
ATOM     44  C   UNL A   1      40.788  22.343  27.560  1.00  0.00     0.014 A 
ATOM     45  C   UNL A   1      39.599  24.615  26.526  1.00  0.00     0.010 A 
ATOM     46  C   UNL A   1      41.243  23.610  27.959  1.00  0.00     0.010 A 
ATOM     47  C   UNL A   1      40.711  24.764  27.369  1.00  0.00    -0.014 A 
BRANCH  47  48
ATOM     48  C   UNL A   1      41.288  26.128  27.568  1.00  0.00     0.031 A 
ATOM     49  C   UNL A   1      40.603  27.139  28.456  1.00  0.00     0.074 A 
ATOM     50  C   UNL A   1      42.500  26.414  27.044  1.00  0.00     0.049 A 
ATOM     51  N   UNL A   1      40.995  28.346  28.779  1.00  0.00    -0.248 NA
ATOM     52  C   UNL A   1      39.310  26.762  29.051  1.00  0.00     0.031 C 
ATOM     53  C   UNL A   1      43.267  25.514  26.180  1.00  0.00     0.029 A 
ATOM     54  N   UNL A   1      43.331  27.497  27.205  1.00  0.00    -0.354 N 
ATOM     55  C   UNL A   1      39.984  28.883  29.572  1.00  0.00     0.074 A 
ATOM     56  C   UNL A   1      38.948  27.881  29.664  1.00  0.00     0.031 C 
ATOM     57  C   UNL A   1      44.494  26.015  25.998  1.00  0.00     0.029 A 
ATOM     58  C   UNL A   1      44.567  27.335  26.616  1.00  0.00     0.049 A 
ATOM     59  H   UNL A   1      43.069  28.310  27.695  1.00  0.00     0.167 HD
ATOM     60  C   UNL A   1      39.935  30.094  30.177  1.00  0.00     0.034 A 
ATOM     61  C   UNL A   1      45.637  28.155  26.559  1.00  0.00     0.034 A 
ATOM     62  C   UNL A   1      41.003  31.059  30.125  1.00  0.00     0.049 A 
ATOM     63  C   UNL A   1      45.549  29.498  27.230  1.00  0.00     0.074 A 
ATOM     64  C   UNL A   1      41.055  32.305  30.725  1.00  0.00     0.029 A 
ATOM     65  N   UNL A   1      42.208  30.887  29.461  1.00  0.00    -0.354 N 
ATOM     66  N   UNL A   1      44.580  29.986  27.968  1.00  0.00    -0.248 NA
ATOM     67  C   UNL A   1      46.684  30.413  27.049  1.00  0.00     0.031 C 
ATOM     68  C   UNL A   1      42.262  32.909  30.377  1.00  0.00     0.029 A 
ATOM     69  C   UNL A   1      42.999  32.013  29.618  1.00  0.00     0.049 A 
ATOM     70  H   UNL A   1      42.464  30.083  28.953  1.00  0.00     0.167 HD
ATOM     71  C   UNL A   1      44.989  31.262  28.342  1.00  0.00     0.074 A 
ATOM     72  C   UNL A   1      46.310  31.454  27.782  1.00  0.00     0.031 C 
ATOM     73  C   UNL A   1      44.323  32.191  29.070  1.00  0.00     0.034 A 
BRANCH  60  74
ATOM     74  C   UNL A   1      38.701  30.470  30.963  1.00  0.00     0.023 A 
ATOM     75  C   UNL A   1      37.634  31.124  30.315  1.00  0.00     0.031 A 
ATOM     76  C   UNL A   1      38.639  30.324  32.359  1.00  0.00     0.131 A 
ATOM     77  C   UNL A   1      36.575  31.647  31.067  1.00  0.00     0.055 A 
ATOM     78  C   UNL A   1      37.559  30.809  33.100  1.00  0.00     0.041 A 
ATOM     79  F   UNL A   1      39.627  29.706  33.024  1.00  0.00    -0.206 F 
ATOM     80  C   UNL A   1      36.529  31.487  32.456  1.00  0.00     0.022 A 
BRANCH  77  81
ATOM     81  S   UNL A   1      35.255  32.615  30.286  1.00  0.00     0.124 S 
ATOM     82  O   UNL A   1      34.870  31.752  29.171  1.00  0.00    -0.237 OA
ATOM     83  O   UNL A   1      34.274  32.719  31.362  1.00  0.00    -0.237 OA
ATOM     84  O   UNL A   1      35.911  33.861  29.906  1.00  0.00    -0.744 OA
ENDBRANCH  77  81
ENDBRANCH  60  74
BRANCH  61  85
ATOM     85  C   UNL A   1      46.875  27.700  25.854  1.00  0.00     0.023 A 
ATOM     86  C   UNL A   1      47.124  28.070  24.519  1.00  0.00     0.031 A 
ATOM     87  C   UNL A   1      47.762  26.797  26.462  1.00  0.00     0.131 A 
ATOM     88  C   UNL A   1      48.166  27.464  23.808  1.00  0.00     0.055 A 
ATOM     89  C   UNL A   1      48.854  26.262  25.775  1.00  0.00     0.041 A 
ATOM     90  F   UNL A   1      47.568  26.406  27.731  1.00  0.00    -0.206 F 
ATOM     91  C   UNL A   1      49.047  26.576  24.433  1.00  0.00     0.022 A 
BRANCH  88  92
ATOM     92  S   UNL A   1      48.306  27.676  22.011  1.00  0.00     0.124 S 
ATOM     93  O   UNL A   1      49.464  28.555  21.897  1.00  0.00    -0.237 OA
ATOM     94  O   UNL A   1      48.508  26.300  21.561  1.00  0.00    -0.237 OA
ATOM     95  O   UNL A   1      47.025  28.265  21.634  1.00  0.00    -0.744 OA
ENDBRANCH  88  92
ENDBRANCH  61  85
BRANCH  73  96
ATOM     96  C   UNL A   1      44.990  33.519  29.326  1.00  0.00     0.023 A 
ATOM     97  C   UNL A   1      44.848  34.567  28.397  1.00  0.00     0.031 A 
ATOM     98  C   UNL A   1      45.884  33.693  30.397  1.00  0.00     0.131 A 
ATOM     99  C   UNL A   1      45.624  35.725  28.532  1.00  0.00     0.055 A 
ATOM    100  C   UNL A   1      46.618  34.868  30.554  1.00  0.00     0.041 A 
ATOM    101  F   UNL A   1      46.060  32.717  31.303  1.00  0.00    -0.206 F 
ATOM    102  C   UNL A   1      46.501  35.885  29.609  1.00  0.00     0.022 A 
BRANCH  99 103
ATOM    103  S   UNL A   1      45.591  37.024  27.265  1.00  0.00     0.124 S 
ATOM    104  O   UNL A   1      46.398  36.430  26.203  1.00  0.00    -0.237 OA
ATOM    105  O   UNL A   1      44.164  37.134  26.976  1.00  0.00    -0.237 OA
ATOM    106  O   UNL A   1      46.188  38.179  27.928  1.00  0.00    -0.744 OA
ENDBRANCH  99 103
ENDBRANCH  73  96
ENDBRANCH  47  48
ENDBRANCH  39  42
ENDBRANCH  37  38
ENDBRANCH  36  37
ENDBRANCH   1  36
TORSDOF 19
ENDMDL
MODEL 3
REMARK VINA RESULT:     -13.7      4.798     10.538
REMARK SMILES C[C@H]1c2ccc(O)cc2OC(=O)[C@@H]1CC(=O)N[C@@H](CC1=c2ccccc2=NC1)C(=O)NCCCNC(=O)c1ccc(-c2c3nc(c(-c4cc(S(=O)(=O)[O-])ccc4F)c4ccc([nH]4)c(-c4cc(S(=O)(=O)[O-])ccc4F)c4nc(c(-c5cc(S(=O)(=O)[O-])ccc5F)c5ccc2[nH]5)C=C4)C=C3)cc1
REMARK SMILES IDX 32 1 31 2 29 3 30 4 18 6 17 7 15 8 16 9 14 11 13 12 1 13
REMARK SMILES IDX 2 14 3 15 4 16 9 17 11 18 5 19 8 20 10 21 12 22 6 23 7 24
REMARK SMILES IDX 19 26 20 27 21 28 28 29 22 30 26 31 27 32 23 33 25 34 24 35
REMARK SMILES IDX 33 36 34 37 35 38 36 39 37 41 38 42 39 43 100 44 40 45 99 46
REMARK SMILES IDX 41 47 42 48 43 49 93 50 44 51 98 52 92 53 94 54 45 55 97 56
REMARK SMILES IDX 91 57 90 58 46 60 78 61 58 62 77 63 59 64 62 65 76 66 95 67
REMARK SMILES IDX 60 68 61 69 75 71 96 72 63 73 47 74 48 75 56 76 49 77 55 78
REMARK SMILES IDX 57 79 54 80 50 81 51 82 52 83 53 84 79 85 80 86 88 87 81 88
REMARK SMILES IDX 87 89 89 90 86 91 82 92 83 93 84 94 85 95 64 96 65 97 73 98
REMARK SMILES IDX 66 99 72 100 74 101 71 102 67 103 68 104 69 105 70 106
REMARK H PARENT 31 5 17 10 7 25 35 40 94 59 62 70
REMARK Flexibility Score: inf
ROOT
ATOM      1  C   UNL A   1      35.059  23.243  23.751  1.00  0.00     0.117 C 
ENDROOT
BRANCH   1   2
ATOM      2  N   UNL A   1      33.924  22.640  23.108  1.00  0.00    -0.354 N 
ATOM      3  C   UNL A   1      32.730  22.444  23.757  1.00  0.00     0.242 C 
ATOM      4  O   UNL A   1      31.700  22.677  23.114  1.00  0.00    -0.273 OA
ATOM      5  H   UNL A   1      34.005  22.356  22.169  1.00  0.00     0.163 HD
BRANCH   3   6
ATOM      6  C   UNL A   1      32.630  22.004  25.256  1.00  0.00     0.175 C 
BRANCH   6   7
ATOM      7  N   UNL A   1      31.404  22.319  25.998  1.00  0.00    -0.344 N 
ATOM      8  C   UNL A   1      31.034  23.487  26.602  1.00  0.00     0.221 C 
ATOM      9  O   UNL A   1      30.036  23.488  27.325  1.00  0.00    -0.275 OA
ATOM     10  H   UNL A   1      30.756  21.583  26.071  1.00  0.00     0.164 HD
BRANCH   8  11
ATOM     11  C   UNL A   1      31.814  24.774  26.374  1.00  0.00     0.116 C 
BRANCH  11  12
ATOM     12  C   UNL A   1      31.671  25.361  24.950  1.00  0.00     0.116 C 
ATOM     13  C   UNL A   1      32.812  26.572  23.009  1.00  0.00     0.014 C 
ATOM     14  C   UNL A   1      32.919  26.144  24.479  1.00  0.00     0.034 C 
ATOM     15  C   UNL A   1      33.097  27.349  25.370  1.00  0.00    -0.001 A 
ATOM     16  C   UNL A   1      34.355  27.886  25.653  1.00  0.00     0.011 A 
ATOM     17  C   UNL A   1      31.972  27.919  25.973  1.00  0.00     0.138 A 
ATOM     18  C   UNL A   1      30.524  26.339  24.869  1.00  0.00     0.315 C 
ATOM     19  C   UNL A   1      34.478  28.928  26.577  1.00  0.00     0.047 A 
ATOM     20  C   UNL A   1      32.081  28.933  26.918  1.00  0.00     0.093 A 
ATOM     21  O   UNL A   1      30.678  27.495  25.623  1.00  0.00    -0.426 OA
ATOM     22  O   UNL A   1      29.503  26.120  24.227  1.00  0.00    -0.251 OA
ATOM     23  C   UNL A   1      33.344  29.423  27.220  1.00  0.00     0.119 A 
BRANCH  23  24
ATOM     24  O   UNL A   1      33.437  30.407  28.160  1.00  0.00    -0.508 OA
ATOM     25  H   UNL A   1      33.729  31.263  27.916  1.00  0.00     0.293 HD
ENDBRANCH  23  24
ENDBRANCH  11  12
ENDBRANCH   8  11
ENDBRANCH   6   7
BRANCH   6  26
ATOM     26  C   UNL A   1      33.287  20.654  25.706  1.00  0.00     0.068 C 
BRANCH  26  27
ATOM     27  C   UNL A   1      33.461  19.475  24.760  1.00  0.00    -0.037 C 
ATOM     28  C   UNL A   1      33.922  18.278  25.166  1.00  0.00     0.001 A 
ATOM     29  C   UNL A   1      32.410  19.288  23.713  1.00  0.00     0.174 C 
ATOM     30  C   UNL A   1      35.034  17.518  24.588  1.00  0.00     0.010 A 
ATOM     31  C   UNL A   1      32.688  17.485  24.874  1.00  0.00     0.065 A 
ATOM     32  N   UNL A   1      31.828  17.971  24.039  1.00  0.00    -0.280 NA
ATOM     33  C   UNL A   1      34.986  16.172  24.687  1.00  0.00     0.001 A 
ATOM     34  C   UNL A   1      32.693  16.153  25.502  1.00  0.00     0.028 A 
ATOM     35  C   UNL A   1      33.879  15.530  25.396  1.00  0.00     0.002 A 
ENDBRANCH  26  27
ENDBRANCH   6  26
ENDBRANCH   3   6
ENDBRANCH   1   2
BRANCH   1  36
ATOM     36  C   UNL A   1      36.362  22.472  23.837  1.00  0.00     0.042 C 
BRANCH  36  37
ATOM     37  C   UNL A   1      36.525  21.718  25.160  1.00  0.00     0.118 C 
BRANCH  37  38
ATOM     38  N   UNL A   1      37.691  20.828  25.250  1.00  0.00    -0.352 N 
ATOM     39  C   UNL A   1      38.949  20.904  25.820  1.00  0.00     0.251 C 
ATOM     40  H   UNL A   1      37.540  19.970  24.792  1.00  0.00     0.163 HD
ATOM     41  O   UNL A   1      39.703  19.949  25.708  1.00  0.00    -0.269 OA
BRANCH  39  42
ATOM     42  C   UNL A   1      39.428  22.130  26.508  1.00  0.00     0.039 A 
ATOM     43  C   UNL A   1      38.918  23.377  26.201  1.00  0.00     0.014 A 
ATOM     44  C   UNL A   1      40.436  22.033  27.478  1.00  0.00     0.014 A 
ATOM     45  C   UNL A   1      39.602  24.516  26.593  1.00  0.00     0.010 A 
ATOM     46  C   UNL A   1      41.016  23.193  28.015  1.00  0.00     0.010 A 
ATOM     47  C   UNL A   1      40.668  24.451  27.505  1.00  0.00    -0.014 A 
BRANCH  47  48
ATOM     48  C   UNL A   1      41.392  25.710  27.858  1.00  0.00     0.031 A 
ATOM     49  C   UNL A   1      42.780  25.981  27.330  1.00  0.00     0.074 A 
ATOM     50  C   UNL A   1      40.746  26.668  28.558  1.00  0.00     0.049 A 
ATOM     51  N   UNL A   1      43.527  27.045  27.494  1.00  0.00    -0.248 NA
ATOM     52  C   UNL A   1      43.423  24.930  26.524  1.00  0.00     0.031 C 
ATOM     53  C   UNL A   1      39.397  26.529  29.111  1.00  0.00     0.029 A 
ATOM     54  N   UNL A   1      41.093  27.961  28.868  1.00  0.00    -0.354 N 
ATOM     55  C   UNL A   1      44.734  26.773  26.855  1.00  0.00     0.074 A 
ATOM     56  C   UNL A   1      44.632  25.436  26.319  1.00  0.00     0.031 C 
ATOM     57  C   UNL A   1      38.983  27.715  29.570  1.00  0.00     0.029 A 
ATOM     58  C   UNL A   1      40.079  28.674  29.472  1.00  0.00     0.049 A 
ATOM     59  H   UNL A   1      41.981  28.342  28.678  1.00  0.00     0.167 HD
ATOM     60  C   UNL A   1      45.819  27.572  26.718  1.00  0.00     0.034 A 
ATOM     61  C   UNL A   1      40.030  29.948  29.914  1.00  0.00     0.034 A 
ATOM     62  C   UNL A   1      45.883  28.926  27.207  1.00  0.00     0.049 A 
ATOM     63  C   UNL A   1      41.254  30.808  29.760  1.00  0.00     0.074 A 
ATOM     64  C   UNL A   1      46.932  29.822  27.097  1.00  0.00     0.029 A 
ATOM     65  N   UNL A   1      44.862  29.587  27.874  1.00  0.00    -0.354 N 
ATOM     66  N   UNL A   1      42.386  30.526  29.159  1.00  0.00    -0.248 NA
ATOM     67  C   UNL A   1      41.210  32.149  30.357  1.00  0.00     0.031 C 
ATOM     68  C   UNL A   1      46.569  31.001  27.746  1.00  0.00     0.029 A 
ATOM     69  C   UNL A   1      45.266  30.871  28.200  1.00  0.00     0.049 A 
ATOM     70  H   UNL A   1      43.981  29.201  28.084  1.00  0.00     0.167 HD
ATOM     71  C   UNL A   1      43.186  31.655  29.301  1.00  0.00     0.074 A 
ATOM     72  C   UNL A   1      42.394  32.638  30.011  1.00  0.00     0.031 C 
ATOM     73  C   UNL A   1      44.464  31.851  28.894  1.00  0.00     0.034 A 
BRANCH  60  74
ATOM     74  C   UNL A   1      47.040  27.035  26.009  1.00  0.00     0.023 A 
ATOM     75  C   UNL A   1      48.048  26.387  26.750  1.00  0.00     0.031 A 
ATOM     76  C   UNL A   1      47.278  27.291  24.648  1.00  0.00     0.131 A 
ATOM     77  C   UNL A   1      49.264  26.060  26.137  1.00  0.00     0.055 A 
ATOM     78  C   UNL A   1      48.475  26.923  24.031  1.00  0.00     0.041 A 
ATOM     79  F   UNL A   1      46.348  27.902  23.897  1.00  0.00    -0.206 F 
ATOM     80  C   UNL A   1      49.480  26.318  24.779  1.00  0.00     0.022 A 
BRANCH  77  81
ATOM     81  S   UNL A   1      50.636  25.353  27.089  1.00  0.00     0.124 S 
ATOM     82  O   UNL A   1      51.103  26.512  27.847  1.00  0.00    -0.237 OA
ATOM     83  O   UNL A   1      49.964  24.324  27.876  1.00  0.00    -0.237 OA
ATOM     84  O   UNL A   1      51.559  24.868  26.069  1.00  0.00    -0.744 OA
ENDBRANCH  77  81
ENDBRANCH  60  74
BRANCH  61  85
ATOM     85  C   UNL A   1      38.767  30.468  30.521  1.00  0.00     0.023 A 
ATOM     86  C   UNL A   1      37.782  31.083  29.726  1.00  0.00     0.031 A 
ATOM     87  C   UNL A   1      38.579  30.463  31.913  1.00  0.00     0.131 A 
ATOM     88  C   UNL A   1      36.712  31.755  30.331  1.00  0.00     0.055 A 
ATOM     89  C   UNL A   1      37.463  31.058  32.508  1.00  0.00     0.041 A 
ATOM     90  F   UNL A   1      39.490  29.895  32.718  1.00  0.00    -0.206 F 
ATOM     91  C   UNL A   1      36.536  31.729  31.718  1.00  0.00     0.022 A 
BRANCH  88  92
ATOM     92  S   UNL A   1      35.619  32.823  29.353  1.00  0.00     0.124 S 
ATOM     93  O   UNL A   1      35.714  32.223  28.027  1.00  0.00    -0.237 OA
ATOM     94  O   UNL A   1      34.339  32.648  30.037  1.00  0.00    -0.237 OA
ATOM     95  O   UNL A   1      36.217  34.146  29.494  1.00  0.00    -0.744 OA
ENDBRANCH  88  92
ENDBRANCH  61  85
BRANCH  73  96
ATOM     96  C   UNL A   1      45.119  33.177  29.189  1.00  0.00     0.023 A 
ATOM     97  C   UNL A   1      45.141  34.185  28.206  1.00  0.00     0.031 A 
ATOM     98  C   UNL A   1      45.850  33.383  30.372  1.00  0.00     0.131 A 
ATOM     99  C   UNL A   1      45.916  35.333  28.405  1.00  0.00     0.055 A 
ATOM    100  C   UNL A   1      46.582  34.550  30.586  1.00  0.00     0.041 A 
ATOM    101  F   UNL A   1      45.867  32.445  31.334  1.00  0.00    -0.206 F 
ATOM    102  C   UNL A   1      46.630  35.526  29.592  1.00  0.00     0.022 A 
BRANCH  99 103
ATOM    103  S   UNL A   1      46.101  36.574  27.095  1.00  0.00     0.124 S 
ATOM    104  O   UNL A   1      46.169  35.741  25.897  1.00  0.00    -0.237 OA
ATOM    105  O   UNL A   1      44.878  37.359  27.240  1.00  0.00    -0.237 OA
ATOM    106  O   UNL A   1      47.337  37.270  27.439  1.00  0.00    -0.744 OA
ENDBRANCH  99 103
ENDBRANCH  73  96
ENDBRANCH  47  48
ENDBRANCH  39  42
ENDBRANCH  37  38
ENDBRANCH  36  37
ENDBRANCH   1  36
TORSDOF 19
ENDMDL
