MODEL 1
REMARK VINA RESULT:     -12.3      0.000      0.000
REMARK SMILES CN(C)c1cc(C(F)(F)F)cc(-c2cccc(/C=C/C(=O)NCCCNC(=O)c3ccc(-c4c5nc(c(-c6cc(S(=O)(=O)[O-])ccc6F)c6ccc([nH]6)c(-c6cc(S(=O)(=O)[O-])ccc6F)c6nc(c(-c7cc(S(=O)(=O)[O-])ccc7F)c7ccc4[nH]7)C=C6)C=C5)cc3)c2)n1
REMARK SMILES IDX 24 1 23 2 22 3 20 4 21 5 19 7 18 8 17 9 13 10 14 11 92 12
REMARK SMILES IDX 15 13 16 14 12 15 4 16 5 17 93 18 6 19 11 20 2 21 1 22 3 23
REMARK SMILES IDX 7 24 8 25 9 26 10 27 25 28 26 29 27 30 28 32 29 33 30 34
REMARK SMILES IDX 91 35 31 36 90 37 32 38 33 39 34 40 84 41 35 42 89 43 83 44
REMARK SMILES IDX 85 45 36 46 88 47 82 48 81 49 37 51 69 52 49 53 68 54 50 55
REMARK SMILES IDX 53 56 67 57 86 58 51 59 52 60 66 62 87 63 54 64 38 65 39 66
REMARK SMILES IDX 47 67 40 68 46 69 48 70 45 71 41 72 42 73 43 74 44 75 70 76
REMARK SMILES IDX 71 77 79 78 72 79 78 80 80 81 77 82 73 83 74 84 75 85 76 86
REMARK SMILES IDX 55 87 56 88 64 89 57 90 63 91 65 92 62 93 58 94 59 95 60 96
REMARK SMILES IDX 61 97
REMARK H PARENT 22 6 26 31 85 50 53 61
REMARK Flexibility Score: inf
ROOT
ATOM      1  C   UNL A   1      31.736  32.052  26.929  1.00  0.00     0.042 C 
ENDROOT
BRANCH   1   2
ATOM      2  C   UNL A   1      32.031  30.554  26.988  1.00  0.00     0.118 C 
BRANCH   2   3
ATOM      3  N   UNL A   1      33.324  30.282  27.595  1.00  0.00    -0.352 N 
ATOM      4  C   UNL A   1      34.207  29.271  27.380  1.00  0.00     0.244 C 
ATOM      5  O   UNL A   1      35.318  29.308  27.903  1.00  0.00    -0.270 OA
ATOM      6  H   UNL A   1      33.605  30.936  28.275  1.00  0.00     0.163 HD
BRANCH   4   7
ATOM      7  C   UNL A   1      33.888  28.168  26.447  1.00  0.00     0.072 C 
ATOM      8  C   UNL A   1      33.975  28.271  25.114  1.00  0.00     0.014 C 
BRANCH   8   9
ATOM      9  C   UNL A   1      33.642  27.192  24.176  1.00  0.00    -0.025 A 
ATOM     10  C   UNL A   1      33.774  24.807  23.635  1.00  0.00     0.001 A 
ATOM     11  C   UNL A   1      33.210  25.085  22.380  1.00  0.00     0.010 A 
ATOM     12  C   UNL A   1      33.985  25.876  24.521  1.00  0.00     0.018 A 
ATOM     13  C   UNL A   1      32.855  26.388  22.029  1.00  0.00     0.001 A 
ATOM     14  C   UNL A   1      33.073  27.438  22.921  1.00  0.00     0.008 A 
BRANCH  10  15
ATOM     15  C   UNL A   1      34.163  23.441  23.998  1.00  0.00     0.073 A 
ATOM     16  C   UNL A   1      35.837  22.096  24.925  1.00  0.00     0.129 A 
ATOM     17  C   UNL A   1      35.042  20.969  24.745  1.00  0.00     0.060 A 
ATOM     18  N   UNL A   1      35.394  23.315  24.546  1.00  0.00    -0.231 NA
ATOM     19  C   UNL A   1      33.762  21.090  24.191  1.00  0.00     0.061 A 
ATOM     20  C   UNL A   1      33.321  22.357  23.808  1.00  0.00     0.042 A 
BRANCH  16  21
ATOM     21  N   UNL A   1      37.082  21.993  25.530  1.00  0.00    -0.363 N 
ATOM     22  C   UNL A   1      37.947  20.894  25.143  1.00  0.00     0.144 C 
ATOM     23  C   UNL A   1      37.693  23.241  25.962  1.00  0.00     0.144 C 
ENDBRANCH  16  21
BRANCH  19  24
ATOM     24  C   UNL A   1      32.867  19.895  24.029  1.00  0.00     0.416 C 
ATOM     25  F   UNL A   1      32.057  19.993  22.939  1.00  0.00    -0.166 F 
ATOM     26  F   UNL A   1      33.574  18.741  23.862  1.00  0.00    -0.166 F 
ATOM     27  F   UNL A   1      32.045  19.673  25.091  1.00  0.00    -0.166 F 
ENDBRANCH  19  24
ENDBRANCH  10  15
ENDBRANCH   8   9
ENDBRANCH   4   7
ENDBRANCH   2   3
ENDBRANCH   1   2
BRANCH   1  28
ATOM     28  C   UNL A   1      32.981  32.929  27.035  1.00  0.00     0.118 C 
BRANCH  28  29
ATOM     29  N   UNL A   1      32.712  34.175  27.738  1.00  0.00    -0.352 N 
ATOM     30  C   UNL A   1      33.195  34.643  28.935  1.00  0.00     0.251 C 
ATOM     31  H   UNL A   1      32.083  34.780  27.281  1.00  0.00     0.163 HD
ATOM     32  O   UNL A   1      32.645  35.608  29.458  1.00  0.00    -0.269 OA
BRANCH  30  33
ATOM     33  C   UNL A   1      34.349  33.995  29.600  1.00  0.00     0.039 A 
ATOM     34  C   UNL A   1      35.640  34.401  29.250  1.00  0.00     0.014 A 
ATOM     35  C   UNL A   1      34.173  32.955  30.518  1.00  0.00     0.014 A 
ATOM     36  C   UNL A   1      36.748  33.801  29.855  1.00  0.00     0.010 A 
ATOM     37  C   UNL A   1      35.274  32.407  31.173  1.00  0.00     0.010 A 
ATOM     38  C   UNL A   1      36.575  32.817  30.841  1.00  0.00    -0.014 A 
BRANCH  38  39
ATOM     39  C   UNL A   1      37.743  32.205  31.526  1.00  0.00     0.031 A 
ATOM     40  C   UNL A   1      38.503  31.081  30.875  1.00  0.00     0.074 A 
ATOM     41  C   UNL A   1      38.084  32.625  32.760  1.00  0.00     0.049 A 
ATOM     42  N   UNL A   1      39.506  30.379  31.339  1.00  0.00    -0.248 NA
ATOM     43  C   UNL A   1      38.051  30.674  29.538  1.00  0.00     0.031 C 
ATOM     44  C   UNL A   1      37.391  33.670  33.515  1.00  0.00     0.029 A 
ATOM     45  N   UNL A   1      39.089  32.219  33.601  1.00  0.00    -0.354 N 
ATOM     46  C   UNL A   1      39.801  29.441  30.353  1.00  0.00     0.074 A 
ATOM     47  C   UNL A   1      38.821  29.622  29.303  1.00  0.00     0.031 C 
ATOM     48  C   UNL A   1      38.000  33.833  34.700  1.00  0.00     0.029 A 
ATOM     49  C   UNL A   1      39.098  32.879  34.807  1.00  0.00     0.049 A 
ATOM     50  H   UNL A   1      39.742  31.522  33.363  1.00  0.00     0.167 HD
ATOM     51  C   UNL A   1      40.812  28.535  30.314  1.00  0.00     0.034 A 
ATOM     52  C   UNL A   1      39.892  32.724  35.885  1.00  0.00     0.034 A 
ATOM     53  C   UNL A   1      41.777  28.367  31.376  1.00  0.00     0.049 A 
ATOM     54  C   UNL A   1      41.000  31.706  35.831  1.00  0.00     0.074 A 
ATOM     55  C   UNL A   1      42.863  27.512  31.430  1.00  0.00     0.029 A 
ATOM     56  N   UNL A   1      41.766  29.065  32.579  1.00  0.00    -0.354 N 
ATOM     57  N   UNL A   1      41.301  30.862  34.870  1.00  0.00    -0.248 NA
ATOM     58  C   UNL A   1      41.886  31.632  36.998  1.00  0.00     0.031 C 
ATOM     59  C   UNL A   1      43.468  27.645  32.687  1.00  0.00     0.029 A 
ATOM     60  C   UNL A   1      42.807  28.638  33.392  1.00  0.00     0.049 A 
ATOM     61  H   UNL A   1      41.112  29.761  32.820  1.00  0.00     0.167 HD
ATOM     62  C   UNL A   1      42.422  30.166  35.313  1.00  0.00     0.074 A 
ATOM     63  C   UNL A   1      42.757  30.712  36.615  1.00  0.00     0.031 C 
ATOM     64  C   UNL A   1      43.112  29.168  34.702  1.00  0.00     0.034 A 
BRANCH  51  65
ATOM     65  C   UNL A   1      40.893  27.649  29.091  1.00  0.00     0.023 A 
ATOM     66  C   UNL A   1      41.842  27.880  28.077  1.00  0.00     0.031 A 
ATOM     67  C   UNL A   1      39.980  26.597  28.902  1.00  0.00     0.131 A 
ATOM     68  C   UNL A   1      41.790  27.146  26.884  1.00  0.00     0.055 A 
ATOM     69  C   UNL A   1      39.994  25.805  27.751  1.00  0.00     0.041 A 
ATOM     70  F   UNL A   1      39.039  26.334  29.823  1.00  0.00    -0.206 F 
ATOM     71  C   UNL A   1      40.889  26.091  26.722  1.00  0.00     0.022 A 
BRANCH  68  72
ATOM     72  S   UNL A   1      42.793  27.706  25.480  1.00  0.00     0.124 S 
ATOM     73  O   UNL A   1      41.876  28.626  24.812  1.00  0.00    -0.237 OA
ATOM     74  O   UNL A   1      43.944  28.314  26.138  1.00  0.00    -0.237 OA
ATOM     75  O   UNL A   1      43.073  26.475  24.744  1.00  0.00    -0.744 OA
ENDBRANCH  68  72
ENDBRANCH  51  65
BRANCH  52  76
ATOM     76  C   UNL A   1      39.656  33.542  37.108  1.00  0.00     0.023 A 
ATOM     77  C   UNL A   1      38.901  33.047  38.181  1.00  0.00     0.031 A 
ATOM     78  C   UNL A   1      40.181  34.842  37.212  1.00  0.00     0.131 A 
ATOM     79  C   UNL A   1      38.662  33.860  39.300  1.00  0.00     0.055 A 
ATOM     80  C   UNL A   1      39.980  35.630  38.347  1.00  0.00     0.041 A 
ATOM     81  F   UNL A   1      40.920  35.358  36.217  1.00  0.00    -0.206 F 
ATOM     82  C   UNL A   1      39.207  35.142  39.396  1.00  0.00     0.022 A 
BRANCH  79  83
ATOM     83  S   UNL A   1      37.576  33.238  40.614  1.00  0.00     0.124 S 
ATOM     84  O   UNL A   1      36.403  32.816  39.857  1.00  0.00    -0.237 OA
ATOM     85  O   UNL A   1      38.384  32.169  41.193  1.00  0.00    -0.237 OA
ATOM     86  O   UNL A   1      37.380  34.403  41.474  1.00  0.00    -0.744 OA
ENDBRANCH  79  83
ENDBRANCH  52  76
BRANCH  64  87
ATOM     87  C   UNL A   1      44.312  28.623  35.439  1.00  0.00     0.023 A 
ATOM     88  C   UNL A   1      44.186  27.613  36.409  1.00  0.00     0.031 A 
ATOM     89  C   UNL A   1      45.594  29.146  35.193  1.00  0.00     0.131 A 
ATOM     90  C   UNL A   1      45.308  27.205  37.145  1.00  0.00     0.055 A 
ATOM     91  C   UNL A   1      46.719  28.688  35.882  1.00  0.00     0.041 A 
ATOM     92  F   UNL A   1      45.775  30.114  34.281  1.00  0.00    -0.206 F 
ATOM     93  C   UNL A   1      46.576  27.724  36.877  1.00  0.00     0.022 A 
BRANCH  90  94
ATOM     94  S   UNL A   1      45.068  26.068  38.539  1.00  0.00     0.124 S 
ATOM     95  O   UNL A   1      44.310  26.891  39.475  1.00  0.00    -0.237 OA
ATOM     96  O   UNL A   1      44.337  24.967  37.920  1.00  0.00    -0.237 OA
ATOM     97  O   UNL A   1      46.432  25.747  38.958  1.00  0.00    -0.744 OA
ENDBRANCH  90  94
ENDBRANCH  64  87
ENDBRANCH  38  39
ENDBRANCH  30  33
ENDBRANCH  28  29
ENDBRANCH   1  28
TORSDOF 17
ENDMDL
MODEL 2
REMARK VINA RESULT:     -11.7      5.282     10.304
REMARK SMILES CN(C)c1cc(C(F)(F)F)cc(-c2cccc(/C=C/C(=O)NCCCNC(=O)c3ccc(-c4c5nc(c(-c6cc(S(=O)(=O)[O-])ccc6F)c6ccc([nH]6)c(-c6cc(S(=O)(=O)[O-])ccc6F)c6nc(c(-c7cc(S(=O)(=O)[O-])ccc7F)c7ccc4[nH]7)C=C6)C=C5)cc3)c2)n1
REMARK SMILES IDX 24 1 23 2 22 3 20 4 21 5 19 7 18 8 17 9 13 10 14 11 92 12
REMARK SMILES IDX 15 13 16 14 12 15 4 16 5 17 93 18 6 19 11 20 2 21 1 22 3 23
REMARK SMILES IDX 7 24 8 25 9 26 10 27 25 28 26 29 27 30 28 32 29 33 30 34
REMARK SMILES IDX 91 35 31 36 90 37 32 38 33 39 34 40 84 41 35 42 89 43 83 44
REMARK SMILES IDX 85 45 36 46 88 47 82 48 81 49 37 51 69 52 49 53 68 54 50 55
REMARK SMILES IDX 53 56 67 57 86 58 51 59 52 60 66 62 87 63 54 64 38 65 39 66
REMARK SMILES IDX 47 67 40 68 46 69 48 70 45 71 41 72 42 73 43 74 44 75 70 76
REMARK SMILES IDX 71 77 79 78 72 79 78 80 80 81 77 82 73 83 74 84 75 85 76 86
REMARK SMILES IDX 55 87 56 88 64 89 57 90 63 91 65 92 62 93 58 94 59 95 60 96
REMARK SMILES IDX 61 97
REMARK H PARENT 22 6 26 31 85 50 53 61
REMARK Flexibility Score: inf
ROOT
ATOM      1  C   UNL A   1      33.266  34.908  32.377  1.00  0.00     0.042 C 
ENDROOT
BRANCH   1   2
ATOM      2  C   UNL A   1      34.032  33.719  32.953  1.00  0.00     0.118 C 
BRANCH   2   3
ATOM      3  N   UNL A   1      34.955  34.126  34.000  1.00  0.00    -0.352 N 
ATOM      4  C   UNL A   1      36.145  33.593  34.388  1.00  0.00     0.244 C 
ATOM      5  O   UNL A   1      36.840  34.185  35.210  1.00  0.00    -0.270 OA
ATOM      6  H   UNL A   1      34.672  34.917  34.513  1.00  0.00     0.163 HD
BRANCH   4   7
ATOM      7  C   UNL A   1      36.662  32.355  33.765  1.00  0.00     0.072 C 
ATOM      8  C   UNL A   1      37.674  31.635  34.269  1.00  0.00     0.014 C 
BRANCH   8   9
ATOM      9  C   UNL A   1      38.212  30.416  33.651  1.00  0.00    -0.025 A 
ATOM     10  C   UNL A   1      40.146  28.957  33.294  1.00  0.00     0.001 A 
ATOM     11  C   UNL A   1      39.385  28.211  32.382  1.00  0.00     0.010 A 
ATOM     12  C   UNL A   1      39.542  30.061  33.919  1.00  0.00     0.018 A 
ATOM     13  C   UNL A   1      38.057  28.548  32.114  1.00  0.00     0.001 A 
ATOM     14  C   UNL A   1      37.474  29.648  32.743  1.00  0.00     0.008 A 
BRANCH  10  15
ATOM     15  C   UNL A   1      41.546  28.615  33.563  1.00  0.00     0.073 A 
ATOM     16  C   UNL A   1      43.491  29.215  34.715  1.00  0.00     0.129 A 
ATOM     17  C   UNL A   1      44.156  28.117  34.181  1.00  0.00     0.060 A 
ATOM     18  N   UNL A   1      42.200  29.456  34.397  1.00  0.00    -0.231 NA
ATOM     19  C   UNL A   1      43.486  27.233  33.327  1.00  0.00     0.061 A 
ATOM     20  C   UNL A   1      42.152  27.496  33.013  1.00  0.00     0.042 A 
BRANCH  16  21
ATOM     21  N   UNL A   1      44.130  30.062  35.611  1.00  0.00    -0.363 N 
ATOM     22  C   UNL A   1      43.321  30.992  36.377  1.00  0.00     0.144 C 
ATOM     23  C   UNL A   1      45.362  29.562  36.201  1.00  0.00     0.144 C 
ENDBRANCH  16  21
BRANCH  19  24
ATOM     24  C   UNL A   1      44.169  26.015  32.775  1.00  0.00     0.416 C 
ATOM     25  F   UNL A   1      45.523  26.151  32.729  1.00  0.00    -0.166 F 
ATOM     26  F   UNL A   1      43.934  24.905  33.532  1.00  0.00    -0.166 F 
ATOM     27  F   UNL A   1      43.779  25.688  31.512  1.00  0.00    -0.166 F 
ENDBRANCH  19  24
ENDBRANCH  10  15
ENDBRANCH   8   9
ENDBRANCH   4   7
ENDBRANCH   2   3
ENDBRANCH   1   2
BRANCH   1  28
ATOM     28  C   UNL A   1      33.781  35.368  31.015  1.00  0.00     0.118 C 
BRANCH  28  29
ATOM     29  N   UNL A   1      33.261  34.548  29.930  1.00  0.00    -0.352 N 
ATOM     30  C   UNL A   1      33.901  33.659  29.103  1.00  0.00     0.251 C 
ATOM     31  H   UNL A   1      32.295  34.646  29.764  1.00  0.00     0.163 HD
ATOM     32  O   UNL A   1      33.318  33.263  28.097  1.00  0.00    -0.269 OA
BRANCH  30  33
ATOM     33  C   UNL A   1      35.274  33.190  29.399  1.00  0.00     0.039 A 
ATOM     34  C   UNL A   1      36.354  33.885  28.848  1.00  0.00     0.014 A 
ATOM     35  C   UNL A   1      35.504  32.041  30.163  1.00  0.00     0.014 A 
ATOM     36  C   UNL A   1      37.661  33.459  29.102  1.00  0.00     0.010 A 
ATOM     37  C   UNL A   1      36.807  31.660  30.474  1.00  0.00     0.010 A 
ATOM     38  C   UNL A   1      37.900  32.359  29.940  1.00  0.00    -0.014 A 
BRANCH  38  39
ATOM     39  C   UNL A   1      39.286  31.924  30.257  1.00  0.00     0.031 A 
ATOM     40  C   UNL A   1      40.132  32.718  31.216  1.00  0.00     0.074 A 
ATOM     41  C   UNL A   1      39.801  30.844  29.637  1.00  0.00     0.049 A 
ATOM     42  N   UNL A   1      41.378  32.536  31.570  1.00  0.00    -0.248 NA
ATOM     43  C   UNL A   1      39.496  33.891  31.832  1.00  0.00     0.031 C 
ATOM     44  C   UNL A   1      39.097  30.026  28.649  1.00  0.00     0.029 A 
ATOM     45  N   UNL A   1      41.037  30.257  29.735  1.00  0.00    -0.354 N 
ATOM     46  C   UNL A   1      41.680  33.576  32.445  1.00  0.00     0.074 A 
ATOM     47  C   UNL A   1      40.506  34.421  32.506  1.00  0.00     0.031 C 
ATOM     48  C   UNL A   1      39.907  29.035  28.242  1.00  0.00     0.029 A 
ATOM     49  C   UNL A   1      41.197  29.170  28.908  1.00  0.00     0.049 A 
ATOM     50  H   UNL A   1      41.742  30.583  30.340  1.00  0.00     0.167 HD
ATOM     51  C   UNL A   1      42.818  33.789  33.155  1.00  0.00     0.034 A 
ATOM     52  C   UNL A   1      42.269  28.380  28.699  1.00  0.00     0.034 A 
ATOM     53  C   UNL A   1      43.982  32.937  33.076  1.00  0.00     0.049 A 
ATOM     54  C   UNL A   1      43.527  28.638  29.483  1.00  0.00     0.074 A 
ATOM     55  C   UNL A   1      45.173  33.031  33.775  1.00  0.00     0.029 A 
ATOM     56  N   UNL A   1      44.104  31.833  32.239  1.00  0.00    -0.354 N 
ATOM     57  N   UNL A   1      43.780  29.594  30.348  1.00  0.00    -0.248 NA
ATOM     58  C   UNL A   1      44.636  27.700  29.277  1.00  0.00     0.031 C 
ATOM     59  C   UNL A   1      46.036  32.028  33.314  1.00  0.00     0.029 A 
ATOM     60  C   UNL A   1      45.359  31.258  32.382  1.00  0.00     0.049 A 
ATOM     61  H   UNL A   1      43.401  31.506  31.631  1.00  0.00     0.167 HD
ATOM     62  C   UNL A   1      45.076  29.362  30.800  1.00  0.00     0.074 A 
ATOM     63  C   UNL A   1      45.537  28.160  30.132  1.00  0.00     0.031 C 
ATOM     64  C   UNL A   1      45.819  30.076  31.686  1.00  0.00     0.034 A 
BRANCH  51  65
ATOM     65  C   UNL A   1      42.852  35.008  34.049  1.00  0.00     0.023 A 
ATOM     66  C   UNL A   1      42.297  34.987  35.343  1.00  0.00     0.031 A 
ATOM     67  C   UNL A   1      43.389  36.224  33.590  1.00  0.00     0.131 A 
ATOM     68  C   UNL A   1      42.198  36.172  36.086  1.00  0.00     0.055 A 
ATOM     69  C   UNL A   1      43.374  37.380  34.374  1.00  0.00     0.041 A 
ATOM     70  F   UNL A   1      43.918  36.317  32.360  1.00  0.00    -0.206 F 
ATOM     71  C   UNL A   1      42.756  37.366  35.622  1.00  0.00     0.022 A 
BRANCH  68  72
ATOM     72  S   UNL A   1      41.172  36.170  37.583  1.00  0.00     0.124 S 
ATOM     73  O   UNL A   1      39.879  36.593  37.053  1.00  0.00    -0.237 OA
ATOM     74  O   UNL A   1      41.262  34.783  38.024  1.00  0.00    -0.237 OA
ATOM     75  O   UNL A   1      41.830  37.145  38.450  1.00  0.00    -0.744 OA
ENDBRANCH  68  72
ENDBRANCH  51  65
BRANCH  52  76
ATOM     76  C   UNL A   1      42.198  27.282  27.693  1.00  0.00     0.023 A 
ATOM     77  C   UNL A   1      41.844  25.976  28.064  1.00  0.00     0.031 A 
ATOM     78  C   UNL A   1      42.495  27.528  26.341  1.00  0.00     0.131 A 
ATOM     79  C   UNL A   1      41.829  24.956  27.099  1.00  0.00     0.055 A 
ATOM     80  C   UNL A   1      42.432  26.521  25.377  1.00  0.00     0.041 A 
ATOM     81  F   UNL A   1      42.828  28.764  25.933  1.00  0.00    -0.206 F 
ATOM     82  C   UNL A   1      42.107  25.223  25.756  1.00  0.00     0.022 A 
BRANCH  79  83
ATOM     83  S   UNL A   1      41.492  23.256  27.633  1.00  0.00     0.124 S 
ATOM     84  O   UNL A   1      42.128  23.224  28.946  1.00  0.00    -0.237 OA
ATOM     85  O   UNL A   1      40.033  23.220  27.627  1.00  0.00    -0.237 OA
ATOM     86  O   UNL A   1      42.137  22.442  26.606  1.00  0.00    -0.744 OA
ENDBRANCH  79  83
ENDBRANCH  52  76
BRANCH  64  87
ATOM     87  C   UNL A   1      47.201  29.551  31.991  1.00  0.00     0.023 A 
ATOM     88  C   UNL A   1      47.443  28.702  33.086  1.00  0.00     0.031 A 
ATOM     89  C   UNL A   1      48.298  29.934  31.199  1.00  0.00     0.131 A 
ATOM     90  C   UNL A   1      48.755  28.318  33.398  1.00  0.00     0.055 A 
ATOM     91  C   UNL A   1      49.594  29.495  31.475  1.00  0.00     0.041 A 
ATOM     92  F   UNL A   1      48.128  30.745  30.143  1.00  0.00    -0.206 F 
ATOM     93  C   UNL A   1      49.830  28.696  32.590  1.00  0.00     0.022 A 
BRANCH  90  94
ATOM     94  S   UNL A   1      49.053  27.413  34.943  1.00  0.00     0.124 S 
ATOM     95  O   UNL A   1      47.898  26.524  35.000  1.00  0.00    -0.237 OA
ATOM     96  O   UNL A   1      50.339  26.773  34.685  1.00  0.00    -0.237 OA
ATOM     97  O   UNL A   1      49.077  28.465  35.957  1.00  0.00    -0.744 OA
ENDBRANCH  90  94
ENDBRANCH  64  87
ENDBRANCH  38  39
ENDBRANCH  30  33
ENDBRANCH  28  29
ENDBRANCH   1  28
TORSDOF 17
ENDMDL
MODEL 3
REMARK VINA RESULT:     -11.7      1.589      7.492
REMARK SMILES CN(C)c1cc(C(F)(F)F)cc(-c2cccc(/C=C/C(=O)NCCCNC(=O)c3ccc(-c4c5nc(c(-c6cc(S(=O)(=O)[O-])ccc6F)c6ccc([nH]6)c(-c6cc(S(=O)(=O)[O-])ccc6F)c6nc(c(-c7cc(S(=O)(=O)[O-])ccc7F)c7ccc4[nH]7)C=C6)C=C5)cc3)c2)n1
REMARK SMILES IDX 24 1 23 2 22 3 20 4 21 5 19 7 18 8 17 9 13 10 14 11 92 12
REMARK SMILES IDX 15 13 16 14 12 15 4 16 5 17 93 18 6 19 11 20 2 21 1 22 3 23
REMARK SMILES IDX 7 24 8 25 9 26 10 27 25 28 26 29 27 30 28 32 29 33 30 34
REMARK SMILES IDX 91 35 31 36 90 37 32 38 33 39 34 40 84 41 35 42 89 43 83 44
REMARK SMILES IDX 85 45 36 46 88 47 82 48 81 49 37 51 69 52 49 53 68 54 50 55
REMARK SMILES IDX 53 56 67 57 86 58 51 59 52 60 66 62 87 63 54 64 38 65 39 66
REMARK SMILES IDX 47 67 40 68 46 69 48 70 45 71 41 72 42 73 43 74 44 75 70 76
REMARK SMILES IDX 71 77 79 78 72 79 78 80 80 81 77 82 73 83 74 84 75 85 76 86
REMARK SMILES IDX 55 87 56 88 64 89 57 90 63 91 65 92 62 93 58 94 59 95 60 96
REMARK SMILES IDX 61 97
REMARK H PARENT 22 6 26 31 85 50 53 61
REMARK Flexibility Score: inf
ROOT
ATOM      1  C   UNL A   1      31.767  32.344  26.930  1.00  0.00     0.042 C 
ENDROOT
BRANCH   1   2
ATOM      2  C   UNL A   1      32.001  30.836  26.893  1.00  0.00     0.118 C 
BRANCH   2   3
ATOM      3  N   UNL A   1      33.226  30.462  27.582  1.00  0.00    -0.352 N 
ATOM      4  C   UNL A   1      34.038  29.383  27.422  1.00  0.00     0.244 C 
ATOM      5  O   UNL A   1      35.112  29.333  28.017  1.00  0.00    -0.270 OA
ATOM      6  H   UNL A   1      33.514  31.093  28.281  1.00  0.00     0.163 HD
BRANCH   4   7
ATOM      7  C   UNL A   1      33.693  28.307  26.467  1.00  0.00     0.072 C 
ATOM      8  C   UNL A   1      34.037  28.322  25.172  1.00  0.00     0.014 C 
BRANCH   8   9
ATOM      9  C   UNL A   1      33.684  27.272  24.209  1.00  0.00    -0.025 A 
ATOM     10  C   UNL A   1      33.816  24.907  23.586  1.00  0.00     0.001 A 
ATOM     11  C   UNL A   1      33.215  25.222  22.357  1.00  0.00     0.010 A 
ATOM     12  C   UNL A   1      34.046  25.948  24.500  1.00  0.00     0.018 A 
ATOM     13  C   UNL A   1      32.842  26.533  22.059  1.00  0.00     0.001 A 
ATOM     14  C   UNL A   1      33.079  27.555  22.979  1.00  0.00     0.008 A 
BRANCH  10  15
ATOM     15  C   UNL A   1      34.224  23.533  23.893  1.00  0.00     0.073 A 
ATOM     16  C   UNL A   1      35.987  22.150  24.560  1.00  0.00     0.129 A 
ATOM     17  C   UNL A   1      35.148  21.042  24.510  1.00  0.00     0.060 A 
ATOM     18  N   UNL A   1      35.521  23.378  24.247  1.00  0.00    -0.231 NA
ATOM     19  C   UNL A   1      33.802  21.192  24.157  1.00  0.00     0.061 A 
ATOM     20  C   UNL A   1      33.337  22.469  23.840  1.00  0.00     0.042 A 
BRANCH  16  21
ATOM     21  N   UNL A   1      37.308  22.018  24.969  1.00  0.00    -0.363 N 
ATOM     22  C   UNL A   1      37.836  22.983  25.916  1.00  0.00     0.144 C 
ATOM     23  C   UNL A   1      37.846  20.667  24.980  1.00  0.00     0.144 C 
ENDBRANCH  16  21
BRANCH  19  24
ATOM     24  C   UNL A   1      32.865  20.018  24.141  1.00  0.00     0.416 C 
ATOM     25  F   UNL A   1      33.515  18.835  23.959  1.00  0.00    -0.166 F 
ATOM     26  F   UNL A   1      32.181  19.889  25.312  1.00  0.00    -0.166 F 
ATOM     27  F   UNL A   1      31.918  20.082  23.165  1.00  0.00    -0.166 F 
ENDBRANCH  19  24
ENDBRANCH  10  15
ENDBRANCH   8   9
ENDBRANCH   4   7
ENDBRANCH   2   3
ENDBRANCH   1   2
BRANCH   1  28
ATOM     28  C   UNL A   1      33.027  33.156  27.223  1.00  0.00     0.118 C 
BRANCH  28  29
ATOM     29  N   UNL A   1      32.744  34.323  28.044  1.00  0.00    -0.352 N 
ATOM     30  C   UNL A   1      33.237  34.686  29.274  1.00  0.00     0.251 C 
ATOM     31  H   UNL A   1      32.096  34.956  27.656  1.00  0.00     0.163 HD
ATOM     32  O   UNL A   1      32.676  35.586  29.893  1.00  0.00    -0.269 OA
BRANCH  30  33
ATOM     33  C   UNL A   1      34.413  34.002  29.858  1.00  0.00     0.039 A 
ATOM     34  C   UNL A   1      34.209  33.070  30.880  1.00  0.00     0.014 A 
ATOM     35  C   UNL A   1      35.714  34.313  29.452  1.00  0.00     0.014 A 
ATOM     36  C   UNL A   1      35.301  32.417  31.457  1.00  0.00     0.010 A 
ATOM     37  C   UNL A   1      36.797  33.610  29.978  1.00  0.00     0.010 A 
ATOM     38  C   UNL A   1      36.603  32.661  30.993  1.00  0.00    -0.014 A 
BRANCH  38  39
ATOM     39  C   UNL A   1      37.770  31.938  31.565  1.00  0.00     0.031 A 
ATOM     40  C   UNL A   1      38.359  32.367  32.882  1.00  0.00     0.074 A 
ATOM     41  C   UNL A   1      38.331  30.930  30.870  1.00  0.00     0.049 A 
ATOM     42  N   UNL A   1      39.409  31.905  33.511  1.00  0.00    -0.248 NA
ATOM     43  C   UNL A   1      37.695  33.488  33.562  1.00  0.00     0.031 C 
ATOM     44  C   UNL A   1      37.882  30.458  29.559  1.00  0.00     0.029 A 
ATOM     45  N   UNL A   1      39.406  30.129  31.160  1.00  0.00    -0.354 N 
ATOM     46  C   UNL A   1      39.537  32.682  34.658  1.00  0.00     0.074 A 
ATOM     47  C   UNL A   1      38.499  33.690  34.594  1.00  0.00     0.031 C 
ATOM     48  C   UNL A   1      38.666  29.442  29.166  1.00  0.00     0.029 A 
ATOM     49  C   UNL A   1      39.696  29.217  30.174  1.00  0.00     0.049 A 
ATOM     50  H   UNL A   1      39.922  30.201  31.996  1.00  0.00     0.167 HD
ATOM     51  C   UNL A   1      40.418  32.550  35.684  1.00  0.00     0.034 A 
ATOM     52  C   UNL A   1      40.689  28.309  30.083  1.00  0.00     0.034 A 
ATOM     53  C   UNL A   1      41.450  31.541  35.726  1.00  0.00     0.049 A 
ATOM     54  C   UNL A   1      41.665  28.184  31.222  1.00  0.00     0.074 A 
ATOM     55  C   UNL A   1      42.372  31.287  36.727  1.00  0.00     0.029 A 
ATOM     56  N   UNL A   1      41.705  30.620  34.715  1.00  0.00    -0.354 N 
ATOM     57  N   UNL A   1      41.741  28.891  32.327  1.00  0.00    -0.248 NA
ATOM     58  C   UNL A   1      42.676  27.127  31.111  1.00  0.00     0.031 C 
ATOM     59  C   UNL A   1      43.222  30.261  36.294  1.00  0.00     0.029 A 
ATOM     60  C   UNL A   1      42.786  29.819  35.055  1.00  0.00     0.049 A 
ATOM     61  H   UNL A   1      41.193  30.548  33.877  1.00  0.00     0.167 HD
ATOM     62  C   UNL A   1      42.802  28.353  33.049  1.00  0.00     0.074 A 
ATOM     63  C   UNL A   1      43.315  27.245  32.265  1.00  0.00     0.031 C 
ATOM     64  C   UNL A   1      43.308  28.737  34.250  1.00  0.00     0.034 A 
BRANCH  51  65
ATOM     65  C   UNL A   1      40.305  33.543  36.819  1.00  0.00     0.023 A 
ATOM     66  C   UNL A   1      41.195  34.628  36.938  1.00  0.00     0.031 A 
ATOM     67  C   UNL A   1      39.341  33.378  37.828  1.00  0.00     0.131 A 
ATOM     68  C   UNL A   1      41.170  35.436  38.083  1.00  0.00     0.055 A 
ATOM     69  C   UNL A   1      39.259  34.245  38.920  1.00  0.00     0.041 A 
ATOM     70  F   UNL A   1      38.473  32.355  37.783  1.00  0.00    -0.206 F 
ATOM     71  C   UNL A   1      40.191  35.270  39.065  1.00  0.00     0.022 A 
BRANCH  68  72
ATOM     72  S   UNL A   1      42.545  36.589  38.357  1.00  0.00     0.124 S 
ATOM     73  O   UNL A   1      43.309  35.895  39.390  1.00  0.00    -0.237 OA
ATOM     74  O   UNL A   1      43.164  36.659  37.039  1.00  0.00    -0.237 OA
ATOM     75  O   UNL A   1      41.882  37.814  38.801  1.00  0.00    -0.744 OA
ENDBRANCH  68  72
ENDBRANCH  51  65
BRANCH  52  76
ATOM     76  C   UNL A   1      40.813  27.461  28.864  1.00  0.00     0.023 A 
ATOM     77  C   UNL A   1      41.758  27.752  27.869  1.00  0.00     0.031 A 
ATOM     78  C   UNL A   1      39.976  26.348  28.676  1.00  0.00     0.131 A 
ATOM     79  C   UNL A   1      41.821  26.958  26.713  1.00  0.00     0.055 A 
ATOM     80  C   UNL A   1      40.073  25.534  27.547  1.00  0.00     0.041 A 
ATOM     81  F   UNL A   1      39.063  26.021  29.605  1.00  0.00    -0.206 F 
ATOM     82  C   UNL A   1      40.995  25.843  26.551  1.00  0.00     0.022 A 
BRANCH  79  83
ATOM     83  S   UNL A   1      42.966  27.435  25.388  1.00  0.00     0.124 S 
ATOM     84  O   UNL A   1      43.139  26.174  24.676  1.00  0.00    -0.237 OA
ATOM     85  O   UNL A   1      42.208  28.467  24.690  1.00  0.00    -0.237 OA
ATOM     86  O   UNL A   1      44.143  27.912  26.111  1.00  0.00    -0.744 OA
ENDBRANCH  79  83
ENDBRANCH  52  76
BRANCH  64  87
ATOM     87  C   UNL A   1      44.465  27.931  34.789  1.00  0.00     0.023 A 
ATOM     88  C   UNL A   1      44.263  26.723  35.481  1.00  0.00     0.031 A 
ATOM     89  C   UNL A   1      45.784  28.393  34.640  1.00  0.00     0.131 A 
ATOM     90  C   UNL A   1      45.355  26.054  36.055  1.00  0.00     0.055 A 
ATOM     91  C   UNL A   1      46.873  27.689  35.157  1.00  0.00     0.041 A 
ATOM     92  F   UNL A   1      46.038  29.541  33.992  1.00  0.00    -0.206 F 
ATOM     93  C   UNL A   1      46.659  26.521  35.884  1.00  0.00     0.022 A 
BRANCH  90  94
ATOM     94  S   UNL A   1      45.033  24.627  37.129  1.00  0.00     0.124 S 
ATOM     95  O   UNL A   1      44.260  25.229  38.210  1.00  0.00    -0.237 OA
ATOM     96  O   UNL A   1      44.299  23.730  36.243  1.00  0.00    -0.237 OA
ATOM     97  O   UNL A   1      46.371  24.172  37.503  1.00  0.00    -0.744 OA
ENDBRANCH  90  94
ENDBRANCH  64  87
ENDBRANCH  38  39
ENDBRANCH  30  33
ENDBRANCH  28  29
ENDBRANCH   1  28
TORSDOF 17
ENDMDL
