MODEL 1
REMARK VINA RESULT:     -13.0      0.000      0.000
REMARK SMILES Cc1noc(C[N@H+]2CCC[C@@H](c3ccc(C(=O)NCCCNC(=O)c4ccc(-c5c6nc(c(-c7cc(S(=O)(=O)[O-])ccc7F)c7ccc([nH]7)c(-c7cc(S(=O)(=O)[O-])ccc7F)c7nc(c(-c8cc(S(=O)(=O)[O-])ccc8F)c8ccc5[nH]8)C=C7)C=C6)cc4)cc3)C2)n1
REMARK SMILES IDX 20 1 19 2 18 3 16 4 17 5 15 7 12 8 13 9 89 10 14 11 88 12
REMARK SMILES IDX 11 13 7 14 8 15 90 16 9 18 10 19 6 20 5 21 1 22 2 23 3 24
REMARK SMILES IDX 91 25 4 26 21 27 22 28 23 29 24 31 25 32 26 33 87 34 27 35
REMARK SMILES IDX 86 36 28 37 29 38 30 39 80 40 31 41 85 42 79 43 81 44 32 45
REMARK SMILES IDX 84 46 78 47 77 48 33 50 65 51 45 52 64 53 46 54 49 55 63 56
REMARK SMILES IDX 82 57 47 58 48 59 62 61 83 62 50 63 34 64 35 65 43 66 36 67
REMARK SMILES IDX 42 68 44 69 41 70 37 71 38 72 39 73 40 74 66 75 67 76 75 77
REMARK SMILES IDX 68 78 74 79 76 80 73 81 69 82 70 83 71 84 72 85 51 86 52 87
REMARK SMILES IDX 60 88 53 89 59 90 61 91 58 92 54 93 55 94 56 95 57 96
REMARK H PARENT 18 6 7 17 22 30 81 49 49 60
REMARK Flexibility Score: inf
ROOT
ATOM      1  C   UNL A   1      31.466  32.077  26.747  1.00  0.00     0.042 C 
ENDROOT
BRANCH   1   2
ATOM      2  C   UNL A   1      31.664  30.624  26.325  1.00  0.00     0.118 C 
BRANCH   2   3
ATOM      3  N   UNL A   1      31.124  30.387  24.998  1.00  0.00    -0.352 N 
ATOM      4  C   UNL A   1      31.025  29.247  24.245  1.00  0.00     0.251 C 
ATOM      5  O   UNL A   1      30.444  29.324  23.161  1.00  0.00    -0.269 OA
ATOM      6  H   UNL A   1      30.764  31.192  24.561  1.00  0.00     0.163 HD
BRANCH   4   7
ATOM      7  C   UNL A   1      31.524  27.924  24.706  1.00  0.00     0.039 A 
ATOM      8  C   UNL A   1      32.633  25.432  25.449  1.00  0.00    -0.039 A 
ATOM      9  C   UNL A   1      33.430  26.430  24.868  1.00  0.00     0.005 A 
ATOM     10  C   UNL A   1      31.293  25.724  25.717  1.00  0.00     0.005 A 
ATOM     11  C   UNL A   1      32.879  27.655  24.490  1.00  0.00     0.014 A 
ATOM     12  C   UNL A   1      30.751  26.968  25.369  1.00  0.00     0.014 A 
BRANCH   8  13
ATOM     13  C   UNL A   1      33.197  24.063  25.806  1.00  0.00     0.074 C 
ATOM     14  N   UNL A   1      33.229  21.632  25.078  1.00  0.00    -0.327 N 
ATOM     15  C   UNL A   1      34.694  21.689  24.974  1.00  0.00     0.262 C 
ATOM     16  C   UNL A   1      32.621  22.963  24.887  1.00  0.00     0.270 C 
ATOM     17  H   UNL A   1      33.007  21.320  26.023  1.00  0.00     0.348 HD
ATOM     18  C   UNL A   1      35.286  22.679  25.976  1.00  0.00     0.062 C 
ATOM     19  C   UNL A   1      34.729  24.081  25.754  1.00  0.00     0.020 C 
BRANCH  14  20
ATOM     20  C   UNL A   1      32.652  20.643  24.124  1.00  0.00     0.364 C 
BRANCH  20  21
ATOM     21  C   UNL A   1      32.894  19.203  24.467  1.00  0.00     0.281 A 
ATOM     22  C   UNL A   1      34.697  16.230  24.889  1.00  0.00     0.093 C 
ATOM     23  C   UNL A   1      33.711  17.326  24.879  1.00  0.00     0.169 A 
ATOM     24  N   UNL A   1      32.705  17.415  25.758  1.00  0.00    -0.063 NA
ATOM     25  N   UNL A   1      33.826  18.386  24.023  1.00  0.00    -0.191 NA
ATOM     26  O   UNL A   1      32.153  18.673  25.486  1.00  0.00    -0.333 OA
ENDBRANCH  20  21
ENDBRANCH  14  20
ENDBRANCH   8  13
ENDBRANCH   4   7
ENDBRANCH   2   3
ENDBRANCH   1   2
BRANCH   1  27
ATOM     27  C   UNL A   1      32.765  32.777  27.135  1.00  0.00     0.118 C 
BRANCH  27  28
ATOM     28  N   UNL A   1      32.525  34.123  27.631  1.00  0.00    -0.352 N 
ATOM     29  C   UNL A   1      33.056  34.763  28.723  1.00  0.00     0.251 C 
ATOM     30  H   UNL A   1      31.888  34.656  27.103  1.00  0.00     0.163 HD
ATOM     31  O   UNL A   1      32.537  35.805  29.114  1.00  0.00    -0.269 OA
BRANCH  29  32
ATOM     32  C   UNL A   1      34.226  34.200  29.433  1.00  0.00     0.039 A 
ATOM     33  C   UNL A   1      34.014  33.446  30.590  1.00  0.00     0.014 A 
ATOM     34  C   UNL A   1      35.530  34.449  28.992  1.00  0.00     0.014 A 
ATOM     35  C   UNL A   1      35.103  32.900  31.275  1.00  0.00     0.010 A 
ATOM     36  C   UNL A   1      36.609  33.847  29.636  1.00  0.00     0.010 A 
ATOM     37  C   UNL A   1      36.408  33.074  30.788  1.00  0.00    -0.014 A 
BRANCH  37  38
ATOM     38  C   UNL A   1      37.574  32.463  31.478  1.00  0.00     0.031 A 
ATOM     39  C   UNL A   1      38.332  31.339  30.827  1.00  0.00     0.074 A 
ATOM     40  C   UNL A   1      37.909  32.883  32.714  1.00  0.00     0.049 A 
ATOM     41  N   UNL A   1      39.323  30.625  31.298  1.00  0.00    -0.248 NA
ATOM     42  C   UNL A   1      37.898  30.947  29.478  1.00  0.00     0.031 C 
ATOM     43  C   UNL A   1      37.224  33.941  33.461  1.00  0.00     0.029 A 
ATOM     44  N   UNL A   1      38.901  32.467  33.566  1.00  0.00    -0.354 N 
ATOM     45  C   UNL A   1      39.622  29.691  30.311  1.00  0.00     0.074 A 
ATOM     46  C   UNL A   1      38.667  29.895  29.242  1.00  0.00     0.031 C 
ATOM     47  C   UNL A   1      37.828  34.103  34.648  1.00  0.00     0.029 A 
ATOM     48  C   UNL A   1      38.913  33.135  34.769  1.00  0.00     0.049 A 
ATOM     49  H   UNL A   1      39.545  31.758  33.338  1.00  0.00     0.167 HD
ATOM     50  C   UNL A   1      40.614  28.766  30.290  1.00  0.00     0.034 A 
ATOM     51  C   UNL A   1      39.698  32.973  35.852  1.00  0.00     0.034 A 
ATOM     52  C   UNL A   1      41.564  28.586  31.362  1.00  0.00     0.049 A 
ATOM     53  C   UNL A   1      40.782  31.925  35.815  1.00  0.00     0.074 A 
ATOM     54  C   UNL A   1      42.639  27.718  31.426  1.00  0.00     0.029 A 
ATOM     55  N   UNL A   1      41.547  29.284  32.564  1.00  0.00    -0.354 N 
ATOM     56  N   UNL A   1      41.081  31.081  34.854  1.00  0.00    -0.248 NA
ATOM     57  C   UNL A   1      41.638  31.816  37.002  1.00  0.00     0.031 C 
ATOM     58  C   UNL A   1      43.231  27.843  32.688  1.00  0.00     0.029 A 
ATOM     59  C   UNL A   1      42.575  28.844  33.385  1.00  0.00     0.049 A 
ATOM     60  H   UNL A   1      40.901  29.989  32.799  1.00  0.00     0.167 HD
ATOM     61  C   UNL A   1      42.181  30.362  35.311  1.00  0.00     0.074 A 
ATOM     62  C   UNL A   1      42.500  30.883  36.626  1.00  0.00     0.031 C 
ATOM     63  C   UNL A   1      42.871  29.366  34.699  1.00  0.00     0.034 A 
BRANCH  50  64
ATOM     64  C   UNL A   1      40.698  27.864  29.080  1.00  0.00     0.023 A 
ATOM     65  C   UNL A   1      41.630  28.090  28.052  1.00  0.00     0.031 A 
ATOM     66  C   UNL A   1      39.816  26.778  28.939  1.00  0.00     0.131 A 
ATOM     67  C   UNL A   1      41.606  27.296  26.895  1.00  0.00     0.055 A 
ATOM     68  C   UNL A   1      39.853  25.938  27.822  1.00  0.00     0.041 A 
ATOM     69  F   UNL A   1      38.890  26.521  29.876  1.00  0.00    -0.206 F 
ATOM     70  C   UNL A   1      40.742  26.205  26.785  1.00  0.00     0.022 A 
BRANCH  67  71
ATOM     71  S   UNL A   1      42.621  27.799  25.479  1.00  0.00     0.124 S 
ATOM     72  O   UNL A   1      42.567  26.604  24.640  1.00  0.00    -0.237 OA
ATOM     73  O   UNL A   1      41.906  28.966  24.975  1.00  0.00    -0.237 OA
ATOM     74  O   UNL A   1      43.927  28.074  26.073  1.00  0.00    -0.744 OA
ENDBRANCH  67  71
ENDBRANCH  50  64
BRANCH  51  75
ATOM     75  C   UNL A   1      39.490  33.813  37.066  1.00  0.00     0.023 A 
ATOM     76  C   UNL A   1      38.858  33.292  38.206  1.00  0.00     0.031 A 
ATOM     77  C   UNL A   1      39.889  35.161  37.092  1.00  0.00     0.131 A 
ATOM     78  C   UNL A   1      38.603  34.125  39.307  1.00  0.00     0.055 A 
ATOM     79  C   UNL A   1      39.679  35.971  38.209  1.00  0.00     0.041 A 
ATOM     80  F   UNL A   1      40.504  35.708  36.031  1.00  0.00    -0.206 F 
ATOM     81  C   UNL A   1      39.019  35.457  39.321  1.00  0.00     0.022 A 
BRANCH  78  82
ATOM     82  S   UNL A   1      37.639  33.460  40.693  1.00  0.00     0.124 S 
ATOM     83  O   UNL A   1      38.558  32.470  41.246  1.00  0.00    -0.237 OA
ATOM     84  O   UNL A   1      37.415  34.652  41.504  1.00  0.00    -0.237 OA
ATOM     85  O   UNL A   1      36.448  32.914  40.046  1.00  0.00    -0.744 OA
ENDBRANCH  78  82
ENDBRANCH  51  75
BRANCH  63  86
ATOM     86  C   UNL A   1      44.067  28.810  35.434  1.00  0.00     0.023 A 
ATOM     87  C   UNL A   1      43.954  27.724  36.318  1.00  0.00     0.031 A 
ATOM     88  C   UNL A   1      45.336  29.389  35.255  1.00  0.00     0.131 A 
ATOM     89  C   UNL A   1      45.079  27.285  37.032  1.00  0.00     0.055 A 
ATOM     90  C   UNL A   1      46.463  28.910  35.922  1.00  0.00     0.041 A 
ATOM     91  F   UNL A   1      45.501  30.432  34.424  1.00  0.00    -0.206 F 
ATOM     92  C   UNL A   1      46.336  27.861  36.828  1.00  0.00     0.022 A 
BRANCH  89  93
ATOM     93  S   UNL A   1      44.861  26.010  38.304  1.00  0.00     0.124 S 
ATOM     94  O   UNL A   1      44.567  26.810  39.489  1.00  0.00    -0.237 OA
ATOM     95  O   UNL A   1      43.752  25.225  37.772  1.00  0.00    -0.237 OA
ATOM     96  O   UNL A   1      46.151  25.322  38.326  1.00  0.00    -0.744 OA
ENDBRANCH  89  93
ENDBRANCH  63  86
ENDBRANCH  37  38
ENDBRANCH  29  32
ENDBRANCH  27  28
ENDBRANCH   1  27
TORSDOF 16
ENDMDL
MODEL 2
REMARK VINA RESULT:     -12.8      5.699     12.221
REMARK SMILES Cc1noc(C[N@H+]2CCC[C@@H](c3ccc(C(=O)NCCCNC(=O)c4ccc(-c5c6nc(c(-c7cc(S(=O)(=O)[O-])ccc7F)c7ccc([nH]7)c(-c7cc(S(=O)(=O)[O-])ccc7F)c7nc(c(-c8cc(S(=O)(=O)[O-])ccc8F)c8ccc5[nH]8)C=C7)C=C6)cc4)cc3)C2)n1
REMARK SMILES IDX 20 1 19 2 18 3 16 4 17 5 15 7 12 8 13 9 89 10 14 11 88 12
REMARK SMILES IDX 11 13 7 14 8 15 90 16 9 18 10 19 6 20 5 21 1 22 2 23 3 24
REMARK SMILES IDX 91 25 4 26 21 27 22 28 23 29 24 31 25 32 26 33 87 34 27 35
REMARK SMILES IDX 86 36 28 37 29 38 30 39 80 40 31 41 85 42 79 43 81 44 32 45
REMARK SMILES IDX 84 46 78 47 77 48 33 50 65 51 45 52 64 53 46 54 49 55 63 56
REMARK SMILES IDX 82 57 47 58 48 59 62 61 83 62 50 63 34 64 35 65 43 66 36 67
REMARK SMILES IDX 42 68 44 69 41 70 37 71 38 72 39 73 40 74 66 75 67 76 75 77
REMARK SMILES IDX 68 78 74 79 76 80 73 81 69 82 70 83 71 84 72 85 51 86 52 87
REMARK SMILES IDX 60 88 53 89 59 90 61 91 58 92 54 93 55 94 56 95 57 96
REMARK H PARENT 18 6 7 17 22 30 81 49 49 60
REMARK Flexibility Score: inf
ROOT
ATOM      1  C   UNL A   1      38.170  19.715  25.031  1.00  0.00     0.042 C 
ENDROOT
BRANCH   1   2
ATOM      2  C   UNL A   1      37.041  20.732  24.883  1.00  0.00     0.118 C 
BRANCH   2   3
ATOM      3  N   UNL A   1      35.749  20.119  25.131  1.00  0.00    -0.352 N 
ATOM      4  C   UNL A   1      34.479  20.631  25.114  1.00  0.00     0.251 C 
ATOM      5  O   UNL A   1      33.542  19.851  25.295  1.00  0.00    -0.269 OA
ATOM      6  H   UNL A   1      35.794  19.161  25.352  1.00  0.00     0.163 HD
BRANCH   4   7
ATOM      7  C   UNL A   1      34.184  22.060  24.823  1.00  0.00     0.039 A 
ATOM      8  C   UNL A   1      33.616  24.808  24.478  1.00  0.00    -0.039 A 
ATOM      9  C   UNL A   1      34.172  24.332  25.675  1.00  0.00     0.005 A 
ATOM     10  C   UNL A   1      33.416  23.902  23.433  1.00  0.00     0.005 A 
ATOM     11  C   UNL A   1      34.440  22.974  25.850  1.00  0.00     0.014 A 
ATOM     12  C   UNL A   1      33.720  22.544  23.599  1.00  0.00     0.014 A 
BRANCH   8  13
ATOM     13  C   UNL A   1      33.251  26.274  24.290  1.00  0.00     0.074 C 
ATOM     14  N   UNL A   1      31.296  27.838  23.874  1.00  0.00    -0.327 N 
ATOM     15  C   UNL A   1      31.619  28.562  25.112  1.00  0.00     0.262 C 
ATOM     16  C   UNL A   1      31.757  26.438  23.930  1.00  0.00     0.270 C 
ATOM     17  H   UNL A   1      31.796  28.302  23.116  1.00  0.00     0.348 HD
ATOM     18  C   UNL A   1      33.118  28.520  25.407  1.00  0.00     0.062 C 
ATOM     19  C   UNL A   1      33.609  27.083  25.543  1.00  0.00     0.020 C 
BRANCH  14  20
ATOM     20  C   UNL A   1      29.838  27.905  23.568  1.00  0.00     0.364 C 
BRANCH  20  21
ATOM     21  C   UNL A   1      29.376  29.176  22.920  1.00  0.00     0.281 A 
ATOM     22  C   UNL A   1      28.822  32.616  22.560  1.00  0.00     0.093 C 
ATOM     23  C   UNL A   1      28.979  31.159  22.398  1.00  0.00     0.169 A 
ATOM     24  N   UNL A   1      29.173  30.570  21.212  1.00  0.00    -0.063 NA
ATOM     25  N   UNL A   1      29.039  30.320  23.477  1.00  0.00    -0.191 NA
ATOM     26  O   UNL A   1      29.440  29.239  21.556  1.00  0.00    -0.333 OA
ENDBRANCH  20  21
ENDBRANCH  14  20
ENDBRANCH   8  13
ENDBRANCH   4   7
ENDBRANCH   2   3
ENDBRANCH   1   2
BRANCH   1  27
ATOM     27  C   UNL A   1      39.309  20.201  25.921  1.00  0.00     0.118 C 
BRANCH  27  28
ATOM     28  N   UNL A   1      40.390  19.230  25.992  1.00  0.00    -0.352 N 
ATOM     29  C   UNL A   1      41.746  19.431  26.063  1.00  0.00     0.251 C 
ATOM     30  H   UNL A   1      40.106  18.288  25.989  1.00  0.00     0.163 HD
ATOM     31  O   UNL A   1      42.501  18.484  25.861  1.00  0.00    -0.269 OA
BRANCH  29  32
ATOM     32  C   UNL A   1      42.296  20.772  26.365  1.00  0.00     0.039 A 
ATOM     33  C   UNL A   1      42.633  21.616  25.303  1.00  0.00     0.014 A 
ATOM     34  C   UNL A   1      42.522  21.184  27.682  1.00  0.00     0.014 A 
ATOM     35  C   UNL A   1      43.150  22.888  25.561  1.00  0.00     0.010 A 
ATOM     36  C   UNL A   1      42.971  22.478  27.939  1.00  0.00     0.010 A 
ATOM     37  C   UNL A   1      43.297  23.340  26.882  1.00  0.00    -0.014 A 
BRANCH  37  38
ATOM     38  C   UNL A   1      43.802  24.707  27.176  1.00  0.00     0.031 A 
ATOM     39  C   UNL A   1      42.868  25.758  27.710  1.00  0.00     0.074 A 
ATOM     40  C   UNL A   1      45.086  25.014  26.905  1.00  0.00     0.049 A 
ATOM     41  N   UNL A   1      43.096  27.023  27.953  1.00  0.00    -0.248 NA
ATOM     42  C   UNL A   1      41.485  25.335  27.977  1.00  0.00     0.031 C 
ATOM     43  C   UNL A   1      46.077  24.086  26.352  1.00  0.00     0.029 A 
ATOM     44  N   UNL A   1      45.779  26.189  27.047  1.00  0.00    -0.354 N 
ATOM     45  C   UNL A   1      41.884  27.552  28.389  1.00  0.00     0.074 A 
ATOM     46  C   UNL A   1      40.913  26.480  28.317  1.00  0.00     0.031 C 
ATOM     47  C   UNL A   1      47.250  24.723  26.221  1.00  0.00     0.029 A 
ATOM     48  C   UNL A   1      47.089  26.113  26.637  1.00  0.00     0.049 A 
ATOM     49  H   UNL A   1      45.375  27.011  27.410  1.00  0.00     0.167 HD
ATOM     50  C   UNL A   1      41.613  28.807  28.826  1.00  0.00     0.034 A 
ATOM     51  C   UNL A   1      48.048  27.059  26.586  1.00  0.00     0.034 A 
ATOM     52  C   UNL A   1      42.599  29.859  28.900  1.00  0.00     0.049 A 
ATOM     53  C   UNL A   1      47.719  28.453  27.058  1.00  0.00     0.074 A 
ATOM     54  C   UNL A   1      42.449  31.150  29.375  1.00  0.00     0.029 A 
ATOM     55  N   UNL A   1      43.918  29.743  28.478  1.00  0.00    -0.354 N 
ATOM     56  N   UNL A   1      46.580  28.923  27.511  1.00  0.00    -0.248 NA
ATOM     57  C   UNL A   1      48.807  29.436  27.023  1.00  0.00     0.031 C 
ATOM     58  C   UNL A   1      43.656  31.832  29.181  1.00  0.00     0.029 A 
ATOM     59  C   UNL A   1      44.583  30.947  28.656  1.00  0.00     0.049 A 
ATOM     60  H   UNL A   1      44.323  28.925  28.109  1.00  0.00     0.167 HD
ATOM     61  C   UNL A   1      46.825  30.252  27.844  1.00  0.00     0.074 A 
ATOM     62  C   UNL A   1      48.223  30.501  27.553  1.00  0.00     0.031 C 
ATOM     63  C   UNL A   1      45.975  31.182  28.349  1.00  0.00     0.034 A 
BRANCH  50  64
ATOM     64  C   UNL A   1      40.189  29.110  29.231  1.00  0.00     0.023 A 
ATOM     65  C   UNL A   1      39.791  29.132  30.579  1.00  0.00     0.031 A 
ATOM     66  C   UNL A   1      39.207  29.354  28.253  1.00  0.00     0.131 A 
ATOM     67  C   UNL A   1      38.439  29.311  30.910  1.00  0.00     0.055 A 
ATOM     68  C   UNL A   1      37.877  29.615  28.593  1.00  0.00     0.041 A 
ATOM     69  F   UNL A   1      39.519  29.327  26.949  1.00  0.00    -0.206 F 
ATOM     70  C   UNL A   1      37.484  29.579  29.928  1.00  0.00     0.022 A 
BRANCH  67  71
ATOM     71  S   UNL A   1      37.926  29.043  32.628  1.00  0.00     0.124 S 
ATOM     72  O   UNL A   1      38.971  29.755  33.362  1.00  0.00    -0.237 OA
ATOM     73  O   UNL A   1      36.599  29.647  32.660  1.00  0.00    -0.237 OA
ATOM     74  O   UNL A   1      37.955  27.589  32.774  1.00  0.00    -0.744 OA
ENDBRANCH  67  71
ENDBRANCH  50  64
BRANCH  51  75
ATOM     75  C   UNL A   1      49.405  26.730  26.062  1.00  0.00     0.023 A 
ATOM     76  C   UNL A   1      49.812  27.160  24.789  1.00  0.00     0.031 A 
ATOM     77  C   UNL A   1      50.302  25.951  26.814  1.00  0.00     0.131 A 
ATOM     78  C   UNL A   1      51.064  26.770  24.288  1.00  0.00     0.055 A 
ATOM     79  C   UNL A   1      51.566  25.609  26.331  1.00  0.00     0.041 A 
ATOM     80  F   UNL A   1      49.965  25.519  28.040  1.00  0.00    -0.206 F 
ATOM     81  C   UNL A   1      51.948  26.009  25.054  1.00  0.00     0.022 A 
BRANCH  78  82
ATOM     82  S   UNL A   1      51.487  27.207  22.578  1.00  0.00     0.124 S 
ATOM     83  O   UNL A   1      52.649  26.359  22.334  1.00  0.00    -0.237 OA
ATOM     84  O   UNL A   1      50.267  26.847  21.864  1.00  0.00    -0.237 OA
ATOM     85  O   UNL A   1      51.765  28.640  22.654  1.00  0.00    -0.744 OA
ENDBRANCH  78  82
ENDBRANCH  51  75
BRANCH  63  86
ATOM     86  C   UNL A   1      46.555  32.541  28.660  1.00  0.00     0.023 A 
ATOM     87  C   UNL A   1      46.629  33.554  27.690  1.00  0.00     0.031 A 
ATOM     88  C   UNL A   1      47.052  32.817  29.946  1.00  0.00     0.131 A 
ATOM     89  C   UNL A   1      47.239  34.778  28.004  1.00  0.00     0.055 A 
ATOM     90  C   UNL A   1      47.602  34.057  30.271  1.00  0.00     0.041 A 
ATOM     91  F   UNL A   1      47.008  31.884  30.911  1.00  0.00    -0.206 F 
ATOM     92  C   UNL A   1      47.711  35.042  29.293  1.00  0.00     0.022 A 
BRANCH  89  93
ATOM     93  S   UNL A   1      47.492  35.992  26.679  1.00  0.00     0.124 S 
ATOM     94  O   UNL A   1      46.352  35.730  25.806  1.00  0.00    -0.237 OA
ATOM     95  O   UNL A   1      47.461  37.257  27.406  1.00  0.00    -0.237 OA
ATOM     96  O   UNL A   1      48.794  35.628  26.125  1.00  0.00    -0.744 OA
ENDBRANCH  89  93
ENDBRANCH  63  86
ENDBRANCH  37  38
ENDBRANCH  29  32
ENDBRANCH  27  28
ENDBRANCH   1  27
TORSDOF 16
ENDMDL
MODEL 3
REMARK VINA RESULT:     -12.7      6.083     11.922
REMARK SMILES Cc1noc(C[N@H+]2CCC[C@@H](c3ccc(C(=O)NCCCNC(=O)c4ccc(-c5c6nc(c(-c7cc(S(=O)(=O)[O-])ccc7F)c7ccc([nH]7)c(-c7cc(S(=O)(=O)[O-])ccc7F)c7nc(c(-c8cc(S(=O)(=O)[O-])ccc8F)c8ccc5[nH]8)C=C7)C=C6)cc4)cc3)C2)n1
REMARK SMILES IDX 20 1 19 2 18 3 16 4 17 5 15 7 12 8 13 9 89 10 14 11 88 12
REMARK SMILES IDX 11 13 7 14 8 15 90 16 9 18 10 19 6 20 5 21 1 22 2 23 3 24
REMARK SMILES IDX 91 25 4 26 21 27 22 28 23 29 24 31 25 32 26 33 87 34 27 35
REMARK SMILES IDX 86 36 28 37 29 38 30 39 80 40 31 41 85 42 79 43 81 44 32 45
REMARK SMILES IDX 84 46 78 47 77 48 33 50 65 51 45 52 64 53 46 54 49 55 63 56
REMARK SMILES IDX 82 57 47 58 48 59 62 61 83 62 50 63 34 64 35 65 43 66 36 67
REMARK SMILES IDX 42 68 44 69 41 70 37 71 38 72 39 73 40 74 66 75 67 76 75 77
REMARK SMILES IDX 68 78 74 79 76 80 73 81 69 82 70 83 71 84 72 85 51 86 52 87
REMARK SMILES IDX 60 88 53 89 59 90 61 91 58 92 54 93 55 94 56 95 57 96
REMARK H PARENT 18 6 7 17 22 30 81 49 49 60
REMARK Flexibility Score: inf
ROOT
ATOM      1  C   UNL A   1      38.147  19.857  24.801  1.00  0.00     0.042 C 
ENDROOT
BRANCH   1   2
ATOM      2  C   UNL A   1      37.019  20.874  24.646  1.00  0.00     0.118 C 
BRANCH   2   3
ATOM      3  N   UNL A   1      35.793  20.390  25.253  1.00  0.00    -0.352 N 
ATOM      4  C   UNL A   1      34.576  20.987  25.451  1.00  0.00     0.251 C 
ATOM      5  O   UNL A   1      33.672  20.304  25.935  1.00  0.00    -0.269 OA
ATOM      6  H   UNL A   1      35.844  19.464  25.581  1.00  0.00     0.163 HD
BRANCH   4   7
ATOM      7  C   UNL A   1      34.286  22.390  25.048  1.00  0.00     0.039 A 
ATOM      8  C   UNL A   1      33.701  25.098  24.485  1.00  0.00    -0.039 A 
ATOM      9  C   UNL A   1      34.117  24.702  25.766  1.00  0.00     0.005 A 
ATOM     10  C   UNL A   1      33.651  24.133  23.476  1.00  0.00     0.005 A 
ATOM     11  C   UNL A   1      34.393  23.363  26.047  1.00  0.00     0.014 A 
ATOM     12  C   UNL A   1      33.964  22.796  23.751  1.00  0.00     0.014 A 
BRANCH   8  13
ATOM     13  C   UNL A   1      33.327  26.541  24.175  1.00  0.00     0.074 C 
ATOM     14  N   UNL A   1      31.349  28.093  23.833  1.00  0.00    -0.327 N 
ATOM     15  C   UNL A   1      31.838  28.948  24.924  1.00  0.00     0.262 C 
ATOM     16  C   UNL A   1      31.801  26.698  23.993  1.00  0.00     0.270 C 
ATOM     17  H   UNL A   1      31.749  28.454  22.967  1.00  0.00     0.348 HD
ATOM     18  C   UNL A   1      33.362  28.904  25.025  1.00  0.00     0.062 C 
ATOM     19  C   UNL A   1      33.854  27.481  25.266  1.00  0.00     0.020 C 
BRANCH  14  20
ATOM     20  C   UNL A   1      29.864  28.160  23.711  1.00  0.00     0.364 C 
BRANCH  20  21
ATOM     21  C   UNL A   1      29.332  29.362  22.991  1.00  0.00     0.281 A 
ATOM     22  C   UNL A   1      28.673  32.749  22.383  1.00  0.00     0.093 C 
ATOM     23  C   UNL A   1      28.855  31.286  22.334  1.00  0.00     0.169 A 
ATOM     24  N   UNL A   1      28.990  30.603  21.190  1.00  0.00    -0.063 NA
ATOM     25  N   UNL A   1      29.002  30.543  23.472  1.00  0.00    -0.191 NA
ATOM     26  O   UNL A   1      29.309  29.312  21.626  1.00  0.00    -0.333 OA
ENDBRANCH  20  21
ENDBRANCH  14  20
ENDBRANCH   8  13
ENDBRANCH   4   7
ENDBRANCH   2   3
ENDBRANCH   1   2
BRANCH   1  27
ATOM     27  C   UNL A   1      38.934  20.020  26.098  1.00  0.00     0.118 C 
BRANCH  27  28
ATOM     28  N   UNL A   1      40.134  19.197  26.107  1.00  0.00    -0.352 N 
ATOM     29  C   UNL A   1      41.454  19.572  26.122  1.00  0.00     0.251 C 
ATOM     30  H   UNL A   1      39.975  18.226  26.103  1.00  0.00     0.163 HD
ATOM     31  O   UNL A   1      42.315  18.733  25.874  1.00  0.00    -0.269 OA
BRANCH  29  32
ATOM     32  C   UNL A   1      41.839  20.970  26.418  1.00  0.00     0.039 A 
ATOM     33  C   UNL A   1      42.186  21.310  27.729  1.00  0.00     0.014 A 
ATOM     34  C   UNL A   1      41.816  21.955  25.425  1.00  0.00     0.014 A 
ATOM     35  C   UNL A   1      42.557  22.623  28.033  1.00  0.00     0.010 A 
ATOM     36  C   UNL A   1      42.254  23.246  25.714  1.00  0.00     0.010 A 
ATOM     37  C   UNL A   1      42.620  23.595  27.022  1.00  0.00    -0.014 A 
BRANCH  37  38
ATOM     38  C   UNL A   1      43.057  24.985  27.318  1.00  0.00     0.031 A 
ATOM     39  C   UNL A   1      42.110  25.948  27.980  1.00  0.00     0.074 A 
ATOM     40  C   UNL A   1      44.283  25.392  26.936  1.00  0.00     0.049 A 
ATOM     41  N   UNL A   1      42.274  27.219  28.249  1.00  0.00    -0.248 NA
ATOM     42  C   UNL A   1      40.793  25.418  28.364  1.00  0.00     0.031 C 
ATOM     43  C   UNL A   1      45.275  24.557  26.253  1.00  0.00     0.029 A 
ATOM     44  N   UNL A   1      44.904  26.609  27.055  1.00  0.00    -0.354 N 
ATOM     45  C   UNL A   1      41.078  27.644  28.821  1.00  0.00     0.074 A 
ATOM     46  C   UNL A   1      40.181  26.507  28.803  1.00  0.00     0.031 C 
ATOM     47  C   UNL A   1      46.383  25.280  26.033  1.00  0.00     0.029 A 
ATOM     48  C   UNL A   1      46.169  26.641  26.516  1.00  0.00     0.049 A 
ATOM     49  H   UNL A   1      44.483  27.388  27.487  1.00  0.00     0.167 HD
ATOM     50  C   UNL A   1      40.767  28.862  29.331  1.00  0.00     0.034 A 
ATOM     51  C   UNL A   1      47.050  27.655  26.409  1.00  0.00     0.034 A 
ATOM     52  C   UNL A   1      41.680  29.979  29.349  1.00  0.00     0.049 A 
ATOM     53  C   UNL A   1      46.676  29.006  26.964  1.00  0.00     0.074 A 
ATOM     54  C   UNL A   1      41.490  31.240  29.886  1.00  0.00     0.029 A 
ATOM     55  N   UNL A   1      42.956  29.972  28.797  1.00  0.00    -0.354 N 
ATOM     56  N   UNL A   1      45.558  29.378  27.544  1.00  0.00    -0.248 NA
ATOM     57  C   UNL A   1      47.684  30.066  26.862  1.00  0.00     0.031 C 
ATOM     58  C   UNL A   1      42.622  32.014  29.601  1.00  0.00     0.029 A 
ATOM     59  C   UNL A   1      43.551  31.215  28.955  1.00  0.00     0.049 A 
ATOM     60  H   UNL A   1      43.377  29.198  28.358  1.00  0.00     0.167 HD
ATOM     61  C   UNL A   1      45.743  30.710  27.902  1.00  0.00     0.074 A 
ATOM     62  C   UNL A   1      47.084  31.069  27.487  1.00  0.00     0.031 C 
ATOM     63  C   UNL A   1      44.885  31.560  28.524  1.00  0.00     0.034 A 
BRANCH  50  64
ATOM     64  C   UNL A   1      39.372  29.048  29.883  1.00  0.00     0.023 A 
ATOM     65  C   UNL A   1      38.344  29.623  29.117  1.00  0.00     0.031 A 
ATOM     66  C   UNL A   1      39.073  28.669  31.204  1.00  0.00     0.131 A 
ATOM     67  C   UNL A   1      37.093  29.877  29.699  1.00  0.00     0.055 A 
ATOM     68  C   UNL A   1      37.800  28.848  31.752  1.00  0.00     0.041 A 
ATOM     69  F   UNL A   1      40.017  28.134  31.993  1.00  0.00    -0.206 F 
ATOM     70  C   UNL A   1      36.805  29.470  31.003  1.00  0.00     0.022 A 
BRANCH  67  71
ATOM     71  S   UNL A   1      35.895  30.878  28.775  1.00  0.00     0.124 S 
ATOM     72  O   UNL A   1      35.151  31.520  29.856  1.00  0.00    -0.237 OA
ATOM     73  O   UNL A   1      36.755  31.752  27.984  1.00  0.00    -0.237 OA
ATOM     74  O   UNL A   1      35.138  29.889  28.010  1.00  0.00    -0.744 OA
ENDBRANCH  67  71
ENDBRANCH  50  64
BRANCH  51  75
ATOM     75  C   UNL A   1      48.368  27.442  25.743  1.00  0.00     0.023 A 
ATOM     76  C   UNL A   1      48.511  27.599  24.356  1.00  0.00     0.031 A 
ATOM     77  C   UNL A   1      49.496  27.043  26.481  1.00  0.00     0.131 A 
ATOM     78  C   UNL A   1      49.742  27.316  23.743  1.00  0.00     0.055 A 
ATOM     79  C   UNL A   1      50.731  26.813  25.874  1.00  0.00     0.041 A 
ATOM     80  F   UNL A   1      49.416  26.885  27.813  1.00  0.00    -0.206 F 
ATOM     81  C   UNL A   1      50.856  26.935  24.494  1.00  0.00     0.022 A 
BRANCH  78  82
ATOM     82  S   UNL A   1      49.842  27.372  21.932  1.00  0.00     0.124 S 
ATOM     83  O   UNL A   1      51.192  26.870  21.694  1.00  0.00    -0.237 OA
ATOM     84  O   UNL A   1      48.750  26.487  21.542  1.00  0.00    -0.237 OA
ATOM     85  O   UNL A   1      49.638  28.786  21.626  1.00  0.00    -0.744 OA
ENDBRANCH  78  82
ENDBRANCH  51  75
BRANCH  63  86
ATOM     86  C   UNL A   1      45.399  32.946  28.829  1.00  0.00     0.023 A 
ATOM     87  C   UNL A   1      45.169  34.028  27.963  1.00  0.00     0.031 A 
ATOM     88  C   UNL A   1      46.140  33.181  30.001  1.00  0.00     0.131 A 
ATOM     89  C   UNL A   1      45.724  35.284  28.253  1.00  0.00     0.055 A 
ATOM     90  C   UNL A   1      46.638  34.446  30.315  1.00  0.00     0.041 A 
ATOM     91  F   UNL A   1      46.391  32.182  30.863  1.00  0.00    -0.206 F 
ATOM     92  C   UNL A   1      46.443  35.504  29.431  1.00  0.00     0.022 A 
BRANCH  89  93
ATOM     93  S   UNL A   1      45.573  36.609  27.023  1.00  0.00     0.124 S 
ATOM     94  O   UNL A   1      46.091  37.762  27.752  1.00  0.00    -0.237 OA
ATOM     95  O   UNL A   1      46.408  36.117  25.931  1.00  0.00    -0.237 OA
ATOM     96  O   UNL A   1      44.140  36.650  26.736  1.00  0.00    -0.744 OA
ENDBRANCH  89  93
ENDBRANCH  63  86
ENDBRANCH  37  38
ENDBRANCH  29  32
ENDBRANCH  27  28
ENDBRANCH   1  27
TORSDOF 16
ENDMDL
