MODEL 1
REMARK VINA RESULT:      -9.1      0.000      0.000
REMARK SMILES COc1cc(/C=N/NC(=O)c2cc(Cl)ccc2O)ccc1OCC(=O)NCCCNC(=O)c1ccc(-c2c3nc(c(-c4cc(S(=O)(=O)[O-])ccc4F)c4ccc([nH]4)c(-c4cc(S(=O)(=O)[O-])ccc4F)c4nc(c(-c5cc(S(=O)(=O)[O-])ccc5F)c5ccc2[nH]5)C=C4)C=C3)cc1
REMARK SMILES IDX 24 1 25 2 26 3 23 5 22 6 21 7 3 8 4 9 5 10 20 11 19 12 2 13
REMARK SMILES IDX 1 14 6 15 7 16 8 17 9 18 10 20 11 21 12 22 17 23 13 24 16 25
REMARK SMILES IDX 14 26 15 27 18 28 27 30 28 31 29 32 30 33 31 34 32 36 33 37
REMARK SMILES IDX 34 38 95 39 35 40 94 41 36 42 37 43 38 44 88 45 39 46 93 47
REMARK SMILES IDX 87 48 89 49 40 50 92 51 86 52 85 53 41 55 73 56 53 57 72 58
REMARK SMILES IDX 54 59 57 60 71 61 90 62 55 63 56 64 70 66 91 67 58 68 42 69
REMARK SMILES IDX 43 70 51 71 44 72 50 73 52 74 49 75 45 76 46 77 47 78 48 79
REMARK SMILES IDX 74 80 75 81 83 82 76 83 82 84 84 85 81 86 77 87 78 88 79 89
REMARK SMILES IDX 80 90 59 91 60 92 68 93 61 94 67 95 69 96 66 97 62 98 63 99
REMARK SMILES IDX 64 100 65 101
REMARK H PARENT 26 4 8 19 18 29 30 35 89 54 57 65
REMARK Flexibility Score: inf
ROOT
ATOM      1  C   UNL A   1      35.352  34.012  34.442  1.00  0.00     0.257 C 
ATOM      2  O   UNL A   1      35.180  34.178  35.651  1.00  0.00    -0.271 OA
ATOM      3  N   UNL A   1      34.429  34.545  33.587  1.00  0.00    -0.353 N 
ATOM      4  H   UNL A   1      33.606  34.884  34.007  1.00  0.00     0.163 HD
ENDROOT
BRANCH   1   5
ATOM      5  C   UNL A   1      36.592  33.302  33.883  1.00  0.00     0.329 C 
BRANCH   5   6
ATOM      6  O   UNL A   1      36.680  31.901  34.071  1.00  0.00    -0.480 OA
BRANCH   6   7
ATOM      7  C   UNL A   1      37.904  31.306  34.214  1.00  0.00     0.161 A 
ATOM      8  C   UNL A   1      38.455  30.251  33.472  1.00  0.00     0.161 A 
ATOM      9  C   UNL A   1      39.719  29.746  33.811  1.00  0.00     0.060 A 
ATOM     10  C   UNL A   1      40.451  30.325  34.849  1.00  0.00    -0.002 A 
ATOM     11  C   UNL A   1      38.646  31.851  35.272  1.00  0.00     0.051 A 
ATOM     12  C   UNL A   1      39.924  31.387  35.579  1.00  0.00     0.014 A 
BRANCH   8  13
ATOM     13  O   UNL A   1      37.714  29.632  32.501  1.00  0.00    -0.493 OA
ATOM     14  C   UNL A   1      38.206  28.335  32.156  1.00  0.00     0.278 C 
ENDBRANCH   8  13
BRANCH  10  15
ATOM     15  C   UNL A   1      41.751  29.771  35.266  1.00  0.00     0.141 C 
ATOM     16  N   UNL A   1      41.872  29.127  36.388  1.00  0.00    -0.180 NA
BRANCH  16  17
ATOM     17  N   UNL A   1      43.131  28.775  36.776  1.00  0.00    -0.243 N 
ATOM     18  C   UNL A   1      43.717  27.519  36.834  1.00  0.00     0.275 C 
ATOM     19  H   UNL A   1      43.709  29.521  37.056  1.00  0.00     0.194 HD
ATOM     20  O   UNL A   1      44.860  27.393  37.269  1.00  0.00    -0.267 OA
BRANCH  18  21
ATOM     21  C   UNL A   1      42.991  26.316  36.363  1.00  0.00     0.084 A 
ATOM     22  C   UNL A   1      43.666  25.485  35.458  1.00  0.00     0.038 A 
ATOM     23  C   UNL A   1      41.684  25.993  36.751  1.00  0.00     0.128 A 
ATOM     24  C   UNL A   1      43.057  24.318  35.001  1.00  0.00     0.042 A 
ATOM     25  C   UNL A   1      41.081  24.822  36.291  1.00  0.00     0.048 A 
ATOM     26  Cl  UNL A   1      43.897  23.288  33.911  1.00  0.00    -0.084 Cl
ATOM     27  C   UNL A   1      41.773  23.976  35.425  1.00  0.00     0.024 A 
BRANCH  23  28
ATOM     28  O   UNL A   1      40.929  26.767  37.590  1.00  0.00    -0.507 OA
ATOM     29  H   UNL A   1      41.306  27.521  37.997  1.00  0.00     0.293 HD
ENDBRANCH  23  28
ENDBRANCH  18  21
ENDBRANCH  16  17
ENDBRANCH  10  15
ENDBRANCH   6   7
ENDBRANCH   5   6
ENDBRANCH   1   5
BRANCH   3  30
ATOM     30  C   UNL A   1      34.499  34.681  32.145  1.00  0.00     0.117 C 
BRANCH  30  31
ATOM     31  C   UNL A   1      33.258  35.325  31.538  1.00  0.00     0.042 C 
BRANCH  31  32
ATOM     32  C   UNL A   1      33.383  35.720  30.069  1.00  0.00     0.118 C 
BRANCH  32  33
ATOM     33  N   UNL A   1      32.862  34.710  29.163  1.00  0.00    -0.352 N 
ATOM     34  C   UNL A   1      33.466  33.644  28.546  1.00  0.00     0.251 C 
ATOM     35  H   UNL A   1      31.904  34.808  28.958  1.00  0.00     0.163 HD
ATOM     36  O   UNL A   1      32.842  33.053  27.666  1.00  0.00    -0.269 OA
BRANCH  34  37
ATOM     37  C   UNL A   1      34.839  33.214  28.894  1.00  0.00     0.039 A 
ATOM     38  C   UNL A   1      34.995  32.157  29.798  1.00  0.00     0.014 A 
ATOM     39  C   UNL A   1      35.972  33.871  28.406  1.00  0.00     0.014 A 
ATOM     40  C   UNL A   1      36.274  31.733  30.168  1.00  0.00     0.010 A 
ATOM     41  C   UNL A   1      37.247  33.390  28.707  1.00  0.00     0.010 A 
ATOM     42  C   UNL A   1      37.415  32.326  29.606  1.00  0.00    -0.014 A 
BRANCH  42  43
ATOM     43  C   UNL A   1      38.778  31.859  29.978  1.00  0.00     0.031 A 
ATOM     44  C   UNL A   1      39.564  32.577  31.045  1.00  0.00     0.074 A 
ATOM     45  C   UNL A   1      39.323  30.809  29.333  1.00  0.00     0.049 A 
ATOM     46  N   UNL A   1      40.770  32.333  31.494  1.00  0.00    -0.248 NA
ATOM     47  C   UNL A   1      38.921  33.742  31.668  1.00  0.00     0.031 C 
ATOM     48  C   UNL A   1      38.685  30.062  28.245  1.00  0.00     0.029 A 
ATOM     49  N   UNL A   1      40.533  30.182  29.495  1.00  0.00    -0.354 N 
ATOM     50  C   UNL A   1      41.034  33.318  32.439  1.00  0.00     0.074 A 
ATOM     51  C   UNL A   1      39.887  34.204  32.447  1.00  0.00     0.031 C 
ATOM     52  C   UNL A   1      39.494  29.060  27.865  1.00  0.00     0.029 A 
ATOM     53  C   UNL A   1      40.722  29.113  28.650  1.00  0.00     0.049 A 
ATOM     54  H   UNL A   1      41.204  30.470  30.157  1.00  0.00     0.167 HD
ATOM     55  C   UNL A   1      42.116  33.459  33.246  1.00  0.00     0.034 A 
ATOM     56  C   UNL A   1      41.766  28.270  28.521  1.00  0.00     0.034 A 
ATOM     57  C   UNL A   1      43.243  32.558  33.239  1.00  0.00     0.049 A 
ATOM     58  C   UNL A   1      42.953  28.440  29.435  1.00  0.00     0.074 A 
ATOM     59  C   UNL A   1      44.366  32.573  34.049  1.00  0.00     0.029 A 
ATOM     60  N   UNL A   1      43.394  31.479  32.378  1.00  0.00    -0.354 N 
ATOM     61  N   UNL A   1      43.159  29.344  30.366  1.00  0.00    -0.248 NA
ATOM     62  C   UNL A   1      44.038  27.462  29.294  1.00  0.00     0.031 C 
ATOM     63  C   UNL A   1      45.222  31.546  33.635  1.00  0.00     0.029 A 
ATOM     64  C   UNL A   1      44.601  30.839  32.619  1.00  0.00     0.049 A 
ATOM     65  H   UNL A   1      42.739  31.206  31.695  1.00  0.00     0.167 HD
ATOM     66  C   UNL A   1      44.388  29.024  30.938  1.00  0.00     0.074 A 
ATOM     67  C   UNL A   1      44.857  27.829  30.266  1.00  0.00     0.031 C 
ATOM     68  C   UNL A   1      45.067  29.658  31.929  1.00  0.00     0.034 A 
BRANCH  55  69
ATOM     69  C   UNL A   1      42.133  34.645  34.184  1.00  0.00     0.023 A 
ATOM     70  C   UNL A   1      41.590  34.572  35.480  1.00  0.00     0.031 A 
ATOM     71  C   UNL A   1      42.672  35.876  33.769  1.00  0.00     0.131 A 
ATOM     72  C   UNL A   1      41.520  35.723  36.279  1.00  0.00     0.055 A 
ATOM     73  C   UNL A   1      42.678  36.997  34.604  1.00  0.00     0.041 A 
ATOM     74  F   UNL A   1      43.187  36.016  32.538  1.00  0.00    -0.206 F 
ATOM     75  C   UNL A   1      42.086  36.929  35.861  1.00  0.00     0.022 A 
BRANCH  72  76
ATOM     76  S   UNL A   1      40.548  35.657  37.809  1.00  0.00     0.124 S 
ATOM     77  O   UNL A   1      41.598  35.667  38.825  1.00  0.00    -0.237 OA
ATOM     78  O   UNL A   1      39.735  36.865  37.719  1.00  0.00    -0.237 OA
ATOM     79  O   UNL A   1      39.812  34.399  37.695  1.00  0.00    -0.744 OA
ENDBRANCH  72  76
ENDBRANCH  55  69
BRANCH  56  80
ATOM     80  C   UNL A   1      41.743  27.186  27.498  1.00  0.00     0.023 A 
ATOM     81  C   UNL A   1      41.401  25.869  27.843  1.00  0.00     0.031 A 
ATOM     82  C   UNL A   1      42.112  27.442  26.165  1.00  0.00     0.131 A 
ATOM     83  C   UNL A   1      41.485  24.848  26.884  1.00  0.00     0.055 A 
ATOM     84  C   UNL A   1      42.143  26.433  25.201  1.00  0.00     0.041 A 
ATOM     85  F   UNL A   1      42.440  28.686  25.778  1.00  0.00    -0.206 F 
ATOM     86  C   UNL A   1      41.843  25.123  25.562  1.00  0.00     0.022 A 
BRANCH  83  87
ATOM     87  S   UNL A   1      41.205  23.135  27.412  1.00  0.00     0.124 S 
ATOM     88  O   UNL A   1      41.912  23.097  28.686  1.00  0.00    -0.237 OA
ATOM     89  O   UNL A   1      39.749  23.076  27.483  1.00  0.00    -0.237 OA
ATOM     90  O   UNL A   1      41.806  22.346  26.338  1.00  0.00    -0.744 OA
ENDBRANCH  83  87
ENDBRANCH  56  80
BRANCH  68  91
ATOM     91  C   UNL A   1      46.375  29.038  32.360  1.00  0.00     0.023 A 
ATOM     92  C   UNL A   1      47.590  29.364  31.732  1.00  0.00     0.031 A 
ATOM     93  C   UNL A   1      46.400  28.074  33.384  1.00  0.00     0.131 A 
ATOM     94  C   UNL A   1      48.763  28.677  32.077  1.00  0.00     0.055 A 
ATOM     95  C   UNL A   1      47.584  27.444  33.772  1.00  0.00     0.041 A 
ATOM     96  F   UNL A   1      45.272  27.721  34.019  1.00  0.00    -0.206 F 
ATOM     97  C   UNL A   1      48.772  27.731  33.105  1.00  0.00     0.022 A 
BRANCH  94  98
ATOM     98  S   UNL A   1      50.252  28.944  31.076  1.00  0.00     0.124 S 
ATOM     99  O   UNL A   1      49.942  28.194  29.863  1.00  0.00    -0.237 OA
ATOM    100  O   UNL A   1      50.277  30.398  30.938  1.00  0.00    -0.237 OA
ATOM    101  O   UNL A   1      51.322  28.382  31.896  1.00  0.00    -0.744 OA
ENDBRANCH  94  98
ENDBRANCH  68  91
ENDBRANCH  42  43
ENDBRANCH  34  37
ENDBRANCH  32  33
ENDBRANCH  31  32
ENDBRANCH  30  31
ENDBRANCH   3  30
TORSDOF 20
ENDMDL
MODEL 2
REMARK VINA RESULT:      -8.8      6.208     11.636
REMARK SMILES COc1cc(/C=N/NC(=O)c2cc(Cl)ccc2O)ccc1OCC(=O)NCCCNC(=O)c1ccc(-c2c3nc(c(-c4cc(S(=O)(=O)[O-])ccc4F)c4ccc([nH]4)c(-c4cc(S(=O)(=O)[O-])ccc4F)c4nc(c(-c5cc(S(=O)(=O)[O-])ccc5F)c5ccc2[nH]5)C=C4)C=C3)cc1
REMARK SMILES IDX 24 1 25 2 26 3 23 5 22 6 21 7 3 8 4 9 5 10 20 11 19 12 2 13
REMARK SMILES IDX 1 14 6 15 7 16 8 17 9 18 10 20 11 21 12 22 17 23 13 24 16 25
REMARK SMILES IDX 14 26 15 27 18 28 27 30 28 31 29 32 30 33 31 34 32 36 33 37
REMARK SMILES IDX 34 38 95 39 35 40 94 41 36 42 37 43 38 44 88 45 39 46 93 47
REMARK SMILES IDX 87 48 89 49 40 50 92 51 86 52 85 53 41 55 73 56 53 57 72 58
REMARK SMILES IDX 54 59 57 60 71 61 90 62 55 63 56 64 70 66 91 67 58 68 42 69
REMARK SMILES IDX 43 70 51 71 44 72 50 73 52 74 49 75 45 76 46 77 47 78 48 79
REMARK SMILES IDX 74 80 75 81 83 82 76 83 82 84 84 85 81 86 77 87 78 88 79 89
REMARK SMILES IDX 80 90 59 91 60 92 68 93 61 94 67 95 69 96 66 97 62 98 63 99
REMARK SMILES IDX 64 100 65 101
REMARK H PARENT 26 4 8 19 18 29 30 35 89 54 57 65
REMARK Flexibility Score: inf
ROOT
ATOM      1  C   UNL A   1      34.819  21.296  26.138  1.00  0.00     0.257 C 
ATOM      2  O   UNL A   1      34.437  21.499  27.292  1.00  0.00    -0.271 OA
ATOM      3  N   UNL A   1      36.165  21.226  25.914  1.00  0.00    -0.353 N 
ATOM      4  H   UNL A   1      36.736  21.505  26.665  1.00  0.00     0.163 HD
ENDROOT
BRANCH   1   5
ATOM      5  C   UNL A   1      33.838  21.050  24.985  1.00  0.00     0.329 C 
BRANCH   5   6
ATOM      6  O   UNL A   1      32.457  21.214  25.258  1.00  0.00    -0.480 OA
BRANCH   6   7
ATOM      7  C   UNL A   1      31.820  22.368  24.893  1.00  0.00     0.161 A 
ATOM      8  C   UNL A   1      31.641  22.900  23.608  1.00  0.00     0.161 A 
ATOM      9  C   UNL A   1      30.995  24.135  23.448  1.00  0.00     0.060 A 
ATOM     10  C   UNL A   1      30.484  24.809  24.558  1.00  0.00    -0.002 A 
ATOM     11  C   UNL A   1      31.325  23.079  25.997  1.00  0.00     0.051 A 
ATOM     12  C   UNL A   1      30.636  24.281  25.837  1.00  0.00     0.014 A 
BRANCH   8  13
ATOM     13  O   UNL A   1      32.202  22.281  22.523  1.00  0.00    -0.493 OA
ATOM     14  C   UNL A   1      33.209  23.068  21.882  1.00  0.00     0.278 C 
ENDBRANCH   8  13
BRANCH  10  15
ATOM     15  C   UNL A   1      29.860  26.137  24.423  1.00  0.00     0.141 C 
ATOM     16  N   UNL A   1      29.750  26.706  23.261  1.00  0.00    -0.180 NA
BRANCH  16  17
ATOM     17  N   UNL A   1      29.301  27.993  23.232  1.00  0.00    -0.243 N 
ATOM     18  C   UNL A   1      29.946  29.161  23.608  1.00  0.00     0.275 C 
ATOM     19  H   UNL A   1      28.383  28.110  22.896  1.00  0.00     0.194 HD
ATOM     20  O   UNL A   1      29.351  30.236  23.561  1.00  0.00    -0.267 OA
BRANCH  18  21
ATOM     21  C   UNL A   1      31.360  29.142  24.052  1.00  0.00     0.084 A 
ATOM     22  C   UNL A   1      31.641  29.732  25.292  1.00  0.00     0.038 A 
ATOM     23  C   UNL A   1      32.407  28.597  23.296  1.00  0.00     0.128 A 
ATOM     24  C   UNL A   1      32.943  29.718  25.788  1.00  0.00     0.042 A 
ATOM     25  C   UNL A   1      33.708  28.585  23.800  1.00  0.00     0.048 A 
ATOM     26  Cl  UNL A   1      33.279  30.420  27.321  1.00  0.00    -0.084 Cl
ATOM     27  C   UNL A   1      33.974  29.134  25.054  1.00  0.00     0.024 A 
BRANCH  23  28
ATOM     28  O   UNL A   1      32.238  28.045  22.056  1.00  0.00    -0.507 OA
ATOM     29  H   UNL A   1      32.098  27.123  21.969  1.00  0.00     0.293 HD
ENDBRANCH  23  28
ENDBRANCH  18  21
ENDBRANCH  16  17
ENDBRANCH  10  15
ENDBRANCH   6   7
ENDBRANCH   5   6
ENDBRANCH   1   5
BRANCH   3  30
ATOM     30  C   UNL A   1      36.866  20.795  24.720  1.00  0.00     0.117 C 
BRANCH  30  31
ATOM     31  C   UNL A   1      37.984  19.798  25.002  1.00  0.00     0.042 C 
BRANCH  31  32
ATOM     32  C   UNL A   1      39.086  20.303  25.928  1.00  0.00     0.118 C 
BRANCH  32  33
ATOM     33  N   UNL A   1      40.229  19.407  25.991  1.00  0.00    -0.352 N 
ATOM     34  C   UNL A   1      41.572  19.654  26.119  1.00  0.00     0.251 C 
ATOM     35  H   UNL A   1      39.997  18.452  25.932  1.00  0.00     0.163 HD
ATOM     36  O   UNL A   1      42.354  18.720  25.947  1.00  0.00    -0.269 OA
BRANCH  34  37
ATOM     37  C   UNL A   1      42.093  21.005  26.430  1.00  0.00     0.039 A 
ATOM     38  C   UNL A   1      42.279  21.904  25.374  1.00  0.00     0.014 A 
ATOM     39  C   UNL A   1      42.464  21.381  27.724  1.00  0.00     0.014 A 
ATOM     40  C   UNL A   1      42.786  23.183  25.622  1.00  0.00     0.010 A 
ATOM     41  C   UNL A   1      42.887  22.686  27.982  1.00  0.00     0.010 A 
ATOM     42  C   UNL A   1      43.070  23.598  26.932  1.00  0.00    -0.014 A 
BRANCH  42  43
ATOM     43  C   UNL A   1      43.585  24.968  27.204  1.00  0.00     0.031 A 
ATOM     44  C   UNL A   1      42.671  26.029  27.760  1.00  0.00     0.074 A 
ATOM     45  C   UNL A   1      44.868  25.266  26.919  1.00  0.00     0.049 A 
ATOM     46  N   UNL A   1      42.929  27.281  28.045  1.00  0.00    -0.248 NA
ATOM     47  C   UNL A   1      41.274  25.638  27.999  1.00  0.00     0.031 C 
ATOM     48  C   UNL A   1      45.839  24.341  26.328  1.00  0.00     0.029 A 
ATOM     49  N   UNL A   1      45.581  26.427  27.089  1.00  0.00    -0.354 N 
ATOM     50  C   UNL A   1      41.728  27.829  28.483  1.00  0.00     0.074 A 
ATOM     51  C   UNL A   1      40.726  26.789  28.359  1.00  0.00     0.031 C 
ATOM     52  C   UNL A   1      47.026  24.960  26.219  1.00  0.00     0.029 A 
ATOM     53  C   UNL A   1      46.895  26.334  26.692  1.00  0.00     0.049 A 
ATOM     54  H   UNL A   1      45.187  27.250  27.460  1.00  0.00     0.167 HD
ATOM     55  C   UNL A   1      41.485  29.072  28.970  1.00  0.00     0.034 A 
ATOM     56  C   UNL A   1      47.883  27.250  26.709  1.00  0.00     0.034 A 
ATOM     57  C   UNL A   1      42.497  30.092  29.104  1.00  0.00     0.049 A 
ATOM     58  C   UNL A   1      47.592  28.622  27.262  1.00  0.00     0.074 A 
ATOM     59  C   UNL A   1      42.374  31.366  29.632  1.00  0.00     0.029 A 
ATOM     60  N   UNL A   1      43.820  29.958  28.704  1.00  0.00    -0.354 N 
ATOM     61  N   UNL A   1      46.462  29.104  27.728  1.00  0.00    -0.248 NA
ATOM     62  C   UNL A   1      48.716  29.565  27.311  1.00  0.00     0.031 C 
ATOM     63  C   UNL A   1      43.603  32.021  29.494  1.00  0.00     0.029 A 
ATOM     64  C   UNL A   1      44.516  31.132  28.950  1.00  0.00     0.049 A 
ATOM     65  H   UNL A   1      44.209  29.146  28.304  1.00  0.00     0.167 HD
ATOM     66  C   UNL A   1      46.750  30.400  28.150  1.00  0.00     0.074 A 
ATOM     67  C   UNL A   1      48.164  30.608  27.909  1.00  0.00     0.031 C 
ATOM     68  C   UNL A   1      45.923  31.334  28.688  1.00  0.00     0.034 A 
BRANCH  55  69
ATOM     69  C   UNL A   1      40.062  29.396  29.368  1.00  0.00     0.023 A 
ATOM     70  C   UNL A   1      39.676  29.495  30.717  1.00  0.00     0.031 A 
ATOM     71  C   UNL A   1      39.070  29.578  28.389  1.00  0.00     0.131 A 
ATOM     72  C   UNL A   1      38.326  29.683  31.051  1.00  0.00     0.055 A 
ATOM     73  C   UNL A   1      37.742  29.852  28.727  1.00  0.00     0.041 A 
ATOM     74  F   UNL A   1      39.369  29.476  27.084  1.00  0.00    -0.206 F 
ATOM     75  C   UNL A   1      37.360  29.890  30.064  1.00  0.00     0.022 A 
BRANCH  72  76
ATOM     76  S   UNL A   1      37.830  29.504  32.786  1.00  0.00     0.124 S 
ATOM     77  O   UNL A   1      37.564  28.070  32.868  1.00  0.00    -0.237 OA
ATOM     78  O   UNL A   1      39.008  29.979  33.502  1.00  0.00    -0.237 OA
ATOM     79  O   UNL A   1      36.647  30.357  32.895  1.00  0.00    -0.744 OA
ENDBRANCH  72  76
ENDBRANCH  55  69
BRANCH  56  80
ATOM     80  C   UNL A   1      49.241  26.910  26.195  1.00  0.00     0.023 A 
ATOM     81  C   UNL A   1      49.698  27.412  24.966  1.00  0.00     0.031 A 
ATOM     82  C   UNL A   1      50.085  26.037  26.904  1.00  0.00     0.131 A 
ATOM     83  C   UNL A   1      50.939  26.997  24.457  1.00  0.00     0.055 A 
ATOM     84  C   UNL A   1      51.341  25.668  26.420  1.00  0.00     0.041 A 
ATOM     85  F   UNL A   1      49.701  25.535  28.089  1.00  0.00    -0.206 F 
ATOM     86  C   UNL A   1      51.768  26.138  25.181  1.00  0.00     0.022 A 
BRANCH  83  87
ATOM     87  S   UNL A   1      51.416  27.529  22.790  1.00  0.00     0.124 S 
ATOM     88  O   UNL A   1      52.279  28.668  23.076  1.00  0.00    -0.237 OA
ATOM     89  O   UNL A   1      52.077  26.336  22.271  1.00  0.00    -0.237 OA
ATOM     90  O   UNL A   1      50.138  27.855  22.159  1.00  0.00    -0.744 OA
ENDBRANCH  83  87
ENDBRANCH  56  80
BRANCH  68  91
ATOM     91  C   UNL A   1      46.550  32.651  29.081  1.00  0.00     0.023 A 
ATOM     92  C   UNL A   1      47.037  32.878  30.380  1.00  0.00     0.031 A 
ATOM     93  C   UNL A   1      46.620  33.707  28.156  1.00  0.00     0.131 A 
ATOM     94  C   UNL A   1      47.499  34.152  30.741  1.00  0.00     0.055 A 
ATOM     95  C   UNL A   1      47.147  34.954  28.502  1.00  0.00     0.041 A 
ATOM     96  F   UNL A   1      46.170  33.550  26.901  1.00  0.00    -0.206 F 
ATOM     97  C   UNL A   1      47.572  35.187  29.806  1.00  0.00     0.022 A 
BRANCH  94  98
ATOM     98  S   UNL A   1      47.880  34.475  32.485  1.00  0.00     0.124 S 
ATOM     99  O   UNL A   1      46.596  34.220  33.130  1.00  0.00    -0.237 OA
ATOM    100  O   UNL A   1      48.935  33.504  32.758  1.00  0.00    -0.237 OA
ATOM    101  O   UNL A   1      48.308  35.872  32.489  1.00  0.00    -0.744 OA
ENDBRANCH  94  98
ENDBRANCH  68  91
ENDBRANCH  42  43
ENDBRANCH  34  37
ENDBRANCH  32  33
ENDBRANCH  31  32
ENDBRANCH  30  31
ENDBRANCH   3  30
TORSDOF 20
ENDMDL
MODEL 3
REMARK VINA RESULT:      -8.8      5.982     12.079
REMARK SMILES COc1cc(/C=N/NC(=O)c2cc(Cl)ccc2O)ccc1OCC(=O)NCCCNC(=O)c1ccc(-c2c3nc(c(-c4cc(S(=O)(=O)[O-])ccc4F)c4ccc([nH]4)c(-c4cc(S(=O)(=O)[O-])ccc4F)c4nc(c(-c5cc(S(=O)(=O)[O-])ccc5F)c5ccc2[nH]5)C=C4)C=C3)cc1
REMARK SMILES IDX 24 1 25 2 26 3 23 5 22 6 21 7 3 8 4 9 5 10 20 11 19 12 2 13
REMARK SMILES IDX 1 14 6 15 7 16 8 17 9 18 10 20 11 21 12 22 17 23 13 24 16 25
REMARK SMILES IDX 14 26 15 27 18 28 27 30 28 31 29 32 30 33 31 34 32 36 33 37
REMARK SMILES IDX 34 38 95 39 35 40 94 41 36 42 37 43 38 44 88 45 39 46 93 47
REMARK SMILES IDX 87 48 89 49 40 50 92 51 86 52 85 53 41 55 73 56 53 57 72 58
REMARK SMILES IDX 54 59 57 60 71 61 90 62 55 63 56 64 70 66 91 67 58 68 42 69
REMARK SMILES IDX 43 70 51 71 44 72 50 73 52 74 49 75 45 76 46 77 47 78 48 79
REMARK SMILES IDX 74 80 75 81 83 82 76 83 82 84 84 85 81 86 77 87 78 88 79 89
REMARK SMILES IDX 80 90 59 91 60 92 68 93 61 94 67 95 69 96 66 97 62 98 63 99
REMARK SMILES IDX 64 100 65 101
REMARK H PARENT 26 4 8 19 18 29 30 35 89 54 57 65
REMARK Flexibility Score: inf
ROOT
ATOM      1  C   UNL A   1      34.360  21.573  26.541  1.00  0.00     0.257 C 
ATOM      2  O   UNL A   1      34.091  21.808  27.721  1.00  0.00    -0.271 OA
ATOM      3  N   UNL A   1      35.570  21.992  26.066  1.00  0.00    -0.353 N 
ATOM      4  H   UNL A   1      36.073  22.597  26.658  1.00  0.00     0.163 HD
ENDROOT
BRANCH   1   5
ATOM      5  C   UNL A   1      33.419  20.771  25.634  1.00  0.00     0.329 C 
BRANCH   5   6
ATOM      6  O   UNL A   1      32.032  21.045  25.727  1.00  0.00    -0.480 OA
BRANCH   6   7
ATOM      7  C   UNL A   1      31.543  22.250  25.304  1.00  0.00     0.161 A 
ATOM      8  C   UNL A   1      31.567  22.799  24.014  1.00  0.00     0.161 A 
ATOM      9  C   UNL A   1      31.051  24.085  23.793  1.00  0.00     0.060 A 
ATOM     10  C   UNL A   1      30.468  24.797  24.843  1.00  0.00    -0.002 A 
ATOM     11  C   UNL A   1      30.979  22.998  26.349  1.00  0.00     0.051 A 
ATOM     12  C   UNL A   1      30.419  24.255  26.124  1.00  0.00     0.014 A 
BRANCH   8  13
ATOM     13  O   UNL A   1      32.201  22.137  22.996  1.00  0.00    -0.493 OA
ATOM     14  C   UNL A   1      33.249  22.900  22.393  1.00  0.00     0.278 C 
ENDBRANCH   8  13
BRANCH  10  15
ATOM     15  C   UNL A   1      29.979  26.174  24.650  1.00  0.00     0.141 C 
ATOM     16  N   UNL A   1      29.627  26.598  23.474  1.00  0.00    -0.180 NA
BRANCH  16  17
ATOM     17  N   UNL A   1      29.330  27.922  23.348  1.00  0.00    -0.243 N 
ATOM     18  C   UNL A   1      30.099  29.033  23.662  1.00  0.00     0.275 C 
ATOM     19  H   UNL A   1      28.438  28.120  22.980  1.00  0.00     0.194 HD
ATOM     20  O   UNL A   1      29.632  30.163  23.528  1.00  0.00    -0.267 OA
BRANCH  18  21
ATOM     21  C   UNL A   1      31.492  28.884  24.144  1.00  0.00     0.084 A 
ATOM     22  C   UNL A   1      31.773  29.372  25.427  1.00  0.00     0.038 A 
ATOM     23  C   UNL A   1      32.523  28.314  23.384  1.00  0.00     0.128 A 
ATOM     24  C   UNL A   1      33.053  29.233  25.958  1.00  0.00     0.042 A 
ATOM     25  C   UNL A   1      33.802  28.177  23.922  1.00  0.00     0.048 A 
ATOM     26  Cl  UNL A   1      33.387  29.811  27.542  1.00  0.00    -0.084 Cl
ATOM     27  C   UNL A   1      34.065  28.624  25.217  1.00  0.00     0.024 A 
BRANCH  23  28
ATOM     28  O   UNL A   1      32.357  27.855  22.106  1.00  0.00    -0.507 OA
ATOM     29  H   UNL A   1      32.980  28.076  21.444  1.00  0.00     0.293 HD
ENDBRANCH  23  28
ENDBRANCH  18  21
ENDBRANCH  16  17
ENDBRANCH  10  15
ENDBRANCH   6   7
ENDBRANCH   5   6
ENDBRANCH   1   5
BRANCH   3  30
ATOM     30  C   UNL A   1      36.214  21.667  24.808  1.00  0.00     0.117 C 
BRANCH  30  31
ATOM     31  C   UNL A   1      37.536  20.927  24.979  1.00  0.00     0.042 C 
BRANCH  31  32
ATOM     32  C   UNL A   1      38.604  21.679  25.769  1.00  0.00     0.118 C 
BRANCH  32  33
ATOM     33  N   UNL A   1      39.725  20.836  26.151  1.00  0.00    -0.352 N 
ATOM     34  C   UNL A   1      40.967  21.144  26.645  1.00  0.00     0.251 C 
ATOM     35  H   UNL A   1      39.563  19.872  26.035  1.00  0.00     0.163 HD
ATOM     36  O   UNL A   1      41.808  20.249  26.701  1.00  0.00    -0.269 OA
BRANCH  34  37
ATOM     37  C   UNL A   1      41.317  22.515  27.081  1.00  0.00     0.039 A 
ATOM     38  C   UNL A   1      41.324  23.535  26.123  1.00  0.00     0.014 A 
ATOM     39  C   UNL A   1      41.704  22.804  28.393  1.00  0.00     0.014 A 
ATOM     40  C   UNL A   1      41.667  24.840  26.490  1.00  0.00     0.010 A 
ATOM     41  C   UNL A   1      41.961  24.121  28.776  1.00  0.00     0.010 A 
ATOM     42  C   UNL A   1      41.962  25.153  27.825  1.00  0.00    -0.014 A 
BRANCH  42  43
ATOM     43  C   UNL A   1      42.303  26.546  28.224  1.00  0.00     0.031 A 
ATOM     44  C   UNL A   1      43.727  27.032  28.153  1.00  0.00     0.074 A 
ATOM     45  C   UNL A   1      41.334  27.364  28.680  1.00  0.00     0.049 A 
ATOM     46  N   UNL A   1      44.222  28.202  28.473  1.00  0.00    -0.248 NA
ATOM     47  C   UNL A   1      44.733  26.065  27.690  1.00  0.00     0.031 C 
ATOM     48  C   UNL A   1      39.925  26.996  28.846  1.00  0.00     0.029 A 
ATOM     49  N   UNL A   1      41.381  28.675  29.087  1.00  0.00    -0.354 N 
ATOM     50  C   UNL A   1      45.594  28.107  28.264  1.00  0.00     0.074 A 
ATOM     51  C   UNL A   1      45.859  26.742  27.855  1.00  0.00     0.031 C 
ATOM     52  C   UNL A   1      39.240  28.064  29.285  1.00  0.00     0.029 A 
ATOM     53  C   UNL A   1      40.159  29.181  29.470  1.00  0.00     0.049 A 
ATOM     54  H   UNL A   1      42.212  29.203  29.103  1.00  0.00     0.167 HD
ATOM     55  C   UNL A   1      46.543  29.071  28.373  1.00  0.00     0.034 A 
ATOM     56  C   UNL A   1      39.819  30.405  29.918  1.00  0.00     0.034 A 
ATOM     57  C   UNL A   1      46.261  30.431  28.764  1.00  0.00     0.049 A 
ATOM     58  C   UNL A   1      40.888  31.463  30.023  1.00  0.00     0.074 A 
ATOM     59  C   UNL A   1      47.134  31.502  28.856  1.00  0.00     0.029 A 
ATOM     60  N   UNL A   1      45.010  30.911  29.132  1.00  0.00    -0.354 N 
ATOM     61  N   UNL A   1      42.173  31.371  29.762  1.00  0.00    -0.248 NA
ATOM     62  C   UNL A   1      40.456  32.795  30.462  1.00  0.00     0.031 C 
ATOM     63  C   UNL A   1      46.426  32.608  29.339  1.00  0.00     0.029 A 
ATOM     64  C   UNL A   1      45.094  32.253  29.475  1.00  0.00     0.049 A 
ATOM     65  H   UNL A   1      44.183  30.376  29.146  1.00  0.00     0.167 HD
ATOM     66  C   UNL A   1      42.695  32.644  29.982  1.00  0.00     0.074 A 
ATOM     67  C   UNL A   1      41.580  33.486  30.365  1.00  0.00     0.031 C 
ATOM     68  C   UNL A   1      43.977  33.078  29.875  1.00  0.00     0.034 A 
BRANCH  55  69
ATOM     69  C   UNL A   1      47.973  28.674  28.085  1.00  0.00     0.023 A 
ATOM     70  C   UNL A   1      48.493  28.676  26.779  1.00  0.00     0.031 A 
ATOM     71  C   UNL A   1      48.822  28.258  29.127  1.00  0.00     0.131 A 
ATOM     72  C   UNL A   1      49.788  28.193  26.536  1.00  0.00     0.055 A 
ATOM     73  C   UNL A   1      50.141  27.860  28.889  1.00  0.00     0.041 A 
ATOM     74  F   UNL A   1      48.380  28.215  30.394  1.00  0.00    -0.206 F 
ATOM     75  C   UNL A   1      50.626  27.810  27.586  1.00  0.00     0.022 A 
BRANCH  72  76
ATOM     76  S   UNL A   1      50.307  27.930  24.818  1.00  0.00     0.124 S 
ATOM     77  O   UNL A   1      49.023  27.929  24.121  1.00  0.00    -0.237 OA
ATOM     78  O   UNL A   1      51.169  29.079  24.569  1.00  0.00    -0.237 OA
ATOM     79  O   UNL A   1      50.987  26.636  24.859  1.00  0.00    -0.744 OA
ENDBRANCH  72  76
ENDBRANCH  55  69
BRANCH  56  80
ATOM     80  C   UNL A   1      38.410  30.709  30.298  1.00  0.00     0.023 A 
ATOM     81  C   UNL A   1      37.597  31.513  29.485  1.00  0.00     0.031 A 
ATOM     82  C   UNL A   1      37.870  30.237  31.508  1.00  0.00     0.131 A 
ATOM     83  C   UNL A   1      36.308  31.867  29.913  1.00  0.00     0.055 A 
ATOM     84  C   UNL A   1      36.568  30.547  31.905  1.00  0.00     0.041 A 
ATOM     85  F   UNL A   1      38.601  29.456  32.320  1.00  0.00    -0.206 F 
ATOM     86  C   UNL A   1      35.784  31.380  31.113  1.00  0.00     0.022 A 
BRANCH  83  87
ATOM     87  S   UNL A   1      35.355  33.048  28.918  1.00  0.00     0.124 S 
ATOM     88  O   UNL A   1      34.070  33.048  29.606  1.00  0.00    -0.237 OA
ATOM     89  O   UNL A   1      36.153  34.263  29.048  1.00  0.00    -0.237 OA
ATOM     90  O   UNL A   1      35.352  32.446  27.587  1.00  0.00    -0.744 OA
ENDBRANCH  83  87
ENDBRANCH  56  80
BRANCH  68  91
ATOM     91  C   UNL A   1      44.223  34.544  30.148  1.00  0.00     0.023 A 
ATOM     92  C   UNL A   1      44.087  35.515  29.141  1.00  0.00     0.031 A 
ATOM     93  C   UNL A   1      44.643  34.968  31.421  1.00  0.00     0.131 A 
ATOM     94  C   UNL A   1      44.443  36.846  29.400  1.00  0.00     0.055 A 
ATOM     95  C   UNL A   1      44.928  36.308  31.692  1.00  0.00     0.041 A 
ATOM     96  F   UNL A   1      44.792  34.086  32.422  1.00  0.00    -0.206 F 
ATOM     97  C   UNL A   1      44.847  37.253  30.673  1.00  0.00     0.022 A 
BRANCH  94  98
ATOM     98  S   UNL A   1      44.495  38.017  28.014  1.00  0.00     0.124 S 
ATOM     99  O   UNL A   1      43.345  37.598  27.219  1.00  0.00    -0.237 OA
ATOM    100  O   UNL A   1      44.368  39.304  28.690  1.00  0.00    -0.237 OA
ATOM    101  O   UNL A   1      45.797  37.765  27.402  1.00  0.00    -0.744 OA
ENDBRANCH  94  98
ENDBRANCH  68  91
ENDBRANCH  42  43
ENDBRANCH  34  37
ENDBRANCH  32  33
ENDBRANCH  31  32
ENDBRANCH  30  31
ENDBRANCH   3  30
TORSDOF 20
ENDMDL
