MODEL 1
REMARK VINA RESULT:     -12.6      0.000      0.000
REMARK SMILES O=C(NCCCNC(=O)[C@@H]1[C@@H](C(=O)NCCCn2ccnc2)[C@@H]2C=C[C@H]1C2)c1ccc(-c2c3nc(c(-c4cc(S(=O)(=O)[O-])ccc4F)c4ccc([nH]4)c(-c4cc(S(=O)(=O)[O-])ccc4F)c4nc(c(-c5cc(S(=O)(=O)[O-])ccc5F)c5ccc2[nH]5)C=C4)C=C3)cc1
REMARK SMILES IDX 6 1 5 2 4 3 3 4 1 5 2 6 28 8 29 9 90 10 30 11 89 12 31 13
REMARK SMILES IDX 32 14 33 15 83 16 34 17 88 18 82 19 84 20 35 21 87 22 81 23
REMARK SMILES IDX 80 24 36 26 68 27 48 28 67 29 49 30 52 31 66 32 85 33 50 34
REMARK SMILES IDX 51 35 65 37 86 38 53 39 37 40 38 41 46 42 39 43 45 44 47 45
REMARK SMILES IDX 44 46 40 47 41 48 42 49 43 50 69 51 70 52 78 53 71 54 77 55
REMARK SMILES IDX 79 56 76 57 72 58 73 59 74 60 75 61 54 62 55 63 63 64 56 65
REMARK SMILES IDX 62 66 64 67 61 68 57 69 58 70 59 71 60 72 7 73 8 74 9 76
REMARK SMILES IDX 10 77 11 78 26 79 23 80 25 81 27 82 24 83 12 84 13 85 14 86
REMARK SMILES IDX 15 88 16 89 17 90 18 91 19 92 22 93 20 94 21 95
REMARK H PARENT 3 7 84 25 52 36 7 75 14 87
REMARK Flexibility Score: inf
ROOT
ATOM      1  C   UNL A   1      33.823  28.638  25.542  1.00  0.00     0.117 C 
ENDROOT
BRANCH   1   2
ATOM      2  C   UNL A   1      32.954  29.834  25.949  1.00  0.00     0.042 C 
BRANCH   2   3
ATOM      3  C   UNL A   1      33.061  30.276  27.398  1.00  0.00     0.118 C 
BRANCH   3   4
ATOM      4  N   UNL A   1      33.719  31.549  27.562  1.00  0.00    -0.352 N 
ATOM      5  O   UNL A   1      35.125  33.204  27.805  1.00  0.00    -0.269 OA
ATOM      6  C   UNL A   1      34.991  31.975  27.817  1.00  0.00     0.251 C 
ATOM      7  H   UNL A   1      33.093  32.303  27.466  1.00  0.00     0.163 HD
BRANCH   6   8
ATOM      8  C   UNL A   1      36.185  31.129  28.126  1.00  0.00     0.039 A 
ATOM      9  C   UNL A   1      36.374  29.775  27.834  1.00  0.00     0.014 A 
ATOM     10  C   UNL A   1      37.222  31.807  28.798  1.00  0.00     0.014 A 
ATOM     11  C   UNL A   1      37.550  29.120  28.244  1.00  0.00     0.010 A 
ATOM     12  C   UNL A   1      38.386  31.162  29.206  1.00  0.00     0.010 A 
ATOM     13  C   UNL A   1      38.549  29.806  28.954  1.00  0.00    -0.014 A 
BRANCH  13  14
ATOM     14  C   UNL A   1      39.836  29.157  29.258  1.00  0.00     0.031 A 
ATOM     15  C   UNL A   1      40.145  29.058  30.719  1.00  0.00     0.074 A 
ATOM     16  C   UNL A   1      40.597  28.490  28.358  1.00  0.00     0.049 A 
ATOM     17  N   UNL A   1      41.151  29.555  31.362  1.00  0.00    -0.248 NA
ATOM     18  C   UNL A   1      39.152  28.415  31.596  1.00  0.00     0.031 C 
ATOM     19  C   UNL A   1      40.301  28.232  26.946  1.00  0.00     0.029 A 
ATOM     20  N   UNL A   1      41.770  27.805  28.540  1.00  0.00    -0.354 N 
ATOM     21  C   UNL A   1      41.033  29.121  32.683  1.00  0.00     0.074 A 
ATOM     22  C   UNL A   1      39.713  28.562  32.797  1.00  0.00     0.031 C 
ATOM     23  C   UNL A   1      41.136  27.278  26.470  1.00  0.00     0.029 A 
ATOM     24  C   UNL A   1      42.120  26.951  27.491  1.00  0.00     0.049 A 
ATOM     25  H   UNL A   1      42.322  27.907  29.349  1.00  0.00     0.167 HD
ATOM     26  C   UNL A   1      42.105  29.088  33.525  1.00  0.00     0.034 A 
ATOM     27  C   UNL A   1      43.118  26.019  27.461  1.00  0.00     0.034 A 
ATOM     28  C   UNL A   1      43.182  29.908  33.023  1.00  0.00     0.049 A 
ATOM     29  C   UNL A   1      44.096  26.411  28.503  1.00  0.00     0.074 A 
ATOM     30  C   UNL A   1      43.320  31.249  32.724  1.00  0.00     0.029 A 
ATOM     31  N   UNL A   1      44.238  29.283  32.400  1.00  0.00    -0.354 N 
ATOM     32  N   UNL A   1      44.801  27.508  28.447  1.00  0.00    -0.248 NA
ATOM     33  C   UNL A   1      43.939  25.839  29.831  1.00  0.00     0.031 C 
ATOM     34  C   UNL A   1      44.100  31.274  31.532  1.00  0.00     0.029 A 
ATOM     35  C   UNL A   1      44.464  29.961  31.228  1.00  0.00     0.049 A 
ATOM     36  H   UNL A   1      44.736  28.501  32.730  1.00  0.00     0.167 HD
ATOM     37  C   UNL A   1      44.795  27.998  29.742  1.00  0.00     0.074 A 
ATOM     38  C   UNL A   1      44.322  26.886  30.567  1.00  0.00     0.031 C 
ATOM     39  C   UNL A   1      44.908  29.335  29.999  1.00  0.00     0.034 A 
BRANCH  26  40
ATOM     40  C   UNL A   1      42.334  28.068  34.623  1.00  0.00     0.023 A 
ATOM     41  C   UNL A   1      43.091  26.922  34.297  1.00  0.00     0.031 A 
ATOM     42  C   UNL A   1      41.619  28.000  35.839  1.00  0.00     0.131 A 
ATOM     43  C   UNL A   1      43.024  25.758  35.083  1.00  0.00     0.055 A 
ATOM     44  C   UNL A   1      41.609  26.863  36.653  1.00  0.00     0.041 A 
ATOM     45  F   UNL A   1      40.820  28.986  36.263  1.00  0.00    -0.206 F 
ATOM     46  C   UNL A   1      42.284  25.720  36.260  1.00  0.00     0.022 A 
BRANCH  43  47
ATOM     47  S   UNL A   1      43.763  24.235  34.434  1.00  0.00     0.124 S 
ATOM     48  O   UNL A   1      42.720  23.256  34.720  1.00  0.00    -0.237 OA
ATOM     49  O   UNL A   1      43.962  24.572  33.028  1.00  0.00    -0.237 OA
ATOM     50  O   UNL A   1      44.986  24.090  35.220  1.00  0.00    -0.744 OA
ENDBRANCH  43  47
ENDBRANCH  26  40
BRANCH  27  51
ATOM     51  C   UNL A   1      43.085  24.650  26.849  1.00  0.00     0.023 A 
ATOM     52  C   UNL A   1      44.051  24.168  25.930  1.00  0.00     0.031 A 
ATOM     53  C   UNL A   1      42.203  23.686  27.387  1.00  0.00     0.131 A 
ATOM     54  C   UNL A   1      44.094  22.790  25.587  1.00  0.00     0.055 A 
ATOM     55  C   UNL A   1      42.253  22.331  27.050  1.00  0.00     0.041 A 
ATOM     56  F   UNL A   1      41.310  24.018  28.333  1.00  0.00    -0.206 F 
ATOM     57  C   UNL A   1      43.204  21.874  26.154  1.00  0.00     0.022 A 
BRANCH  54  58
ATOM     58  S   UNL A   1      45.359  22.134  24.440  1.00  0.00     0.124 S 
ATOM     59  O   UNL A   1      44.619  21.129  23.696  1.00  0.00    -0.237 OA
ATOM     60  O   UNL A   1      45.761  23.330  23.700  1.00  0.00    -0.237 OA
ATOM     61  O   UNL A   1      46.391  21.602  25.334  1.00  0.00    -0.744 OA
ENDBRANCH  54  58
ENDBRANCH  27  51
BRANCH  39  62
ATOM     62  C   UNL A   1      45.332  30.265  28.882  1.00  0.00     0.023 A 
ATOM     63  C   UNL A   1      46.665  30.624  28.578  1.00  0.00     0.031 A 
ATOM     64  C   UNL A   1      44.324  30.673  27.989  1.00  0.00     0.131 A 
ATOM     65  C   UNL A   1      46.942  31.362  27.407  1.00  0.00     0.055 A 
ATOM     66  C   UNL A   1      44.605  31.381  26.825  1.00  0.00     0.041 A 
ATOM     67  F   UNL A   1      43.042  30.339  28.214  1.00  0.00    -0.206 F 
ATOM     68  C   UNL A   1      45.917  31.730  26.529  1.00  0.00     0.022 A 
BRANCH  65  69
ATOM     69  S   UNL A   1      48.649  31.854  26.990  1.00  0.00     0.124 S 
ATOM     70  O   UNL A   1      49.238  30.627  26.467  1.00  0.00    -0.237 OA
ATOM     71  O   UNL A   1      48.447  32.932  26.025  1.00  0.00    -0.237 OA
ATOM     72  O   UNL A   1      49.202  32.292  28.274  1.00  0.00    -0.744 OA
ENDBRANCH  65  69
ENDBRANCH  39  62
ENDBRANCH  13  14
ENDBRANCH   6   8
ENDBRANCH   3   4
ENDBRANCH   2   3
ENDBRANCH   1   2
BRANCH   1  73
ATOM     73  N   UNL A   1      33.946  28.502  24.099  1.00  0.00    -0.356 N 
ATOM     74  C   UNL A   1      33.623  27.530  23.214  1.00  0.00     0.224 C 
ATOM     75  H   UNL A   1      34.354  29.289  23.672  1.00  0.00     0.163 HD
ATOM     76  O   UNL A   1      33.886  27.799  22.030  1.00  0.00    -0.275 OA
BRANCH  74  77
ATOM     77  C   UNL A   1      32.976  26.174  23.513  1.00  0.00     0.098 C 
ATOM     78  C   UNL A   1      32.238  26.019  24.861  1.00  0.00     0.098 C 
ATOM     79  C   UNL A   1      33.854  24.888  23.429  1.00  0.00     0.025 C 
ATOM     80  C   UNL A   1      32.692  24.617  25.336  1.00  0.00     0.025 C 
ATOM     81  C   UNL A   1      34.844  24.765  24.546  1.00  0.00    -0.027 C 
ATOM     82  C   UNL A   1      32.910  23.846  24.029  1.00  0.00     0.017 C 
ATOM     83  C   UNL A   1      34.161  24.666  25.698  1.00  0.00    -0.027 C 
BRANCH  78  84
ATOM     84  C   UNL A   1      30.717  26.215  24.863  1.00  0.00     0.224 C 
ATOM     85  O   UNL A   1      30.034  25.523  25.631  1.00  0.00    -0.275 OA
ATOM     86  N   UNL A   1      29.993  27.054  24.084  1.00  0.00    -0.356 N 
ATOM     87  H   UNL A   1      29.024  26.932  24.206  1.00  0.00     0.163 HD
BRANCH  86  88
ATOM     88  C   UNL A   1      30.299  28.090  23.114  1.00  0.00     0.117 C 
BRANCH  88  89
ATOM     89  C   UNL A   1      29.039  28.826  22.627  1.00  0.00     0.043 C 
BRANCH  89  90
ATOM     90  C   UNL A   1      28.824  30.186  23.285  1.00  0.00     0.125 C 
BRANCH  90  91
ATOM     91  N   UNL A   1      28.354  31.171  22.329  1.00  0.00    -0.337 N 
ATOM     92  C   UNL A   1      28.142  30.962  20.995  1.00  0.00     0.107 A 
ATOM     93  C   UNL A   1      28.205  32.507  22.568  1.00  0.00     0.199 A 
ATOM     94  C   UNL A   1      27.937  32.217  20.471  1.00  0.00     0.130 A 
ATOM     95  N   UNL A   1      27.967  33.168  21.459  1.00  0.00    -0.245 NA
ENDBRANCH  90  91
ENDBRANCH  89  90
ENDBRANCH  88  89
ENDBRANCH  86  88
ENDBRANCH  78  84
ENDBRANCH  74  77
ENDBRANCH   1  73
TORSDOF 18
ENDMDL
MODEL 2
REMARK VINA RESULT:     -12.5      2.181      3.865
REMARK SMILES O=C(NCCCNC(=O)[C@@H]1[C@@H](C(=O)NCCCn2ccnc2)[C@@H]2C=C[C@H]1C2)c1ccc(-c2c3nc(c(-c4cc(S(=O)(=O)[O-])ccc4F)c4ccc([nH]4)c(-c4cc(S(=O)(=O)[O-])ccc4F)c4nc(c(-c5cc(S(=O)(=O)[O-])ccc5F)c5ccc2[nH]5)C=C4)C=C3)cc1
REMARK SMILES IDX 6 1 5 2 4 3 3 4 1 5 2 6 28 8 29 9 90 10 30 11 89 12 31 13
REMARK SMILES IDX 32 14 33 15 83 16 34 17 88 18 82 19 84 20 35 21 87 22 81 23
REMARK SMILES IDX 80 24 36 26 68 27 48 28 67 29 49 30 52 31 66 32 85 33 50 34
REMARK SMILES IDX 51 35 65 37 86 38 53 39 37 40 38 41 46 42 39 43 45 44 47 45
REMARK SMILES IDX 44 46 40 47 41 48 42 49 43 50 69 51 70 52 78 53 71 54 77 55
REMARK SMILES IDX 79 56 76 57 72 58 73 59 74 60 75 61 54 62 55 63 63 64 56 65
REMARK SMILES IDX 62 66 64 67 61 68 57 69 58 70 59 71 60 72 7 73 8 74 9 76
REMARK SMILES IDX 10 77 11 78 26 79 23 80 25 81 27 82 24 83 12 84 13 85 14 86
REMARK SMILES IDX 15 88 16 89 17 90 18 91 19 92 22 93 20 94 21 95
REMARK H PARENT 3 7 84 25 52 36 7 75 14 87
REMARK Flexibility Score: inf
ROOT
ATOM      1  C   UNL A   1      33.920  28.244  26.712  1.00  0.00     0.117 C 
ENDROOT
BRANCH   1   2
ATOM      2  C   UNL A   1      33.425  29.472  27.485  1.00  0.00     0.042 C 
BRANCH   2   3
ATOM      3  C   UNL A   1      34.198  30.759  27.260  1.00  0.00     0.118 C 
BRANCH   3   4
ATOM      4  N   UNL A   1      34.315  31.572  28.446  1.00  0.00    -0.352 N 
ATOM      5  O   UNL A   1      34.967  32.675  30.215  1.00  0.00    -0.269 OA
ATOM      6  C   UNL A   1      35.284  31.827  29.373  1.00  0.00     0.251 C 
ATOM      7  H   UNL A   1      33.487  32.071  28.635  1.00  0.00     0.163 HD
BRANCH   6   8
ATOM      8  C   UNL A   1      36.628  31.180  29.480  1.00  0.00     0.039 A 
ATOM      9  C   UNL A   1      37.873  31.805  29.582  1.00  0.00     0.014 A 
ATOM     10  C   UNL A   1      36.599  29.770  29.467  1.00  0.00     0.014 A 
ATOM     11  C   UNL A   1      39.051  31.035  29.626  1.00  0.00     0.010 A 
ATOM     12  C   UNL A   1      37.761  29.005  29.509  1.00  0.00     0.010 A 
ATOM     13  C   UNL A   1      39.000  29.633  29.564  1.00  0.00    -0.014 A 
BRANCH  13  14
ATOM     14  C   UNL A   1      40.218  28.827  29.751  1.00  0.00     0.031 A 
ATOM     15  C   UNL A   1      40.605  28.620  31.183  1.00  0.00     0.074 A 
ATOM     16  C   UNL A   1      40.837  28.122  28.774  1.00  0.00     0.049 A 
ATOM     17  N   UNL A   1      41.701  28.966  31.775  1.00  0.00    -0.248 NA
ATOM     18  C   UNL A   1      39.600  28.053  32.097  1.00  0.00     0.031 C 
ATOM     19  C   UNL A   1      40.424  27.971  27.376  1.00  0.00     0.029 A 
ATOM     20  N   UNL A   1      41.930  27.299  28.847  1.00  0.00    -0.354 N 
ATOM     21  C   UNL A   1      41.616  28.483  33.082  1.00  0.00     0.074 A 
ATOM     22  C   UNL A   1      40.249  28.075  33.262  1.00  0.00     0.031 C 
ATOM     23  C   UNL A   1      41.110  26.952  26.805  1.00  0.00     0.029 A 
ATOM     24  C   UNL A   1      42.110  26.463  27.741  1.00  0.00     0.049 A 
ATOM     25  H   UNL A   1      42.540  27.296  29.620  1.00  0.00     0.167 HD
ATOM     26  C   UNL A   1      42.727  28.285  33.846  1.00  0.00     0.034 A 
ATOM     27  C   UNL A   1      42.987  25.425  27.604  1.00  0.00     0.034 A 
ATOM     28  C   UNL A   1      43.859  28.999  33.308  1.00  0.00     0.049 A 
ATOM     29  C   UNL A   1      44.069  25.650  28.592  1.00  0.00     0.074 A 
ATOM     30  C   UNL A   1      44.136  30.329  33.056  1.00  0.00     0.029 A 
ATOM     31  N   UNL A   1      44.793  28.289  32.587  1.00  0.00    -0.354 N 
ATOM     32  N   UNL A   1      44.893  26.660  28.534  1.00  0.00    -0.248 NA
ATOM     33  C   UNL A   1      43.929  25.035  29.902  1.00  0.00     0.031 C 
ATOM     34  C   UNL A   1      44.837  30.324  31.815  1.00  0.00     0.029 A 
ATOM     35  C   UNL A   1      45.023  28.994  31.432  1.00  0.00     0.049 A 
ATOM     36  H   UNL A   1      45.215  27.440  32.850  1.00  0.00     0.167 HD
ATOM     37  C   UNL A   1      45.027  27.082  29.846  1.00  0.00     0.074 A 
ATOM     38  C   UNL A   1      44.478  25.992  30.654  1.00  0.00     0.031 C 
ATOM     39  C   UNL A   1      45.313  28.383  30.151  1.00  0.00     0.034 A 
BRANCH  26  40
ATOM     40  C   UNL A   1      42.903  27.192  34.882  1.00  0.00     0.023 A 
ATOM     41  C   UNL A   1      43.657  26.059  34.509  1.00  0.00     0.031 A 
ATOM     42  C   UNL A   1      42.143  27.055  36.064  1.00  0.00     0.131 A 
ATOM     43  C   UNL A   1      43.547  24.847  35.214  1.00  0.00     0.055 A 
ATOM     44  C   UNL A   1      42.088  25.867  36.801  1.00  0.00     0.041 A 
ATOM     45  F   UNL A   1      41.340  28.022  36.523  1.00  0.00    -0.206 F 
ATOM     46  C   UNL A   1      42.764  24.742  36.358  1.00  0.00     0.022 A 
BRANCH  43  47
ATOM     47  S   UNL A   1      44.291  23.359  34.493  1.00  0.00     0.124 S 
ATOM     48  O   UNL A   1      43.232  22.903  33.600  1.00  0.00    -0.237 OA
ATOM     49  O   UNL A   1      45.485  23.900  33.853  1.00  0.00    -0.237 OA
ATOM     50  O   UNL A   1      44.538  22.507  35.654  1.00  0.00    -0.744 OA
ENDBRANCH  43  47
ENDBRANCH  26  40
BRANCH  27  51
ATOM     51  C   UNL A   1      42.755  24.101  26.939  1.00  0.00     0.023 A 
ATOM     52  C   UNL A   1      43.689  23.469  26.079  1.00  0.00     0.031 A 
ATOM     53  C   UNL A   1      41.668  23.306  27.368  1.00  0.00     0.131 A 
ATOM     54  C   UNL A   1      43.506  22.116  25.687  1.00  0.00     0.055 A 
ATOM     55  C   UNL A   1      41.497  21.974  26.983  1.00  0.00     0.041 A 
ATOM     56  F   UNL A   1      40.775  23.777  28.254  1.00  0.00    -0.206 F 
ATOM     57  C   UNL A   1      42.419  21.370  26.147  1.00  0.00     0.022 A 
BRANCH  54  58
ATOM     58  S   UNL A   1      44.721  21.264  24.619  1.00  0.00     0.124 S 
ATOM     59  O   UNL A   1      44.156  19.929  24.502  1.00  0.00    -0.237 OA
ATOM     60  O   UNL A   1      44.707  22.086  23.410  1.00  0.00    -0.237 OA
ATOM     61  O   UNL A   1      45.967  21.339  25.386  1.00  0.00    -0.744 OA
ENDBRANCH  54  58
ENDBRANCH  27  51
BRANCH  39  62
ATOM     62  C   UNL A   1      45.772  29.313  29.048  1.00  0.00     0.023 A 
ATOM     63  C   UNL A   1      44.945  30.221  28.346  1.00  0.00     0.031 A 
ATOM     64  C   UNL A   1      47.158  29.380  28.821  1.00  0.00     0.131 A 
ATOM     65  C   UNL A   1      45.524  31.155  27.460  1.00  0.00     0.055 A 
ATOM     66  C   UNL A   1      47.726  30.317  27.962  1.00  0.00     0.041 A 
ATOM     67  F   UNL A   1      47.995  28.559  29.478  1.00  0.00    -0.206 F 
ATOM     68  C   UNL A   1      46.910  31.209  27.278  1.00  0.00     0.022 A 
BRANCH  65  69
ATOM     69  S   UNL A   1      44.487  32.332  26.529  1.00  0.00     0.124 S 
ATOM     70  O   UNL A   1      45.442  33.019  25.668  1.00  0.00    -0.237 OA
ATOM     71  O   UNL A   1      43.530  31.456  25.857  1.00  0.00    -0.237 OA
ATOM     72  O   UNL A   1      43.900  33.173  27.576  1.00  0.00    -0.744 OA
ENDBRANCH  65  69
ENDBRANCH  39  62
ENDBRANCH  13  14
ENDBRANCH   6   8
ENDBRANCH   3   4
ENDBRANCH   2   3
ENDBRANCH   1   2
BRANCH   1  73
ATOM     73  N   UNL A   1      34.247  28.549  25.327  1.00  0.00    -0.356 N 
ATOM     74  C   UNL A   1      33.644  28.303  24.141  1.00  0.00     0.224 C 
ATOM     75  H   UNL A   1      35.093  29.043  25.232  1.00  0.00     0.163 HD
ATOM     76  O   UNL A   1      34.249  28.745  23.150  1.00  0.00    -0.275 OA
BRANCH  74  77
ATOM     77  C   UNL A   1      32.323  27.565  23.901  1.00  0.00     0.098 C 
ATOM     78  C   UNL A   1      31.955  27.220  22.441  1.00  0.00     0.098 C 
ATOM     79  C   UNL A   1      31.008  28.174  24.475  1.00  0.00     0.025 C 
ATOM     80  C   UNL A   1      30.446  27.567  22.382  1.00  0.00     0.025 C 
ATOM     81  C   UNL A   1      30.555  29.407  23.754  1.00  0.00    -0.027 C 
ATOM     82  C   UNL A   1      29.956  27.287  23.807  1.00  0.00     0.017 C 
ATOM     83  C   UNL A   1      30.277  29.068  22.485  1.00  0.00    -0.027 C 
BRANCH  78  84
ATOM     84  C   UNL A   1      32.289  25.811  21.939  1.00  0.00     0.224 C 
ATOM     85  O   UNL A   1      33.204  25.680  21.111  1.00  0.00    -0.275 OA
ATOM     86  N   UNL A   1      31.673  24.651  22.268  1.00  0.00    -0.356 N 
ATOM     87  H   UNL A   1      32.009  23.889  21.743  1.00  0.00     0.163 HD
BRANCH  86  88
ATOM     88  C   UNL A   1      30.639  24.257  23.207  1.00  0.00     0.117 C 
BRANCH  88  89
ATOM     89  C   UNL A   1      31.217  23.627  24.486  1.00  0.00     0.043 C 
BRANCH  89  90
ATOM     90  C   UNL A   1      32.447  22.756  24.246  1.00  0.00     0.125 C 
BRANCH  90  91
ATOM     91  N   UNL A   1      33.184  22.528  25.475  1.00  0.00    -0.337 N 
ATOM     92  C   UNL A   1      34.110  21.546  25.689  1.00  0.00     0.107 A 
ATOM     93  C   UNL A   1      32.954  23.149  26.669  1.00  0.00     0.199 A 
ATOM     94  C   UNL A   1      34.350  21.579  27.042  1.00  0.00     0.130 A 
ATOM     95  N   UNL A   1      33.636  22.586  27.640  1.00  0.00    -0.245 NA
ENDBRANCH  90  91
ENDBRANCH  89  90
ENDBRANCH  88  89
ENDBRANCH  86  88
ENDBRANCH  78  84
ENDBRANCH  74  77
ENDBRANCH   1  73
TORSDOF 18
ENDMDL
MODEL 3
REMARK VINA RESULT:     -12.5      2.741      7.218
REMARK SMILES O=C(NCCCNC(=O)[C@@H]1[C@@H](C(=O)NCCCn2ccnc2)[C@@H]2C=C[C@H]1C2)c1ccc(-c2c3nc(c(-c4cc(S(=O)(=O)[O-])ccc4F)c4ccc([nH]4)c(-c4cc(S(=O)(=O)[O-])ccc4F)c4nc(c(-c5cc(S(=O)(=O)[O-])ccc5F)c5ccc2[nH]5)C=C4)C=C3)cc1
REMARK SMILES IDX 6 1 5 2 4 3 3 4 1 5 2 6 28 8 29 9 90 10 30 11 89 12 31 13
REMARK SMILES IDX 32 14 33 15 83 16 34 17 88 18 82 19 84 20 35 21 87 22 81 23
REMARK SMILES IDX 80 24 36 26 68 27 48 28 67 29 49 30 52 31 66 32 85 33 50 34
REMARK SMILES IDX 51 35 65 37 86 38 53 39 37 40 38 41 46 42 39 43 45 44 47 45
REMARK SMILES IDX 44 46 40 47 41 48 42 49 43 50 69 51 70 52 78 53 71 54 77 55
REMARK SMILES IDX 79 56 76 57 72 58 73 59 74 60 75 61 54 62 55 63 63 64 56 65
REMARK SMILES IDX 62 66 64 67 61 68 57 69 58 70 59 71 60 72 7 73 8 74 9 76
REMARK SMILES IDX 10 77 11 78 26 79 23 80 25 81 27 82 24 83 12 84 13 85 14 86
REMARK SMILES IDX 15 88 16 89 17 90 18 91 19 92 22 93 20 94 21 95
REMARK H PARENT 3 7 84 25 52 36 7 75 14 87
REMARK Flexibility Score: inf
ROOT
ATOM      1  C   UNL A   1      33.250  30.379  26.660  1.00  0.00     0.117 C 
ENDROOT
BRANCH   1   2
ATOM      2  C   UNL A   1      34.755  30.216  26.904  1.00  0.00     0.042 C 
BRANCH   2   3
ATOM      3  C   UNL A   1      35.352  31.086  27.996  1.00  0.00     0.118 C 
BRANCH   3   4
ATOM      4  N   UNL A   1      35.417  30.430  29.280  1.00  0.00    -0.352 N 
ATOM      5  O   UNL A   1      35.997  29.407  31.121  1.00  0.00    -0.269 OA
ATOM      6  C   UNL A   1      36.364  29.750  29.991  1.00  0.00     0.251 C 
ATOM      7  H   UNL A   1      34.563  30.487  29.767  1.00  0.00     0.163 HD
BRANCH   6   8
ATOM      8  C   UNL A   1      37.738  29.371  29.539  1.00  0.00     0.039 A 
ATOM      9  C   UNL A   1      38.380  29.737  28.353  1.00  0.00     0.014 A 
ATOM     10  C   UNL A   1      38.438  28.538  30.436  1.00  0.00     0.014 A 
ATOM     11  C   UNL A   1      39.668  29.245  28.065  1.00  0.00     0.010 A 
ATOM     12  C   UNL A   1      39.710  28.050  30.155  1.00  0.00     0.010 A 
ATOM     13  C   UNL A   1      40.326  28.379  28.953  1.00  0.00    -0.014 A 
BRANCH  13  14
ATOM     14  C   UNL A   1      41.725  27.980  28.718  1.00  0.00     0.031 A 
ATOM     15  C   UNL A   1      41.879  26.688  27.979  1.00  0.00     0.074 A 
ATOM     16  C   UNL A   1      42.801  28.777  28.922  1.00  0.00     0.049 A 
ATOM     17  N   UNL A   1      42.471  25.607  28.369  1.00  0.00    -0.248 NA
ATOM     18  C   UNL A   1      41.194  26.544  26.683  1.00  0.00     0.031 C 
ATOM     19  C   UNL A   1      42.814  30.176  29.360  1.00  0.00     0.029 A 
ATOM     20  N   UNL A   1      44.127  28.534  28.683  1.00  0.00    -0.354 N 
ATOM     21  C   UNL A   1      42.416  24.714  27.297  1.00  0.00     0.074 A 
ATOM     22  C   UNL A   1      41.490  25.285  26.357  1.00  0.00     0.031 C 
ATOM     23  C   UNL A   1      44.038  30.712  29.141  1.00  0.00     0.029 A 
ATOM     24  C   UNL A   1      44.942  29.670  28.681  1.00  0.00     0.049 A 
ATOM     25  H   UNL A   1      44.480  27.627  28.524  1.00  0.00     0.167 HD
ATOM     26  C   UNL A   1      43.285  23.669  27.189  1.00  0.00     0.034 A 
ATOM     27  C   UNL A   1      46.250  29.767  28.300  1.00  0.00     0.034 A 
ATOM     28  C   UNL A   1      43.922  23.394  28.455  1.00  0.00     0.049 A 
ATOM     29  C   UNL A   1      46.821  28.402  28.390  1.00  0.00     0.074 A 
ATOM     30  C   UNL A   1      43.469  23.031  29.709  1.00  0.00     0.029 A 
ATOM     31  N   UNL A   1      45.209  23.843  28.646  1.00  0.00    -0.354 N 
ATOM     32  N   UNL A   1      46.953  27.754  29.515  1.00  0.00    -0.248 NA
ATOM     33  C   UNL A   1      46.793  27.575  27.194  1.00  0.00     0.031 C 
ATOM     34  C   UNL A   1      44.281  23.774  30.614  1.00  0.00     0.029 A 
ATOM     35  C   UNL A   1      45.232  24.471  29.867  1.00  0.00     0.049 A 
ATOM     36  H   UNL A   1      45.966  23.734  28.028  1.00  0.00     0.167 HD
ATOM     37  C   UNL A   1      46.582  26.453  29.218  1.00  0.00     0.074 A 
ATOM     38  C   UNL A   1      46.574  26.384  27.757  1.00  0.00     0.031 C 
ATOM     39  C   UNL A   1      46.047  25.630  30.169  1.00  0.00     0.034 A 
BRANCH  26  40
ATOM     40  C   UNL A   1      43.827  23.101  25.892  1.00  0.00     0.023 A 
ATOM     41  C   UNL A   1      43.821  21.698  25.745  1.00  0.00     0.031 A 
ATOM     42  C   UNL A   1      44.608  23.810  24.953  1.00  0.00     0.131 A 
ATOM     43  C   UNL A   1      44.643  21.062  24.798  1.00  0.00     0.055 A 
ATOM     44  C   UNL A   1      45.372  23.176  23.968  1.00  0.00     0.041 A 
ATOM     45  F   UNL A   1      44.752  25.139  24.988  1.00  0.00    -0.206 F 
ATOM     46  C   UNL A   1      45.423  21.794  23.907  1.00  0.00     0.022 A 
BRANCH  43  47
ATOM     47  S   UNL A   1      44.824  19.260  24.882  1.00  0.00     0.124 S 
ATOM     48  O   UNL A   1      46.073  19.124  25.623  1.00  0.00    -0.237 OA
ATOM     49  O   UNL A   1      43.609  18.869  25.590  1.00  0.00    -0.237 OA
ATOM     50  O   UNL A   1      44.884  18.860  23.479  1.00  0.00    -0.744 OA
ENDBRANCH  43  47
ENDBRANCH  26  40
BRANCH  27  51
ATOM     51  C   UNL A   1      46.911  30.877  27.538  1.00  0.00     0.023 A 
ATOM     52  C   UNL A   1      46.225  32.010  27.031  1.00  0.00     0.031 A 
ATOM     53  C   UNL A   1      48.322  30.946  27.525  1.00  0.00     0.131 A 
ATOM     54  C   UNL A   1      46.949  33.129  26.540  1.00  0.00     0.055 A 
ATOM     55  C   UNL A   1      49.028  32.052  27.045  1.00  0.00     0.041 A 
ATOM     56  F   UNL A   1      49.067  29.968  28.064  1.00  0.00    -0.206 F 
ATOM     57  C   UNL A   1      48.346  33.153  26.557  1.00  0.00     0.022 A 
BRANCH  54  58
ATOM     58  S   UNL A   1      46.090  34.622  25.925  1.00  0.00     0.124 S 
ATOM     59  O   UNL A   1      47.134  35.632  25.982  1.00  0.00    -0.237 OA
ATOM     60  O   UNL A   1      45.656  34.207  24.591  1.00  0.00    -0.237 OA
ATOM     61  O   UNL A   1      44.999  34.811  26.884  1.00  0.00    -0.744 OA
ENDBRANCH  54  58
ENDBRANCH  27  51
BRANCH  39  62
ATOM     62  C   UNL A   1      46.124  26.040  31.624  1.00  0.00     0.023 A 
ATOM     63  C   UNL A   1      45.045  26.533  32.394  1.00  0.00     0.031 A 
ATOM     64  C   UNL A   1      47.329  25.756  32.293  1.00  0.00     0.131 A 
ATOM     65  C   UNL A   1      45.203  26.718  33.785  1.00  0.00     0.055 A 
ATOM     66  C   UNL A   1      47.473  25.919  33.667  1.00  0.00     0.041 A 
ATOM     67  F   UNL A   1      48.381  25.262  31.617  1.00  0.00    -0.206 F 
ATOM     68  C   UNL A   1      46.409  26.402  34.419  1.00  0.00     0.022 A 
BRANCH  65  69
ATOM     69  S   UNL A   1      43.837  27.365  34.806  1.00  0.00     0.124 S 
ATOM     70  O   UNL A   1      42.651  27.075  34.009  1.00  0.00    -0.237 OA
ATOM     71  O   UNL A   1      43.978  26.609  36.048  1.00  0.00    -0.237 OA
ATOM     72  O   UNL A   1      44.149  28.791  34.932  1.00  0.00    -0.744 OA
ENDBRANCH  65  69
ENDBRANCH  39  62
ENDBRANCH  13  14
ENDBRANCH   6   8
ENDBRANCH   3   4
ENDBRANCH   2   3
ENDBRANCH   1   2
BRANCH   1  73
ATOM     73  N   UNL A   1      32.450  29.489  27.488  1.00  0.00    -0.356 N 
ATOM     74  C   UNL A   1      31.841  28.299  27.276  1.00  0.00     0.224 C 
ATOM     75  H   UNL A   1      32.324  29.826  28.404  1.00  0.00     0.163 HD
ATOM     76  O   UNL A   1      31.243  27.840  28.262  1.00  0.00    -0.275 OA
BRANCH  74  77
ATOM     77  C   UNL A   1      31.821  27.479  25.982  1.00  0.00     0.098 C 
ATOM     78  C   UNL A   1      31.270  26.038  26.061  1.00  0.00     0.098 C 
ATOM     79  C   UNL A   1      33.146  27.318  25.175  1.00  0.00     0.025 C 
ATOM     80  C   UNL A   1      32.280  25.242  25.198  1.00  0.00     0.025 C 
ATOM     81  C   UNL A   1      34.145  26.421  25.837  1.00  0.00    -0.027 C 
ATOM     82  C   UNL A   1      32.739  26.260  24.148  1.00  0.00     0.017 C 
ATOM     83  C   UNL A   1      33.613  25.191  25.913  1.00  0.00    -0.027 C 
BRANCH  78  84
ATOM     84  C   UNL A   1      29.805  25.817  25.667  1.00  0.00     0.224 C 
ATOM     85  O   UNL A   1      29.070  25.198  26.451  1.00  0.00    -0.275 OA
ATOM     86  N   UNL A   1      29.194  26.195  24.519  1.00  0.00    -0.356 N 
ATOM     87  H   UNL A   1      28.271  25.857  24.460  1.00  0.00     0.163 HD
BRANCH  86  88
ATOM     88  C   UNL A   1      29.567  26.978  23.356  1.00  0.00     0.117 C 
BRANCH  88  89
ATOM     89  C   UNL A   1      28.635  28.181  23.135  1.00  0.00     0.043 C 
BRANCH  89  90
ATOM     90  C   UNL A   1      29.286  29.530  23.428  1.00  0.00     0.125 C 
BRANCH  90  91
ATOM     91  N   UNL A   1      28.682  30.592  22.645  1.00  0.00    -0.337 N 
ATOM     92  C   UNL A   1      28.238  30.491  21.356  1.00  0.00     0.107 A 
ATOM     93  C   UNL A   1      28.611  31.907  23.007  1.00  0.00     0.199 A 
ATOM     94  C   UNL A   1      27.977  31.785  20.973  1.00  0.00     0.130 A 
ATOM     95  N   UNL A   1      28.201  32.656  22.009  1.00  0.00    -0.245 NA
ENDBRANCH  90  91
ENDBRANCH  89  90
ENDBRANCH  88  89
ENDBRANCH  86  88
ENDBRANCH  78  84
ENDBRANCH  74  77
ENDBRANCH   1  73
TORSDOF 18
ENDMDL
