MODEL 1
REMARK VINA RESULT:     -12.3      0.000      0.000
REMARK SMILES CCc1[nH]nc(-n2cccc2)c1C(=O)NCCCNC(=O)c1ccc(-c2c3nc(c(-c4cc(S(=O)(=O)[O-])ccc4F)c4ccc([nH]4)c(-c4cc(S(=O)(=O)[O-])ccc4F)c4nc(c(-c5cc(S(=O)(=O)[O-])ccc5F)c5ccc2[nH]5)C=C4)C=C3)cc1
REMARK SMILES IDX 18 1 17 2 16 3 15 4 13 5 14 6 12 8 3 9 4 10 5 11 6 13 2 14
REMARK SMILES IDX 1 15 7 16 8 17 11 18 9 19 10 20 19 21 20 22 21 24 22 25
REMARK SMILES IDX 23 26 84 27 24 28 83 29 25 30 26 31 27 32 77 33 28 34 82 35
REMARK SMILES IDX 76 36 78 37 29 38 81 39 75 40 74 41 30 43 62 44 42 45 61 46
REMARK SMILES IDX 43 47 46 48 60 49 79 50 44 51 45 52 59 54 80 55 47 56 31 57
REMARK SMILES IDX 32 58 40 59 33 60 39 61 41 62 38 63 34 64 35 65 36 66 37 67
REMARK SMILES IDX 63 68 64 69 72 70 65 71 71 72 73 73 70 74 66 75 67 76 68 77
REMARK SMILES IDX 69 78 48 79 49 80 57 81 50 82 56 83 58 84 55 85 51 86 52 87
REMARK SMILES IDX 53 88 54 89
REMARK H PARENT 15 7 4 12 19 23 78 42 46 53
REMARK Flexibility Score: inf
ROOT
ATOM      1  C   UNL A   1      37.725  24.057  26.192  1.00  0.00     0.118 C 
ENDROOT
BRANCH   1   2
ATOM      2  C   UNL A   1      37.008  23.288  25.097  1.00  0.00     0.042 C 
BRANCH   2   3
ATOM      3  C   UNL A   1      36.673  21.845  25.433  1.00  0.00     0.118 C 
BRANCH   3   4
ATOM      4  N   UNL A   1      35.740  21.618  26.502  1.00  0.00    -0.352 N 
ATOM      5  C   UNL A   1      34.382  21.406  26.457  1.00  0.00     0.256 C 
ATOM      6  O   UNL A   1      33.863  21.103  27.533  1.00  0.00    -0.269 OA
ATOM      7  H   UNL A   1      36.135  21.614  27.405  1.00  0.00     0.163 HD
BRANCH   5   8
ATOM      8  C   UNL A   1      33.566  21.537  25.241  1.00  0.00     0.105 A 
ATOM      9  C   UNL A   1      33.202  22.644  24.452  1.00  0.00     0.050 A 
ATOM     10  N   UNL A   1      32.513  22.127  23.385  1.00  0.00    -0.280 N 
ATOM     11  N   UNL A   1      32.530  20.803  23.302  1.00  0.00    -0.156 NA
ATOM     12  H   UNL A   1      32.041  22.694  22.731  1.00  0.00     0.190 HD
ATOM     13  C   UNL A   1      33.104  20.429  24.450  1.00  0.00     0.171 A 
BRANCH   9  14
ATOM     14  C   UNL A   1      33.441  24.125  24.523  1.00  0.00     0.053 C 
ATOM     15  C   UNL A   1      33.216  24.772  25.883  1.00  0.00     0.011 C 
ENDBRANCH   9  14
BRANCH  13  16
ATOM     16  N   UNL A   1      33.172  19.019  24.697  1.00  0.00    -0.307 N 
ATOM     17  C   UNL A   1      32.591  18.308  25.728  1.00  0.00     0.093 A 
ATOM     18  C   UNL A   1      33.800  18.098  23.872  1.00  0.00     0.093 A 
ATOM     19  C   UNL A   1      32.899  16.971  25.585  1.00  0.00     0.020 A 
ATOM     20  C   UNL A   1      33.692  16.843  24.425  1.00  0.00     0.020 A 
ENDBRANCH  13  16
ENDBRANCH   5   8
ENDBRANCH   3   4
ENDBRANCH   2   3
ENDBRANCH   1   2
BRANCH   1  21
ATOM     21  N   UNL A   1      38.923  23.402  26.692  1.00  0.00    -0.352 N 
ATOM     22  C   UNL A   1      39.966  24.001  27.378  1.00  0.00     0.251 C 
ATOM     23  H   UNL A   1      39.002  22.436  26.525  1.00  0.00     0.163 HD
ATOM     24  O   UNL A   1      41.002  23.398  27.590  1.00  0.00    -0.269 OA
BRANCH  22  25
ATOM     25  C   UNL A   1      39.805  25.414  27.781  1.00  0.00     0.039 A 
ATOM     26  C   UNL A   1      39.513  25.699  29.116  1.00  0.00     0.014 A 
ATOM     27  C   UNL A   1      40.048  26.440  26.860  1.00  0.00     0.014 A 
ATOM     28  C   UNL A   1      39.564  27.019  29.550  1.00  0.00     0.010 A 
ATOM     29  C   UNL A   1      40.148  27.751  27.302  1.00  0.00     0.010 A 
ATOM     30  C   UNL A   1      39.921  28.038  28.653  1.00  0.00    -0.014 A 
BRANCH  30  31
ATOM     31  C   UNL A   1      40.136  29.405  29.182  1.00  0.00     0.031 A 
ATOM     32  C   UNL A   1      38.828  30.061  29.660  1.00  0.00     0.074 A 
ATOM     33  C   UNL A   1      41.414  29.888  29.116  1.00  0.00     0.049 A 
ATOM     34  N   UNL A   1      38.406  31.282  29.527  1.00  0.00    -0.248 NA
ATOM     35  C   UNL A   1      37.774  29.197  30.261  1.00  0.00     0.031 C 
ATOM     36  C   UNL A   1      42.584  29.116  28.634  1.00  0.00     0.029 A 
ATOM     37  N   UNL A   1      41.998  31.097  29.425  1.00  0.00    -0.354 N 
ATOM     38  C   UNL A   1      37.159  31.388  30.195  1.00  0.00     0.074 A 
ATOM     39  C   UNL A   1      36.763  30.043  30.493  1.00  0.00     0.031 C 
ATOM     40  C   UNL A   1      43.698  29.877  28.620  1.00  0.00     0.029 A 
ATOM     41  C   UNL A   1      43.372  31.212  29.078  1.00  0.00     0.049 A 
ATOM     42  H   UNL A   1      41.500  31.831  29.853  1.00  0.00     0.167 HD
ATOM     43  C   UNL A   1      36.613  32.583  30.584  1.00  0.00     0.034 A 
ATOM     44  C   UNL A   1      44.183  32.314  29.097  1.00  0.00     0.034 A 
ATOM     45  C   UNL A   1      37.517  33.640  30.271  1.00  0.00     0.049 A 
ATOM     46  C   UNL A   1      43.346  33.400  29.631  1.00  0.00     0.074 A 
ATOM     47  C   UNL A   1      37.893  34.258  29.111  1.00  0.00     0.029 A 
ATOM     48  N   UNL A   1      38.373  34.027  31.277  1.00  0.00    -0.354 N 
ATOM     49  N   UNL A   1      42.996  33.537  30.872  1.00  0.00    -0.248 NA
ATOM     50  C   UNL A   1      42.778  34.371  28.685  1.00  0.00     0.031 C 
ATOM     51  C   UNL A   1      39.235  34.626  29.352  1.00  0.00     0.029 A 
ATOM     52  C   UNL A   1      39.568  34.342  30.684  1.00  0.00     0.049 A 
ATOM     53  H   UNL A   1      38.168  34.068  32.239  1.00  0.00     0.167 HD
ATOM     54  C   UNL A   1      41.943  34.416  30.795  1.00  0.00     0.074 A 
ATOM     55  C   UNL A   1      42.079  35.114  29.537  1.00  0.00     0.031 C 
ATOM     56  C   UNL A   1      40.786  34.137  31.446  1.00  0.00     0.034 A 
BRANCH  43  57
ATOM     57  C   UNL A   1      35.439  32.984  31.457  1.00  0.00     0.023 A 
ATOM     58  C   UNL A   1      34.546  33.949  30.910  1.00  0.00     0.031 A 
ATOM     59  C   UNL A   1      35.296  32.730  32.824  1.00  0.00     0.131 A 
ATOM     60  C   UNL A   1      33.677  34.702  31.711  1.00  0.00     0.055 A 
ATOM     61  C   UNL A   1      34.376  33.440  33.618  1.00  0.00     0.041 A 
ATOM     62  F   UNL A   1      36.084  31.855  33.463  1.00  0.00    -0.206 F 
ATOM     63  C   UNL A   1      33.589  34.454  33.073  1.00  0.00     0.022 A 
BRANCH  60  64
ATOM     64  S   UNL A   1      32.808  36.111  30.960  1.00  0.00     0.124 S 
ATOM     65  O   UNL A   1      32.588  35.651  29.593  1.00  0.00    -0.237 OA
ATOM     66  O   UNL A   1      31.617  36.217  31.797  1.00  0.00    -0.237 OA
ATOM     67  O   UNL A   1      33.760  37.211  31.097  1.00  0.00    -0.744 OA
ENDBRANCH  60  64
ENDBRANCH  43  57
BRANCH  44  68
ATOM     68  C   UNL A   1      45.573  32.699  28.623  1.00  0.00     0.023 A 
ATOM     69  C   UNL A   1      45.881  33.492  27.505  1.00  0.00     0.031 A 
ATOM     70  C   UNL A   1      46.712  32.264  29.371  1.00  0.00     0.131 A 
ATOM     71  C   UNL A   1      47.226  33.868  27.236  1.00  0.00     0.055 A 
ATOM     72  C   UNL A   1      48.019  32.697  29.149  1.00  0.00     0.041 A 
ATOM     73  F   UNL A   1      46.615  31.384  30.376  1.00  0.00    -0.206 F 
ATOM     74  C   UNL A   1      48.282  33.519  28.081  1.00  0.00     0.022 A 
BRANCH  71  75
ATOM     75  S   UNL A   1      47.661  34.851  25.771  1.00  0.00     0.124 S 
ATOM     76  O   UNL A   1      47.696  36.204  26.316  1.00  0.00    -0.237 OA
ATOM     77  O   UNL A   1      48.946  34.291  25.366  1.00  0.00    -0.237 OA
ATOM     78  O   UNL A   1      46.556  34.580  24.853  1.00  0.00    -0.744 OA
ENDBRANCH  71  75
ENDBRANCH  44  68
BRANCH  56  79
ATOM     79  C   UNL A   1      40.956  33.231  32.665  1.00  0.00     0.023 A 
ATOM     80  C   UNL A   1      40.609  31.869  32.596  1.00  0.00     0.031 A 
ATOM     81  C   UNL A   1      41.337  33.702  33.934  1.00  0.00     0.131 A 
ATOM     82  C   UNL A   1      40.623  31.058  33.749  1.00  0.00     0.055 A 
ATOM     83  C   UNL A   1      41.367  32.898  35.080  1.00  0.00     0.041 A 
ATOM     84  F   UNL A   1      41.678  34.975  34.117  1.00  0.00    -0.206 F 
ATOM     85  C   UNL A   1      41.002  31.565  34.993  1.00  0.00     0.022 A 
BRANCH  82  86
ATOM     86  S   UNL A   1      40.156  29.310  33.616  1.00  0.00     0.124 S 
ATOM     87  O   UNL A   1      40.717  28.736  34.833  1.00  0.00    -0.237 OA
ATOM     88  O   UNL A   1      38.699  29.377  33.554  1.00  0.00    -0.237 OA
ATOM     89  O   UNL A   1      40.799  28.879  32.375  1.00  0.00    -0.744 OA
ENDBRANCH  82  86
ENDBRANCH  56  79
ENDBRANCH  30  31
ENDBRANCH  22  25
ENDBRANCH   1  21
TORSDOF 15
ENDMDL
MODEL 2
REMARK VINA RESULT:     -12.2      4.908     10.497
REMARK SMILES CCc1[nH]nc(-n2cccc2)c1C(=O)NCCCNC(=O)c1ccc(-c2c3nc(c(-c4cc(S(=O)(=O)[O-])ccc4F)c4ccc([nH]4)c(-c4cc(S(=O)(=O)[O-])ccc4F)c4nc(c(-c5cc(S(=O)(=O)[O-])ccc5F)c5ccc2[nH]5)C=C4)C=C3)cc1
REMARK SMILES IDX 18 1 17 2 16 3 15 4 13 5 14 6 12 8 3 9 4 10 5 11 6 13 2 14
REMARK SMILES IDX 1 15 7 16 8 17 11 18 9 19 10 20 19 21 20 22 21 24 22 25
REMARK SMILES IDX 23 26 84 27 24 28 83 29 25 30 26 31 27 32 77 33 28 34 82 35
REMARK SMILES IDX 76 36 78 37 29 38 81 39 75 40 74 41 30 43 62 44 42 45 61 46
REMARK SMILES IDX 43 47 46 48 60 49 79 50 44 51 45 52 59 54 80 55 47 56 31 57
REMARK SMILES IDX 32 58 40 59 33 60 39 61 41 62 38 63 34 64 35 65 36 66 37 67
REMARK SMILES IDX 63 68 64 69 72 70 65 71 71 72 73 73 70 74 66 75 67 76 68 77
REMARK SMILES IDX 69 78 48 79 49 80 57 81 50 82 56 83 58 84 55 85 51 86 52 87
REMARK SMILES IDX 53 88 54 89
REMARK H PARENT 15 7 4 12 19 23 78 42 46 53
REMARK Flexibility Score: inf
ROOT
ATOM      1  C   UNL A   1      34.889  28.997  26.980  1.00  0.00     0.118 C 
ENDROOT
BRANCH   1   2
ATOM      2  C   UNL A   1      33.450  28.798  26.537  1.00  0.00     0.042 C 
BRANCH   2   3
ATOM      3  C   UNL A   1      33.040  29.581  25.302  1.00  0.00     0.118 C 
BRANCH   3   4
ATOM      4  N   UNL A   1      33.608  29.173  24.047  1.00  0.00    -0.352 N 
ATOM      5  C   UNL A   1      33.177  28.224  23.150  1.00  0.00     0.256 C 
ATOM      6  O   UNL A   1      33.798  28.188  22.086  1.00  0.00    -0.269 OA
ATOM      7  H   UNL A   1      34.433  29.647  23.790  1.00  0.00     0.163 HD
BRANCH   5   8
ATOM      8  C   UNL A   1      32.073  27.288  23.406  1.00  0.00     0.105 A 
ATOM      9  C   UNL A   1      30.684  27.372  23.193  1.00  0.00     0.050 A 
ATOM     10  N   UNL A   1      30.183  26.141  23.536  1.00  0.00    -0.280 N 
ATOM     11  N   UNL A   1      31.102  25.217  23.786  1.00  0.00    -0.156 NA
ATOM     12  H   UNL A   1      29.217  25.957  23.592  1.00  0.00     0.190 HD
ATOM     13  C   UNL A   1      32.246  25.910  23.778  1.00  0.00     0.171 A 
BRANCH   9  14
ATOM     14  C   UNL A   1      29.750  28.425  22.673  1.00  0.00     0.053 C 
ATOM     15  C   UNL A   1      29.809  29.775  23.375  1.00  0.00     0.011 C 
ENDBRANCH   9  14
BRANCH  13  16
ATOM     16  N   UNL A   1      33.431  25.183  24.124  1.00  0.00    -0.307 N 
ATOM     17  C   UNL A   1      34.104  24.244  23.368  1.00  0.00     0.093 A 
ATOM     18  C   UNL A   1      34.158  25.359  25.292  1.00  0.00     0.093 A 
ATOM     19  C   UNL A   1      35.201  23.796  24.074  1.00  0.00     0.020 A 
ATOM     20  C   UNL A   1      35.217  24.481  25.307  1.00  0.00     0.020 A 
ENDBRANCH  13  16
ENDBRANCH   5   8
ENDBRANCH   3   4
ENDBRANCH   2   3
ENDBRANCH   1   2
BRANCH   1  21
ATOM     21  N   UNL A   1      35.191  30.346  27.432  1.00  0.00    -0.352 N 
ATOM     22  C   UNL A   1      36.323  30.753  28.116  1.00  0.00     0.251 C 
ATOM     23  H   UNL A   1      34.524  31.040  27.231  1.00  0.00     0.163 HD
ATOM     24  O   UNL A   1      36.392  31.866  28.605  1.00  0.00    -0.269 OA
BRANCH  22  25
ATOM     25  C   UNL A   1      37.413  29.770  28.294  1.00  0.00     0.039 A 
ATOM     26  C   UNL A   1      38.465  29.765  27.375  1.00  0.00     0.014 A 
ATOM     27  C   UNL A   1      37.434  28.938  29.421  1.00  0.00     0.014 A 
ATOM     28  C   UNL A   1      39.590  28.994  27.644  1.00  0.00     0.010 A 
ATOM     29  C   UNL A   1      38.576  28.207  29.714  1.00  0.00     0.010 A 
ATOM     30  C   UNL A   1      39.661  28.248  28.831  1.00  0.00    -0.014 A 
BRANCH  30  31
ATOM     31  C   UNL A   1      40.938  27.578  29.172  1.00  0.00     0.031 A 
ATOM     32  C   UNL A   1      41.301  26.466  28.170  1.00  0.00     0.074 A 
ATOM     33  C   UNL A   1      41.556  27.993  30.319  1.00  0.00     0.049 A 
ATOM     34  N   UNL A   1      41.810  25.289  28.375  1.00  0.00    -0.248 NA
ATOM     35  C   UNL A   1      40.919  26.639  26.742  1.00  0.00     0.031 C 
ATOM     36  C   UNL A   1      41.079  29.102  31.180  1.00  0.00     0.029 A 
ATOM     37  N   UNL A   1      42.682  27.588  31.001  1.00  0.00    -0.354 N 
ATOM     38  C   UNL A   1      42.002  24.672  27.112  1.00  0.00     0.074 A 
ATOM     39  C   UNL A   1      41.301  25.492  26.168  1.00  0.00     0.031 C 
ATOM     40  C   UNL A   1      41.853  29.235  32.277  1.00  0.00     0.029 A 
ATOM     41  C   UNL A   1      42.898  28.232  32.250  1.00  0.00     0.049 A 
ATOM     42  H   UNL A   1      43.293  26.900  30.650  1.00  0.00     0.167 HD
ATOM     43  C   UNL A   1      42.847  23.611  26.914  1.00  0.00     0.034 A 
ATOM     44  C   UNL A   1      43.812  27.945  33.228  1.00  0.00     0.034 A 
ATOM     45  C   UNL A   1      43.514  23.304  28.135  1.00  0.00     0.049 A 
ATOM     46  C   UNL A   1      44.614  26.834  32.693  1.00  0.00     0.074 A 
ATOM     47  C   UNL A   1      43.132  22.703  29.303  1.00  0.00     0.029 A 
ATOM     48  N   UNL A   1      44.747  23.887  28.319  1.00  0.00    -0.354 N 
ATOM     49  N   UNL A   1      45.516  26.936  31.768  1.00  0.00    -0.248 NA
ATOM     50  C   UNL A   1      44.324  25.474  33.171  1.00  0.00     0.031 C 
ATOM     51  C   UNL A   1      43.928  23.343  30.279  1.00  0.00     0.029 A 
ATOM     52  C   UNL A   1      44.848  24.195  29.651  1.00  0.00     0.049 A 
ATOM     53  H   UNL A   1      45.427  24.053  27.627  1.00  0.00     0.167 HD
ATOM     54  C   UNL A   1      45.675  25.635  31.355  1.00  0.00     0.074 A 
ATOM     55  C   UNL A   1      45.197  24.798  32.431  1.00  0.00     0.031 C 
ATOM     56  C   UNL A   1      45.650  25.343  30.030  1.00  0.00     0.034 A 
BRANCH  43  57
ATOM     57  C   UNL A   1      43.390  22.896  25.690  1.00  0.00     0.023 A 
ATOM     58  C   UNL A   1      43.448  21.475  25.764  1.00  0.00     0.031 A 
ATOM     59  C   UNL A   1      44.093  23.479  24.632  1.00  0.00     0.131 A 
ATOM     60  C   UNL A   1      44.269  20.716  24.920  1.00  0.00     0.055 A 
ATOM     61  C   UNL A   1      44.866  22.711  23.742  1.00  0.00     0.041 A 
ATOM     62  F   UNL A   1      44.130  24.807  24.460  1.00  0.00    -0.206 F 
ATOM     63  C   UNL A   1      44.987  21.330  23.904  1.00  0.00     0.022 A 
BRANCH  60  64
ATOM     64  S   UNL A   1      44.504  18.952  25.295  1.00  0.00     0.124 S 
ATOM     65  O   UNL A   1      43.447  18.697  26.268  1.00  0.00    -0.237 OA
ATOM     66  O   UNL A   1      44.328  18.335  23.984  1.00  0.00    -0.237 OA
ATOM     67  O   UNL A   1      45.864  18.896  25.828  1.00  0.00    -0.744 OA
ENDBRANCH  60  64
ENDBRANCH  43  57
BRANCH  44  68
ATOM     68  C   UNL A   1      44.100  28.363  34.658  1.00  0.00     0.023 A 
ATOM     69  C   UNL A   1      44.200  27.510  35.770  1.00  0.00     0.031 A 
ATOM     70  C   UNL A   1      44.332  29.745  34.951  1.00  0.00     0.131 A 
ATOM     71  C   UNL A   1      44.584  28.022  37.040  1.00  0.00     0.055 A 
ATOM     72  C   UNL A   1      44.782  30.231  36.177  1.00  0.00     0.041 A 
ATOM     73  F   UNL A   1      44.133  30.711  34.045  1.00  0.00    -0.206 F 
ATOM     74  C   UNL A   1      44.926  29.363  37.232  1.00  0.00     0.022 A 
BRANCH  71  75
ATOM     75  S   UNL A   1      44.674  26.954  38.507  1.00  0.00     0.124 S 
ATOM     76  O   UNL A   1      44.990  27.913  39.560  1.00  0.00    -0.237 OA
ATOM     77  O   UNL A   1      43.345  26.356  38.563  1.00  0.00    -0.237 OA
ATOM     78  O   UNL A   1      45.751  26.023  38.170  1.00  0.00    -0.744 OA
ENDBRANCH  71  75
ENDBRANCH  44  68
BRANCH  56  79
ATOM     79  C   UNL A   1      46.065  26.503  29.125  1.00  0.00     0.023 A 
ATOM     80  C   UNL A   1      45.091  27.321  28.522  1.00  0.00     0.031 A 
ATOM     81  C   UNL A   1      47.395  26.751  28.741  1.00  0.00     0.131 A 
ATOM     82  C   UNL A   1      45.453  28.300  27.574  1.00  0.00     0.055 A 
ATOM     83  C   UNL A   1      47.761  27.731  27.812  1.00  0.00     0.041 A 
ATOM     84  F   UNL A   1      48.396  26.033  29.243  1.00  0.00    -0.206 F 
ATOM     85  C   UNL A   1      46.785  28.511  27.215  1.00  0.00     0.022 A 
BRANCH  82  86
ATOM     86  S   UNL A   1      44.163  29.323  26.812  1.00  0.00     0.124 S 
ATOM     87  O   UNL A   1      43.647  28.456  25.760  1.00  0.00    -0.237 OA
ATOM     88  O   UNL A   1      43.260  29.577  27.931  1.00  0.00    -0.237 OA
ATOM     89  O   UNL A   1      44.895  30.499  26.341  1.00  0.00    -0.744 OA
ENDBRANCH  82  86
ENDBRANCH  56  79
ENDBRANCH  30  31
ENDBRANCH  22  25
ENDBRANCH   1  21
TORSDOF 15
ENDMDL
MODEL 3
REMARK VINA RESULT:     -12.1      5.152      9.135
REMARK SMILES CCc1[nH]nc(-n2cccc2)c1C(=O)NCCCNC(=O)c1ccc(-c2c3nc(c(-c4cc(S(=O)(=O)[O-])ccc4F)c4ccc([nH]4)c(-c4cc(S(=O)(=O)[O-])ccc4F)c4nc(c(-c5cc(S(=O)(=O)[O-])ccc5F)c5ccc2[nH]5)C=C4)C=C3)cc1
REMARK SMILES IDX 18 1 17 2 16 3 15 4 13 5 14 6 12 8 3 9 4 10 5 11 6 13 2 14
REMARK SMILES IDX 1 15 7 16 8 17 11 18 9 19 10 20 19 21 20 22 21 24 22 25
REMARK SMILES IDX 23 26 84 27 24 28 83 29 25 30 26 31 27 32 77 33 28 34 82 35
REMARK SMILES IDX 76 36 78 37 29 38 81 39 75 40 74 41 30 43 62 44 42 45 61 46
REMARK SMILES IDX 43 47 46 48 60 49 79 50 44 51 45 52 59 54 80 55 47 56 31 57
REMARK SMILES IDX 32 58 40 59 33 60 39 61 41 62 38 63 34 64 35 65 36 66 37 67
REMARK SMILES IDX 63 68 64 69 72 70 65 71 71 72 73 73 70 74 66 75 67 76 68 77
REMARK SMILES IDX 69 78 48 79 49 80 57 81 50 82 56 83 58 84 55 85 51 86 52 87
REMARK SMILES IDX 53 88 54 89
REMARK H PARENT 15 7 4 12 19 23 78 42 46 53
REMARK Flexibility Score: inf
ROOT
ATOM      1  C   UNL A   1      33.588  28.855  27.246  1.00  0.00     0.118 C 
ENDROOT
BRANCH   1   2
ATOM      2  C   UNL A   1      32.221  28.423  26.749  1.00  0.00     0.042 C 
BRANCH   2   3
ATOM      3  C   UNL A   1      31.561  29.373  25.763  1.00  0.00     0.118 C 
BRANCH   3   4
ATOM      4  N   UNL A   1      32.014  29.324  24.401  1.00  0.00    -0.352 N 
ATOM      5  C   UNL A   1      31.339  28.958  23.259  1.00  0.00     0.256 C 
ATOM      6  O   UNL A   1      31.949  29.148  22.206  1.00  0.00    -0.269 OA
ATOM      7  H   UNL A   1      32.951  29.595  24.263  1.00  0.00     0.163 HD
BRANCH   5   8
ATOM      8  C   UNL A   1      29.994  28.363  23.251  1.00  0.00     0.105 A 
ATOM      9  C   UNL A   1      29.504  27.110  23.663  1.00  0.00     0.050 A 
ATOM     10  N   UNL A   1      28.142  27.175  23.503  1.00  0.00    -0.280 N 
ATOM     11  N   UNL A   1      27.677  28.379  23.194  1.00  0.00    -0.156 NA
ATOM     12  H   UNL A   1      27.557  26.390  23.609  1.00  0.00     0.190 HD
ATOM     13  C   UNL A   1      28.787  29.091  22.973  1.00  0.00     0.171 A 
BRANCH   9  14
ATOM     14  C   UNL A   1      30.117  25.862  24.230  1.00  0.00     0.053 C 
ATOM     15  C   UNL A   1      29.905  25.634  25.721  1.00  0.00     0.011 C 
ENDBRANCH   9  14
BRANCH  13  16
ATOM     16  N   UNL A   1      28.597  30.435  22.512  1.00  0.00    -0.307 N 
ATOM     17  C   UNL A   1      28.225  30.857  21.252  1.00  0.00     0.093 A 
ATOM     18  C   UNL A   1      28.696  31.568  23.307  1.00  0.00     0.093 A 
ATOM     19  C   UNL A   1      28.149  32.234  21.240  1.00  0.00     0.020 A 
ATOM     20  C   UNL A   1      28.478  32.686  22.535  1.00  0.00     0.020 A 
ENDBRANCH  13  16
ENDBRANCH   5   8
ENDBRANCH   3   4
ENDBRANCH   2   3
ENDBRANCH   1   2
BRANCH   1  21
ATOM     21  N   UNL A   1      33.649  30.237  27.695  1.00  0.00    -0.352 N 
ATOM     22  C   UNL A   1      34.715  30.854  28.327  1.00  0.00     0.251 C 
ATOM     23  H   UNL A   1      32.852  30.790  27.534  1.00  0.00     0.163 HD
ATOM     24  O   UNL A   1      34.594  31.959  28.822  1.00  0.00    -0.269 OA
BRANCH  22  25
ATOM     25  C   UNL A   1      35.980  30.098  28.441  1.00  0.00     0.039 A 
ATOM     26  C   UNL A   1      36.880  30.134  27.374  1.00  0.00     0.014 A 
ATOM     27  C   UNL A   1      36.307  29.450  29.639  1.00  0.00     0.014 A 
ATOM     28  C   UNL A   1      38.153  29.604  27.547  1.00  0.00     0.010 A 
ATOM     29  C   UNL A   1      37.593  28.965  29.830  1.00  0.00     0.010 A 
ATOM     30  C   UNL A   1      38.522  29.057  28.787  1.00  0.00    -0.014 A 
BRANCH  30  31
ATOM     31  C   UNL A   1      39.933  28.659  28.995  1.00  0.00     0.031 A 
ATOM     32  C   UNL A   1      40.810  29.836  29.463  1.00  0.00     0.074 A 
ATOM     33  C   UNL A   1      40.251  27.363  28.697  1.00  0.00     0.049 A 
ATOM     34  N   UNL A   1      42.020  30.163  29.126  1.00  0.00    -0.248 NA
ATOM     35  C   UNL A   1      40.202  30.876  30.337  1.00  0.00     0.031 C 
ATOM     36  C   UNL A   1      39.275  26.334  28.263  1.00  0.00     0.029 A 
ATOM     37  N   UNL A   1      41.425  26.642  28.685  1.00  0.00    -0.354 N 
ATOM     38  C   UNL A   1      42.391  31.303  29.885  1.00  0.00     0.074 A 
ATOM     39  C   UNL A   1      41.182  31.773  30.496  1.00  0.00     0.031 C 
ATOM     40  C   UNL A   1      39.891  25.169  27.975  1.00  0.00     0.029 A 
ATOM     41  C   UNL A   1      41.318  25.319  28.179  1.00  0.00     0.049 A 
ATOM     42  H   UNL A   1      42.278  27.018  29.003  1.00  0.00     0.167 HD
ATOM     43  C   UNL A   1      43.692  31.690  30.075  1.00  0.00     0.034 A 
ATOM     44  C   UNL A   1      42.306  24.419  27.884  1.00  0.00     0.034 A 
ATOM     45  C   UNL A   1      44.562  30.745  29.456  1.00  0.00     0.049 A 
ATOM     46  C   UNL A   1      43.561  25.085  28.267  1.00  0.00     0.074 A 
ATOM     47  C   UNL A   1      44.896  30.466  28.160  1.00  0.00     0.029 A 
ATOM     48  N   UNL A   1      45.040  29.738  30.264  1.00  0.00    -0.354 N 
ATOM     49  N   UNL A   1      43.975  25.263  29.483  1.00  0.00    -0.248 NA
ATOM     50  C   UNL A   1      44.385  25.682  27.206  1.00  0.00     0.031 C 
ATOM     51  C   UNL A   1      45.154  29.078  28.176  1.00  0.00     0.029 A 
ATOM     52  C   UNL A   1      45.101  28.605  29.496  1.00  0.00     0.049 A 
ATOM     53  H   UNL A   1      45.291  29.817  31.213  1.00  0.00     0.167 HD
ATOM     54  C   UNL A   1      44.933  26.237  29.338  1.00  0.00     0.074 A 
ATOM     55  C   UNL A   1      45.353  26.201  27.955  1.00  0.00     0.031 C 
ATOM     56  C   UNL A   1      44.915  27.324  30.150  1.00  0.00     0.034 A 
BRANCH  43  57
ATOM     57  C   UNL A   1      44.382  32.706  30.965  1.00  0.00     0.023 A 
ATOM     58  C   UNL A   1      44.181  32.555  32.367  1.00  0.00     0.031 A 
ATOM     59  C   UNL A   1      44.948  33.918  30.559  1.00  0.00     0.131 A 
ATOM     60  C   UNL A   1      44.400  33.604  33.270  1.00  0.00     0.055 A 
ATOM     61  C   UNL A   1      45.231  34.948  31.475  1.00  0.00     0.041 A 
ATOM     62  F   UNL A   1      45.175  34.190  29.267  1.00  0.00    -0.206 F 
ATOM     63  C   UNL A   1      44.924  34.810  32.829  1.00  0.00     0.022 A 
BRANCH  60  64
ATOM     64  S   UNL A   1      43.825  33.407  34.984  1.00  0.00     0.124 S 
ATOM     65  O   UNL A   1      42.596  34.192  34.993  1.00  0.00    -0.237 OA
ATOM     66  O   UNL A   1      43.659  31.960  35.087  1.00  0.00    -0.237 OA
ATOM     67  O   UNL A   1      44.920  33.962  35.776  1.00  0.00    -0.744 OA
ENDBRANCH  60  64
ENDBRANCH  43  57
BRANCH  44  68
ATOM     68  C   UNL A   1      42.436  23.072  27.196  1.00  0.00     0.023 A 
ATOM     69  C   UNL A   1      43.404  22.713  26.243  1.00  0.00     0.031 A 
ATOM     70  C   UNL A   1      41.528  22.021  27.540  1.00  0.00     0.131 A 
ATOM     71  C   UNL A   1      43.480  21.379  25.759  1.00  0.00     0.055 A 
ATOM     72  C   UNL A   1      41.652  20.697  27.122  1.00  0.00     0.041 A 
ATOM     73  F   UNL A   1      40.457  22.227  28.317  1.00  0.00    -0.206 F 
ATOM     74  C   UNL A   1      42.646  20.364  26.233  1.00  0.00     0.022 A 
BRANCH  71  75
ATOM     75  S   UNL A   1      44.688  20.896  24.491  1.00  0.00     0.124 S 
ATOM     76  O   UNL A   1      44.526  21.957  23.502  1.00  0.00    -0.237 OA
ATOM     77  O   UNL A   1      45.951  20.890  25.221  1.00  0.00    -0.237 OA
ATOM     78  O   UNL A   1      44.216  19.578  24.071  1.00  0.00    -0.744 OA
ENDBRANCH  71  75
ENDBRANCH  44  68
BRANCH  56  79
ATOM     79  C   UNL A   1      44.252  27.080  31.505  1.00  0.00     0.023 A 
ATOM     80  C   UNL A   1      43.091  27.788  31.869  1.00  0.00     0.031 A 
ATOM     81  C   UNL A   1      44.804  26.257  32.503  1.00  0.00     0.131 A 
ATOM     82  C   UNL A   1      42.554  27.681  33.168  1.00  0.00     0.055 A 
ATOM     83  C   UNL A   1      44.266  26.135  33.790  1.00  0.00     0.041 A 
ATOM     84  F   UNL A   1      45.905  25.548  32.271  1.00  0.00    -0.206 F 
ATOM     85  C   UNL A   1      43.135  26.856  34.133  1.00  0.00     0.022 A 
BRANCH  82  86
ATOM     86  S   UNL A   1      41.062  28.621  33.597  1.00  0.00     0.124 S 
ATOM     87  O   UNL A   1      40.778  28.168  34.953  1.00  0.00    -0.237 OA
ATOM     88  O   UNL A   1      41.513  30.004  33.465  1.00  0.00    -0.237 OA
ATOM     89  O   UNL A   1      40.091  28.198  32.588  1.00  0.00    -0.744 OA
ENDBRANCH  82  86
ENDBRANCH  56  79
ENDBRANCH  30  31
ENDBRANCH  22  25
ENDBRANCH   1  21
TORSDOF 15
ENDMDL
