MODEL 1
REMARK VINA RESULT:     -13.0      0.000      0.000
REMARK SMILES CCn1c(N2CCC[C@H](C(=O)NCCCNC(=O)c3ccc(-c4c5nc(c(-c6cc(S(=O)(=O)[O-])ccc6F)c6ccc([nH]6)c(-c6cc(S(=O)(=O)[O-])ccc6F)c6nc(c(-c7cc(S(=O)(=O)[O-])ccc7F)c7ccc4[nH]7)C=C6)C=C5)cc3)C2)nc2cc(C)ccc21
REMARK SMILES IDX 14 1 13 2 12 3 10 4 11 5 9 7 5 8 6 9 82 10 7 11 8 12 4 13
REMARK SMILES IDX 3 14 90 15 83 16 84 17 89 18 85 19 88 20 86 21 87 22 2 23
REMARK SMILES IDX 1 24 15 25 16 26 17 27 18 29 19 30 20 31 81 32 21 33 80 34
REMARK SMILES IDX 22 35 23 36 24 37 74 38 25 39 79 40 73 41 75 42 26 43 78 44
REMARK SMILES IDX 72 45 71 46 27 48 59 49 39 50 58 51 40 52 43 53 57 54 76 55
REMARK SMILES IDX 41 56 42 57 56 59 77 60 44 61 28 62 29 63 37 64 30 65 36 66
REMARK SMILES IDX 38 67 35 68 31 69 32 70 33 71 34 72 60 73 61 74 69 75 62 76
REMARK SMILES IDX 68 77 70 78 67 79 63 80 64 81 65 82 66 83 45 84 46 85 54 86
REMARK SMILES IDX 47 87 53 88 55 89 52 90 48 91 49 92 50 93 51 94
REMARK H PARENT 12 6 16 28 75 47 43 58
REMARK Flexibility Score: inf
ROOT
ATOM      1  C   UNL A   1      32.176  29.266  27.216  1.00  0.00     0.042 C 
ENDROOT
BRANCH   1   2
ATOM      2  C   UNL A   1      32.398  27.851  26.697  1.00  0.00     0.117 C 
BRANCH   2   3
ATOM      3  N   UNL A   1      31.307  26.927  26.912  1.00  0.00    -0.356 N 
ATOM      4  C   UNL A   1      30.737  26.071  26.021  1.00  0.00     0.224 C 
ATOM      5  O   UNL A   1      30.151  25.091  26.504  1.00  0.00    -0.275 OA
ATOM      6  H   UNL A   1      30.928  26.916  27.821  1.00  0.00     0.163 HD
BRANCH   4   7
ATOM      7  C   UNL A   1      30.736  26.257  24.494  1.00  0.00     0.098 C 
ATOM      8  N   UNL A   1      31.782  24.393  23.202  1.00  0.00    -0.341 N 
ATOM      9  C   UNL A   1      32.817  25.238  22.611  1.00  0.00     0.119 C 
ATOM     10  C   UNL A   1      30.538  24.997  23.660  1.00  0.00     0.133 C 
ATOM     11  C   UNL A   1      33.029  26.566  23.347  1.00  0.00     0.022 C 
ATOM     12  C   UNL A   1      31.774  27.217  23.917  1.00  0.00     0.017 C 
BRANCH   8  13
ATOM     13  C   UNL A   1      32.055  23.104  23.537  1.00  0.00     0.206 A 
ATOM     14  N   UNL A   1      32.903  22.762  24.583  1.00  0.00    -0.310 N 
ATOM     15  C   UNL A   1      33.153  21.407  24.491  1.00  0.00     0.070 A 
ATOM     16  N   UNL A   1      31.644  22.034  22.904  1.00  0.00    -0.213 NA
ATOM     17  C   UNL A   1      32.355  20.993  23.425  1.00  0.00     0.091 A 
ATOM     18  C   UNL A   1      33.958  20.490  25.184  1.00  0.00     0.029 A 
ATOM     19  C   UNL A   1      32.375  19.653  23.005  1.00  0.00     0.034 A 
ATOM     20  C   UNL A   1      33.965  19.154  24.751  1.00  0.00     0.006 A 
ATOM     21  C   UNL A   1      33.190  18.727  23.671  1.00  0.00    -0.049 A 
ATOM     22  C   UNL A   1      33.230  17.305  23.192  1.00  0.00     0.044 C 
BRANCH  14  23
ATOM     23  C   UNL A   1      33.320  23.724  25.584  1.00  0.00     0.122 C 
ATOM     24  C   UNL A   1      34.752  24.226  25.569  1.00  0.00     0.028 C 
ENDBRANCH  14  23
ENDBRANCH   8  13
ENDBRANCH   4   7
ENDBRANCH   2   3
ENDBRANCH   1   2
BRANCH   1  25
ATOM     25  C   UNL A   1      33.160  30.306  26.686  1.00  0.00     0.118 C 
BRANCH  25  26
ATOM     26  N   UNL A   1      33.478  31.383  27.607  1.00  0.00    -0.352 N 
ATOM     27  C   UNL A   1      34.601  31.833  28.245  1.00  0.00     0.251 C 
ATOM     28  H   UNL A   1      32.687  31.926  27.827  1.00  0.00     0.163 HD
ATOM     29  O   UNL A   1      34.489  32.939  28.785  1.00  0.00    -0.269 OA
BRANCH  27  30
ATOM     30  C   UNL A   1      35.892  31.100  28.381  1.00  0.00     0.039 A 
ATOM     31  C   UNL A   1      36.070  29.729  28.207  1.00  0.00     0.014 A 
ATOM     32  C   UNL A   1      37.003  31.871  28.783  1.00  0.00     0.014 A 
ATOM     33  C   UNL A   1      37.299  29.135  28.501  1.00  0.00     0.010 A 
ATOM     34  C   UNL A   1      38.238  31.285  29.058  1.00  0.00     0.010 A 
ATOM     35  C   UNL A   1      38.377  29.906  28.951  1.00  0.00    -0.014 A 
BRANCH  35  36
ATOM     36  C   UNL A   1      39.660  29.234  29.167  1.00  0.00     0.031 A 
ATOM     37  C   UNL A   1      39.961  28.891  30.587  1.00  0.00     0.074 A 
ATOM     38  C   UNL A   1      40.489  28.820  28.188  1.00  0.00     0.049 A 
ATOM     39  N   UNL A   1      40.925  29.332  31.328  1.00  0.00    -0.248 NA
ATOM     40  C   UNL A   1      39.002  28.037  31.299  1.00  0.00     0.031 C 
ATOM     41  C   UNL A   1      40.228  28.773  26.750  1.00  0.00     0.029 A 
ATOM     42  N   UNL A   1      41.722  28.241  28.298  1.00  0.00    -0.354 N 
ATOM     43  C   UNL A   1      40.800  28.687  32.560  1.00  0.00     0.074 A 
ATOM     44  C   UNL A   1      39.525  28.015  32.526  1.00  0.00     0.031 C 
ATOM     45  C   UNL A   1      41.159  27.993  26.156  1.00  0.00     0.029 A 
ATOM     46  C   UNL A   1      42.153  27.601  27.145  1.00  0.00     0.049 A 
ATOM     47  H   UNL A   1      42.259  28.276  29.123  1.00  0.00     0.167 HD
ATOM     48  C   UNL A   1      41.832  28.621  33.451  1.00  0.00     0.034 A 
ATOM     49  C   UNL A   1      43.196  26.742  27.025  1.00  0.00     0.034 A 
ATOM     50  C   UNL A   1      42.876  29.549  33.108  1.00  0.00     0.049 A 
ATOM     51  C   UNL A   1      44.103  26.924  28.183  1.00  0.00     0.074 A 
ATOM     52  C   UNL A   1      42.954  30.921  32.993  1.00  0.00     0.029 A 
ATOM     53  N   UNL A   1      43.994  29.053  32.484  1.00  0.00    -0.354 N 
ATOM     54  N   UNL A   1      44.875  27.958  28.357  1.00  0.00    -0.248 NA
ATOM     55  C   UNL A   1      43.845  26.131  29.376  1.00  0.00     0.031 C 
ATOM     56  C   UNL A   1      43.846  31.149  31.910  1.00  0.00     0.029 A 
ATOM     57  C   UNL A   1      44.306  29.909  31.462  1.00  0.00     0.049 A 
ATOM     58  H   UNL A   1      44.482  28.232  32.727  1.00  0.00     0.167 HD
ATOM     59  C   UNL A   1      44.793  28.219  29.715  1.00  0.00     0.074 A 
ATOM     60  C   UNL A   1      44.258  26.995  30.307  1.00  0.00     0.031 C 
ATOM     61  C   UNL A   1      44.883  29.493  30.200  1.00  0.00     0.034 A 
BRANCH  48  62
ATOM     62  C   UNL A   1      42.047  27.509  34.454  1.00  0.00     0.023 A 
ATOM     63  C   UNL A   1      42.789  26.349  34.170  1.00  0.00     0.031 A 
ATOM     64  C   UNL A   1      41.705  27.693  35.813  1.00  0.00     0.131 A 
ATOM     65  C   UNL A   1      43.176  25.454  35.177  1.00  0.00     0.055 A 
ATOM     66  C   UNL A   1      42.144  26.835  36.829  1.00  0.00     0.041 A 
ATOM     67  F   UNL A   1      40.985  28.755  36.210  1.00  0.00    -0.206 F 
ATOM     68  C   UNL A   1      42.891  25.709  36.513  1.00  0.00     0.022 A 
BRANCH  65  69
ATOM     69  S   UNL A   1      44.090  23.945  34.756  1.00  0.00     0.124 S 
ATOM     70  O   UNL A   1      43.043  23.114  34.171  1.00  0.00    -0.237 OA
ATOM     71  O   UNL A   1      45.090  24.456  33.822  1.00  0.00    -0.237 OA
ATOM     72  O   UNL A   1      44.617  23.495  36.041  1.00  0.00    -0.744 OA
ENDBRANCH  65  69
ENDBRANCH  48  62
BRANCH  49  73
ATOM     73  C   UNL A   1      43.251  25.526  26.180  1.00  0.00     0.023 A 
ATOM     74  C   UNL A   1      42.432  24.425  26.493  1.00  0.00     0.031 A 
ATOM     75  C   UNL A   1      44.293  25.311  25.261  1.00  0.00     0.131 A 
ATOM     76  C   UNL A   1      42.687  23.163  25.944  1.00  0.00     0.055 A 
ATOM     77  C   UNL A   1      44.539  24.051  24.701  1.00  0.00     0.041 A 
ATOM     78  F   UNL A   1      45.137  26.305  24.941  1.00  0.00    -0.206 F 
ATOM     79  C   UNL A   1      43.741  22.965  25.052  1.00  0.00     0.022 A 
BRANCH  76  80
ATOM     80  S   UNL A   1      41.691  21.736  26.453  1.00  0.00     0.124 S 
ATOM     81  O   UNL A   1      42.285  20.648  25.678  1.00  0.00    -0.237 OA
ATOM     82  O   UNL A   1      41.942  21.696  27.889  1.00  0.00    -0.237 OA
ATOM     83  O   UNL A   1      40.336  22.106  26.055  1.00  0.00    -0.744 OA
ENDBRANCH  76  80
ENDBRANCH  49  73
BRANCH  61  84
ATOM     84  C   UNL A   1      45.340  30.611  29.287  1.00  0.00     0.023 A 
ATOM     85  C   UNL A   1      46.646  31.101  29.480  1.00  0.00     0.031 A 
ATOM     86  C   UNL A   1      44.490  31.351  28.442  1.00  0.00     0.131 A 
ATOM     87  C   UNL A   1      47.046  32.307  28.891  1.00  0.00     0.055 A 
ATOM     88  C   UNL A   1      44.922  32.510  27.790  1.00  0.00     0.041 A 
ATOM     89  F   UNL A   1      43.196  31.038  28.294  1.00  0.00    -0.206 F 
ATOM     90  C   UNL A   1      46.197  33.006  28.030  1.00  0.00     0.022 A 
BRANCH  87  91
ATOM     91  S   UNL A   1      48.604  33.089  29.387  1.00  0.00     0.124 S 
ATOM     92  O   UNL A   1      48.216  34.493  29.510  1.00  0.00    -0.237 OA
ATOM     93  O   UNL A   1      48.903  32.412  30.650  1.00  0.00    -0.237 OA
ATOM     94  O   UNL A   1      49.518  32.786  28.297  1.00  0.00    -0.744 OA
ENDBRANCH  87  91
ENDBRANCH  61  84
ENDBRANCH  35  36
ENDBRANCH  27  30
ENDBRANCH  25  26
ENDBRANCH   1  25
TORSDOF 15
ENDMDL
MODEL 2
REMARK VINA RESULT:     -12.9      1.839      2.431
REMARK SMILES CCn1c(N2CCC[C@H](C(=O)NCCCNC(=O)c3ccc(-c4c5nc(c(-c6cc(S(=O)(=O)[O-])ccc6F)c6ccc([nH]6)c(-c6cc(S(=O)(=O)[O-])ccc6F)c6nc(c(-c7cc(S(=O)(=O)[O-])ccc7F)c7ccc4[nH]7)C=C6)C=C5)cc3)C2)nc2cc(C)ccc21
REMARK SMILES IDX 14 1 13 2 12 3 10 4 11 5 9 7 5 8 6 9 82 10 7 11 8 12 4 13
REMARK SMILES IDX 3 14 90 15 83 16 84 17 89 18 85 19 88 20 86 21 87 22 2 23
REMARK SMILES IDX 1 24 15 25 16 26 17 27 18 29 19 30 20 31 81 32 21 33 80 34
REMARK SMILES IDX 22 35 23 36 24 37 74 38 25 39 79 40 73 41 75 42 26 43 78 44
REMARK SMILES IDX 72 45 71 46 27 48 59 49 39 50 58 51 40 52 43 53 57 54 76 55
REMARK SMILES IDX 41 56 42 57 56 59 77 60 44 61 28 62 29 63 37 64 30 65 36 66
REMARK SMILES IDX 38 67 35 68 31 69 32 70 33 71 34 72 60 73 61 74 69 75 62 76
REMARK SMILES IDX 68 77 70 78 67 79 63 80 64 81 65 82 66 83 45 84 46 85 54 86
REMARK SMILES IDX 47 87 53 88 55 89 52 90 48 91 49 92 50 93 51 94
REMARK H PARENT 12 6 16 28 75 47 43 58
REMARK Flexibility Score: inf
ROOT
ATOM      1  C   UNL A   1      33.343  30.197  27.499  1.00  0.00     0.042 C 
ENDROOT
BRANCH   1   2
ATOM      2  C   UNL A   1      33.898  28.889  26.948  1.00  0.00     0.117 C 
BRANCH   2   3
ATOM      3  N   UNL A   1      33.970  28.798  25.507  1.00  0.00    -0.356 N 
ATOM      4  C   UNL A   1      32.976  28.989  24.598  1.00  0.00     0.224 C 
ATOM      5  O   UNL A   1      33.336  29.298  23.452  1.00  0.00    -0.275 OA
ATOM      6  H   UNL A   1      34.853  28.569  25.136  1.00  0.00     0.163 HD
BRANCH   4   7
ATOM      7  C   UNL A   1      31.475  28.810  24.880  1.00  0.00     0.098 C 
ATOM      8  N   UNL A   1      30.623  26.475  24.635  1.00  0.00    -0.341 N 
ATOM      9  C   UNL A   1      29.679  26.815  23.573  1.00  0.00     0.119 C 
ATOM     10  C   UNL A   1      31.065  27.510  25.560  1.00  0.00     0.133 C 
ATOM     11  C   UNL A   1      29.974  28.151  22.884  1.00  0.00     0.022 C 
ATOM     12  C   UNL A   1      30.510  29.259  23.784  1.00  0.00     0.017 C 
BRANCH   8  13
ATOM     13  C   UNL A   1      31.265  25.277  24.627  1.00  0.00     0.206 A 
ATOM     14  N   UNL A   1      32.189  24.924  23.651  1.00  0.00    -0.310 N 
ATOM     15  C   UNL A   1      32.453  23.576  23.795  1.00  0.00     0.070 A 
ATOM     16  N   UNL A   1      31.062  24.282  25.454  1.00  0.00    -0.213 NA
ATOM     17  C   UNL A   1      31.723  23.212  24.926  1.00  0.00     0.091 A 
ATOM     18  C   UNL A   1      33.222  22.629  23.101  1.00  0.00     0.029 A 
ATOM     19  C   UNL A   1      31.719  21.880  25.367  1.00  0.00     0.034 A 
ATOM     20  C   UNL A   1      33.207  21.300  23.557  1.00  0.00     0.006 A 
ATOM     21  C   UNL A   1      32.463  20.915  24.674  1.00  0.00    -0.049 A 
ATOM     22  C   UNL A   1      32.424  19.486  25.132  1.00  0.00     0.044 C 
BRANCH  14  23
ATOM     23  C   UNL A   1      32.767  25.900  22.748  1.00  0.00     0.122 C 
ATOM     24  C   UNL A   1      32.589  25.713  21.253  1.00  0.00     0.028 C 
ENDBRANCH  14  23
ENDBRANCH   8  13
ENDBRANCH   4   7
ENDBRANCH   2   3
ENDBRANCH   1   2
BRANCH   1  25
ATOM     25  C   UNL A   1      34.230  31.418  27.272  1.00  0.00     0.118 C 
BRANCH  25  26
ATOM     26  N   UNL A   1      34.389  32.291  28.421  1.00  0.00    -0.352 N 
ATOM     27  C   UNL A   1      35.389  32.575  29.311  1.00  0.00     0.251 C 
ATOM     28  H   UNL A   1      33.572  32.807  28.608  1.00  0.00     0.163 HD
ATOM     29  O   UNL A   1      35.189  33.562  30.027  1.00  0.00    -0.269 OA
BRANCH  27  30
ATOM     30  C   UNL A   1      36.638  31.787  29.515  1.00  0.00     0.039 A 
ATOM     31  C   UNL A   1      37.886  32.314  29.845  1.00  0.00     0.014 A 
ATOM     32  C   UNL A   1      36.540  30.399  29.286  1.00  0.00     0.014 A 
ATOM     33  C   UNL A   1      39.014  31.492  29.870  1.00  0.00     0.010 A 
ATOM     34  C   UNL A   1      37.660  29.570  29.330  1.00  0.00     0.010 A 
ATOM     35  C   UNL A   1      38.909  30.124  29.588  1.00  0.00    -0.014 A 
BRANCH  35  36
ATOM     36  C   UNL A   1      40.115  29.303  29.707  1.00  0.00     0.031 A 
ATOM     37  C   UNL A   1      40.427  28.837  31.088  1.00  0.00     0.074 A 
ATOM     38  C   UNL A   1      40.857  28.866  28.670  1.00  0.00     0.049 A 
ATOM     39  N   UNL A   1      41.460  29.120  31.813  1.00  0.00    -0.248 NA
ATOM     40  C   UNL A   1      39.405  28.047  31.787  1.00  0.00     0.031 C 
ATOM     41  C   UNL A   1      40.540  28.942  27.244  1.00  0.00     0.029 A 
ATOM     42  N   UNL A   1      42.021  28.150  28.691  1.00  0.00    -0.354 N 
ATOM     43  C   UNL A   1      41.308  28.412  33.008  1.00  0.00     0.074 A 
ATOM     44  C   UNL A   1      39.965  27.888  32.987  1.00  0.00     0.031 C 
ATOM     45  C   UNL A   1      41.357  28.106  26.563  1.00  0.00     0.029 A 
ATOM     46  C   UNL A   1      42.335  27.544  27.483  1.00  0.00     0.049 A 
ATOM     47  H   UNL A   1      42.587  28.071  29.492  1.00  0.00     0.167 HD
ATOM     48  C   UNL A   1      42.357  28.175  33.848  1.00  0.00     0.034 A 
ATOM     49  C   UNL A   1      43.271  26.585  27.266  1.00  0.00     0.034 A 
ATOM     50  C   UNL A   1      43.485  29.004  33.518  1.00  0.00     0.049 A 
ATOM     51  C   UNL A   1      44.233  26.591  28.393  1.00  0.00     0.074 A 
ATOM     52  C   UNL A   1      43.713  30.364  33.484  1.00  0.00     0.029 A 
ATOM     53  N   UNL A   1      44.518  28.431  32.817  1.00  0.00    -0.354 N 
ATOM     54  N   UNL A   1      45.122  27.520  28.596  1.00  0.00    -0.248 NA
ATOM     55  C   UNL A   1      43.931  25.754  29.544  1.00  0.00     0.031 C 
ATOM     56  C   UNL A   1      44.586  30.564  32.380  1.00  0.00     0.029 A 
ATOM     57  C   UNL A   1      44.887  29.313  31.837  1.00  0.00     0.049 A 
ATOM     58  H   UNL A   1      44.919  27.547  32.988  1.00  0.00     0.167 HD
ATOM     59  C   UNL A   1      45.119  27.698  29.970  1.00  0.00     0.074 A 
ATOM     60  C   UNL A   1      44.471  26.504  30.508  1.00  0.00     0.031 C 
ATOM     61  C   UNL A   1      45.369  28.920  30.528  1.00  0.00     0.034 A 
BRANCH  48  62
ATOM     62  C   UNL A   1      42.483  26.982  34.770  1.00  0.00     0.023 A 
ATOM     63  C   UNL A   1      43.262  25.853  34.467  1.00  0.00     0.031 A 
ATOM     64  C   UNL A   1      42.003  27.050  36.099  1.00  0.00     0.131 A 
ATOM     65  C   UNL A   1      43.555  24.877  35.429  1.00  0.00     0.055 A 
ATOM     66  C   UNL A   1      42.347  26.110  37.077  1.00  0.00     0.041 A 
ATOM     67  F   UNL A   1      41.235  28.073  36.508  1.00  0.00    -0.206 F 
ATOM     68  C   UNL A   1      43.134  25.017  36.746  1.00  0.00     0.022 A 
BRANCH  65  69
ATOM     69  S   UNL A   1      44.523  23.411  34.977  1.00  0.00     0.124 S 
ATOM     70  O   UNL A   1      43.545  22.622  34.237  1.00  0.00    -0.237 OA
ATOM     71  O   UNL A   1      45.597  24.000  34.181  1.00  0.00    -0.237 OA
ATOM     72  O   UNL A   1      44.938  22.864  36.266  1.00  0.00    -0.744 OA
ENDBRANCH  65  69
ENDBRANCH  48  62
BRANCH  49  73
ATOM     73  C   UNL A   1      43.158  25.428  26.346  1.00  0.00     0.023 A 
ATOM     74  C   UNL A   1      42.292  24.367  26.667  1.00  0.00     0.031 A 
ATOM     75  C   UNL A   1      44.095  25.206  25.321  1.00  0.00     0.131 A 
ATOM     76  C   UNL A   1      42.403  23.131  26.020  1.00  0.00     0.055 A 
ATOM     77  C   UNL A   1      44.195  23.974  24.663  1.00  0.00     0.041 A 
ATOM     78  F   UNL A   1      44.977  26.160  24.983  1.00  0.00    -0.206 F 
ATOM     79  C   UNL A   1      43.354  22.923  25.021  1.00  0.00     0.022 A 
BRANCH  76  80
ATOM     80  S   UNL A   1      41.354  21.744  26.532  1.00  0.00     0.124 S 
ATOM     81  O   UNL A   1      40.026  22.183  26.109  1.00  0.00    -0.237 OA
ATOM     82  O   UNL A   1      41.926  20.641  25.768  1.00  0.00    -0.237 OA
ATOM     83  O   UNL A   1      41.550  21.683  27.978  1.00  0.00    -0.744 OA
ENDBRANCH  76  80
ENDBRANCH  49  73
BRANCH  61  84
ATOM     84  C   UNL A   1      45.915  30.039  29.667  1.00  0.00     0.023 A 
ATOM     85  C   UNL A   1      45.016  30.658  28.778  1.00  0.00     0.031 A 
ATOM     86  C   UNL A   1      47.283  30.334  29.513  1.00  0.00     0.131 A 
ATOM     87  C   UNL A   1      45.489  31.487  27.753  1.00  0.00     0.055 A 
ATOM     88  C   UNL A   1      47.742  31.228  28.541  1.00  0.00     0.041 A 
ATOM     89  F   UNL A   1      48.226  29.702  30.225  1.00  0.00    -0.206 F 
ATOM     90  C   UNL A   1      46.847  31.792  27.641  1.00  0.00     0.022 A 
BRANCH  87  91
ATOM     91  S   UNL A   1      44.372  32.028  26.431  1.00  0.00     0.124 S 
ATOM     92  O   UNL A   1      45.292  32.203  25.307  1.00  0.00    -0.237 OA
ATOM     93  O   UNL A   1      43.456  30.891  26.314  1.00  0.00    -0.237 OA
ATOM     94  O   UNL A   1      43.774  33.249  26.946  1.00  0.00    -0.744 OA
ENDBRANCH  87  91
ENDBRANCH  61  84
ENDBRANCH  35  36
ENDBRANCH  27  30
ENDBRANCH  25  26
ENDBRANCH   1  25
TORSDOF 15
ENDMDL
MODEL 3
REMARK VINA RESULT:     -12.9      3.282      8.290
REMARK SMILES CCn1c(N2CCC[C@H](C(=O)NCCCNC(=O)c3ccc(-c4c5nc(c(-c6cc(S(=O)(=O)[O-])ccc6F)c6ccc([nH]6)c(-c6cc(S(=O)(=O)[O-])ccc6F)c6nc(c(-c7cc(S(=O)(=O)[O-])ccc7F)c7ccc4[nH]7)C=C6)C=C5)cc3)C2)nc2cc(C)ccc21
REMARK SMILES IDX 14 1 13 2 12 3 10 4 11 5 9 7 5 8 6 9 82 10 7 11 8 12 4 13
REMARK SMILES IDX 3 14 90 15 83 16 84 17 89 18 85 19 88 20 86 21 87 22 2 23
REMARK SMILES IDX 1 24 15 25 16 26 17 27 18 29 19 30 20 31 81 32 21 33 80 34
REMARK SMILES IDX 22 35 23 36 24 37 74 38 25 39 79 40 73 41 75 42 26 43 78 44
REMARK SMILES IDX 72 45 71 46 27 48 59 49 39 50 58 51 40 52 43 53 57 54 76 55
REMARK SMILES IDX 41 56 42 57 56 59 77 60 44 61 28 62 29 63 37 64 30 65 36 66
REMARK SMILES IDX 38 67 35 68 31 69 32 70 33 71 34 72 60 73 61 74 69 75 62 76
REMARK SMILES IDX 68 77 70 78 67 79 63 80 64 81 65 82 66 83 45 84 46 85 54 86
REMARK SMILES IDX 47 87 53 88 55 89 52 90 48 91 49 92 50 93 51 94
REMARK H PARENT 12 6 16 28 75 47 43 58
REMARK Flexibility Score: inf
ROOT
ATOM      1  C   UNL A   1      37.170  22.631  24.946  1.00  0.00     0.042 C 
ENDROOT
BRANCH   1   2
ATOM      2  C   UNL A   1      36.269  23.706  25.539  1.00  0.00     0.117 C 
BRANCH   2   3
ATOM      3  N   UNL A   1      35.438  24.419  24.594  1.00  0.00    -0.356 N 
ATOM      4  C   UNL A   1      34.312  25.142  24.837  1.00  0.00     0.224 C 
ATOM      5  O   UNL A   1      34.026  26.006  23.995  1.00  0.00    -0.275 OA
ATOM      6  H   UNL A   1      35.726  24.374  23.654  1.00  0.00     0.163 HD
BRANCH   4   7
ATOM      7  C   UNL A   1      33.371  24.936  26.036  1.00  0.00     0.098 C 
ATOM      8  N   UNL A   1      32.254  22.705  26.133  1.00  0.00    -0.341 N 
ATOM      9  C   UNL A   1      30.903  23.255  26.049  1.00  0.00     0.119 C 
ATOM     10  C   UNL A   1      33.338  23.537  26.637  1.00  0.00     0.133 C 
ATOM     11  C   UNL A   1      30.851  24.694  25.524  1.00  0.00     0.022 C 
ATOM     12  C   UNL A   1      31.998  25.600  25.956  1.00  0.00     0.017 C 
BRANCH   8  13
ATOM     13  C   UNL A   1      32.552  21.519  25.536  1.00  0.00     0.206 A 
ATOM     14  N   UNL A   1      32.320  21.277  24.188  1.00  0.00    -0.310 N 
ATOM     15  C   UNL A   1      32.496  19.924  23.972  1.00  0.00     0.070 A 
ATOM     16  N   UNL A   1      33.008  20.445  26.129  1.00  0.00    -0.213 NA
ATOM     17  C   UNL A   1      32.916  19.441  25.210  1.00  0.00     0.091 A 
ATOM     18  C   UNL A   1      32.349  19.059  22.876  1.00  0.00     0.029 A 
ATOM     19  C   UNL A   1      33.164  18.070  25.388  1.00  0.00     0.034 A 
ATOM     20  C   UNL A   1      32.602  17.692  23.072  1.00  0.00     0.006 A 
ATOM     21  C   UNL A   1      33.001  17.188  24.311  1.00  0.00    -0.049 A 
ATOM     22  C   UNL A   1      33.234  15.720  24.521  1.00  0.00     0.044 C 
BRANCH  14  23
ATOM     23  C   UNL A   1      32.032  22.344  23.250  1.00  0.00     0.122 C 
ATOM     24  C   UNL A   1      33.141  22.843  22.342  1.00  0.00     0.028 C 
ENDBRANCH  14  23
ENDBRANCH   8  13
ENDBRANCH   4   7
ENDBRANCH   2   3
ENDBRANCH   1   2
BRANCH   1  25
ATOM     25  C   UNL A   1      37.942  21.802  25.970  1.00  0.00     0.118 C 
BRANCH  25  26
ATOM     26  N   UNL A   1      39.382  21.772  25.783  1.00  0.00    -0.352 N 
ATOM     27  C   UNL A   1      40.449  22.502  26.233  1.00  0.00     0.251 C 
ATOM     28  H   UNL A   1      39.660  21.044  25.182  1.00  0.00     0.163 HD
ATOM     29  O   UNL A   1      41.557  22.004  26.007  1.00  0.00    -0.269 OA
BRANCH  27  30
ATOM     30  C   UNL A   1      40.388  23.830  26.907  1.00  0.00     0.039 A 
ATOM     31  C   UNL A   1      39.443  24.823  26.659  1.00  0.00     0.014 A 
ATOM     32  C   UNL A   1      41.423  24.108  27.823  1.00  0.00     0.014 A 
ATOM     33  C   UNL A   1      39.571  26.082  27.250  1.00  0.00     0.010 A 
ATOM     34  C   UNL A   1      41.545  25.357  28.431  1.00  0.00     0.010 A 
ATOM     35  C   UNL A   1      40.636  26.360  28.117  1.00  0.00    -0.014 A 
BRANCH  35  36
ATOM     36  C   UNL A   1      40.671  27.673  28.763  1.00  0.00     0.031 A 
ATOM     37  C   UNL A   1      41.691  28.616  28.221  1.00  0.00     0.074 A 
ATOM     38  C   UNL A   1      39.795  28.099  29.695  1.00  0.00     0.049 A 
ATOM     39  N   UNL A   1      42.711  29.127  28.830  1.00  0.00    -0.248 NA
ATOM     40  C   UNL A   1      41.625  28.941  26.790  1.00  0.00     0.031 C 
ATOM     41  C   UNL A   1      38.551  27.455  30.119  1.00  0.00     0.029 A 
ATOM     42  N   UNL A   1      39.786  29.276  30.389  1.00  0.00    -0.354 N 
ATOM     43  C   UNL A   1      43.334  29.974  27.911  1.00  0.00     0.074 A 
ATOM     44  C   UNL A   1      42.705  29.709  26.641  1.00  0.00     0.031 C 
ATOM     45  C   UNL A   1      37.804  28.347  30.809  1.00  0.00     0.029 A 
ATOM     46  C   UNL A   1      38.572  29.570  30.991  1.00  0.00     0.049 A 
ATOM     47  H   UNL A   1      40.573  29.864  30.456  1.00  0.00     0.167 HD
ATOM     48  C   UNL A   1      44.208  30.947  28.300  1.00  0.00     0.034 A 
ATOM     49  C   UNL A   1      38.186  30.758  31.523  1.00  0.00     0.034 A 
ATOM     50  C   UNL A   1      44.630  30.754  29.662  1.00  0.00     0.049 A 
ATOM     51  C   UNL A   1      39.393  31.575  31.794  1.00  0.00     0.074 A 
ATOM     52  C   UNL A   1      45.310  29.760  30.335  1.00  0.00     0.029 A 
ATOM     53  N   UNL A   1      44.050  31.536  30.629  1.00  0.00    -0.354 N 
ATOM     54  N   UNL A   1      40.245  31.336  32.749  1.00  0.00    -0.248 NA
ATOM     55  C   UNL A   1      39.878  32.438  30.727  1.00  0.00     0.031 C 
ATOM     56  C   UNL A   1      44.715  29.717  31.625  1.00  0.00     0.029 A 
ATOM     57  C   UNL A   1      43.747  30.722  31.687  1.00  0.00     0.049 A 
ATOM     58  H   UNL A   1      43.881  32.505  30.572  1.00  0.00     0.167 HD
ATOM     59  C   UNL A   1      41.479  31.595  32.176  1.00  0.00     0.074 A 
ATOM     60  C   UNL A   1      41.187  32.390  30.985  1.00  0.00     0.031 C 
ATOM     61  C   UNL A   1      42.594  30.899  32.547  1.00  0.00     0.034 A 
BRANCH  48  62
ATOM     62  C   UNL A   1      44.448  32.248  27.565  1.00  0.00     0.023 A 
ATOM     63  C   UNL A   1      43.770  33.441  27.870  1.00  0.00     0.031 A 
ATOM     64  C   UNL A   1      45.545  32.380  26.683  1.00  0.00     0.131 A 
ATOM     65  C   UNL A   1      44.176  34.676  27.346  1.00  0.00     0.055 A 
ATOM     66  C   UNL A   1      45.991  33.620  26.210  1.00  0.00     0.041 A 
ATOM     67  F   UNL A   1      46.264  31.312  26.304  1.00  0.00    -0.206 F 
ATOM     68  C   UNL A   1      45.308  34.780  26.546  1.00  0.00     0.022 A 
BRANCH  65  69
ATOM     69  S   UNL A   1      43.240  36.181  27.728  1.00  0.00     0.124 S 
ATOM     70  O   UNL A   1      42.280  35.696  28.714  1.00  0.00    -0.237 OA
ATOM     71  O   UNL A   1      44.289  37.059  28.242  1.00  0.00    -0.237 OA
ATOM     72  O   UNL A   1      42.683  36.575  26.437  1.00  0.00    -0.744 OA
ENDBRANCH  65  69
ENDBRANCH  48  62
BRANCH  49  73
ATOM     73  C   UNL A   1      36.836  31.365  31.453  1.00  0.00     0.023 A 
ATOM     74  C   UNL A   1      36.247  31.604  30.199  1.00  0.00     0.031 A 
ATOM     75  C   UNL A   1      36.245  31.982  32.570  1.00  0.00     0.131 A 
ATOM     76  C   UNL A   1      35.149  32.464  30.076  1.00  0.00     0.055 A 
ATOM     77  C   UNL A   1      35.137  32.830  32.448  1.00  0.00     0.041 A 
ATOM     78  F   UNL A   1      36.773  31.828  33.795  1.00  0.00    -0.206 F 
ATOM     79  C   UNL A   1      34.591  33.085  31.193  1.00  0.00     0.022 A 
BRANCH  76  80
ATOM     80  S   UNL A   1      34.480  32.849  28.435  1.00  0.00     0.124 S 
ATOM     81  O   UNL A   1      35.676  33.249  27.696  1.00  0.00    -0.237 OA
ATOM     82  O   UNL A   1      33.897  31.570  28.044  1.00  0.00    -0.237 OA
ATOM     83  O   UNL A   1      33.530  33.927  28.698  1.00  0.00    -0.744 OA
ENDBRANCH  76  80
ENDBRANCH  49  73
BRANCH  61  84
ATOM     84  C   UNL A   1      42.552  30.018  33.777  1.00  0.00     0.023 A 
ATOM     85  C   UNL A   1      43.226  30.484  34.922  1.00  0.00     0.031 A 
ATOM     86  C   UNL A   1      42.107  28.681  33.789  1.00  0.00     0.131 A 
ATOM     87  C   UNL A   1      43.485  29.622  35.994  1.00  0.00     0.055 A 
ATOM     88  C   UNL A   1      42.295  27.849  34.896  1.00  0.00     0.041 A 
ATOM     89  F   UNL A   1      41.568  28.107  32.705  1.00  0.00    -0.206 F 
ATOM     90  C   UNL A   1      43.006  28.310  35.997  1.00  0.00     0.022 A 
BRANCH  87  91
ATOM     91  S   UNL A   1      44.615  30.129  37.318  1.00  0.00     0.124 S 
ATOM     92  O   UNL A   1      45.457  31.115  36.640  1.00  0.00    -0.237 OA
ATOM     93  O   UNL A   1      43.696  30.678  38.317  1.00  0.00    -0.237 OA
ATOM     94  O   UNL A   1      45.284  28.898  37.708  1.00  0.00    -0.744 OA
ENDBRANCH  87  91
ENDBRANCH  61  84
ENDBRANCH  35  36
ENDBRANCH  27  30
ENDBRANCH  25  26
ENDBRANCH   1  25
TORSDOF 15
ENDMDL
