MODEL 1
REMARK VINA RESULT:     -11.6      0.000      0.000
REMARK SMILES CCOc1ccccc1Nc1ccc(C(=O)NCCCNC(=O)c2ccc(-c3c4nc(c(-c5cc(S(=O)(=O)[O-])ccc5F)c5ccc([nH]5)c(-c5cc(S(=O)(=O)[O-])ccc5F)c5nc(c(-c6cc(S(=O)(=O)[O-])ccc6F)c6ccc3[nH]6)C=C5)C=C4)cc2)cc1N
REMARK SMILES IDX 18 1 17 2 15 3 16 4 14 6 11 7 12 8 88 9 13 10 87 11 10 12
REMARK SMILES IDX 9 14 4 15 5 16 6 17 8 18 7 19 3 20 2 21 1 22 89 23 19 26
REMARK SMILES IDX 20 27 21 28 22 29 23 31 24 32 25 33 86 34 26 35 85 36 27 37
REMARK SMILES IDX 28 38 29 39 79 40 30 41 84 42 78 43 80 44 31 45 83 46 77 47
REMARK SMILES IDX 76 48 32 50 64 51 44 52 63 53 45 54 48 55 62 56 81 57 46 58
REMARK SMILES IDX 47 59 61 61 82 62 49 63 33 64 34 65 42 66 35 67 41 68 43 69
REMARK SMILES IDX 40 70 36 71 37 72 38 73 39 74 65 75 66 76 74 77 67 78 73 79
REMARK SMILES IDX 75 80 72 81 68 82 69 83 70 84 71 85 50 86 51 87 59 88 52 89
REMARK SMILES IDX 58 90 60 91 57 92 53 93 54 94 55 95 56 96
REMARK H PARENT 17 5 10 13 89 24 89 25 21 30 80 49 48 60
REMARK Flexibility Score: inf
ROOT
ATOM      1  C   UNL A   1      31.522  30.835  26.407  1.00  0.00     0.118 C 
ENDROOT
BRANCH   1   2
ATOM      2  N   UNL A   1      31.070  30.461  25.078  1.00  0.00    -0.352 N 
ATOM      3  C   UNL A   1      31.185  29.296  24.365  1.00  0.00     0.251 C 
ATOM      4  O   UNL A   1      30.695  29.252  23.237  1.00  0.00    -0.269 OA
ATOM      5  H   UNL A   1      30.591  31.177  24.601  1.00  0.00     0.163 HD
BRANCH   3   6
ATOM      6  C   UNL A   1      31.785  28.068  24.944  1.00  0.00     0.041 A 
ATOM      7  C   UNL A   1      33.045  25.691  25.757  1.00  0.00     0.062 A 
ATOM      8  C   UNL A   1      33.799  26.776  25.288  1.00  0.00     0.029 A 
ATOM      9  C   UNL A   1      31.645  25.828  25.886  1.00  0.00     0.056 A 
ATOM     10  C   UNL A   1      33.174  27.949  24.871  1.00  0.00     0.016 A 
ATOM     11  C   UNL A   1      31.046  27.044  25.539  1.00  0.00     0.041 A 
BRANCH   7  12
ATOM     12  N   UNL A   1      33.734  24.497  26.030  1.00  0.00    -0.351 N 
ATOM     13  H   UNL A   1      33.405  24.015  26.823  1.00  0.00     0.167 HD
BRANCH  12  14
ATOM     14  C   UNL A   1      34.805  23.867  25.379  1.00  0.00     0.081 A 
ATOM     15  C   UNL A   1      34.580  23.233  24.146  1.00  0.00     0.142 A 
ATOM     16  C   UNL A   1      35.612  22.588  23.465  1.00  0.00     0.048 A 
ATOM     17  C   UNL A   1      36.902  22.607  23.994  1.00  0.00     0.004 A 
ATOM     18  C   UNL A   1      36.112  23.899  25.880  1.00  0.00     0.030 A 
ATOM     19  C   UNL A   1      37.153  23.267  25.196  1.00  0.00     0.002 A 
BRANCH  15  20
ATOM     20  O   UNL A   1      33.304  23.183  23.636  1.00  0.00    -0.492 OA
BRANCH  20  21
ATOM     21  C   UNL A   1      32.848  21.831  23.475  1.00  0.00     0.226 C 
ATOM     22  C   UNL A   1      32.437  21.239  24.815  1.00  0.00     0.049 C 
ENDBRANCH  20  21
ENDBRANCH  15  20
ENDBRANCH  12  14
ENDBRANCH   7  12
BRANCH   9  23
ATOM     23  N   UNL A   1      30.859  24.858  26.507  1.00  0.00    -0.397 N 
ATOM     24  H   UNL A   1      30.485  25.026  27.403  1.00  0.00     0.156 HD
ATOM     25  H   UNL A   1      30.677  24.005  26.052  1.00  0.00     0.156 HD
ENDBRANCH   9  23
ENDBRANCH   3   6
ENDBRANCH   1   2
BRANCH   1  26
ATOM     26  C   UNL A   1      31.497  32.354  26.572  1.00  0.00     0.042 C 
BRANCH  26  27
ATOM     27  C   UNL A   1      32.768  32.895  27.218  1.00  0.00     0.118 C 
BRANCH  27  28
ATOM     28  N   UNL A   1      32.588  34.261  27.688  1.00  0.00    -0.352 N 
ATOM     29  C   UNL A   1      33.148  34.894  28.768  1.00  0.00     0.251 C 
ATOM     30  H   UNL A   1      31.973  34.812  27.153  1.00  0.00     0.163 HD
ATOM     31  O   UNL A   1      32.675  35.959  29.151  1.00  0.00    -0.269 OA
BRANCH  29  32
ATOM     32  C   UNL A   1      34.302  34.290  29.471  1.00  0.00     0.039 A 
ATOM     33  C   UNL A   1      34.062  33.381  30.503  1.00  0.00     0.014 A 
ATOM     34  C   UNL A   1      35.614  34.646  29.139  1.00  0.00     0.014 A 
ATOM     35  C   UNL A   1      35.137  32.794  31.173  1.00  0.00     0.010 A 
ATOM     36  C   UNL A   1      36.684  34.003  29.757  1.00  0.00     0.010 A 
ATOM     37  C   UNL A   1      36.457  33.078  30.787  1.00  0.00    -0.014 A 
BRANCH  37  38
ATOM     38  C   UNL A   1      37.612  32.434  31.464  1.00  0.00     0.031 A 
ATOM     39  C   UNL A   1      38.333  31.294  30.798  1.00  0.00     0.074 A 
ATOM     40  C   UNL A   1      37.972  32.840  32.697  1.00  0.00     0.049 A 
ATOM     41  N   UNL A   1      39.310  30.553  31.253  1.00  0.00    -0.248 NA
ATOM     42  C   UNL A   1      37.875  30.922  29.451  1.00  0.00     0.031 C 
ATOM     43  C   UNL A   1      37.323  33.913  33.455  1.00  0.00     0.029 A 
ATOM     44  N   UNL A   1      38.964  32.396  33.535  1.00  0.00    -0.354 N 
ATOM     45  C   UNL A   1      39.575  29.619  30.258  1.00  0.00     0.074 A 
ATOM     46  C   UNL A   1      38.613  29.851  29.201  1.00  0.00     0.031 C 
ATOM     47  C   UNL A   1      37.949  34.059  34.634  1.00  0.00     0.029 A 
ATOM     48  C   UNL A   1      39.009  33.062  34.740  1.00  0.00     0.049 A 
ATOM     49  H   UNL A   1      39.584  31.671  33.298  1.00  0.00     0.167 HD
ATOM     50  C   UNL A   1      40.546  28.672  30.218  1.00  0.00     0.034 A 
ATOM     51  C   UNL A   1      39.804  32.877  35.812  1.00  0.00     0.034 A 
ATOM     52  C   UNL A   1      41.503  28.465  31.278  1.00  0.00     0.049 A 
ATOM     53  C   UNL A   1      40.856  31.797  35.757  1.00  0.00     0.074 A 
ATOM     54  C   UNL A   1      42.559  27.571  31.322  1.00  0.00     0.029 A 
ATOM     55  N   UNL A   1      41.518  29.156  32.483  1.00  0.00    -0.354 N 
ATOM     56  N   UNL A   1      41.125  30.954  34.787  1.00  0.00    -0.248 NA
ATOM     57  C   UNL A   1      41.719  31.653  36.937  1.00  0.00     0.031 C 
ATOM     58  C   UNL A   1      43.166  27.672  32.579  1.00  0.00     0.029 A 
ATOM     59  C   UNL A   1      42.543  28.686  33.289  1.00  0.00     0.049 A 
ATOM     60  H   UNL A   1      40.891  29.874  32.729  1.00  0.00     0.167 HD
ATOM     61  C   UNL A   1      42.211  30.201  35.229  1.00  0.00     0.074 A 
ATOM     62  C   UNL A   1      42.554  30.702  36.544  1.00  0.00     0.031 C 
ATOM     63  C   UNL A   1      42.867  29.191  34.603  1.00  0.00     0.034 A 
BRANCH  50  64
ATOM     64  C   UNL A   1      40.598  27.779  29.002  1.00  0.00     0.023 A 
ATOM     65  C   UNL A   1      41.575  27.944  28.004  1.00  0.00     0.031 A 
ATOM     66  C   UNL A   1      39.645  26.759  28.824  1.00  0.00     0.131 A 
ATOM     67  C   UNL A   1      41.533  27.158  26.842  1.00  0.00     0.055 A 
ATOM     68  C   UNL A   1      39.660  25.924  27.704  1.00  0.00     0.041 A 
ATOM     69  F   UNL A   1      38.675  26.564  29.730  1.00  0.00    -0.206 F 
ATOM     70  C   UNL A   1      40.598  26.131  26.696  1.00  0.00     0.022 A 
BRANCH  67  71
ATOM     71  S   UNL A   1      42.626  27.594  25.462  1.00  0.00     0.124 S 
ATOM     72  O   UNL A   1      41.922  28.732  24.876  1.00  0.00    -0.237 OA
ATOM     73  O   UNL A   1      43.882  27.898  26.138  1.00  0.00    -0.237 OA
ATOM     74  O   UNL A   1      42.637  26.386  24.639  1.00  0.00    -0.744 OA
ENDBRANCH  67  71
ENDBRANCH  50  64
BRANCH  51  75
ATOM     75  C   UNL A   1      39.638  33.717  37.033  1.00  0.00     0.023 A 
ATOM     76  C   UNL A   1      39.109  33.178  38.215  1.00  0.00     0.031 A 
ATOM     77  C   UNL A   1      39.962  35.087  37.021  1.00  0.00     0.131 A 
ATOM     78  C   UNL A   1      38.871  34.011  39.320  1.00  0.00     0.055 A 
ATOM     79  C   UNL A   1      39.776  35.900  38.140  1.00  0.00     0.041 A 
ATOM     80  F   UNL A   1      40.475  35.653  35.917  1.00  0.00    -0.206 F 
ATOM     81  C   UNL A   1      39.214  35.365  39.295  1.00  0.00     0.022 A 
BRANCH  78  82
ATOM     82  S   UNL A   1      38.015  33.318  40.761  1.00  0.00     0.124 S 
ATOM     83  O   UNL A   1      38.289  34.322  41.781  1.00  0.00    -0.237 OA
ATOM     84  O   UNL A   1      36.638  33.243  40.285  1.00  0.00    -0.237 OA
ATOM     85  O   UNL A   1      38.674  32.029  40.959  1.00  0.00    -0.744 OA
ENDBRANCH  78  82
ENDBRANCH  51  75
BRANCH  63  86
ATOM     86  C   UNL A   1      44.056  28.597  35.320  1.00  0.00     0.023 A 
ATOM     87  C   UNL A   1      43.915  27.541  36.238  1.00  0.00     0.031 A 
ATOM     88  C   UNL A   1      45.346  29.104  35.084  1.00  0.00     0.131 A 
ATOM     89  C   UNL A   1      45.040  27.063  36.926  1.00  0.00     0.055 A 
ATOM     90  C   UNL A   1      46.469  28.580  35.726  1.00  0.00     0.041 A 
ATOM     91  F   UNL A   1      45.537  30.114  34.221  1.00  0.00    -0.206 F 
ATOM     92  C   UNL A   1      46.318  27.562  36.663  1.00  0.00     0.022 A 
BRANCH  89  93
ATOM     93  S   UNL A   1      44.800  25.835  38.240  1.00  0.00     0.124 S 
ATOM     94  O   UNL A   1      43.760  26.460  39.051  1.00  0.00    -0.237 OA
ATOM     95  O   UNL A   1      44.396  24.650  37.490  1.00  0.00    -0.237 OA
ATOM     96  O   UNL A   1      46.114  25.749  38.874  1.00  0.00    -0.744 OA
ENDBRANCH  89  93
ENDBRANCH  63  86
ENDBRANCH  37  38
ENDBRANCH  29  32
ENDBRANCH  27  28
ENDBRANCH  26  27
ENDBRANCH   1  26
TORSDOF 18
ENDMDL
MODEL 2
REMARK VINA RESULT:     -11.5      5.809     11.100
REMARK SMILES CCOc1ccccc1Nc1ccc(C(=O)NCCCNC(=O)c2ccc(-c3c4nc(c(-c5cc(S(=O)(=O)[O-])ccc5F)c5ccc([nH]5)c(-c5cc(S(=O)(=O)[O-])ccc5F)c5nc(c(-c6cc(S(=O)(=O)[O-])ccc6F)c6ccc3[nH]6)C=C5)C=C4)cc2)cc1N
REMARK SMILES IDX 18 1 17 2 15 3 16 4 14 6 11 7 12 8 88 9 13 10 87 11 10 12
REMARK SMILES IDX 9 14 4 15 5 16 6 17 8 18 7 19 3 20 2 21 1 22 89 23 19 26
REMARK SMILES IDX 20 27 21 28 22 29 23 31 24 32 25 33 86 34 26 35 85 36 27 37
REMARK SMILES IDX 28 38 29 39 79 40 30 41 84 42 78 43 80 44 31 45 83 46 77 47
REMARK SMILES IDX 76 48 32 50 64 51 44 52 63 53 45 54 48 55 62 56 81 57 46 58
REMARK SMILES IDX 47 59 61 61 82 62 49 63 33 64 34 65 42 66 35 67 41 68 43 69
REMARK SMILES IDX 40 70 36 71 37 72 38 73 39 74 65 75 66 76 74 77 67 78 73 79
REMARK SMILES IDX 75 80 72 81 68 82 69 83 70 84 71 85 50 86 51 87 59 88 52 89
REMARK SMILES IDX 58 90 60 91 57 92 53 93 54 94 55 95 56 96
REMARK H PARENT 17 5 10 13 89 24 89 25 21 30 80 49 48 60
REMARK Flexibility Score: inf
ROOT
ATOM      1  C   UNL A   1      35.098  21.149  25.906  1.00  0.00     0.118 C 
ENDROOT
BRANCH   1   2
ATOM      2  N   UNL A   1      34.150  20.053  25.800  1.00  0.00    -0.352 N 
ATOM      3  C   UNL A   1      32.853  20.001  25.359  1.00  0.00     0.251 C 
ATOM      4  O   UNL A   1      32.275  18.915  25.376  1.00  0.00    -0.269 OA
ATOM      5  H   UNL A   1      34.506  19.185  26.099  1.00  0.00     0.163 HD
BRANCH   3   6
ATOM      6  C   UNL A   1      32.167  21.180  24.775  1.00  0.00     0.041 A 
ATOM      7  C   UNL A   1      31.151  23.505  23.565  1.00  0.00     0.062 A 
ATOM      8  C   UNL A   1      31.792  22.522  22.799  1.00  0.00     0.029 A 
ATOM      9  C   UNL A   1      30.954  23.284  24.946  1.00  0.00     0.056 A 
ATOM     10  C   UNL A   1      32.309  21.377  23.400  1.00  0.00     0.016 A 
ATOM     11  C   UNL A   1      31.409  22.089  25.515  1.00  0.00     0.041 A 
BRANCH   7  12
ATOM     12  N   UNL A   1      30.777  24.692  22.911  1.00  0.00    -0.351 N 
ATOM     13  H   UNL A   1      30.408  24.555  22.008  1.00  0.00     0.167 HD
BRANCH  12  14
ATOM     14  C   UNL A   1      30.835  26.036  23.310  1.00  0.00     0.081 A 
ATOM     15  C   UNL A   1      32.082  26.607  23.614  1.00  0.00     0.142 A 
ATOM     16  C   UNL A   1      32.188  27.936  24.022  1.00  0.00     0.048 A 
ATOM     17  C   UNL A   1      31.042  28.729  24.089  1.00  0.00     0.004 A 
ATOM     18  C   UNL A   1      29.700  26.854  23.356  1.00  0.00     0.030 A 
ATOM     19  C   UNL A   1      29.801  28.190  23.751  1.00  0.00     0.002 A 
BRANCH  15  20
ATOM     20  O   UNL A   1      33.210  25.822  23.581  1.00  0.00    -0.492 OA
BRANCH  20  21
ATOM     21  C   UNL A   1      34.067  26.076  24.705  1.00  0.00     0.226 C 
ATOM     22  C   UNL A   1      34.384  24.782  25.442  1.00  0.00     0.049 C 
ENDBRANCH  20  21
ENDBRANCH  15  20
ENDBRANCH  12  14
ENDBRANCH   7  12
BRANCH   9  23
ATOM     23  N   UNL A   1      30.174  24.134  25.730  1.00  0.00    -0.397 N 
ATOM     24  H   UNL A   1      30.518  24.462  26.593  1.00  0.00     0.156 HD
ATOM     25  H   UNL A   1      29.280  24.406  25.422  1.00  0.00     0.156 HD
ENDBRANCH   9  23
ENDBRANCH   3   6
ENDBRANCH   1   2
BRANCH   1  26
ATOM     26  C   UNL A   1      35.641  21.522  24.527  1.00  0.00     0.042 C 
BRANCH  26  27
ATOM     27  C   UNL A   1      37.149  21.746  24.531  1.00  0.00     0.118 C 
BRANCH  27  28
ATOM     28  N   UNL A   1      37.851  20.642  25.167  1.00  0.00    -0.352 N 
ATOM     29  C   UNL A   1      39.055  20.634  25.825  1.00  0.00     0.251 C 
ATOM     30  H   UNL A   1      37.396  19.770  25.118  1.00  0.00     0.163 HD
ATOM     31  O   UNL A   1      39.602  19.562  26.062  1.00  0.00    -0.269 OA
BRANCH  29  32
ATOM     32  C   UNL A   1      39.691  21.907  26.231  1.00  0.00     0.039 A 
ATOM     33  C   UNL A   1      41.030  21.895  26.627  1.00  0.00     0.014 A 
ATOM     34  C   UNL A   1      38.962  23.101  26.255  1.00  0.00     0.014 A 
ATOM     35  C   UNL A   1      41.651  23.087  27.006  1.00  0.00     0.010 A 
ATOM     36  C   UNL A   1      39.603  24.299  26.560  1.00  0.00     0.010 A 
ATOM     37  C   UNL A   1      40.951  24.303  26.949  1.00  0.00    -0.014 A 
BRANCH  37  38
ATOM     38  C   UNL A   1      41.607  25.586  27.312  1.00  0.00     0.031 A 
ATOM     39  C   UNL A   1      40.868  26.600  28.141  1.00  0.00     0.074 A 
ATOM     40  C   UNL A   1      42.844  25.855  26.849  1.00  0.00     0.049 A 
ATOM     41  N   UNL A   1      41.234  27.804  28.498  1.00  0.00    -0.248 NA
ATOM     42  C   UNL A   1      39.525  26.219  28.605  1.00  0.00     0.031 C 
ATOM     43  C   UNL A   1      43.644  24.961  26.008  1.00  0.00     0.029 A 
ATOM     44  N   UNL A   1      43.643  26.959  27.011  1.00  0.00    -0.354 N 
ATOM     45  C   UNL A   1      40.166  28.329  29.217  1.00  0.00     0.074 A 
ATOM     46  C   UNL A   1      39.115  27.334  29.190  1.00  0.00     0.031 C 
ATOM     47  C   UNL A   1      44.827  25.542  25.750  1.00  0.00     0.029 A 
ATOM     48  C   UNL A   1      44.853  26.866  26.361  1.00  0.00     0.049 A 
ATOM     49  H   UNL A   1      43.376  27.743  27.542  1.00  0.00     0.167 HD
ATOM     50  C   UNL A   1      40.079  29.520  29.860  1.00  0.00     0.034 A 
ATOM     51  C   UNL A   1      45.861  27.755  26.258  1.00  0.00     0.034 A 
ATOM     52  C   UNL A   1      41.144  30.495  29.884  1.00  0.00     0.049 A 
ATOM     53  C   UNL A   1      45.728  29.086  26.955  1.00  0.00     0.074 A 
ATOM     54  C   UNL A   1      41.184  31.710  30.544  1.00  0.00     0.029 A 
ATOM     55  N   UNL A   1      42.353  30.368  29.213  1.00  0.00    -0.354 N 
ATOM     56  N   UNL A   1      44.730  29.548  27.672  1.00  0.00    -0.248 NA
ATOM     57  C   UNL A   1      46.864  30.010  26.839  1.00  0.00     0.031 C 
ATOM     58  C   UNL A   1      42.386  32.348  30.216  1.00  0.00     0.029 A 
ATOM     59  C   UNL A   1      43.133  31.496  29.418  1.00  0.00     0.049 A 
ATOM     60  H   UNL A   1      42.619  29.590  28.671  1.00  0.00     0.167 HD
ATOM     61  C   UNL A   1      45.133  30.803  28.119  1.00  0.00     0.074 A 
ATOM     62  C   UNL A   1      46.470  31.017  27.604  1.00  0.00     0.031 C 
ATOM     63  C   UNL A   1      44.462  31.697  28.889  1.00  0.00     0.034 A 
BRANCH  50  64
ATOM     64  C   UNL A   1      38.781  29.840  30.563  1.00  0.00     0.023 A 
ATOM     65  C   UNL A   1      37.775  30.606  29.946  1.00  0.00     0.031 A 
ATOM     66  C   UNL A   1      38.551  29.390  31.875  1.00  0.00     0.131 A 
ATOM     67  C   UNL A   1      36.625  30.964  30.665  1.00  0.00     0.055 A 
ATOM     68  C   UNL A   1      37.366  29.680  32.556  1.00  0.00     0.041 A 
ATOM     69  F   UNL A   1      39.480  28.672  32.525  1.00  0.00    -0.206 F 
ATOM     70  C   UNL A   1      36.400  30.484  31.957  1.00  0.00     0.022 A 
BRANCH  67  71
ATOM     71  S   UNL A   1      35.495  32.183  29.939  1.00  0.00     0.124 S 
ATOM     72  O   UNL A   1      35.045  31.487  28.736  1.00  0.00    -0.237 OA
ATOM     73  O   UNL A   1      34.498  32.354  30.989  1.00  0.00    -0.237 OA
ATOM     74  O   UNL A   1      36.352  33.342  29.697  1.00  0.00    -0.744 OA
ENDBRANCH  67  71
ENDBRANCH  50  64
BRANCH  51  75
ATOM     75  C   UNL A   1      47.078  27.431  25.458  1.00  0.00     0.023 A 
ATOM     76  C   UNL A   1      47.189  27.828  24.117  1.00  0.00     0.031 A 
ATOM     77  C   UNL A   1      48.130  26.677  26.011  1.00  0.00     0.131 A 
ATOM     78  C   UNL A   1      48.300  27.428  23.358  1.00  0.00     0.055 A 
ATOM     79  C   UNL A   1      49.259  26.329  25.268  1.00  0.00     0.041 A 
ATOM     80  F   UNL A   1      48.076  26.274  27.291  1.00  0.00    -0.206 F 
ATOM     81  C   UNL A   1      49.341  26.693  23.928  1.00  0.00     0.022 A 
BRANCH  78  82
ATOM     82  S   UNL A   1      48.317  27.801  21.583  1.00  0.00     0.124 S 
ATOM     83  O   UNL A   1      48.596  26.491  21.007  1.00  0.00    -0.237 OA
ATOM     84  O   UNL A   1      46.971  28.323  21.372  1.00  0.00    -0.237 OA
ATOM     85  O   UNL A   1      49.391  28.783  21.453  1.00  0.00    -0.744 OA
ENDBRANCH  78  82
ENDBRANCH  51  75
BRANCH  63  86
ATOM     86  C   UNL A   1      45.189  32.967  29.259  1.00  0.00     0.023 A 
ATOM     87  C   UNL A   1      45.063  34.142  28.497  1.00  0.00     0.031 A 
ATOM     88  C   UNL A   1      46.027  32.997  30.388  1.00  0.00     0.131 A 
ATOM     89  C   UNL A   1      45.806  35.281  28.844  1.00  0.00     0.055 A 
ATOM     90  C   UNL A   1      46.714  34.151  30.764  1.00  0.00     0.041 A 
ATOM     91  F   UNL A   1      46.187  31.902  31.149  1.00  0.00    -0.206 F 
ATOM     92  C   UNL A   1      46.616  35.299  29.982  1.00  0.00     0.022 A 
BRANCH  89  93
ATOM     93  S   UNL A   1      45.770  36.715  27.734  1.00  0.00     0.124 S 
ATOM     94  O   UNL A   1      44.946  37.658  28.485  1.00  0.00    -0.237 OA
ATOM     95  O   UNL A   1      47.184  37.057  27.618  1.00  0.00    -0.237 OA
ATOM     96  O   UNL A   1      45.157  36.191  26.515  1.00  0.00    -0.744 OA
ENDBRANCH  89  93
ENDBRANCH  63  86
ENDBRANCH  37  38
ENDBRANCH  29  32
ENDBRANCH  27  28
ENDBRANCH  26  27
ENDBRANCH   1  26
TORSDOF 18
ENDMDL
MODEL 3
REMARK VINA RESULT:     -11.5      3.886      8.659
REMARK SMILES CCOc1ccccc1Nc1ccc(C(=O)NCCCNC(=O)c2ccc(-c3c4nc(c(-c5cc(S(=O)(=O)[O-])ccc5F)c5ccc([nH]5)c(-c5cc(S(=O)(=O)[O-])ccc5F)c5nc(c(-c6cc(S(=O)(=O)[O-])ccc6F)c6ccc3[nH]6)C=C5)C=C4)cc2)cc1N
REMARK SMILES IDX 18 1 17 2 15 3 16 4 14 6 11 7 12 8 88 9 13 10 87 11 10 12
REMARK SMILES IDX 9 14 4 15 5 16 6 17 8 18 7 19 3 20 2 21 1 22 89 23 19 26
REMARK SMILES IDX 20 27 21 28 22 29 23 31 24 32 25 33 86 34 26 35 85 36 27 37
REMARK SMILES IDX 28 38 29 39 79 40 30 41 84 42 78 43 80 44 31 45 83 46 77 47
REMARK SMILES IDX 76 48 32 50 64 51 44 52 63 53 45 54 48 55 62 56 81 57 46 58
REMARK SMILES IDX 47 59 61 61 82 62 49 63 33 64 34 65 42 66 35 67 41 68 43 69
REMARK SMILES IDX 40 70 36 71 37 72 38 73 39 74 65 75 66 76 74 77 67 78 73 79
REMARK SMILES IDX 75 80 72 81 68 82 69 83 70 84 71 85 50 86 51 87 59 88 52 89
REMARK SMILES IDX 58 90 60 91 57 92 53 93 54 94 55 95 56 96
REMARK H PARENT 17 5 10 13 89 24 89 25 21 30 80 49 48 60
REMARK Flexibility Score: inf
ROOT
ATOM      1  C   UNL A   1      31.583  29.617  25.083  1.00  0.00     0.118 C 
ENDROOT
BRANCH   1   2
ATOM      2  N   UNL A   1      30.870  29.693  23.820  1.00  0.00    -0.352 N 
ATOM      3  C   UNL A   1      30.499  28.730  22.917  1.00  0.00     0.251 C 
ATOM      4  O   UNL A   1      29.886  29.081  21.909  1.00  0.00    -0.269 OA
ATOM      5  H   UNL A   1      30.602  30.605  23.565  1.00  0.00     0.163 HD
BRANCH   3   6
ATOM      6  C   UNL A   1      30.721  27.284  23.165  1.00  0.00     0.041 A 
ATOM      7  C   UNL A   1      31.259  24.629  23.914  1.00  0.00     0.062 A 
ATOM      8  C   UNL A   1      30.373  25.416  24.660  1.00  0.00     0.029 A 
ATOM      9  C   UNL A   1      31.828  25.160  22.734  1.00  0.00     0.056 A 
ATOM     10  C   UNL A   1      30.117  26.737  24.298  1.00  0.00     0.016 A 
ATOM     11  C   UNL A   1      31.494  26.461  22.344  1.00  0.00     0.041 A 
BRANCH   7  12
ATOM     12  N   UNL A   1      31.571  23.354  24.417  1.00  0.00    -0.351 N 
ATOM     13  H   UNL A   1      31.138  22.614  23.933  1.00  0.00     0.167 HD
BRANCH  12  14
ATOM     14  C   UNL A   1      32.387  22.945  25.483  1.00  0.00     0.081 A 
ATOM     15  C   UNL A   1      33.741  22.660  25.240  1.00  0.00     0.142 A 
ATOM     16  C   UNL A   1      34.588  22.244  26.266  1.00  0.00     0.048 A 
ATOM     17  C   UNL A   1      34.096  22.148  27.568  1.00  0.00     0.004 A 
ATOM     18  C   UNL A   1      31.918  22.870  26.800  1.00  0.00     0.030 A 
ATOM     19  C   UNL A   1      32.765  22.467  27.836  1.00  0.00     0.002 A 
BRANCH  15  20
ATOM     20  O   UNL A   1      34.223  22.721  23.954  1.00  0.00    -0.492 OA
BRANCH  20  21
ATOM     21  C   UNL A   1      35.342  23.615  23.847  1.00  0.00     0.226 C 
ATOM     22  C   UNL A   1      36.500  22.942  23.123  1.00  0.00     0.049 C 
ENDBRANCH  20  21
ENDBRANCH  15  20
ENDBRANCH  12  14
ENDBRANCH   7  12
BRANCH   9  23
ATOM     23  N   UNL A   1      32.576  24.378  21.855  1.00  0.00    -0.397 N 
ATOM     24  H   UNL A   1      33.558  24.454  21.840  1.00  0.00     0.156 HD
ATOM     25  H   UNL A   1      32.124  23.749  21.247  1.00  0.00     0.156 HD
ENDBRANCH   9  23
ENDBRANCH   3   6
ENDBRANCH   1   2
BRANCH   1  26
ATOM     26  C   UNL A   1      33.031  29.188  24.856  1.00  0.00     0.042 C 
BRANCH  26  27
ATOM     27  C   UNL A   1      33.894  29.348  26.102  1.00  0.00     0.118 C 
BRANCH  27  28
ATOM     28  N   UNL A   1      33.749  30.674  26.685  1.00  0.00    -0.352 N 
ATOM     29  C   UNL A   1      34.427  31.248  27.731  1.00  0.00     0.251 C 
ATOM     30  H   UNL A   1      33.063  31.243  26.269  1.00  0.00     0.163 HD
ATOM     31  O   UNL A   1      33.986  32.272  28.241  1.00  0.00    -0.269 OA
BRANCH  29  32
ATOM     32  C   UNL A   1      35.670  30.629  28.243  1.00  0.00     0.039 A 
ATOM     33  C   UNL A   1      36.886  30.961  27.641  1.00  0.00     0.014 A 
ATOM     34  C   UNL A   1      35.634  29.698  29.286  1.00  0.00     0.014 A 
ATOM     35  C   UNL A   1      38.071  30.394  28.115  1.00  0.00     0.010 A 
ATOM     36  C   UNL A   1      36.823  29.192  29.805  1.00  0.00     0.010 A 
ATOM     37  C   UNL A   1      38.052  29.526  29.219  1.00  0.00    -0.014 A 
BRANCH  37  38
ATOM     38  C   UNL A   1      39.308  28.944  29.759  1.00  0.00     0.031 A 
ATOM     39  C   UNL A   1      39.936  29.527  30.995  1.00  0.00     0.074 A 
ATOM     40  C   UNL A   1      39.906  27.928  29.105  1.00  0.00     0.049 A 
ATOM     41  N   UNL A   1      41.064  29.213  31.578  1.00  0.00    -0.248 NA
ATOM     42  C   UNL A   1      39.212  30.630  31.645  1.00  0.00     0.031 C 
ATOM     43  C   UNL A   1      39.406  27.305  27.877  1.00  0.00     0.029 A 
ATOM     44  N   UNL A   1      41.066  27.247  29.373  1.00  0.00    -0.354 N 
ATOM     45  C   UNL A   1      41.193  30.085  32.653  1.00  0.00     0.074 A 
ATOM     46  C   UNL A   1      40.056  30.981  32.603  1.00  0.00     0.031 C 
ATOM     47  C   UNL A   1      40.241  26.318  27.514  1.00  0.00     0.029 A 
ATOM     48  C   UNL A   1      41.359  26.269  28.449  1.00  0.00     0.049 A 
ATOM     49  H   UNL A   1      41.635  27.439  30.153  1.00  0.00     0.167 HD
ATOM     50  C   UNL A   1      42.156  30.120  33.608  1.00  0.00     0.034 A 
ATOM     51  C   UNL A   1      42.418  25.440  28.360  1.00  0.00     0.034 A 
ATOM     52  C   UNL A   1      43.275  29.210  33.647  1.00  0.00     0.049 A 
ATOM     53  C   UNL A   1      43.492  25.518  29.415  1.00  0.00     0.074 A 
ATOM     54  C   UNL A   1      44.281  29.122  34.594  1.00  0.00     0.029 A 
ATOM     55  N   UNL A   1      43.541  28.235  32.694  1.00  0.00    -0.354 N 
ATOM     56  N   UNL A   1      43.574  26.318  30.454  1.00  0.00    -0.248 NA
ATOM     57  C   UNL A   1      44.611  24.575  29.292  1.00  0.00     0.031 C 
ATOM     58  C   UNL A   1      45.190  28.143  34.177  1.00  0.00     0.029 A 
ATOM     59  C   UNL A   1      44.711  27.563  33.014  1.00  0.00     0.049 A 
ATOM     60  H   UNL A   1      42.981  28.048  31.907  1.00  0.00     0.167 HD
ATOM     61  C   UNL A   1      44.736  25.949  31.126  1.00  0.00     0.074 A 
ATOM     62  C   UNL A   1      45.313  24.847  30.383  1.00  0.00     0.031 C 
ATOM     63  C   UNL A   1      45.277  26.471  32.257  1.00  0.00     0.034 A 
BRANCH  50  64
ATOM     64  C   UNL A   1      42.049  31.193  34.666  1.00  0.00     0.023 A 
ATOM     65  C   UNL A   1      42.664  32.448  34.512  1.00  0.00     0.031 A 
ATOM     66  C   UNL A   1      41.340  30.952  35.857  1.00  0.00     0.131 A 
ATOM     67  C   UNL A   1      42.625  33.383  35.557  1.00  0.00     0.055 A 
ATOM     68  C   UNL A   1      41.233  31.919  36.859  1.00  0.00     0.041 A 
ATOM     69  F   UNL A   1      40.748  29.768  36.073  1.00  0.00    -0.206 F 
ATOM     70  C   UNL A   1      41.892  33.138  36.720  1.00  0.00     0.022 A 
BRANCH  67  71
ATOM     71  S   UNL A   1      43.666  34.863  35.434  1.00  0.00     0.124 S 
ATOM     72  O   UNL A   1      44.981  34.328  35.779  1.00  0.00    -0.237 OA
ATOM     73  O   UNL A   1      43.483  35.263  34.044  1.00  0.00    -0.237 OA
ATOM     74  O   UNL A   1      43.091  35.769  36.426  1.00  0.00    -0.744 OA
ENDBRANCH  67  71
ENDBRANCH  50  64
BRANCH  51  75
ATOM     75  C   UNL A   1      42.529  24.472  27.230  1.00  0.00     0.023 A 
ATOM     76  C   UNL A   1      41.942  23.200  27.308  1.00  0.00     0.031 A 
ATOM     77  C   UNL A   1      43.265  24.788  26.073  1.00  0.00     0.131 A 
ATOM     78  C   UNL A   1      42.142  22.271  26.274  1.00  0.00     0.055 A 
ATOM     79  C   UNL A   1      43.415  23.882  25.022  1.00  0.00     0.041 A 
ATOM     80  F   UNL A   1      43.844  25.992  25.945  1.00  0.00    -0.206 F 
ATOM     81  C   UNL A   1      42.863  22.608  25.126  1.00  0.00     0.022 A 
BRANCH  78  82
ATOM     82  S   UNL A   1      41.527  20.580  26.496  1.00  0.00     0.124 S 
ATOM     83  O   UNL A   1      42.171  19.882  25.390  1.00  0.00    -0.237 OA
ATOM     84  O   UNL A   1      42.014  20.255  27.832  1.00  0.00    -0.237 OA
ATOM     85  O   UNL A   1      40.078  20.728  26.383  1.00  0.00    -0.744 OA
ENDBRANCH  78  82
ENDBRANCH  51  75
BRANCH  63  86
ATOM     86  C   UNL A   1      46.532  25.816  32.782  1.00  0.00     0.023 A 
ATOM     87  C   UNL A   1      47.804  26.147  32.283  1.00  0.00     0.031 A 
ATOM     88  C   UNL A   1      46.449  24.842  33.793  1.00  0.00     0.131 A 
ATOM     89  C   UNL A   1      48.937  25.469  32.758  1.00  0.00     0.055 A 
ATOM     90  C   UNL A   1      47.586  24.217  34.306  1.00  0.00     0.041 A 
ATOM     91  F   UNL A   1      45.260  24.486  34.304  1.00  0.00    -0.206 F 
ATOM     92  C   UNL A   1      48.838  24.520  33.779  1.00  0.00     0.022 A 
BRANCH  89  93
ATOM     93  S   UNL A   1      50.536  25.780  31.961  1.00  0.00     0.124 S 
ATOM     94  O   UNL A   1      50.479  24.886  30.809  1.00  0.00    -0.237 OA
ATOM     95  O   UNL A   1      50.466  27.207  31.665  1.00  0.00    -0.237 OA
ATOM     96  O   UNL A   1      51.509  25.408  32.986  1.00  0.00    -0.744 OA
ENDBRANCH  89  93
ENDBRANCH  63  86
ENDBRANCH  37  38
ENDBRANCH  29  32
ENDBRANCH  27  28
ENDBRANCH  26  27
ENDBRANCH   1  26
TORSDOF 18
ENDMDL
