MODEL 1
REMARK VINA RESULT:     -12.2      0.000      0.000
REMARK SMILES Nc1nonc1C(=O)N1[C@@H]2CC[C@H]1C[C@H](CC(=O)NCCCNC(=O)c1ccc(-c3c4nc(c(-c5cc(S(=O)(=O)[O-])ccc5F)c5ccc([nH]5)c(-c5cc(S(=O)(=O)[O-])ccc5F)c5nc(c(-c6cc(S(=O)(=O)[O-])ccc6F)c6ccc3[nH]6)C=C5)C=C4)cc1)C2
REMARK SMILES IDX 20 1 19 2 17 3 18 4 16 6 15 7 9 8 10 9 13 10 11 11 89 12
REMARK SMILES IDX 12 13 14 14 7 15 8 16 6 17 2 18 3 19 4 20 5 21 1 22 21 25
REMARK SMILES IDX 22 26 23 27 24 28 25 30 26 31 27 32 88 33 28 34 87 35 29 36
REMARK SMILES IDX 30 37 31 38 81 39 32 40 86 41 80 42 82 43 33 44 85 45 79 46
REMARK SMILES IDX 78 47 34 49 66 50 46 51 65 52 47 53 50 54 64 55 83 56 48 57
REMARK SMILES IDX 49 58 63 60 84 61 51 62 35 63 36 64 44 65 37 66 43 67 45 68
REMARK SMILES IDX 42 69 38 70 39 71 40 72 41 73 67 74 68 75 76 76 69 77 75 78
REMARK SMILES IDX 77 79 74 80 70 81 71 82 72 83 73 84 52 85 53 86 61 87 54 88
REMARK SMILES IDX 60 89 62 90 59 91 55 92 56 93 57 94 58 95
REMARK H PARENT 19 5 1 23 1 24 23 29 82 48 50 59
REMARK Flexibility Score: inf
ROOT
ATOM      1  C   UNL A   1      33.794  28.725  24.950  1.00  0.00     0.117 C 
ENDROOT
BRANCH   1   2
ATOM      2  N   UNL A   1      33.898  28.424  23.529  1.00  0.00    -0.356 N 
ATOM      3  C   UNL A   1      33.611  27.295  22.823  1.00  0.00     0.220 C 
ATOM      4  O   UNL A   1      33.833  27.293  21.611  1.00  0.00    -0.275 OA
ATOM      5  H   UNL A   1      34.236  29.168  22.982  1.00  0.00     0.163 HD
BRANCH   3   6
ATOM      6  C   UNL A   1      33.037  26.070  23.501  1.00  0.00     0.103 C 
BRANCH   6   7
ATOM      7  C   UNL A   1      34.112  25.053  23.931  1.00  0.00     0.002 C 
ATOM      8  N   UNL A   1      34.047  22.619  25.483  1.00  0.00    -0.331 N 
ATOM      9  C   UNL A   1      34.453  22.507  24.091  1.00  0.00     0.086 C 
ATOM     10  C   UNL A   1      34.861  23.700  26.009  1.00  0.00     0.086 C 
ATOM     11  C   UNL A   1      35.982  22.661  24.136  1.00  0.00     0.027 C 
ATOM     12  C   UNL A   1      33.782  23.661  23.332  1.00  0.00     0.029 C 
ATOM     13  C   UNL A   1      36.252  23.440  25.428  1.00  0.00     0.027 C 
ATOM     14  C   UNL A   1      34.253  25.003  25.468  1.00  0.00     0.029 C 
BRANCH   8  15
ATOM     15  C   UNL A   1      33.895  21.441  26.211  1.00  0.00     0.280 C 
ATOM     16  O   UNL A   1      34.224  21.369  27.395  1.00  0.00    -0.267 OA
BRANCH  15  17
ATOM     17  C   UNL A   1      33.436  20.296  25.434  1.00  0.00     0.216 A 
ATOM     18  C   UNL A   1      34.147  19.213  24.855  1.00  0.00     0.201 A 
ATOM     19  N   UNL A   1      33.287  18.368  24.291  1.00  0.00    -0.032 NA
ATOM     20  O   UNL A   1      32.041  18.945  24.465  1.00  0.00    -0.242 OA
ATOM     21  N   UNL A   1      32.131  20.135  25.169  1.00  0.00    -0.042 NA
BRANCH  18  22
ATOM     22  N   UNL A   1      35.478  19.031  24.817  1.00  0.00    -0.379 N 
ATOM     23  H   UNL A   1      35.853  18.123  24.888  1.00  0.00     0.158 HD
ATOM     24  H   UNL A   1      36.078  19.804  24.717  1.00  0.00     0.158 HD
ENDBRANCH  18  22
ENDBRANCH  15  17
ENDBRANCH   8  15
ENDBRANCH   6   7
ENDBRANCH   3   6
ENDBRANCH   1   2
BRANCH   1  25
ATOM     25  C   UNL A   1      32.459  29.375  25.309  1.00  0.00     0.042 C 
BRANCH  25  26
ATOM     26  C   UNL A   1      32.368  29.866  26.749  1.00  0.00     0.118 C 
BRANCH  26  27
ATOM     27  N   UNL A   1      32.440  31.312  26.823  1.00  0.00    -0.352 N 
ATOM     28  C   UNL A   1      33.354  32.124  27.451  1.00  0.00     0.251 C 
ATOM     29  H   UNL A   1      31.721  31.787  26.349  1.00  0.00     0.163 HD
ATOM     30  O   UNL A   1      33.061  33.309  27.604  1.00  0.00    -0.269 OA
BRANCH  28  31
ATOM     31  C   UNL A   1      34.661  31.616  27.951  1.00  0.00     0.039 A 
ATOM     32  C   UNL A   1      34.742  30.278  28.357  1.00  0.00     0.014 A 
ATOM     33  C   UNL A   1      35.771  32.447  28.126  1.00  0.00     0.014 A 
ATOM     34  C   UNL A   1      35.922  29.777  28.919  1.00  0.00     0.010 A 
ATOM     35  C   UNL A   1      36.971  31.930  28.625  1.00  0.00     0.010 A 
ATOM     36  C   UNL A   1      37.050  30.597  29.058  1.00  0.00    -0.014 A 
BRANCH  36  37
ATOM     37  C   UNL A   1      38.278  30.104  29.740  1.00  0.00     0.031 A 
ATOM     38  C   UNL A   1      38.577  30.534  31.155  1.00  0.00     0.074 A 
ATOM     39  C   UNL A   1      39.146  29.302  29.093  1.00  0.00     0.049 A 
ATOM     40  N   UNL A   1      39.620  30.270  31.901  1.00  0.00    -0.248 NA
ATOM     41  C   UNL A   1      37.584  31.406  31.798  1.00  0.00     0.031 C 
ATOM     42  C   UNL A   1      39.010  28.844  27.709  1.00  0.00     0.029 A 
ATOM     43  N   UNL A   1      40.321  28.734  29.519  1.00  0.00    -0.354 N 
ATOM     44  C   UNL A   1      39.430  30.976  33.086  1.00  0.00     0.074 A 
ATOM     45  C   UNL A   1      38.185  31.702  32.940  1.00  0.00     0.031 C 
ATOM     46  C   UNL A   1      40.057  28.058  27.404  1.00  0.00     0.029 A 
ATOM     47  C   UNL A   1      40.942  27.967  28.563  1.00  0.00     0.049 A 
ATOM     48  H   UNL A   1      40.684  28.866  30.423  1.00  0.00     0.167 HD
ATOM     49  C   UNL A   1      40.209  31.011  34.195  1.00  0.00     0.034 A 
ATOM     50  C   UNL A   1      42.091  27.267  28.613  1.00  0.00     0.034 A 
ATOM     51  C   UNL A   1      41.421  30.249  34.362  1.00  0.00     0.049 A 
ATOM     52  C   UNL A   1      42.888  27.235  29.888  1.00  0.00     0.074 A 
ATOM     53  C   UNL A   1      42.254  30.175  35.466  1.00  0.00     0.029 A 
ATOM     54  N   UNL A   1      41.967  29.415  33.397  1.00  0.00    -0.354 N 
ATOM     55  N   UNL A   1      42.683  27.892  31.005  1.00  0.00    -0.248 NA
ATOM     56  C   UNL A   1      44.060  26.349  29.914  1.00  0.00     0.031 C 
ATOM     57  C   UNL A   1      43.318  29.315  35.159  1.00  0.00     0.029 A 
ATOM     58  C   UNL A   1      43.125  28.824  33.879  1.00  0.00     0.049 A 
ATOM     59  H   UNL A   1      41.588  29.265  32.501  1.00  0.00     0.167 HD
ATOM     60  C   UNL A   1      43.692  27.486  31.871  1.00  0.00     0.074 A 
ATOM     61  C   UNL A   1      44.503  26.526  31.151  1.00  0.00     0.031 C 
ATOM     62  C   UNL A   1      43.923  27.871  33.150  1.00  0.00     0.034 A 
BRANCH  49  63
ATOM     63  C   UNL A   1      39.775  31.937  35.302  1.00  0.00     0.023 A 
ATOM     64  C   UNL A   1      39.024  31.477  36.397  1.00  0.00     0.031 A 
ATOM     65  C   UNL A   1      40.064  33.310  35.228  1.00  0.00     0.131 A 
ATOM     66  C   UNL A   1      38.515  32.393  37.330  1.00  0.00     0.055 A 
ATOM     67  C   UNL A   1      39.617  34.206  36.201  1.00  0.00     0.041 A 
ATOM     68  F   UNL A   1      40.761  33.806  34.194  1.00  0.00    -0.206 F 
ATOM     69  C   UNL A   1      38.823  33.752  37.251  1.00  0.00     0.022 A 
BRANCH  66  70
ATOM     70  S   UNL A   1      37.322  31.801  38.561  1.00  0.00     0.124 S 
ATOM     71  O   UNL A   1      36.222  32.747  38.383  1.00  0.00    -0.237 OA
ATOM     72  O   UNL A   1      37.065  30.435  38.121  1.00  0.00    -0.237 OA
ATOM     73  O   UNL A   1      38.043  31.926  39.826  1.00  0.00    -0.744 OA
ENDBRANCH  66  70
ENDBRANCH  49  63
BRANCH  50  74
ATOM     74  C   UNL A   1      42.562  26.524  27.418  1.00  0.00     0.023 A 
ATOM     75  C   UNL A   1      42.274  25.160  27.257  1.00  0.00     0.031 A 
ATOM     76  C   UNL A   1      43.323  27.167  26.432  1.00  0.00     0.131 A 
ATOM     77  C   UNL A   1      42.773  24.469  26.143  1.00  0.00     0.055 A 
ATOM     78  C   UNL A   1      43.798  26.482  25.315  1.00  0.00     0.041 A 
ATOM     79  F   UNL A   1      43.610  28.474  26.543  1.00  0.00    -0.206 F 
ATOM     80  C   UNL A   1      43.531  25.122  25.169  1.00  0.00     0.022 A 
BRANCH  77  81
ATOM     81  S   UNL A   1      42.443  22.691  26.006  1.00  0.00     0.124 S 
ATOM     82  O   UNL A   1      42.985  22.383  24.689  1.00  0.00    -0.237 OA
ATOM     83  O   UNL A   1      43.186  22.157  27.143  1.00  0.00    -0.237 OA
ATOM     84  O   UNL A   1      40.989  22.605  26.119  1.00  0.00    -0.744 OA
ENDBRANCH  77  81
ENDBRANCH  50  74
BRANCH  62  85
ATOM     85  C   UNL A   1      45.074  27.213  33.857  1.00  0.00     0.023 A 
ATOM     86  C   UNL A   1      44.899  26.047  34.621  1.00  0.00     0.031 A 
ATOM     87  C   UNL A   1      46.359  27.774  33.779  1.00  0.00     0.131 A 
ATOM     88  C   UNL A   1      45.989  25.495  35.311  1.00  0.00     0.055 A 
ATOM     89  C   UNL A   1      47.445  27.206  34.443  1.00  0.00     0.041 A 
ATOM     90  F   UNL A   1      46.572  28.889  33.063  1.00  0.00    -0.206 F 
ATOM     91  C   UNL A   1      47.262  26.065  35.222  1.00  0.00     0.022 A 
BRANCH  88  92
ATOM     92  S   UNL A   1      45.712  24.054  36.378  1.00  0.00     0.124 S 
ATOM     93  O   UNL A   1      45.435  23.000  35.406  1.00  0.00    -0.237 OA
ATOM     94  O   UNL A   1      46.981  23.943  37.089  1.00  0.00    -0.237 OA
ATOM     95  O   UNL A   1      44.572  24.449  37.203  1.00  0.00    -0.744 OA
ENDBRANCH  88  92
ENDBRANCH  62  85
ENDBRANCH  36  37
ENDBRANCH  28  31
ENDBRANCH  26  27
ENDBRANCH  25  26
ENDBRANCH   1  25
TORSDOF 17
ENDMDL
MODEL 2
REMARK VINA RESULT:     -12.1      2.231      2.691
REMARK SMILES Nc1nonc1C(=O)N1[C@@H]2CC[C@H]1C[C@H](CC(=O)NCCCNC(=O)c1ccc(-c3c4nc(c(-c5cc(S(=O)(=O)[O-])ccc5F)c5ccc([nH]5)c(-c5cc(S(=O)(=O)[O-])ccc5F)c5nc(c(-c6cc(S(=O)(=O)[O-])ccc6F)c6ccc3[nH]6)C=C5)C=C4)cc1)C2
REMARK SMILES IDX 20 1 19 2 17 3 18 4 16 6 15 7 9 8 10 9 13 10 11 11 89 12
REMARK SMILES IDX 12 13 14 14 7 15 8 16 6 17 2 18 3 19 4 20 5 21 1 22 21 25
REMARK SMILES IDX 22 26 23 27 24 28 25 30 26 31 27 32 88 33 28 34 87 35 29 36
REMARK SMILES IDX 30 37 31 38 81 39 32 40 86 41 80 42 82 43 33 44 85 45 79 46
REMARK SMILES IDX 78 47 34 49 66 50 46 51 65 52 47 53 50 54 64 55 83 56 48 57
REMARK SMILES IDX 49 58 63 60 84 61 51 62 35 63 36 64 44 65 37 66 43 67 45 68
REMARK SMILES IDX 42 69 38 70 39 71 40 72 41 73 67 74 68 75 76 76 69 77 75 78
REMARK SMILES IDX 77 79 74 80 70 81 71 82 72 83 73 84 52 85 53 86 61 87 54 88
REMARK SMILES IDX 60 89 62 90 59 91 55 92 56 93 57 94 58 95
REMARK H PARENT 19 5 1 23 1 24 23 29 82 48 50 59
REMARK Flexibility Score: inf
ROOT
ATOM      1  C   UNL A   1      31.701  28.030  25.666  1.00  0.00     0.117 C 
ENDROOT
BRANCH   1   2
ATOM      2  N   UNL A   1      32.169  27.901  24.293  1.00  0.00    -0.356 N 
ATOM      3  C   UNL A   1      32.581  26.817  23.579  1.00  0.00     0.220 C 
ATOM      4  O   UNL A   1      32.972  26.993  22.423  1.00  0.00    -0.275 OA
ATOM      5  H   UNL A   1      32.192  28.748  23.792  1.00  0.00     0.163 HD
BRANCH   3   6
ATOM      6  C   UNL A   1      32.566  25.428  24.180  1.00  0.00     0.103 C 
BRANCH   6   7
ATOM      7  C   UNL A   1      33.964  24.785  24.261  1.00  0.00     0.002 C 
ATOM      8  N   UNL A   1      34.896  22.093  24.732  1.00  0.00    -0.331 N 
ATOM      9  C   UNL A   1      35.210  22.687  23.442  1.00  0.00     0.086 C 
ATOM     10  C   UNL A   1      35.304  23.096  25.698  1.00  0.00     0.086 C 
ATOM     11  C   UNL A   1      36.579  23.349  23.661  1.00  0.00     0.027 C 
ATOM     12  C   UNL A   1      34.113  23.720  23.144  1.00  0.00     0.029 C 
ATOM     13  C   UNL A   1      36.647  23.603  25.171  1.00  0.00     0.027 C 
ATOM     14  C   UNL A   1      34.228  24.193  25.663  1.00  0.00     0.029 C 
BRANCH   8  15
ATOM     15  C   UNL A   1      35.233  20.756  24.929  1.00  0.00     0.280 C 
ATOM     16  O   UNL A   1      36.404  20.400  25.062  1.00  0.00    -0.267 OA
BRANCH  15  17
ATOM     17  C   UNL A   1      34.115  19.824  24.846  1.00  0.00     0.216 A 
ATOM     18  C   UNL A   1      34.083  18.408  24.758  1.00  0.00     0.201 A 
ATOM     19  N   UNL A   1      32.819  17.991  24.772  1.00  0.00    -0.032 NA
ATOM     20  O   UNL A   1      32.054  19.144  24.814  1.00  0.00    -0.242 OA
ATOM     21  N   UNL A   1      32.853  20.276  24.859  1.00  0.00    -0.042 NA
BRANCH  18  22
ATOM     22  N   UNL A   1      35.125  17.568  24.639  1.00  0.00    -0.379 N 
ATOM     23  H   UNL A   1      35.771  17.478  25.376  1.00  0.00     0.158 HD
ATOM     24  H   UNL A   1      35.243  17.043  23.815  1.00  0.00     0.158 HD
ENDBRANCH  18  22
ENDBRANCH  15  17
ENDBRANCH   8  15
ENDBRANCH   6   7
ENDBRANCH   3   6
ENDBRANCH   1   2
BRANCH   1  25
ATOM     25  C   UNL A   1      32.852  28.180  26.659  1.00  0.00     0.042 C 
BRANCH  25  26
ATOM     26  C   UNL A   1      33.991  29.067  26.170  1.00  0.00     0.118 C 
BRANCH  26  27
ATOM     27  N   UNL A   1      33.811  30.443  26.591  1.00  0.00    -0.352 N 
ATOM     28  C   UNL A   1      34.433  31.154  27.590  1.00  0.00     0.251 C 
ATOM     29  H   UNL A   1      33.138  30.947  26.081  1.00  0.00     0.163 HD
ATOM     30  O   UNL A   1      33.927  32.219  27.938  1.00  0.00    -0.269 OA
BRANCH  28  31
ATOM     31  C   UNL A   1      35.674  30.674  28.256  1.00  0.00     0.039 A 
ATOM     32  C   UNL A   1      36.906  31.145  27.785  1.00  0.00     0.014 A 
ATOM     33  C   UNL A   1      35.660  29.697  29.257  1.00  0.00     0.014 A 
ATOM     34  C   UNL A   1      38.105  30.656  28.316  1.00  0.00     0.010 A 
ATOM     35  C   UNL A   1      36.855  29.257  29.834  1.00  0.00     0.010 A 
ATOM     36  C   UNL A   1      38.092  29.706  29.348  1.00  0.00    -0.014 A 
BRANCH  36  37
ATOM     37  C   UNL A   1      39.357  29.108  29.856  1.00  0.00     0.031 A 
ATOM     38  C   UNL A   1      40.023  29.684  31.081  1.00  0.00     0.074 A 
ATOM     39  C   UNL A   1      39.933  28.074  29.212  1.00  0.00     0.049 A 
ATOM     40  N   UNL A   1      41.156  29.351  31.645  1.00  0.00    -0.248 NA
ATOM     41  C   UNL A   1      39.335  30.806  31.734  1.00  0.00     0.031 C 
ATOM     42  C   UNL A   1      39.427  27.447  27.989  1.00  0.00     0.029 A 
ATOM     43  N   UNL A   1      41.079  27.375  29.497  1.00  0.00    -0.354 N 
ATOM     44  C   UNL A   1      41.340  30.249  32.693  1.00  0.00     0.074 A 
ATOM     45  C   UNL A   1      40.212  31.157  32.662  1.00  0.00     0.031 C 
ATOM     46  C   UNL A   1      40.255  26.448  27.636  1.00  0.00     0.029 A 
ATOM     47  C   UNL A   1      41.353  26.374  28.596  1.00  0.00     0.049 A 
ATOM     48  H   UNL A   1      41.650  27.572  30.273  1.00  0.00     0.167 HD
ATOM     49  C   UNL A   1      42.344  30.308  33.603  1.00  0.00     0.034 A 
ATOM     50  C   UNL A   1      42.372  25.493  28.550  1.00  0.00     0.034 A 
ATOM     51  C   UNL A   1      43.439  29.374  33.667  1.00  0.00     0.049 A 
ATOM     52  C   UNL A   1      43.420  25.510  29.628  1.00  0.00     0.074 A 
ATOM     53  C   UNL A   1      44.479  29.317  34.581  1.00  0.00     0.029 A 
ATOM     54  N   UNL A   1      43.630  28.320  32.785  1.00  0.00    -0.354 N 
ATOM     55  N   UNL A   1      43.566  26.353  30.622  1.00  0.00    -0.248 NA
ATOM     56  C   UNL A   1      44.428  24.441  29.587  1.00  0.00     0.031 C 
ATOM     57  C   UNL A   1      45.311  28.243  34.236  1.00  0.00     0.029 A 
ATOM     58  C   UNL A   1      44.768  27.609  33.132  1.00  0.00     0.049 A 
ATOM     59  H   UNL A   1      43.043  28.108  32.024  1.00  0.00     0.167 HD
ATOM     60  C   UNL A   1      44.674  25.906  31.333  1.00  0.00     0.074 A 
ATOM     61  C   UNL A   1      45.156  24.718  30.659  1.00  0.00     0.031 C 
ATOM     62  C   UNL A   1      45.238  26.430  32.450  1.00  0.00     0.034 A 
BRANCH  49  63
ATOM     63  C   UNL A   1      42.306  31.453  34.583  1.00  0.00     0.023 A 
ATOM     64  C   UNL A   1      41.387  31.484  35.645  1.00  0.00     0.031 A 
ATOM     65  C   UNL A   1      43.160  32.556  34.414  1.00  0.00     0.131 A 
ATOM     66  C   UNL A   1      41.284  32.631  36.446  1.00  0.00     0.055 A 
ATOM     67  C   UNL A   1      43.104  33.663  35.262  1.00  0.00     0.041 A 
ATOM     68  F   UNL A   1      44.045  32.586  33.405  1.00  0.00    -0.206 F 
ATOM     69  C   UNL A   1      42.149  33.713  36.275  1.00  0.00     0.022 A 
BRANCH  66  70
ATOM     70  S   UNL A   1      39.903  32.747  37.617  1.00  0.00     0.124 S 
ATOM     71  O   UNL A   1      40.596  32.643  38.899  1.00  0.00    -0.237 OA
ATOM     72  O   UNL A   1      39.331  34.051  37.304  1.00  0.00    -0.237 OA
ATOM     73  O   UNL A   1      39.066  31.599  37.275  1.00  0.00    -0.744 OA
ENDBRANCH  66  70
ENDBRANCH  49  63
BRANCH  50  74
ATOM     74  C   UNL A   1      42.451  24.507  27.443  1.00  0.00     0.023 A 
ATOM     75  C   UNL A   1      41.678  23.337  27.464  1.00  0.00     0.031 A 
ATOM     76  C   UNL A   1      43.319  24.717  26.362  1.00  0.00     0.131 A 
ATOM     77  C   UNL A   1      41.809  22.397  26.431  1.00  0.00     0.055 A 
ATOM     78  C   UNL A   1      43.429  23.791  25.326  1.00  0.00     0.041 A 
ATOM     79  F   UNL A   1      44.066  25.830  26.299  1.00  0.00    -0.206 F 
ATOM     80  C   UNL A   1      42.677  22.618  25.360  1.00  0.00     0.022 A 
BRANCH  77  81
ATOM     81  S   UNL A   1      40.849  20.862  26.528  1.00  0.00     0.124 S 
ATOM     82  O   UNL A   1      41.645  19.954  25.711  1.00  0.00    -0.237 OA
ATOM     83  O   UNL A   1      40.849  20.595  27.963  1.00  0.00    -0.237 OA
ATOM     84  O   UNL A   1      39.553  21.234  25.966  1.00  0.00    -0.744 OA
ENDBRANCH  77  81
ENDBRANCH  50  74
BRANCH  62  85
ATOM     85  C   UNL A   1      46.410  25.688  33.027  1.00  0.00     0.023 A 
ATOM     86  C   UNL A   1      47.719  25.908  32.568  1.00  0.00     0.031 A 
ATOM     87  C   UNL A   1      46.207  24.734  34.037  1.00  0.00     0.131 A 
ATOM     88  C   UNL A   1      48.779  25.154  33.094  1.00  0.00     0.055 A 
ATOM     89  C   UNL A   1      47.267  24.007  34.577  1.00  0.00     0.041 A 
ATOM     90  F   UNL A   1      44.973  24.489  34.504  1.00  0.00    -0.206 F 
ATOM     91  C   UNL A   1      48.562  24.209  34.100  1.00  0.00     0.022 A 
BRANCH  88  92
ATOM     92  S   UNL A   1      50.442  25.381  32.406  1.00  0.00     0.124 S 
ATOM     93  O   UNL A   1      51.253  24.531  33.272  1.00  0.00    -0.237 OA
ATOM     94  O   UNL A   1      50.278  24.915  31.033  1.00  0.00    -0.237 OA
ATOM     95  O   UNL A   1      50.681  26.816  32.548  1.00  0.00    -0.744 OA
ENDBRANCH  88  92
ENDBRANCH  62  85
ENDBRANCH  36  37
ENDBRANCH  28  31
ENDBRANCH  26  27
ENDBRANCH  25  26
ENDBRANCH   1  25
TORSDOF 17
ENDMDL
MODEL 3
REMARK VINA RESULT:     -11.9      1.851      2.373
REMARK SMILES Nc1nonc1C(=O)N1[C@@H]2CC[C@H]1C[C@H](CC(=O)NCCCNC(=O)c1ccc(-c3c4nc(c(-c5cc(S(=O)(=O)[O-])ccc5F)c5ccc([nH]5)c(-c5cc(S(=O)(=O)[O-])ccc5F)c5nc(c(-c6cc(S(=O)(=O)[O-])ccc6F)c6ccc3[nH]6)C=C5)C=C4)cc1)C2
REMARK SMILES IDX 20 1 19 2 17 3 18 4 16 6 15 7 9 8 10 9 13 10 11 11 89 12
REMARK SMILES IDX 12 13 14 14 7 15 8 16 6 17 2 18 3 19 4 20 5 21 1 22 21 25
REMARK SMILES IDX 22 26 23 27 24 28 25 30 26 31 27 32 88 33 28 34 87 35 29 36
REMARK SMILES IDX 30 37 31 38 81 39 32 40 86 41 80 42 82 43 33 44 85 45 79 46
REMARK SMILES IDX 78 47 34 49 66 50 46 51 65 52 47 53 50 54 64 55 83 56 48 57
REMARK SMILES IDX 49 58 63 60 84 61 51 62 35 63 36 64 44 65 37 66 43 67 45 68
REMARK SMILES IDX 42 69 38 70 39 71 40 72 41 73 67 74 68 75 76 76 69 77 75 78
REMARK SMILES IDX 77 79 74 80 70 81 71 82 72 83 73 84 52 85 53 86 61 87 54 88
REMARK SMILES IDX 60 89 62 90 59 91 55 92 56 93 57 94 58 95
REMARK H PARENT 19 5 1 23 1 24 23 29 82 48 50 59
REMARK Flexibility Score: inf
ROOT
ATOM      1  C   UNL A   1      32.124  28.504  24.233  1.00  0.00     0.117 C 
ENDROOT
BRANCH   1   2
ATOM      2  N   UNL A   1      32.990  27.848  23.263  1.00  0.00    -0.356 N 
ATOM      3  C   UNL A   1      32.882  26.650  22.623  1.00  0.00     0.220 C 
ATOM      4  O   UNL A   1      33.794  26.309  21.867  1.00  0.00    -0.275 OA
ATOM      5  H   UNL A   1      33.796  28.361  23.028  1.00  0.00     0.163 HD
BRANCH   3   6
ATOM      6  C   UNL A   1      31.681  25.754  22.832  1.00  0.00     0.103 C 
BRANCH   6   7
ATOM      7  C   UNL A   1      31.657  25.083  24.219  1.00  0.00     0.002 C 
ATOM      8  N   UNL A   1      32.692  22.590  25.246  1.00  0.00    -0.331 N 
ATOM      9  C   UNL A   1      33.231  23.817  25.814  1.00  0.00     0.086 C 
ATOM     10  C   UNL A   1      31.253  22.768  25.309  1.00  0.00     0.086 C 
ATOM     11  C   UNL A   1      32.322  24.098  27.020  1.00  0.00     0.027 C 
ATOM     12  C   UNL A   1      33.108  24.903  24.736  1.00  0.00     0.029 C 
ATOM     13  C   UNL A   1      31.009  23.380  26.689  1.00  0.00     0.027 C 
ATOM     14  C   UNL A   1      30.887  23.744  24.181  1.00  0.00     0.029 C 
BRANCH   8  15
ATOM     15  C   UNL A   1      33.265  21.385  25.644  1.00  0.00     0.280 C 
ATOM     16  O   UNL A   1      34.132  21.341  26.517  1.00  0.00    -0.267 OA
BRANCH  15  17
ATOM     17  C   UNL A   1      32.845  20.223  24.871  1.00  0.00     0.216 A 
ATOM     18  C   UNL A   1      32.611  18.878  25.258  1.00  0.00     0.201 A 
ATOM     19  N   UNL A   1      32.174  18.184  24.210  1.00  0.00    -0.032 NA
ATOM     20  O   UNL A   1      32.185  19.075  23.151  1.00  0.00    -0.242 OA
ATOM     21  N   UNL A   1      32.599  20.334  23.558  1.00  0.00    -0.042 NA
BRANCH  18  22
ATOM     22  N   UNL A   1      32.815  18.322  26.465  1.00  0.00    -0.379 N 
ATOM     23  H   UNL A   1      33.373  17.515  26.547  1.00  0.00     0.158 HD
ATOM     24  H   UNL A   1      32.408  18.723  27.266  1.00  0.00     0.158 HD
ENDBRANCH  18  22
ENDBRANCH  15  17
ENDBRANCH   8  15
ENDBRANCH   6   7
ENDBRANCH   3   6
ENDBRANCH   1   2
BRANCH   1  25
ATOM     25  C   UNL A   1      32.585  28.275  25.671  1.00  0.00     0.042 C 
BRANCH  25  26
ATOM     26  C   UNL A   1      33.888  28.979  26.030  1.00  0.00     0.118 C 
BRANCH  26  27
ATOM     27  N   UNL A   1      33.651  30.330  26.501  1.00  0.00    -0.352 N 
ATOM     28  C   UNL A   1      34.241  31.029  27.527  1.00  0.00     0.251 C 
ATOM     29  H   UNL A   1      32.959  30.824  26.007  1.00  0.00     0.163 HD
ATOM     30  O   UNL A   1      33.691  32.059  27.912  1.00  0.00    -0.269 OA
BRANCH  28  31
ATOM     31  C   UNL A   1      35.499  30.576  28.180  1.00  0.00     0.039 A 
ATOM     32  C   UNL A   1      36.719  30.999  27.638  1.00  0.00     0.014 A 
ATOM     33  C   UNL A   1      35.508  29.666  29.242  1.00  0.00     0.014 A 
ATOM     34  C   UNL A   1      37.930  30.529  28.158  1.00  0.00     0.010 A 
ATOM     35  C   UNL A   1      36.718  29.248  29.805  1.00  0.00     0.010 A 
ATOM     36  C   UNL A   1      37.942  29.648  29.249  1.00  0.00    -0.014 A 
BRANCH  36  37
ATOM     37  C   UNL A   1      39.217  29.067  29.751  1.00  0.00     0.031 A 
ATOM     38  C   UNL A   1      39.888  29.660  30.966  1.00  0.00     0.074 A 
ATOM     39  C   UNL A   1      39.798  28.034  29.111  1.00  0.00     0.049 A 
ATOM     40  N   UNL A   1      41.030  29.343  31.523  1.00  0.00    -0.248 NA
ATOM     41  C   UNL A   1      39.195  30.781  31.615  1.00  0.00     0.031 C 
ATOM     42  C   UNL A   1      39.289  27.391  27.898  1.00  0.00     0.029 A 
ATOM     43  N   UNL A   1      40.954  27.348  29.392  1.00  0.00    -0.354 N 
ATOM     44  C   UNL A   1      41.213  30.252  32.561  1.00  0.00     0.074 A 
ATOM     45  C   UNL A   1      40.076  31.148  32.533  1.00  0.00     0.031 C 
ATOM     46  C   UNL A   1      40.123  26.397  27.546  1.00  0.00     0.029 A 
ATOM     47  C   UNL A   1      41.231  26.342  28.498  1.00  0.00     0.049 A 
ATOM     48  H   UNL A   1      41.530  27.558  30.162  1.00  0.00     0.167 HD
ATOM     49  C   UNL A   1      42.224  30.329  33.462  1.00  0.00     0.034 A 
ATOM     50  C   UNL A   1      42.257  25.472  28.450  1.00  0.00     0.034 A 
ATOM     51  C   UNL A   1      43.329  29.406  33.525  1.00  0.00     0.049 A 
ATOM     52  C   UNL A   1      43.314  25.508  29.519  1.00  0.00     0.074 A 
ATOM     53  C   UNL A   1      44.377  29.367  34.431  1.00  0.00     0.029 A 
ATOM     54  N   UNL A   1      43.523  28.347  32.651  1.00  0.00    -0.354 N 
ATOM     55  N   UNL A   1      43.461  26.361  30.504  1.00  0.00    -0.248 NA
ATOM     56  C   UNL A   1      44.333  24.449  29.478  1.00  0.00     0.031 C 
ATOM     57  C   UNL A   1      45.217  28.299  34.088  1.00  0.00     0.029 A 
ATOM     58  C   UNL A   1      44.671  27.650  32.993  1.00  0.00     0.049 A 
ATOM     59  H   UNL A   1      42.932  28.123  31.896  1.00  0.00     0.167 HD
ATOM     60  C   UNL A   1      44.578  25.931  31.210  1.00  0.00     0.074 A 
ATOM     61  C   UNL A   1      45.068  24.742  30.542  1.00  0.00     0.031 C 
ATOM     62  C   UNL A   1      45.147  26.470  32.318  1.00  0.00     0.034 A 
BRANCH  49  63
ATOM     63  C   UNL A   1      42.183  31.481  34.433  1.00  0.00     0.023 A 
ATOM     64  C   UNL A   1      41.291  31.500  35.518  1.00  0.00     0.031 A 
ATOM     65  C   UNL A   1      43.005  32.603  34.232  1.00  0.00     0.131 A 
ATOM     66  C   UNL A   1      41.180  32.652  36.312  1.00  0.00     0.055 A 
ATOM     67  C   UNL A   1      42.943  33.717  35.072  1.00  0.00     0.041 A 
ATOM     68  F   UNL A   1      43.862  32.646  33.200  1.00  0.00    -0.206 F 
ATOM     69  C   UNL A   1      42.014  33.753  36.109  1.00  0.00     0.022 A 
BRANCH  66  70
ATOM     70  S   UNL A   1      39.828  32.745  37.517  1.00  0.00     0.124 S 
ATOM     71  O   UNL A   1      39.013  31.594  37.133  1.00  0.00    -0.237 OA
ATOM     72  O   UNL A   1      40.529  32.634  38.789  1.00  0.00    -0.237 OA
ATOM     73  O   UNL A   1      39.219  34.047  37.249  1.00  0.00    -0.744 OA
ENDBRANCH  66  70
ENDBRANCH  49  63
BRANCH  50  74
ATOM     74  C   UNL A   1      42.337  24.477  27.351  1.00  0.00     0.023 A 
ATOM     75  C   UNL A   1      41.606  23.281  27.407  1.00  0.00     0.031 A 
ATOM     76  C   UNL A   1      43.165  24.704  26.242  1.00  0.00     0.131 A 
ATOM     77  C   UNL A   1      41.738  22.335  26.380  1.00  0.00     0.055 A 
ATOM     78  C   UNL A   1      43.275  23.771  25.212  1.00  0.00     0.041 A 
ATOM     79  F   UNL A   1      43.871  25.842  26.146  1.00  0.00    -0.206 F 
ATOM     80  C   UNL A   1      42.566  22.574  25.280  1.00  0.00     0.022 A 
BRANCH  77  81
ATOM     81  S   UNL A   1      40.834  20.770  26.521  1.00  0.00     0.124 S 
ATOM     82  O   UNL A   1      41.661  19.870  25.727  1.00  0.00    -0.237 OA
ATOM     83  O   UNL A   1      40.846  20.542  27.962  1.00  0.00    -0.237 OA
ATOM     84  O   UNL A   1      39.524  21.079  25.953  1.00  0.00    -0.744 OA
ENDBRANCH  77  81
ENDBRANCH  50  74
BRANCH  62  85
ATOM     85  C   UNL A   1      46.331  25.745  32.891  1.00  0.00     0.023 A 
ATOM     86  C   UNL A   1      46.177  24.699  33.816  1.00  0.00     0.031 A 
ATOM     87  C   UNL A   1      47.632  26.123  32.519  1.00  0.00     0.131 A 
ATOM     88  C   UNL A   1      47.311  24.085  34.371  1.00  0.00     0.055 A 
ATOM     89  C   UNL A   1      48.755  25.491  33.051  1.00  0.00     0.041 A 
ATOM     90  F   UNL A   1      47.827  27.118  31.641  1.00  0.00    -0.206 F 
ATOM     91  C   UNL A   1      48.599  24.471  33.989  1.00  0.00     0.022 A 
BRANCH  88  92
ATOM     92  S   UNL A   1      47.083  22.813  35.644  1.00  0.00     0.124 S 
ATOM     93  O   UNL A   1      47.162  21.580  34.866  1.00  0.00    -0.237 OA
ATOM     94  O   UNL A   1      48.204  23.068  36.543  1.00  0.00    -0.237 OA
ATOM     95  O   UNL A   1      45.764  23.112  36.198  1.00  0.00    -0.744 OA
ENDBRANCH  88  92
ENDBRANCH  62  85
ENDBRANCH  36  37
ENDBRANCH  28  31
ENDBRANCH  26  27
ENDBRANCH  25  26
ENDBRANCH   1  25
TORSDOF 17
ENDMDL
