MODEL 1
REMARK VINA RESULT:      -9.7      0.000      0.000
REMARK SMILES C/C=C/c1cncc(-c2ccc([C@@H](C)C(=O)NCCCNC(=O)c3ccc(-c4c5nc(c(-c6cc(S(=O)(=O)[O-])ccc6F)c6ccc([nH]6)c(-c6cc(S(=O)(=O)[O-])ccc6F)c6nc(c(-c7cc(S(=O)(=O)[O-])ccc7F)c7ccc4[nH]7)C=C6)C=C5)cc3)cc2)c1
REMARK SMILES IDX 19 1 18 2 17 3 15 4 16 5 13 7 14 8 12 9 9 10 10 11 88 12
REMARK SMILES IDX 11 13 87 14 8 15 4 16 5 17 89 18 6 19 7 20 3 21 1 22 2 23
REMARK SMILES IDX 20 24 21 25 22 26 23 28 24 29 25 30 86 31 26 32 85 33 27 34
REMARK SMILES IDX 28 35 29 36 79 37 30 38 84 39 78 40 80 41 31 42 83 43 77 44
REMARK SMILES IDX 76 45 32 47 64 48 44 49 63 50 45 51 48 52 62 53 81 54 46 55
REMARK SMILES IDX 47 56 61 58 82 59 49 60 33 61 34 62 42 63 35 64 41 65 43 66
REMARK SMILES IDX 40 67 36 68 37 69 38 70 39 71 65 72 66 73 74 74 67 75 73 76
REMARK SMILES IDX 75 77 72 78 68 79 69 80 70 81 71 82 50 83 51 84 59 85 52 86
REMARK SMILES IDX 58 87 60 88 57 89 53 90 54 91 55 92 56 93
REMARK H PARENT 17 6 21 27 80 46 48 57
REMARK Flexibility Score: inf
ROOT
ATOM      1  C   UNL A   1      41.789  19.975  27.290  1.00  0.00     0.042 C 
ENDROOT
BRANCH   1   2
ATOM      2  C   UNL A   1      42.313  20.027  25.858  1.00  0.00     0.117 C 
BRANCH   2   3
ATOM      3  N   UNL A   1      43.761  20.087  25.800  1.00  0.00    -0.356 N 
ATOM      4  C   UNL A   1      44.628  21.128  25.670  1.00  0.00     0.227 C 
ATOM      5  O   UNL A   1      45.829  20.834  25.605  1.00  0.00    -0.274 OA
ATOM      6  H   UNL A   1      44.200  19.208  25.867  1.00  0.00     0.163 HD
BRANCH   4   7
ATOM      7  C   UNL A   1      44.202  22.604  25.628  1.00  0.00     0.105 C 
ATOM      8  C   UNL A   1      44.708  23.368  24.404  1.00  0.00     0.023 C 
BRANCH   7   9
ATOM      9  C   UNL A   1      44.347  23.323  26.959  1.00  0.00    -0.036 A 
ATOM     10  C   UNL A   1      44.581  24.529  29.545  1.00  0.00    -0.017 A 
ATOM     11  C   UNL A   1      45.689  24.370  28.699  1.00  0.00     0.009 A 
ATOM     12  C   UNL A   1      43.342  24.091  29.053  1.00  0.00     0.009 A 
ATOM     13  C   UNL A   1      45.568  23.815  27.420  1.00  0.00     0.005 A 
ATOM     14  C   UNL A   1      43.229  23.483  27.793  1.00  0.00     0.005 A 
BRANCH  10  15
ATOM     15  C   UNL A   1      44.734  25.137  30.884  1.00  0.00     0.001 A 
ATOM     16  C   UNL A   1      45.223  27.016  32.368  1.00  0.00    -0.007 A 
ATOM     17  C   UNL A   1      44.936  26.174  33.438  1.00  0.00     0.119 A 
ATOM     18  C   UNL A   1      45.120  26.475  31.077  1.00  0.00     0.020 A 
ATOM     19  N   UNL A   1      44.582  24.878  33.312  1.00  0.00    -0.263 NA
ATOM     20  C   UNL A   1      44.489  24.403  32.049  1.00  0.00     0.119 A 
BRANCH  16  21
ATOM     21  C   UNL A   1      45.677  28.385  32.632  1.00  0.00     0.005 C 
ATOM     22  C   UNL A   1      45.439  30.869  32.681  1.00  0.00     0.035 C 
ATOM     23  C   UNL A   1      44.963  29.488  32.363  1.00  0.00    -0.030 C 
ENDBRANCH  16  21
ENDBRANCH  10  15
ENDBRANCH   7   9
ENDBRANCH   4   7
ENDBRANCH   2   3
ENDBRANCH   1   2
BRANCH   1  24
ATOM     24  C   UNL A   1      40.914  21.164  27.671  1.00  0.00     0.118 C 
BRANCH  24  25
ATOM     25  N   UNL A   1      39.847  21.390  26.706  1.00  0.00    -0.352 N 
ATOM     26  C   UNL A   1      39.167  22.540  26.379  1.00  0.00     0.251 C 
ATOM     27  H   UNL A   1      39.566  20.589  26.207  1.00  0.00     0.163 HD
ATOM     28  O   UNL A   1      38.145  22.447  25.704  1.00  0.00    -0.269 OA
BRANCH  26  29
ATOM     29  C   UNL A   1      39.639  23.868  26.836  1.00  0.00     0.039 A 
ATOM     30  C   UNL A   1      40.229  24.731  25.907  1.00  0.00     0.014 A 
ATOM     31  C   UNL A   1      39.551  24.253  28.176  1.00  0.00     0.014 A 
ATOM     32  C   UNL A   1      40.671  25.996  26.308  1.00  0.00     0.010 A 
ATOM     33  C   UNL A   1      39.913  25.543  28.557  1.00  0.00     0.010 A 
ATOM     34  C   UNL A   1      40.485  26.427  27.630  1.00  0.00    -0.014 A 
BRANCH  34  35
ATOM     35  C   UNL A   1      40.895  27.789  28.070  1.00  0.00     0.031 A 
ATOM     36  C   UNL A   1      42.349  28.179  28.059  1.00  0.00     0.074 A 
ATOM     37  C   UNL A   1      39.968  28.646  28.543  1.00  0.00     0.049 A 
ATOM     38  N   UNL A   1      42.919  29.272  28.499  1.00  0.00    -0.248 NA
ATOM     39  C   UNL A   1      43.291  27.192  27.509  1.00  0.00     0.031 C 
ATOM     40  C   UNL A   1      38.533  28.370  28.638  1.00  0.00     0.029 A 
ATOM     41  N   UNL A   1      40.093  29.917  29.046  1.00  0.00    -0.354 N 
ATOM     42  C   UNL A   1      44.284  29.096  28.297  1.00  0.00     0.074 A 
ATOM     43  C   UNL A   1      44.459  27.767  27.752  1.00  0.00     0.031 C 
ATOM     44  C   UNL A   1      37.911  29.445  29.145  1.00  0.00     0.029 A 
ATOM     45  C   UNL A   1      38.902  30.468  29.463  1.00  0.00     0.049 A 
ATOM     46  H   UNL A   1      40.954  30.391  29.105  1.00  0.00     0.167 HD
ATOM     47  C   UNL A   1      45.297  29.971  28.526  1.00  0.00     0.034 A 
ATOM     48  C   UNL A   1      38.641  31.653  30.050  1.00  0.00     0.034 A 
ATOM     49  C   UNL A   1      45.101  31.299  29.056  1.00  0.00     0.049 A 
ATOM     50  C   UNL A   1      39.784  32.600  30.318  1.00  0.00     0.074 A 
ATOM     51  C   UNL A   1      46.044  32.288  29.272  1.00  0.00     0.029 A 
ATOM     52  N   UNL A   1      43.879  31.823  29.461  1.00  0.00    -0.354 N 
ATOM     53  N   UNL A   1      41.065  32.437  30.078  1.00  0.00    -0.248 NA
ATOM     54  C   UNL A   1      39.445  33.893  30.927  1.00  0.00     0.031 C 
ATOM     55  C   UNL A   1      45.408  33.379  29.872  1.00  0.00     0.029 A 
ATOM     56  C   UNL A   1      44.051  33.107  29.955  1.00  0.00     0.049 A 
ATOM     57  H   UNL A   1      43.017  31.351  29.404  1.00  0.00     0.167 HD
ATOM     58  C   UNL A   1      41.679  33.621  30.477  1.00  0.00     0.074 A 
ATOM     59  C   UNL A   1      40.626  34.491  30.959  1.00  0.00     0.031 C 
ATOM     60  C   UNL A   1      42.993  33.961  30.442  1.00  0.00     0.034 A 
BRANCH  47  61
ATOM     61  C   UNL A   1      46.703  29.503  28.231  1.00  0.00     0.023 A 
ATOM     62  C   UNL A   1      47.462  28.792  29.178  1.00  0.00     0.031 A 
ATOM     63  C   UNL A   1      47.303  29.790  26.992  1.00  0.00     0.131 A 
ATOM     64  C   UNL A   1      48.799  28.466  28.904  1.00  0.00     0.055 A 
ATOM     65  C   UNL A   1      48.606  29.386  26.693  1.00  0.00     0.041 A 
ATOM     66  F   UNL A   1      46.639  30.482  26.054  1.00  0.00    -0.206 F 
ATOM     67  C   UNL A   1      49.368  28.734  27.658  1.00  0.00     0.022 A 
BRANCH  64  68
ATOM     68  S   UNL A   1      49.826  27.820  30.252  1.00  0.00     0.124 S 
ATOM     69  O   UNL A   1      48.817  27.478  31.253  1.00  0.00    -0.237 OA
ATOM     70  O   UNL A   1      50.506  26.696  29.620  1.00  0.00    -0.237 OA
ATOM     71  O   UNL A   1      50.681  28.951  30.604  1.00  0.00    -0.744 OA
ENDBRANCH  64  68
ENDBRANCH  47  61
BRANCH  48  72
ATOM     72  C   UNL A   1      37.247  32.011  30.441  1.00  0.00     0.023 A 
ATOM     73  C   UNL A   1      36.374  32.623  29.527  1.00  0.00     0.031 A 
ATOM     74  C   UNL A   1      36.776  31.778  31.746  1.00  0.00     0.131 A 
ATOM     75  C   UNL A   1      35.095  33.026  29.943  1.00  0.00     0.055 A 
ATOM     76  C   UNL A   1      35.483  32.128  32.138  1.00  0.00     0.041 A 
ATOM     77  F   UNL A   1      37.568  31.195  32.660  1.00  0.00    -0.206 F 
ATOM     78  C   UNL A   1      34.638  32.769  31.237  1.00  0.00     0.022 A 
BRANCH  75  79
ATOM     79  S   UNL A   1      34.066  33.974  28.788  1.00  0.00     0.124 S 
ATOM     80  O   UNL A   1      33.070  34.551  29.683  1.00  0.00    -0.237 OA
ATOM     81  O   UNL A   1      35.032  34.907  28.217  1.00  0.00    -0.237 OA
ATOM     82  O   UNL A   1      33.564  32.958  27.867  1.00  0.00    -0.744 OA
ENDBRANCH  75  79
ENDBRANCH  48  72
BRANCH  60  83
ATOM     83  C   UNL A   1      43.355  35.354  30.898  1.00  0.00     0.023 A 
ATOM     84  C   UNL A   1      43.456  35.687  32.260  1.00  0.00     0.031 A 
ATOM     85  C   UNL A   1      43.600  36.363  29.950  1.00  0.00     0.131 A 
ATOM     86  C   UNL A   1      43.742  37.008  32.636  1.00  0.00     0.055 A 
ATOM     87  C   UNL A   1      43.945  37.661  30.329  1.00  0.00     0.041 A 
ATOM     88  F   UNL A   1      43.514  36.102  28.636  1.00  0.00    -0.206 F 
ATOM     89  C   UNL A   1      44.005  37.992  31.679  1.00  0.00     0.022 A 
BRANCH  86  90
ATOM     90  S   UNL A   1      43.682  37.446  34.395  1.00  0.00     0.124 S 
ATOM     91  O   UNL A   1      42.708  38.534  34.404  1.00  0.00    -0.237 OA
ATOM     92  O   UNL A   1      43.248  36.198  35.014  1.00  0.00    -0.237 OA
ATOM     93  O   UNL A   1      45.056  37.842  34.698  1.00  0.00    -0.744 OA
ENDBRANCH  86  90
ENDBRANCH  60  83
ENDBRANCH  34  35
ENDBRANCH  26  29
ENDBRANCH  24  25
ENDBRANCH   1  24
TORSDOF 16
ENDMDL
MODEL 2
REMARK VINA RESULT:      -9.7      3.701     11.045
REMARK SMILES C/C=C/c1cncc(-c2ccc([C@@H](C)C(=O)NCCCNC(=O)c3ccc(-c4c5nc(c(-c6cc(S(=O)(=O)[O-])ccc6F)c6ccc([nH]6)c(-c6cc(S(=O)(=O)[O-])ccc6F)c6nc(c(-c7cc(S(=O)(=O)[O-])ccc7F)c7ccc4[nH]7)C=C6)C=C5)cc3)cc2)c1
REMARK SMILES IDX 19 1 18 2 17 3 15 4 16 5 13 7 14 8 12 9 9 10 10 11 88 12
REMARK SMILES IDX 11 13 87 14 8 15 4 16 5 17 89 18 6 19 7 20 3 21 1 22 2 23
REMARK SMILES IDX 20 24 21 25 22 26 23 28 24 29 25 30 86 31 26 32 85 33 27 34
REMARK SMILES IDX 28 35 29 36 79 37 30 38 84 39 78 40 80 41 31 42 83 43 77 44
REMARK SMILES IDX 76 45 32 47 64 48 44 49 63 50 45 51 48 52 62 53 81 54 46 55
REMARK SMILES IDX 47 56 61 58 82 59 49 60 33 61 34 62 42 63 35 64 41 65 43 66
REMARK SMILES IDX 40 67 36 68 37 69 38 70 39 71 65 72 66 73 74 74 67 75 73 76
REMARK SMILES IDX 75 77 72 78 68 79 69 80 70 81 71 82 50 83 51 84 59 85 52 86
REMARK SMILES IDX 58 87 60 88 57 89 53 90 54 91 55 92 56 93
REMARK H PARENT 17 6 21 27 80 46 48 57
REMARK Flexibility Score: inf
ROOT
ATOM      1  C   UNL A   1      33.295  34.223  28.693  1.00  0.00     0.042 C 
ENDROOT
BRANCH   1   2
ATOM      2  C   UNL A   1      33.925  35.562  29.065  1.00  0.00     0.117 C 
BRANCH   2   3
ATOM      3  N   UNL A   1      33.924  35.798  30.496  1.00  0.00    -0.356 N 
ATOM      4  C   UNL A   1      34.362  35.051  31.544  1.00  0.00     0.227 C 
ATOM      5  O   UNL A   1      34.169  35.525  32.672  1.00  0.00    -0.274 OA
ATOM      6  H   UNL A   1      33.531  36.662  30.758  1.00  0.00     0.163 HD
BRANCH   4   7
ATOM      7  C   UNL A   1      35.084  33.702  31.400  1.00  0.00     0.105 C 
ATOM      8  C   UNL A   1      34.779  32.703  32.517  1.00  0.00     0.023 C 
BRANCH   7   9
ATOM      9  C   UNL A   1      36.549  33.829  31.012  1.00  0.00    -0.036 A 
ATOM     10  C   UNL A   1      39.342  33.950  30.400  1.00  0.00    -0.017 A 
ATOM     11  C   UNL A   1      38.405  33.444  29.487  1.00  0.00     0.009 A 
ATOM     12  C   UNL A   1      38.842  34.421  31.624  1.00  0.00     0.009 A 
ATOM     13  C   UNL A   1      37.036  33.419  29.770  1.00  0.00     0.005 A 
ATOM     14  C   UNL A   1      37.474  34.345  31.932  1.00  0.00     0.005 A 
BRANCH  10  15
ATOM     15  C   UNL A   1      40.782  33.982  30.066  1.00  0.00     0.001 A 
ATOM     16  C   UNL A   1      43.061  33.113  30.214  1.00  0.00    -0.007 A 
ATOM     17  C   UNL A   1      43.441  34.112  29.324  1.00  0.00     0.119 A 
ATOM     18  C   UNL A   1      41.709  33.061  30.585  1.00  0.00     0.020 A 
ATOM     19  N   UNL A   1      42.600  35.035  28.810  1.00  0.00    -0.263 NA
ATOM     20  C   UNL A   1      41.306  34.940  29.191  1.00  0.00     0.119 A 
BRANCH  16  21
ATOM     21  C   UNL A   1      44.082  32.217  30.767  1.00  0.00     0.005 C 
ATOM     22  C   UNL A   1      45.884  30.495  30.630  1.00  0.00     0.035 C 
ATOM     23  C   UNL A   1      44.824  31.368  30.039  1.00  0.00    -0.030 C 
ENDBRANCH  16  21
ENDBRANCH  10  15
ENDBRANCH   7   9
ENDBRANCH   4   7
ENDBRANCH   2   3
ENDBRANCH   1   2
BRANCH   1  24
ATOM     24  C   UNL A   1      34.254  33.259  28.005  1.00  0.00     0.118 C 
BRANCH  24  25
ATOM     25  N   UNL A   1      33.573  32.073  27.504  1.00  0.00    -0.352 N 
ATOM     26  C   UNL A   1      34.022  30.782  27.353  1.00  0.00     0.251 C 
ATOM     27  H   UNL A   1      32.639  32.220  27.229  1.00  0.00     0.163 HD
ATOM     28  O   UNL A   1      33.347  29.998  26.691  1.00  0.00    -0.269 OA
BRANCH  26  29
ATOM     29  C   UNL A   1      35.298  30.336  27.959  1.00  0.00     0.039 A 
ATOM     30  C   UNL A   1      35.277  29.774  29.240  1.00  0.00     0.014 A 
ATOM     31  C   UNL A   1      36.518  30.508  27.302  1.00  0.00     0.014 A 
ATOM     32  C   UNL A   1      36.465  29.332  29.831  1.00  0.00     0.010 A 
ATOM     33  C   UNL A   1      37.688  29.992  27.854  1.00  0.00     0.010 A 
ATOM     34  C   UNL A   1      37.678  29.405  29.129  1.00  0.00    -0.014 A 
BRANCH  34  35
ATOM     35  C   UNL A   1      38.947  28.891  29.711  1.00  0.00     0.031 A 
ATOM     36  C   UNL A   1      39.504  29.506  30.968  1.00  0.00     0.074 A 
ATOM     37  C   UNL A   1      39.632  27.921  29.073  1.00  0.00     0.049 A 
ATOM     38  N   UNL A   1      40.640  29.275  31.573  1.00  0.00    -0.248 NA
ATOM     39  C   UNL A   1      38.684  30.545  31.611  1.00  0.00     0.031 C 
ATOM     40  C   UNL A   1      39.213  27.271  27.829  1.00  0.00     0.029 A 
ATOM     41  N   UNL A   1      40.829  27.320  29.372  1.00  0.00    -0.354 N 
ATOM     42  C   UNL A   1      40.682  30.150  32.653  1.00  0.00     0.074 A 
ATOM     43  C   UNL A   1      39.483  30.958  32.583  1.00  0.00     0.031 C 
ATOM     44  C   UNL A   1      40.126  26.350  27.485  1.00  0.00     0.029 A 
ATOM     45  C   UNL A   1      41.221  26.377  28.449  1.00  0.00     0.049 A 
ATOM     46  H   UNL A   1      41.359  27.542  30.172  1.00  0.00     0.167 HD
ATOM     47  C   UNL A   1      41.623  30.256  33.626  1.00  0.00     0.034 A 
ATOM     48  C   UNL A   1      42.343  25.632  28.377  1.00  0.00     0.034 A 
ATOM     49  C   UNL A   1      42.805  29.431  33.688  1.00  0.00     0.049 A 
ATOM     50  C   UNL A   1      43.387  25.783  29.455  1.00  0.00     0.074 A 
ATOM     51  C   UNL A   1      43.792  29.411  34.657  1.00  0.00     0.029 A 
ATOM     52  N   UNL A   1      43.165  28.483  32.738  1.00  0.00    -0.354 N 
ATOM     53  N   UNL A   1      43.388  26.583  30.497  1.00  0.00    -0.248 NA
ATOM     54  C   UNL A   1      44.574  24.925  29.353  1.00  0.00     0.031 C 
ATOM     55  C   UNL A   1      44.782  28.507  34.258  1.00  0.00     0.029 A 
ATOM     56  C   UNL A   1      44.374  27.898  33.081  1.00  0.00     0.049 A 
ATOM     57  H   UNL A   1      42.637  28.258  31.937  1.00  0.00     0.167 HD
ATOM     58  C   UNL A   1      44.561  26.300  31.191  1.00  0.00     0.074 A 
ATOM     59  C   UNL A   1      45.233  25.247  30.456  1.00  0.00     0.031 C 
ATOM     60  C   UNL A   1      45.038  26.855  32.334  1.00  0.00     0.034 A 
BRANCH  47  61
ATOM     61  C   UNL A   1      41.421  31.321  34.678  1.00  0.00     0.023 A 
ATOM     62  C   UNL A   1      40.394  31.231  35.636  1.00  0.00     0.031 A 
ATOM     63  C   UNL A   1      42.252  32.455  34.714  1.00  0.00     0.131 A 
ATOM     64  C   UNL A   1      40.174  32.289  36.531  1.00  0.00     0.055 A 
ATOM     65  C   UNL A   1      42.082  33.464  35.664  1.00  0.00     0.041 A 
ATOM     66  F   UNL A   1      43.237  32.609  33.816  1.00  0.00    -0.206 F 
ATOM     67  C   UNL A   1      41.028  33.393  36.570  1.00  0.00     0.022 A 
BRANCH  64  68
ATOM     68  S   UNL A   1      38.669  32.268  37.543  1.00  0.00     0.124 S 
ATOM     69  O   UNL A   1      37.987  33.476  37.081  1.00  0.00    -0.237 OA
ATOM     70  O   UNL A   1      38.052  31.002  37.165  1.00  0.00    -0.237 OA
ATOM     71  O   UNL A   1      39.175  32.334  38.912  1.00  0.00    -0.744 OA
ENDBRANCH  64  68
ENDBRANCH  47  61
BRANCH  48  72
ATOM     72  C   UNL A   1      42.550  24.687  27.242  1.00  0.00     0.023 A 
ATOM     73  C   UNL A   1      42.049  23.376  27.290  1.00  0.00     0.031 A 
ATOM     74  C   UNL A   1      43.285  25.069  26.104  1.00  0.00     0.131 A 
ATOM     75  C   UNL A   1      42.329  22.481  26.246  1.00  0.00     0.055 A 
ATOM     76  C   UNL A   1      43.511  24.193  25.042  1.00  0.00     0.041 A 
ATOM     77  F   UNL A   1      43.786  26.311  26.006  1.00  0.00    -0.206 F 
ATOM     78  C   UNL A   1      43.043  22.884  25.116  1.00  0.00     0.022 A 
BRANCH  75  79
ATOM     79  S   UNL A   1      41.820  20.749  26.428  1.00  0.00     0.124 S 
ATOM     80  O   UNL A   1      42.600  20.098  25.382  1.00  0.00    -0.237 OA
ATOM     81  O   UNL A   1      42.220  20.458  27.802  1.00  0.00    -0.237 OA
ATOM     82  O   UNL A   1      40.378  20.792  26.197  1.00  0.00    -0.744 OA
ENDBRANCH  75  79
ENDBRANCH  48  72
BRANCH  60  83
ATOM     83  C   UNL A   1      46.328  26.297  32.884  1.00  0.00     0.023 A 
ATOM     84  C   UNL A   1      46.351  25.169  33.723  1.00  0.00     0.031 A 
ATOM     85  C   UNL A   1      47.553  26.909  32.565  1.00  0.00     0.131 A 
ATOM     86  C   UNL A   1      47.570  24.719  34.254  1.00  0.00     0.055 A 
ATOM     87  C   UNL A   1      48.768  26.420  33.046  1.00  0.00     0.041 A 
ATOM     88  F   UNL A   1      47.590  27.992  31.771  1.00  0.00    -0.206 F 
ATOM     89  C   UNL A   1      48.779  25.326  33.907  1.00  0.00     0.022 A 
BRANCH  86  90
ATOM     90  S   UNL A   1      47.546  23.380  35.477  1.00  0.00     0.124 S 
ATOM     91  O   UNL A   1      48.162  24.017  36.637  1.00  0.00    -0.237 OA
ATOM     92  O   UNL A   1      46.122  23.087  35.593  1.00  0.00    -0.237 OA
ATOM     93  O   UNL A   1      48.345  22.328  34.851  1.00  0.00    -0.744 OA
ENDBRANCH  86  90
ENDBRANCH  60  83
ENDBRANCH  34  35
ENDBRANCH  26  29
ENDBRANCH  24  25
ENDBRANCH   1  24
TORSDOF 16
ENDMDL
MODEL 3
REMARK VINA RESULT:      -9.7      5.306     10.856
REMARK SMILES C/C=C/c1cncc(-c2ccc([C@@H](C)C(=O)NCCCNC(=O)c3ccc(-c4c5nc(c(-c6cc(S(=O)(=O)[O-])ccc6F)c6ccc([nH]6)c(-c6cc(S(=O)(=O)[O-])ccc6F)c6nc(c(-c7cc(S(=O)(=O)[O-])ccc7F)c7ccc4[nH]7)C=C6)C=C5)cc3)cc2)c1
REMARK SMILES IDX 19 1 18 2 17 3 15 4 16 5 13 7 14 8 12 9 9 10 10 11 88 12
REMARK SMILES IDX 11 13 87 14 8 15 4 16 5 17 89 18 6 19 7 20 3 21 1 22 2 23
REMARK SMILES IDX 20 24 21 25 22 26 23 28 24 29 25 30 86 31 26 32 85 33 27 34
REMARK SMILES IDX 28 35 29 36 79 37 30 38 84 39 78 40 80 41 31 42 83 43 77 44
REMARK SMILES IDX 76 45 32 47 64 48 44 49 63 50 45 51 48 52 62 53 81 54 46 55
REMARK SMILES IDX 47 56 61 58 82 59 49 60 33 61 34 62 42 63 35 64 41 65 43 66
REMARK SMILES IDX 40 67 36 68 37 69 38 70 39 71 65 72 66 73 74 74 67 75 73 76
REMARK SMILES IDX 75 77 72 78 68 79 69 80 70 81 71 82 50 83 51 84 59 85 52 86
REMARK SMILES IDX 58 87 60 88 57 89 53 90 54 91 55 92 56 93
REMARK H PARENT 17 6 21 27 80 46 48 57
REMARK Flexibility Score: inf
ROOT
ATOM      1  C   UNL A   1      31.487  32.916  26.514  1.00  0.00     0.042 C 
ENDROOT
BRANCH   1   2
ATOM      2  C   UNL A   1      31.060  31.451  26.502  1.00  0.00     0.117 C 
BRANCH   2   3
ATOM      3  N   UNL A   1      31.590  30.728  25.362  1.00  0.00    -0.356 N 
ATOM      4  C   UNL A   1      32.411  29.647  25.267  1.00  0.00     0.227 C 
ATOM      5  O   UNL A   1      32.720  29.294  24.121  1.00  0.00    -0.274 OA
ATOM      6  H   UNL A   1      31.301  31.087  24.492  1.00  0.00     0.163 HD
BRANCH   4   7
ATOM      7  C   UNL A   1      32.934  28.853  26.475  1.00  0.00     0.105 C 
ATOM      8  C   UNL A   1      34.194  29.440  27.113  1.00  0.00     0.023 C 
BRANCH   7   9
ATOM      9  C   UNL A   1      32.943  27.348  26.263  1.00  0.00    -0.036 A 
ATOM     10  C   UNL A   1      33.077  24.502  25.986  1.00  0.00    -0.017 A 
ATOM     11  C   UNL A   1      31.927  25.146  26.467  1.00  0.00     0.009 A 
ATOM     12  C   UNL A   1      34.155  25.323  25.621  1.00  0.00     0.009 A 
ATOM     13  C   UNL A   1      31.847  26.539  26.567  1.00  0.00     0.005 A 
ATOM     14  C   UNL A   1      34.097  26.717  25.772  1.00  0.00     0.005 A 
BRANCH  10  15
ATOM     15  C   UNL A   1      33.126  23.029  25.873  1.00  0.00     0.001 A 
ATOM     16  C   UNL A   1      32.880  20.941  24.627  1.00  0.00    -0.007 A 
ATOM     17  C   UNL A   1      33.308  20.273  25.769  1.00  0.00     0.119 A 
ATOM     18  C   UNL A   1      32.788  22.340  24.695  1.00  0.00     0.020 A 
ATOM     19  N   UNL A   1      33.625  20.880  26.932  1.00  0.00    -0.263 NA
ATOM     20  C   UNL A   1      33.528  22.229  26.948  1.00  0.00     0.119 A 
BRANCH  16  21
ATOM     21  C   UNL A   1      32.486  20.166  23.446  1.00  0.00     0.005 C 
ATOM     22  C   UNL A   1      32.163  18.070  22.129  1.00  0.00     0.035 C 
ATOM     23  C   UNL A   1      32.610  18.835  23.333  1.00  0.00    -0.030 C 
ENDBRANCH  16  21
ENDBRANCH  10  15
ENDBRANCH   7   9
ENDBRANCH   4   7
ENDBRANCH   2   3
ENDBRANCH   1   2
BRANCH   1  24
ATOM     24  C   UNL A   1      32.679  33.204  27.418  1.00  0.00     0.118 C 
BRANCH  24  25
ATOM     25  N   UNL A   1      32.638  34.553  27.965  1.00  0.00    -0.352 N 
ATOM     26  C   UNL A   1      33.311  35.107  29.028  1.00  0.00     0.251 C 
ATOM     27  H   UNL A   1      32.028  35.169  27.498  1.00  0.00     0.163 HD
ATOM     28  O   UNL A   1      32.943  36.199  29.454  1.00  0.00    -0.269 OA
BRANCH  26  29
ATOM     29  C   UNL A   1      34.450  34.406  29.666  1.00  0.00     0.039 A 
ATOM     30  C   UNL A   1      35.724  34.538  29.104  1.00  0.00     0.014 A 
ATOM     31  C   UNL A   1      34.270  33.584  30.780  1.00  0.00     0.014 A 
ATOM     32  C   UNL A   1      36.820  33.899  29.692  1.00  0.00     0.010 A 
ATOM     33  C   UNL A   1      35.373  33.017  31.415  1.00  0.00     0.010 A 
ATOM     34  C   UNL A   1      36.660  33.160  30.875  1.00  0.00    -0.014 A 
BRANCH  34  35
ATOM     35  C   UNL A   1      37.817  32.516  31.553  1.00  0.00     0.031 A 
ATOM     36  C   UNL A   1      38.534  31.367  30.895  1.00  0.00     0.074 A 
ATOM     37  C   UNL A   1      38.178  32.919  32.788  1.00  0.00     0.049 A 
ATOM     38  N   UNL A   1      39.491  30.607  31.362  1.00  0.00    -0.248 NA
ATOM     39  C   UNL A   1      38.090  31.005  29.540  1.00  0.00     0.031 C 
ATOM     40  C   UNL A   1      37.537  33.997  33.546  1.00  0.00     0.029 A 
ATOM     41  N   UNL A   1      39.160  32.463  33.632  1.00  0.00    -0.354 N 
ATOM     42  C   UNL A   1      39.750  29.667  30.370  1.00  0.00     0.074 A 
ATOM     43  C   UNL A   1      38.806  29.917  29.302  1.00  0.00     0.031 C 
ATOM     44  C   UNL A   1      38.156  34.132  34.728  1.00  0.00     0.029 A 
ATOM     45  C   UNL A   1      39.201  33.119  34.841  1.00  0.00     0.049 A 
ATOM     46  H   UNL A   1      39.777  31.733  33.395  1.00  0.00     0.167 HD
ATOM     47  C   UNL A   1      40.700  28.698  30.344  1.00  0.00     0.034 A 
ATOM     48  C   UNL A   1      39.978  32.917  35.924  1.00  0.00     0.034 A 
ATOM     49  C   UNL A   1      41.643  28.475  31.413  1.00  0.00     0.049 A 
ATOM     50  C   UNL A   1      41.012  31.820  35.883  1.00  0.00     0.074 A 
ATOM     51  C   UNL A   1      42.683  27.565  31.468  1.00  0.00     0.029 A 
ATOM     52  N   UNL A   1      41.658  29.165  32.620  1.00  0.00    -0.354 N 
ATOM     53  N   UNL A   1      41.275  30.969  34.917  1.00  0.00    -0.248 NA
ATOM     54  C   UNL A   1      41.859  31.661  37.072  1.00  0.00     0.031 C 
ATOM     55  C   UNL A   1      43.279  27.653  32.731  1.00  0.00     0.029 A 
ATOM     56  C   UNL A   1      42.665  28.676  33.437  1.00  0.00     0.049 A 
ATOM     57  H   UNL A   1      41.041  29.894  32.860  1.00  0.00     0.167 HD
ATOM     58  C   UNL A   1      42.340  30.197  35.373  1.00  0.00     0.074 A 
ATOM     59  C   UNL A   1      42.677  30.692  36.691  1.00  0.00     0.031 C 
ATOM     60  C   UNL A   1      42.985  29.174  34.754  1.00  0.00     0.034 A 
BRANCH  47  61
ATOM     61  C   UNL A   1      40.742  27.795  29.134  1.00  0.00     0.023 A 
ATOM     62  C   UNL A   1      41.688  27.974  28.108  1.00  0.00     0.031 A 
ATOM     63  C   UNL A   1      39.810  26.752  28.991  1.00  0.00     0.131 A 
ATOM     64  C   UNL A   1      41.629  27.180  26.952  1.00  0.00     0.055 A 
ATOM     65  C   UNL A   1      39.812  25.909  27.877  1.00  0.00     0.041 A 
ATOM     66  F   UNL A   1      38.870  26.542  29.925  1.00  0.00    -0.206 F 
ATOM     67  C   UNL A   1      40.715  26.131  26.842  1.00  0.00     0.022 A 
BRANCH  64  68
ATOM     68  S   UNL A   1      42.667  27.634  25.536  1.00  0.00     0.124 S 
ATOM     69  O   UNL A   1      43.942  27.926  26.187  1.00  0.00    -0.237 OA
ATOM     70  O   UNL A   1      42.628  26.429  24.717  1.00  0.00    -0.237 OA
ATOM     71  O   UNL A   1      41.985  28.797  24.970  1.00  0.00    -0.744 OA
ENDBRANCH  64  68
ENDBRANCH  47  61
BRANCH  48  72
ATOM     72  C   UNL A   1      39.806  33.757  37.144  1.00  0.00     0.023 A 
ATOM     73  C   UNL A   1      40.617  34.880  37.371  1.00  0.00     0.031 A 
ATOM     74  C   UNL A   1      38.850  33.428  38.123  1.00  0.00     0.131 A 
ATOM     75  C   UNL A   1      40.492  35.605  38.567  1.00  0.00     0.055 A 
ATOM     76  C   UNL A   1      38.689  34.186  39.283  1.00  0.00     0.041 A 
ATOM     77  F   UNL A   1      38.047  32.365  37.957  1.00  0.00    -0.206 F 
ATOM     78  C   UNL A   1      39.523  35.276  39.517  1.00  0.00     0.022 A 
BRANCH  75  79
ATOM     79  S   UNL A   1      41.677  36.937  38.902  1.00  0.00     0.124 S 
ATOM     80  O   UNL A   1      42.365  37.052  37.622  1.00  0.00    -0.237 OA
ATOM     81  O   UNL A   1      40.796  38.045  39.258  1.00  0.00    -0.237 OA
ATOM     82  O   UNL A   1      42.483  36.407  39.999  1.00  0.00    -0.744 OA
ENDBRANCH  75  79
ENDBRANCH  48  72
BRANCH  60  83
ATOM     83  C   UNL A   1      44.153  28.556  35.485  1.00  0.00     0.023 A 
ATOM     84  C   UNL A   1      43.977  27.550  36.451  1.00  0.00     0.031 A 
ATOM     85  C   UNL A   1      45.463  28.987  35.209  1.00  0.00     0.131 A 
ATOM     86  C   UNL A   1      45.088  27.045  37.142  1.00  0.00     0.055 A 
ATOM     87  C   UNL A   1      46.570  28.436  35.856  1.00  0.00     0.041 A 
ATOM     88  F   UNL A   1      45.690  29.947  34.298  1.00  0.00    -0.206 F 
ATOM     89  C   UNL A   1      46.385  27.469  36.838  1.00  0.00     0.022 A 
BRANCH  86  90
ATOM     90  S   UNL A   1      44.811  25.885  38.509  1.00  0.00     0.124 S 
ATOM     91  O   UNL A   1      43.742  26.544  39.254  1.00  0.00    -0.237 OA
ATOM     92  O   UNL A   1      44.438  24.661  37.810  1.00  0.00    -0.237 OA
ATOM     93  O   UNL A   1      46.103  25.841  39.190  1.00  0.00    -0.744 OA
ENDBRANCH  86  90
ENDBRANCH  60  83
ENDBRANCH  34  35
ENDBRANCH  26  29
ENDBRANCH  24  25
ENDBRANCH   1  24
TORSDOF 16
ENDMDL
