MODEL 1
REMARK VINA RESULT:     -12.9      0.000      0.000
REMARK SMILES Cc1c(C#N)c2ccccc2n1CC(=O)N1CC[C@H](O)C[C@@H]1C(=O)NCCCNC(=O)c1ccc(-c2c3nc(c(-c4cc(S(=O)(=O)[O-])ccc4F)c4ccc([nH]4)c(-c4cc(S(=O)(=O)[O-])ccc4F)c4nc(c(-c5cc(S(=O)(=O)[O-])ccc5F)c5ccc2[nH]5)C=C4)C=C3)cc1
REMARK SMILES IDX 26 1 25 2 23 3 24 4 22 6 16 7 17 8 18 9 21 10 19 11 14 12
REMARK SMILES IDX 15 13 13 14 12 15 1 16 2 17 3 18 6 19 11 20 7 21 10 22 8 23
REMARK SMILES IDX 9 24 4 25 5 26 20 27 27 29 28 30 29 31 30 32 31 34 32 35
REMARK SMILES IDX 33 36 94 37 34 38 93 39 35 40 36 41 37 42 87 43 38 44 92 45
REMARK SMILES IDX 86 46 88 47 39 48 91 49 85 50 84 51 40 53 72 54 52 55 71 56
REMARK SMILES IDX 53 57 56 58 70 59 89 60 54 61 55 62 69 64 90 65 57 66 41 67
REMARK SMILES IDX 42 68 50 69 43 70 49 71 51 72 48 73 44 74 45 75 46 76 47 77
REMARK SMILES IDX 73 78 74 79 82 80 75 81 81 82 83 83 80 84 76 85 77 86 78 87
REMARK SMILES IDX 79 88 58 89 59 90 67 91 60 92 66 93 68 94 65 95 61 96 62 97
REMARK SMILES IDX 63 98 64 99
REMARK H PARENT 25 5 20 28 29 33 88 52 56 63
REMARK Flexibility Score: inf
ROOT
ATOM      1  C   UNL A   1      32.735  29.342  25.195  1.00  0.00     0.117 C 
ENDROOT
BRANCH   1   2
ATOM      2  N   UNL A   1      31.516  28.848  24.584  1.00  0.00    -0.354 N 
ATOM      3  C   UNL A   1      31.216  27.605  24.118  1.00  0.00     0.242 C 
ATOM      4  O   UNL A   1      30.074  27.448  23.667  1.00  0.00    -0.273 OA
ATOM      5  H   UNL A   1      30.796  29.513  24.491  1.00  0.00     0.163 HD
BRANCH   3   6
ATOM      6  C   UNL A   1      32.251  26.445  24.184  1.00  0.00     0.177 C 
ATOM      7  N   UNL A   1      31.808  25.321  23.316  1.00  0.00    -0.329 N 
ATOM      8  C   UNL A   1      30.662  24.552  23.812  1.00  0.00     0.123 C 
ATOM      9  C   UNL A   1      30.895  24.045  25.232  1.00  0.00     0.053 C 
ATOM     10  C   UNL A   1      32.519  25.927  25.599  1.00  0.00     0.067 C 
ATOM     11  C   UNL A   1      31.340  25.150  26.176  1.00  0.00     0.118 C 
BRANCH   7  12
ATOM     12  C   UNL A   1      32.501  25.095  22.136  1.00  0.00     0.243 C 
ATOM     13  O   UNL A   1      32.242  25.764  21.128  1.00  0.00    -0.273 OA
BRANCH  12  14
ATOM     14  C   UNL A   1      33.435  23.906  21.971  1.00  0.00     0.222 C 
BRANCH  14  15
ATOM     15  N   UNL A   1      33.521  22.940  23.058  1.00  0.00    -0.334 N 
ATOM     16  C   UNL A   1      31.777  21.354  22.146  1.00  0.00     0.066 C 
ATOM     17  C   UNL A   1      32.800  21.763  23.153  1.00  0.00     0.034 A 
ATOM     18  C   UNL A   1      33.282  21.086  24.262  1.00  0.00     0.080 A 
ATOM     19  C   UNL A   1      34.286  21.884  24.879  1.00  0.00     0.018 A 
ATOM     20  C   UNL A   1      34.395  23.058  24.130  1.00  0.00     0.050 A 
ATOM     21  C   UNL A   1      35.136  21.708  25.994  1.00  0.00     0.012 A 
ATOM     22  C   UNL A   1      35.319  24.064  24.465  1.00  0.00     0.027 A 
ATOM     23  C   UNL A   1      36.064  22.701  26.324  1.00  0.00     0.001 A 
ATOM     24  C   UNL A   1      36.150  23.864  25.570  1.00  0.00     0.002 A 
BRANCH  18  25
ATOM     25  C   UNL A   1      32.871  19.774  24.685  1.00  0.00     0.102 C 
ATOM     26  N   UNL A   1      32.527  18.727  25.021  1.00  0.00    -0.192 NA
ENDBRANCH  18  25
ENDBRANCH  14  15
ENDBRANCH  12  14
ENDBRANCH   7  12
BRANCH  11  27
ATOM     27  O   UNL A   1      30.263  26.020  26.501  1.00  0.00    -0.393 OA
ATOM     28  H   UNL A   1      29.617  26.021  25.777  1.00  0.00     0.210 HD
ENDBRANCH  11  27
ENDBRANCH   3   6
ENDBRANCH   1   2
BRANCH   1  29
ATOM     29  C   UNL A   1      32.477  30.269  26.377  1.00  0.00     0.042 C 
BRANCH  29  30
ATOM     30  C   UNL A   1      33.566  30.281  27.446  1.00  0.00     0.118 C 
BRANCH  30  31
ATOM     31  N   UNL A   1      34.203  31.563  27.646  1.00  0.00    -0.352 N 
ATOM     32  C   UNL A   1      35.494  31.972  27.839  1.00  0.00     0.251 C 
ATOM     33  H   UNL A   1      33.563  32.312  27.640  1.00  0.00     0.163 HD
ATOM     34  O   UNL A   1      35.692  33.178  27.666  1.00  0.00    -0.269 OA
BRANCH  32  35
ATOM     35  C   UNL A   1      36.614  31.122  28.335  1.00  0.00     0.039 A 
ATOM     36  C   UNL A   1      37.651  31.528  29.173  1.00  0.00     0.014 A 
ATOM     37  C   UNL A   1      36.660  29.821  27.796  1.00  0.00     0.014 A 
ATOM     38  C   UNL A   1      38.778  30.715  29.325  1.00  0.00     0.010 A 
ATOM     39  C   UNL A   1      37.769  29.000  27.965  1.00  0.00     0.010 A 
ATOM     40  C   UNL A   1      38.867  29.477  28.663  1.00  0.00    -0.014 A 
BRANCH  40  41
ATOM     41  C   UNL A   1      40.025  28.606  28.905  1.00  0.00     0.031 A 
ATOM     42  C   UNL A   1      40.286  28.462  30.364  1.00  0.00     0.074 A 
ATOM     43  C   UNL A   1      40.719  27.932  27.952  1.00  0.00     0.049 A 
ATOM     44  N   UNL A   1      41.229  29.036  31.034  1.00  0.00    -0.248 NA
ATOM     45  C   UNL A   1      39.261  27.835  31.220  1.00  0.00     0.031 C 
ATOM     46  C   UNL A   1      40.403  27.814  26.523  1.00  0.00     0.029 A 
ATOM     47  N   UNL A   1      41.842  27.150  28.056  1.00  0.00    -0.354 N 
ATOM     48  C   UNL A   1      41.084  28.596  32.349  1.00  0.00     0.074 A 
ATOM     49  C   UNL A   1      39.756  28.056  32.441  1.00  0.00     0.031 C 
ATOM     50  C   UNL A   1      41.153  26.834  25.958  1.00  0.00     0.029 A 
ATOM     51  C   UNL A   1      42.124  26.361  26.930  1.00  0.00     0.049 A 
ATOM     52  H   UNL A   1      42.408  27.142  28.862  1.00  0.00     0.167 HD
ATOM     53  C   UNL A   1      42.180  28.447  33.146  1.00  0.00     0.034 A 
ATOM     54  C   UNL A   1      43.099  25.416  26.796  1.00  0.00     0.034 A 
ATOM     55  C   UNL A   1      43.319  29.072  32.528  1.00  0.00     0.049 A 
ATOM     56  C   UNL A   1      44.111  25.679  27.832  1.00  0.00     0.074 A 
ATOM     57  C   UNL A   1      43.762  30.359  32.327  1.00  0.00     0.029 A 
ATOM     58  N   UNL A   1      43.935  28.268  31.605  1.00  0.00    -0.354 N 
ATOM     59  N   UNL A   1      44.913  26.702  27.799  1.00  0.00    -0.248 NA
ATOM     60  C   UNL A   1      43.973  25.016  29.121  1.00  0.00     0.031 C 
ATOM     61  C   UNL A   1      44.515  30.324  31.120  1.00  0.00     0.029 A 
ATOM     62  C   UNL A   1      44.601  29.007  30.670  1.00  0.00     0.049 A 
ATOM     63  H   UNL A   1      43.901  27.284  31.614  1.00  0.00     0.167 HD
ATOM     64  C   UNL A   1      44.975  27.101  29.117  1.00  0.00     0.074 A 
ATOM     65  C   UNL A   1      44.537  25.944  29.896  1.00  0.00     0.031 C 
ATOM     66  C   UNL A   1      45.046  28.425  29.423  1.00  0.00     0.034 A 
BRANCH  53  67
ATOM     67  C   UNL A   1      42.354  27.344  34.172  1.00  0.00     0.023 A 
ATOM     68  C   UNL A   1      43.158  26.209  33.960  1.00  0.00     0.031 A 
ATOM     69  C   UNL A   1      41.904  27.535  35.498  1.00  0.00     0.131 A 
ATOM     70  C   UNL A   1      43.473  25.324  35.002  1.00  0.00     0.055 A 
ATOM     71  C   UNL A   1      42.273  26.688  36.552  1.00  0.00     0.041 A 
ATOM     72  F   UNL A   1      41.135  28.585  35.823  1.00  0.00    -0.206 F 
ATOM     73  C   UNL A   1      43.064  25.573  36.308  1.00  0.00     0.022 A 
BRANCH  70  74
ATOM     74  S   UNL A   1      44.439  23.824  34.670  1.00  0.00     0.124 S 
ATOM     75  O   UNL A   1      43.404  22.798  34.610  1.00  0.00    -0.237 OA
ATOM     76  O   UNL A   1      45.070  24.162  33.397  1.00  0.00    -0.237 OA
ATOM     77  O   UNL A   1      45.349  23.744  35.809  1.00  0.00    -0.744 OA
ENDBRANCH  70  74
ENDBRANCH  53  67
BRANCH  54  78
ATOM     78  C   UNL A   1      43.094  24.083  26.132  1.00  0.00     0.023 A 
ATOM     79  C   UNL A   1      41.951  23.279  26.267  1.00  0.00     0.031 A 
ATOM     80  C   UNL A   1      44.297  23.432  25.770  1.00  0.00     0.131 A 
ATOM     81  C   UNL A   1      42.047  21.883  26.143  1.00  0.00     0.055 A 
ATOM     82  C   UNL A   1      44.379  22.040  25.607  1.00  0.00     0.041 A 
ATOM     83  F   UNL A   1      45.442  24.124  25.664  1.00  0.00    -0.206 F 
ATOM     84  C   UNL A   1      43.253  21.254  25.818  1.00  0.00     0.022 A 
BRANCH  81  85
ATOM     85  S   UNL A   1      40.627  20.833  26.559  1.00  0.00     0.124 S 
ATOM     86  O   UNL A   1      40.898  19.626  25.782  1.00  0.00    -0.237 OA
ATOM     87  O   UNL A   1      40.777  20.697  28.004  1.00  0.00    -0.237 OA
ATOM     88  O   UNL A   1      39.482  21.618  26.108  1.00  0.00    -0.744 OA
ENDBRANCH  81  85
ENDBRANCH  54  78
BRANCH  66  89
ATOM     89  C   UNL A   1      45.516  29.379  28.359  1.00  0.00     0.023 A 
ATOM     90  C   UNL A   1      46.895  29.626  28.348  1.00  0.00     0.031 A 
ATOM     91  C   UNL A   1      44.698  30.166  27.530  1.00  0.00     0.131 A 
ATOM     92  C   UNL A   1      47.419  30.679  27.602  1.00  0.00     0.055 A 
ATOM     93  C   UNL A   1      45.238  31.166  26.712  1.00  0.00     0.041 A 
ATOM     94  F   UNL A   1      43.363  30.049  27.543  1.00  0.00    -0.206 F 
ATOM     95  C   UNL A   1      46.603  31.443  26.764  1.00  0.00     0.022 A 
BRANCH  92  96
ATOM     96  S   UNL A   1      49.134  31.185  27.867  1.00  0.00     0.124 S 
ATOM     97  O   UNL A   1      49.631  31.321  26.502  1.00  0.00    -0.237 OA
ATOM     98  O   UNL A   1      48.974  32.436  28.607  1.00  0.00    -0.237 OA
ATOM     99  O   UNL A   1      49.713  30.087  28.637  1.00  0.00    -0.744 OA
ENDBRANCH  92  96
ENDBRANCH  66  89
ENDBRANCH  40  41
ENDBRANCH  32  35
ENDBRANCH  30  31
ENDBRANCH  29  30
ENDBRANCH   1  29
TORSDOF 18
ENDMDL
MODEL 2
REMARK VINA RESULT:     -12.9      3.469      8.883
REMARK SMILES Cc1c(C#N)c2ccccc2n1CC(=O)N1CC[C@H](O)C[C@@H]1C(=O)NCCCNC(=O)c1ccc(-c2c3nc(c(-c4cc(S(=O)(=O)[O-])ccc4F)c4ccc([nH]4)c(-c4cc(S(=O)(=O)[O-])ccc4F)c4nc(c(-c5cc(S(=O)(=O)[O-])ccc5F)c5ccc2[nH]5)C=C4)C=C3)cc1
REMARK SMILES IDX 26 1 25 2 23 3 24 4 22 6 16 7 17 8 18 9 21 10 19 11 14 12
REMARK SMILES IDX 15 13 13 14 12 15 1 16 2 17 3 18 6 19 11 20 7 21 10 22 8 23
REMARK SMILES IDX 9 24 4 25 5 26 20 27 27 29 28 30 29 31 30 32 31 34 32 35
REMARK SMILES IDX 33 36 94 37 34 38 93 39 35 40 36 41 37 42 87 43 38 44 92 45
REMARK SMILES IDX 86 46 88 47 39 48 91 49 85 50 84 51 40 53 72 54 52 55 71 56
REMARK SMILES IDX 53 57 56 58 70 59 89 60 54 61 55 62 69 64 90 65 57 66 41 67
REMARK SMILES IDX 42 68 50 69 43 70 49 71 51 72 48 73 44 74 45 75 46 76 47 77
REMARK SMILES IDX 73 78 74 79 82 80 75 81 81 82 83 83 80 84 76 85 77 86 78 87
REMARK SMILES IDX 79 88 58 89 59 90 67 91 60 92 66 93 68 94 65 95 61 96 62 97
REMARK SMILES IDX 63 98 64 99
REMARK H PARENT 25 5 20 28 29 33 88 52 56 63
REMARK Flexibility Score: inf
ROOT
ATOM      1  C   UNL A   1      36.430  23.003  25.764  1.00  0.00     0.117 C 
ENDROOT
BRANCH   1   2
ATOM      2  N   UNL A   1      35.272  22.138  25.653  1.00  0.00    -0.354 N 
ATOM      3  C   UNL A   1      33.952  22.455  25.565  1.00  0.00     0.242 C 
ATOM      4  O   UNL A   1      33.165  21.507  25.448  1.00  0.00    -0.273 OA
ATOM      5  H   UNL A   1      35.471  21.173  25.642  1.00  0.00     0.163 HD
BRANCH   3   6
ATOM      6  C   UNL A   1      33.473  23.935  25.579  1.00  0.00     0.177 C 
ATOM      7  N   UNL A   1      32.017  24.000  25.282  1.00  0.00    -0.329 N 
ATOM      8  C   UNL A   1      31.641  23.715  23.894  1.00  0.00     0.123 C 
ATOM      9  C   UNL A   1      32.406  24.595  22.910  1.00  0.00     0.053 C 
ATOM     10  C   UNL A   1      34.235  24.847  24.615  1.00  0.00     0.067 C 
ATOM     11  C   UNL A   1      33.906  24.566  23.153  1.00  0.00     0.118 C 
BRANCH   7  12
ATOM     12  C   UNL A   1      31.152  24.319  26.318  1.00  0.00     0.243 C 
ATOM     13  O   UNL A   1      30.984  23.524  27.253  1.00  0.00    -0.273 OA
BRANCH  12  14
ATOM     14  C   UNL A   1      30.235  25.530  26.252  1.00  0.00     0.222 C 
BRANCH  14  15
ATOM     15  N   UNL A   1      30.644  26.661  25.429  1.00  0.00    -0.334 N 
ATOM     16  C   UNL A   1      28.900  26.328  23.631  1.00  0.00     0.066 C 
ATOM     17  C   UNL A   1      30.043  27.061  24.249  1.00  0.00     0.034 A 
ATOM     18  C   UNL A   1      30.654  28.246  23.870  1.00  0.00     0.080 A 
ATOM     19  C   UNL A   1      31.676  28.551  24.813  1.00  0.00     0.018 A 
ATOM     20  C   UNL A   1      31.677  27.527  25.763  1.00  0.00     0.050 A 
ATOM     21  C   UNL A   1      32.585  29.621  24.966  1.00  0.00     0.012 A 
ATOM     22  C   UNL A   1      32.564  27.532  26.853  1.00  0.00     0.027 A 
ATOM     23  C   UNL A   1      33.463  29.636  26.056  1.00  0.00     0.001 A 
ATOM     24  C   UNL A   1      33.453  28.602  26.984  1.00  0.00     0.002 A 
BRANCH  18  25
ATOM     25  C   UNL A   1      30.282  29.055  22.741  1.00  0.00     0.102 C 
ATOM     26  N   UNL A   1      29.985  29.718  21.847  1.00  0.00    -0.192 NA
ENDBRANCH  18  25
ENDBRANCH  14  15
ENDBRANCH  12  14
ENDBRANCH   7  12
BRANCH  11  27
ATOM     27  O   UNL A   1      34.476  23.333  22.728  1.00  0.00    -0.393 OA
ATOM     28  H   UNL A   1      33.948  22.964  22.002  1.00  0.00     0.210 HD
ENDBRANCH  11  27
ENDBRANCH   3   6
ENDBRANCH   1   2
BRANCH   1  29
ATOM     29  C   UNL A   1      37.668  22.435  25.079  1.00  0.00     0.042 C 
BRANCH  29  30
ATOM     30  C   UNL A   1      38.554  21.556  25.957  1.00  0.00     0.118 C 
BRANCH  30  31
ATOM     31  N   UNL A   1      39.975  21.753  25.772  1.00  0.00    -0.352 N 
ATOM     32  C   UNL A   1      40.907  22.586  26.327  1.00  0.00     0.251 C 
ATOM     33  H   UNL A   1      40.358  21.149  25.095  1.00  0.00     0.163 HD
ATOM     34  O   UNL A   1      42.081  22.255  26.138  1.00  0.00    -0.269 OA
BRANCH  32  35
ATOM     35  C   UNL A   1      40.624  23.875  27.019  1.00  0.00     0.039 A 
ATOM     36  C   UNL A   1      39.676  24.825  26.643  1.00  0.00     0.014 A 
ATOM     37  C   UNL A   1      41.492  24.184  28.085  1.00  0.00     0.014 A 
ATOM     38  C   UNL A   1      39.714  26.104  27.206  1.00  0.00     0.010 A 
ATOM     39  C   UNL A   1      41.517  25.447  28.663  1.00  0.00     0.010 A 
ATOM     40  C   UNL A   1      40.682  26.437  28.169  1.00  0.00    -0.014 A 
BRANCH  40  41
ATOM     41  C   UNL A   1      40.649  27.761  28.805  1.00  0.00     0.031 A 
ATOM     42  C   UNL A   1      41.631  28.681  28.166  1.00  0.00     0.074 A 
ATOM     43  C   UNL A   1      39.784  28.149  29.776  1.00  0.00     0.049 A 
ATOM     44  N   UNL A   1      42.771  29.045  28.654  1.00  0.00    -0.248 NA
ATOM     45  C   UNL A   1      41.467  29.033  26.743  1.00  0.00     0.031 C 
ATOM     46  C   UNL A   1      38.633  27.407  30.306  1.00  0.00     0.029 A 
ATOM     47  N   UNL A   1      39.705  29.327  30.478  1.00  0.00    -0.354 N 
ATOM     48  C   UNL A   1      43.327  29.912  27.714  1.00  0.00     0.074 A 
ATOM     49  C   UNL A   1      42.603  29.691  26.494  1.00  0.00     0.031 C 
ATOM     50  C   UNL A   1      37.849  28.230  31.047  1.00  0.00     0.029 A 
ATOM     51  C   UNL A   1      38.513  29.514  31.194  1.00  0.00     0.049 A 
ATOM     52  H   UNL A   1      40.432  29.993  30.478  1.00  0.00     0.167 HD
ATOM     53  C   UNL A   1      44.127  30.939  28.120  1.00  0.00     0.034 A 
ATOM     54  C   UNL A   1      38.117  30.624  31.881  1.00  0.00     0.034 A 
ATOM     55  C   UNL A   1      44.489  30.757  29.501  1.00  0.00     0.049 A 
ATOM     56  C   UNL A   1      39.323  31.421  32.160  1.00  0.00     0.074 A 
ATOM     57  C   UNL A   1      45.342  29.943  30.208  1.00  0.00     0.029 A 
ATOM     58  N   UNL A   1      43.532  31.216  30.369  1.00  0.00    -0.354 N 
ATOM     59  N   UNL A   1      40.234  31.056  33.013  1.00  0.00    -0.248 NA
ATOM     60  C   UNL A   1      39.718  32.442  31.200  1.00  0.00     0.031 C 
ATOM     61  C   UNL A   1      44.744  29.774  31.488  1.00  0.00     0.029 A 
ATOM     62  C   UNL A   1      43.599  30.568  31.569  1.00  0.00     0.049 A 
ATOM     63  H   UNL A   1      42.880  31.922  30.155  1.00  0.00     0.167 HD
ATOM     64  C   UNL A   1      41.412  31.415  32.394  1.00  0.00     0.074 A 
ATOM     65  C   UNL A   1      41.039  32.409  31.389  1.00  0.00     0.031 C 
ATOM     66  C   UNL A   1      42.514  30.627  32.523  1.00  0.00     0.034 A 
BRANCH  53  67
ATOM     67  C   UNL A   1      44.154  32.313  27.479  1.00  0.00     0.023 A 
ATOM     68  C   UNL A   1      43.548  33.447  28.050  1.00  0.00     0.031 A 
ATOM     69  C   UNL A   1      45.014  32.565  26.386  1.00  0.00     0.131 A 
ATOM     70  C   UNL A   1      43.779  34.736  27.549  1.00  0.00     0.055 A 
ATOM     71  C   UNL A   1      45.297  33.859  25.928  1.00  0.00     0.041 A 
ATOM     72  F   UNL A   1      45.654  31.563  25.763  1.00  0.00    -0.206 F 
ATOM     73  C   UNL A   1      44.677  34.957  26.511  1.00  0.00     0.022 A 
BRANCH  70  74
ATOM     74  S   UNL A   1      42.908  36.163  28.257  1.00  0.00     0.124 S 
ATOM     75  O   UNL A   1      42.803  35.793  29.663  1.00  0.00    -0.237 OA
ATOM     76  O   UNL A   1      43.837  37.249  27.955  1.00  0.00    -0.237 OA
ATOM     77  O   UNL A   1      41.651  36.200  27.513  1.00  0.00    -0.744 OA
ENDBRANCH  70  74
ENDBRANCH  53  67
BRANCH  54  78
ATOM     78  C   UNL A   1      36.787  31.283  32.005  1.00  0.00     0.023 A 
ATOM     79  C   UNL A   1      36.109  31.635  30.828  1.00  0.00     0.031 A 
ATOM     80  C   UNL A   1      36.399  31.948  33.192  1.00  0.00     0.131 A 
ATOM     81  C   UNL A   1      35.163  32.674  30.837  1.00  0.00     0.055 A 
ATOM     82  C   UNL A   1      35.424  32.959  33.204  1.00  0.00     0.041 A 
ATOM     83  F   UNL A   1      37.030  31.700  34.351  1.00  0.00    -0.206 F 
ATOM     84  C   UNL A   1      34.817  33.343  32.015  1.00  0.00     0.022 A 
BRANCH  81  85
ATOM     85  S   UNL A   1      34.472  33.289  29.277  1.00  0.00     0.124 S 
ATOM     86  O   UNL A   1      35.625  33.947  28.667  1.00  0.00    -0.237 OA
ATOM     87  O   UNL A   1      34.045  32.049  28.636  1.00  0.00    -0.237 OA
ATOM     88  O   UNL A   1      33.403  34.184  29.709  1.00  0.00    -0.744 OA
ENDBRANCH  81  85
ENDBRANCH  54  78
BRANCH  66  89
ATOM     89  C   UNL A   1      42.572  29.663  33.676  1.00  0.00     0.023 A 
ATOM     90  C   UNL A   1      43.337  30.091  34.770  1.00  0.00     0.031 A 
ATOM     91  C   UNL A   1      42.103  28.338  33.675  1.00  0.00     0.131 A 
ATOM     92  C   UNL A   1      43.690  29.195  35.777  1.00  0.00     0.055 A 
ATOM     93  C   UNL A   1      42.385  27.466  34.734  1.00  0.00     0.041 A 
ATOM     94  F   UNL A   1      41.435  27.829  32.630  1.00  0.00    -0.206 F 
ATOM     95  C   UNL A   1      43.203  27.886  35.781  1.00  0.00     0.022 A 
BRANCH  92  96
ATOM     96  S   UNL A   1      44.945  29.675  36.987  1.00  0.00     0.124 S 
ATOM     97  O   UNL A   1      44.152  29.858  38.199  1.00  0.00    -0.237 OA
ATOM     98  O   UNL A   1      45.832  28.513  36.985  1.00  0.00    -0.237 OA
ATOM     99  O   UNL A   1      45.528  30.893  36.431  1.00  0.00    -0.744 OA
ENDBRANCH  92  96
ENDBRANCH  66  89
ENDBRANCH  40  41
ENDBRANCH  32  35
ENDBRANCH  30  31
ENDBRANCH  29  30
ENDBRANCH   1  29
TORSDOF 18
ENDMDL
MODEL 3
REMARK VINA RESULT:     -12.5      3.581      8.891
REMARK SMILES Cc1c(C#N)c2ccccc2n1CC(=O)N1CC[C@H](O)C[C@@H]1C(=O)NCCCNC(=O)c1ccc(-c2c3nc(c(-c4cc(S(=O)(=O)[O-])ccc4F)c4ccc([nH]4)c(-c4cc(S(=O)(=O)[O-])ccc4F)c4nc(c(-c5cc(S(=O)(=O)[O-])ccc5F)c5ccc2[nH]5)C=C4)C=C3)cc1
REMARK SMILES IDX 26 1 25 2 23 3 24 4 22 6 16 7 17 8 18 9 21 10 19 11 14 12
REMARK SMILES IDX 15 13 13 14 12 15 1 16 2 17 3 18 6 19 11 20 7 21 10 22 8 23
REMARK SMILES IDX 9 24 4 25 5 26 20 27 27 29 28 30 29 31 30 32 31 34 32 35
REMARK SMILES IDX 33 36 94 37 34 38 93 39 35 40 36 41 37 42 87 43 38 44 92 45
REMARK SMILES IDX 86 46 88 47 39 48 91 49 85 50 84 51 40 53 72 54 52 55 71 56
REMARK SMILES IDX 53 57 56 58 70 59 89 60 54 61 55 62 69 64 90 65 57 66 41 67
REMARK SMILES IDX 42 68 50 69 43 70 49 71 51 72 48 73 44 74 45 75 46 76 47 77
REMARK SMILES IDX 73 78 74 79 82 80 75 81 81 82 83 83 80 84 76 85 77 86 78 87
REMARK SMILES IDX 79 88 58 89 59 90 67 91 60 92 66 93 68 94 65 95 61 96 62 97
REMARK SMILES IDX 63 98 64 99
REMARK H PARENT 25 5 20 28 29 33 88 52 56 63
REMARK Flexibility Score: inf
ROOT
ATOM      1  C   UNL A   1      37.510  22.086  25.180  1.00  0.00     0.117 C 
ENDROOT
BRANCH   1   2
ATOM      2  N   UNL A   1      36.430  22.163  26.144  1.00  0.00    -0.354 N 
ATOM      3  C   UNL A   1      35.098  21.941  25.980  1.00  0.00     0.242 C 
ATOM      4  O   UNL A   1      34.394  22.047  26.992  1.00  0.00    -0.273 OA
ATOM      5  H   UNL A   1      36.701  22.415  27.056  1.00  0.00     0.163 HD
BRANCH   3   6
ATOM      6  C   UNL A   1      34.509  21.542  24.596  1.00  0.00     0.177 C 
ATOM      7  N   UNL A   1      33.252  22.297  24.343  1.00  0.00    -0.329 N 
ATOM      8  C   UNL A   1      32.095  21.885  25.143  1.00  0.00     0.123 C 
ATOM      9  C   UNL A   1      31.828  20.387  25.020  1.00  0.00     0.053 C 
ATOM     10  C   UNL A   1      34.247  20.043  24.436  1.00  0.00     0.067 C 
ATOM     11  C   UNL A   1      33.074  19.555  25.279  1.00  0.00     0.118 C 
BRANCH   7  12
ATOM     12  C   UNL A   1      33.276  23.306  23.392  1.00  0.00     0.243 C 
ATOM     13  O   UNL A   1      34.328  23.572  22.797  1.00  0.00    -0.273 OA
BRANCH  12  14
ATOM     14  C   UNL A   1      32.098  24.247  23.193  1.00  0.00     0.222 C 
BRANCH  14  15
ATOM     15  N   UNL A   1      32.093  25.509  23.921  1.00  0.00    -0.334 N 
ATOM     16  C   UNL A   1      30.761  24.671  25.899  1.00  0.00     0.066 C 
ATOM     17  C   UNL A   1      31.515  25.725  25.160  1.00  0.00     0.034 A 
ATOM     18  C   UNL A   1      31.856  27.013  25.542  1.00  0.00     0.080 A 
ATOM     19  C   UNL A   1      32.619  27.608  24.498  1.00  0.00     0.018 A 
ATOM     20  C   UNL A   1      32.726  26.661  23.476  1.00  0.00     0.050 A 
ATOM     21  C   UNL A   1      33.257  28.858  24.335  1.00  0.00     0.012 A 
ATOM     22  C   UNL A   1      33.439  26.928  22.294  1.00  0.00     0.027 A 
ATOM     23  C   UNL A   1      33.977  29.124  23.165  1.00  0.00     0.001 A 
ATOM     24  C   UNL A   1      34.062  28.171  22.158  1.00  0.00     0.002 A 
BRANCH  18  25
ATOM     25  C   UNL A   1      31.536  27.624  26.803  1.00  0.00     0.102 C 
ATOM     26  N   UNL A   1      31.270  28.101  27.818  1.00  0.00    -0.192 NA
ENDBRANCH  18  25
ENDBRANCH  14  15
ENDBRANCH  12  14
ENDBRANCH   7  12
BRANCH  11  27
ATOM     27  O   UNL A   1      33.408  19.536  26.661  1.00  0.00    -0.393 OA
ATOM     28  H   UNL A   1      33.403  20.442  27.009  1.00  0.00     0.210 HD
ENDBRANCH  11  27
ENDBRANCH   3   6
ENDBRANCH   1   2
BRANCH   1  29
ATOM     29  C   UNL A   1      38.712  21.300  25.691  1.00  0.00     0.042 C 
BRANCH  29  30
ATOM     30  C   UNL A   1      39.720  22.106  26.507  1.00  0.00     0.118 C 
BRANCH  30  31
ATOM     31  N   UNL A   1      41.051  22.156  25.946  1.00  0.00    -0.352 N 
ATOM     32  C   UNL A   1      42.151  22.941  26.157  1.00  0.00     0.251 C 
ATOM     33  H   UNL A   1      41.200  21.468  25.257  1.00  0.00     0.163 HD
ATOM     34  O   UNL A   1      43.208  22.490  25.708  1.00  0.00    -0.269 OA
BRANCH  32  35
ATOM     35  C   UNL A   1      42.149  24.302  26.765  1.00  0.00     0.039 A 
ATOM     36  C   UNL A   1      42.862  24.705  27.892  1.00  0.00     0.014 A 
ATOM     37  C   UNL A   1      41.242  25.213  26.187  1.00  0.00     0.014 A 
ATOM     38  C   UNL A   1      42.547  25.916  28.515  1.00  0.00     0.010 A 
ATOM     39  C   UNL A   1      40.945  26.429  26.790  1.00  0.00     0.010 A 
ATOM     40  C   UNL A   1      41.537  26.748  28.001  1.00  0.00    -0.014 A 
BRANCH  40  41
ATOM     41  C   UNL A   1      41.283  28.054  28.626  1.00  0.00     0.031 A 
ATOM     42  C   UNL A   1      42.241  29.078  28.123  1.00  0.00     0.074 A 
ATOM     43  C   UNL A   1      40.262  28.338  29.474  1.00  0.00     0.049 A 
ATOM     44  N   UNL A   1      43.261  29.551  28.759  1.00  0.00    -0.248 NA
ATOM     45  C   UNL A   1      42.231  29.430  26.691  1.00  0.00     0.031 C 
ATOM     46  C   UNL A   1      39.134  27.475  29.845  1.00  0.00     0.029 A 
ATOM     47  N   UNL A   1      39.969  29.492  30.158  1.00  0.00    -0.354 N 
ATOM     48  C   UNL A   1      43.845  30.482  27.901  1.00  0.00     0.074 A 
ATOM     49  C   UNL A   1      43.316  30.205  26.595  1.00  0.00     0.031 C 
ATOM     50  C   UNL A   1      38.177  28.202  30.476  1.00  0.00     0.029 A 
ATOM     51  C   UNL A   1      38.680  29.546  30.709  1.00  0.00     0.049 A 
ATOM     52  H   UNL A   1      40.616  30.229  30.255  1.00  0.00     0.167 HD
ATOM     53  C   UNL A   1      44.473  31.581  28.410  1.00  0.00     0.034 A 
ATOM     54  C   UNL A   1      38.083  30.600  31.336  1.00  0.00     0.034 A 
ATOM     55  C   UNL A   1      44.666  31.419  29.827  1.00  0.00     0.049 A 
ATOM     56  C   UNL A   1      39.153  31.513  31.773  1.00  0.00     0.074 A 
ATOM     57  C   UNL A   1      45.498  30.687  30.641  1.00  0.00     0.029 A 
ATOM     58  N   UNL A   1      43.560  31.765  30.559  1.00  0.00    -0.354 N 
ATOM     59  N   UNL A   1      39.975  31.232  32.740  1.00  0.00    -0.248 NA
ATOM     60  C   UNL A   1      39.563  32.582  30.875  1.00  0.00     0.031 C 
ATOM     61  C   UNL A   1      44.756  30.440  31.831  1.00  0.00     0.029 A 
ATOM     62  C   UNL A   1      43.535  31.111  31.757  1.00  0.00     0.049 A 
ATOM     63  H   UNL A   1      42.872  32.403  30.260  1.00  0.00     0.167 HD
ATOM     64  C   UNL A   1      41.181  31.718  32.283  1.00  0.00     0.074 A 
ATOM     65  C   UNL A   1      40.843  32.682  31.237  1.00  0.00     0.031 C 
ATOM     66  C   UNL A   1      42.332  31.046  32.559  1.00  0.00     0.034 A 
BRANCH  53  67
ATOM     67  C   UNL A   1      44.443  32.959  27.777  1.00  0.00     0.023 A 
ATOM     68  C   UNL A   1      43.511  33.952  28.129  1.00  0.00     0.031 A 
ATOM     69  C   UNL A   1      45.522  33.390  26.972  1.00  0.00     0.131 A 
ATOM     70  C   UNL A   1      43.647  35.278  27.690  1.00  0.00     0.055 A 
ATOM     71  C   UNL A   1      45.694  34.728  26.590  1.00  0.00     0.041 A 
ATOM     72  F   UNL A   1      46.476  32.534  26.578  1.00  0.00    -0.206 F 
ATOM     73  C   UNL A   1      44.752  35.682  26.949  1.00  0.00     0.022 A 
BRANCH  70  74
ATOM     74  S   UNL A   1      42.376  36.510  28.092  1.00  0.00     0.124 S 
ATOM     75  O   UNL A   1      41.268  35.675  28.541  1.00  0.00    -0.237 OA
ATOM     76  O   UNL A   1      43.045  37.289  29.130  1.00  0.00    -0.237 OA
ATOM     77  O   UNL A   1      42.170  37.213  26.828  1.00  0.00    -0.744 OA
ENDBRANCH  70  74
ENDBRANCH  53  67
BRANCH  54  78
ATOM     78  C   UNL A   1      36.688  31.118  31.282  1.00  0.00     0.023 A 
ATOM     79  C   UNL A   1      36.135  31.404  30.024  1.00  0.00     0.031 A 
ATOM     80  C   UNL A   1      36.082  31.732  32.404  1.00  0.00     0.131 A 
ATOM     81  C   UNL A   1      35.094  32.339  29.903  1.00  0.00     0.055 A 
ATOM     82  C   UNL A   1      35.015  32.636  32.281  1.00  0.00     0.041 A 
ATOM     83  F   UNL A   1      36.580  31.543  33.637  1.00  0.00    -0.206 F 
ATOM     84  C   UNL A   1      34.531  32.962  31.021  1.00  0.00     0.022 A 
BRANCH  81  85
ATOM     85  S   UNL A   1      34.551  32.888  28.261  1.00  0.00     0.124 S 
ATOM     86  O   UNL A   1      35.822  33.095  27.570  1.00  0.00    -0.237 OA
ATOM     87  O   UNL A   1      33.770  31.741  27.811  1.00  0.00    -0.237 OA
ATOM     88  O   UNL A   1      33.794  34.104  28.544  1.00  0.00    -0.744 OA
ENDBRANCH  81  85
ENDBRANCH  54  78
BRANCH  66  89
ATOM     89  C   UNL A   1      42.336  30.078  33.709  1.00  0.00     0.023 A 
ATOM     90  C   UNL A   1      42.796  30.602  34.925  1.00  0.00     0.031 A 
ATOM     91  C   UNL A   1      42.110  28.693  33.630  1.00  0.00     0.131 A 
ATOM     92  C   UNL A   1      43.102  29.755  35.989  1.00  0.00     0.055 A 
ATOM     93  C   UNL A   1      42.333  27.855  34.730  1.00  0.00     0.041 A 
ATOM     94  F   UNL A   1      41.749  28.103  32.482  1.00  0.00    -0.206 F 
ATOM     95  C   UNL A   1      42.855  28.383  35.910  1.00  0.00     0.022 A 
BRANCH  92  96
ATOM     96  S   UNL A   1      44.005  30.411  37.411  1.00  0.00     0.124 S 
ATOM     97  O   UNL A   1      44.504  29.196  38.047  1.00  0.00    -0.237 OA
ATOM     98  O   UNL A   1      45.017  31.249  36.772  1.00  0.00    -0.237 OA
ATOM     99  O   UNL A   1      42.991  31.142  38.168  1.00  0.00    -0.744 OA
ENDBRANCH  92  96
ENDBRANCH  66  89
ENDBRANCH  40  41
ENDBRANCH  32  35
ENDBRANCH  30  31
ENDBRANCH  29  30
ENDBRANCH   1  29
TORSDOF 18
ENDMDL
