MODEL 1
REMARK VINA RESULT:     -13.4      0.000      0.000
REMARK SMILES C[C@H](C(=O)NCCCNC(=O)c1ccc(-c2c3nc(c(-c4cc(S(=O)(=O)[O-])ccc4F)c4ccc([nH]4)c(-c4cc(S(=O)(=O)[O-])ccc4F)c4nc(c(-c5cc(S(=O)(=O)[O-])ccc5F)c5ccc2[nH]5)C=C4)C=C3)cc1)c1ccc2c3cc(Cl)ccc3n(C(=O)c3ccc(Cl)cc3)c2c1
REMARK SMILES IDX 7 1 6 2 5 3 3 4 4 5 2 7 1 8 75 9 76 10 97 11 77 12 96 13
REMARK SMILES IDX 78 14 86 15 79 16 85 17 80 18 84 19 81 20 83 21 82 22 87 23
REMARK SMILES IDX 88 24 89 25 90 26 95 27 91 28 94 29 92 30 93 31 8 32 9 33
REMARK SMILES IDX 10 34 11 36 12 37 13 38 74 39 14 40 73 41 15 42 16 43 17 44
REMARK SMILES IDX 67 45 18 46 72 47 66 48 68 49 19 50 71 51 65 52 64 53 20 55
REMARK SMILES IDX 52 56 32 57 51 58 33 59 36 60 50 61 69 62 34 63 35 64 49 66
REMARK SMILES IDX 70 67 37 68 21 69 22 70 30 71 23 72 29 73 31 74 28 75 24 76
REMARK SMILES IDX 25 77 26 78 27 79 53 80 54 81 62 82 55 83 61 84 63 85 60 86
REMARK SMILES IDX 56 87 57 88 58 89 59 90 38 91 39 92 47 93 40 94 46 95 48 96
REMARK SMILES IDX 45 97 41 98 42 99 43 100 44 101
REMARK H PARENT 5 6 9 35 68 54 36 65
REMARK Flexibility Score: inf
ROOT
ATOM      1  C   UNL A   1      37.772  20.361  24.985  1.00  0.00     0.042 C 
ENDROOT
BRANCH   1   2
ATOM      2  C   UNL A   1      36.710  21.450  24.851  1.00  0.00     0.117 C 
BRANCH   2   3
ATOM      3  N   UNL A   1      35.360  20.948  25.057  1.00  0.00    -0.356 N 
ATOM      4  C   UNL A   1      34.150  21.432  24.641  1.00  0.00     0.227 C 
ATOM      5  O   UNL A   1      33.152  20.773  24.947  1.00  0.00    -0.274 OA
ATOM      6  H   UNL A   1      35.308  20.119  25.586  1.00  0.00     0.163 HD
BRANCH   4   7
ATOM      7  C   UNL A   1      34.054  22.696  23.765  1.00  0.00     0.105 C 
ATOM      8  C   UNL A   1      32.921  22.606  22.737  1.00  0.00     0.023 C 
BRANCH   7   9
ATOM      9  C   UNL A   1      33.931  23.975  24.577  1.00  0.00    -0.034 A 
ATOM     10  C   UNL A   1      34.958  24.448  25.388  1.00  0.00     0.005 A 
ATOM     11  C   UNL A   1      32.765  24.740  24.416  1.00  0.00     0.032 A 
ATOM     12  C   UNL A   1      34.891  25.740  25.922  1.00  0.00     0.011 A 
ATOM     13  C   UNL A   1      32.710  26.055  24.917  1.00  0.00     0.057 A 
ATOM     14  C   UNL A   1      33.780  26.570  25.639  1.00  0.00     0.008 A 
ATOM     15  N   UNL A   1      31.744  27.070  24.751  1.00  0.00    -0.276 N 
ATOM     16  C   UNL A   1      33.468  27.920  25.943  1.00  0.00     0.009 A 
ATOM     17  C   UNL A   1      32.152  28.167  25.522  1.00  0.00     0.057 A 
ATOM     18  C   UNL A   1      34.204  28.932  26.594  1.00  0.00     0.031 A 
ATOM     19  C   UNL A   1      31.502  29.353  25.915  1.00  0.00     0.029 A 
ATOM     20  C   UNL A   1      33.579  30.136  26.898  1.00  0.00     0.041 A 
ATOM     21  C   UNL A   1      32.238  30.331  26.598  1.00  0.00     0.023 A 
ATOM     22  Cl  UNL A   1      34.472  31.375  27.682  1.00  0.00    -0.084 Cl
BRANCH  15  23
ATOM     23  C   UNL A   1      30.594  26.920  23.919  1.00  0.00     0.262 C 
ATOM     24  O   UNL A   1      30.179  25.767  23.762  1.00  0.00    -0.268 OA
BRANCH  23  25
ATOM     25  C   UNL A   1      29.808  27.919  23.143  1.00  0.00     0.040 A 
ATOM     26  C   UNL A   1      30.560  28.828  22.366  1.00  0.00     0.015 A 
ATOM     27  C   UNL A   1      28.436  28.136  23.280  1.00  0.00     0.015 A 
ATOM     28  C   UNL A   1      29.964  29.923  21.742  1.00  0.00     0.021 A 
ATOM     29  C   UNL A   1      27.829  29.220  22.621  1.00  0.00     0.021 A 
ATOM     30  C   UNL A   1      28.595  30.115  21.870  1.00  0.00     0.041 A 
ATOM     31  Cl  UNL A   1      27.860  31.483  21.132  1.00  0.00    -0.084 Cl
ENDBRANCH  23  25
ENDBRANCH  15  23
ENDBRANCH   7   9
ENDBRANCH   4   7
ENDBRANCH   2   3
ENDBRANCH   1   2
BRANCH   1  32
ATOM     32  C   UNL A   1      39.026  20.791  25.733  1.00  0.00     0.118 C 
BRANCH  32  33
ATOM     33  N   UNL A   1      39.985  19.708  25.880  1.00  0.00    -0.352 N 
ATOM     34  C   UNL A   1      41.343  19.765  26.104  1.00  0.00     0.251 C 
ATOM     35  H   UNL A   1      39.609  18.801  25.806  1.00  0.00     0.163 HD
ATOM     36  O   UNL A   1      42.014  18.748  26.000  1.00  0.00    -0.269 OA
BRANCH  34  37
ATOM     37  C   UNL A   1      41.986  21.058  26.442  1.00  0.00     0.039 A 
ATOM     38  C   UNL A   1      42.299  21.951  25.411  1.00  0.00     0.014 A 
ATOM     39  C   UNL A   1      42.289  21.385  27.766  1.00  0.00     0.014 A 
ATOM     40  C   UNL A   1      42.850  23.200  25.716  1.00  0.00     0.010 A 
ATOM     41  C   UNL A   1      42.767  22.657  28.071  1.00  0.00     0.010 A 
ATOM     42  C   UNL A   1      43.057  23.577  27.051  1.00  0.00    -0.014 A 
BRANCH  42  43
ATOM     43  C   UNL A   1      43.603  24.909  27.424  1.00  0.00     0.031 A 
ATOM     44  C   UNL A   1      42.672  25.968  27.949  1.00  0.00     0.074 A 
ATOM     45  C   UNL A   1      44.897  25.203  27.191  1.00  0.00     0.049 A 
ATOM     46  N   UNL A   1      42.884  27.245  28.139  1.00  0.00    -0.248 NA
ATOM     47  C   UNL A   1      41.304  25.529  28.260  1.00  0.00     0.031 C 
ATOM     48  C   UNL A   1      45.897  24.273  26.661  1.00  0.00     0.029 A 
ATOM     49  N   UNL A   1      45.587  26.382  27.341  1.00  0.00    -0.354 N 
ATOM     50  C   UNL A   1      41.665  27.770  28.560  1.00  0.00     0.074 A 
ATOM     51  C   UNL A   1      40.713  26.681  28.536  1.00  0.00     0.031 C 
ATOM     52  C   UNL A   1      47.067  24.917  26.527  1.00  0.00     0.029 A 
ATOM     53  C   UNL A   1      46.891  26.315  26.909  1.00  0.00     0.049 A 
ATOM     54  H   UNL A   1      45.186  27.195  27.720  1.00  0.00     0.167 HD
ATOM     55  C   UNL A   1      41.375  29.039  28.945  1.00  0.00     0.034 A 
ATOM     56  C   UNL A   1      47.828  27.277  26.796  1.00  0.00     0.034 A 
ATOM     57  C   UNL A   1      42.346  30.108  28.965  1.00  0.00     0.049 A 
ATOM     58  C   UNL A   1      47.481  28.690  27.191  1.00  0.00     0.074 A 
ATOM     59  C   UNL A   1      42.179  31.417  29.382  1.00  0.00     0.029 A 
ATOM     60  N   UNL A   1      43.663  29.994  28.536  1.00  0.00    -0.354 N 
ATOM     61  N   UNL A   1      46.333  29.174  27.605  1.00  0.00    -0.248 NA
ATOM     62  C   UNL A   1      48.557  29.686  27.101  1.00  0.00     0.031 C 
ATOM     63  C   UNL A   1      43.368  32.111  29.132  1.00  0.00     0.029 A 
ATOM     64  C   UNL A   1      44.308  31.216  28.649  1.00  0.00     0.049 A 
ATOM     65  H   UNL A   1      44.078  29.166  28.202  1.00  0.00     0.167 HD
ATOM     66  C   UNL A   1      46.559  30.523  27.860  1.00  0.00     0.074 A 
ATOM     67  C   UNL A   1      47.951  30.778  27.547  1.00  0.00     0.031 C 
ATOM     68  C   UNL A   1      45.697  31.462  28.327  1.00  0.00     0.034 A 
BRANCH  55  69
ATOM     69  C   UNL A   1      39.942  29.334  29.330  1.00  0.00     0.023 A 
ATOM     70  C   UNL A   1      39.550  29.468  30.673  1.00  0.00     0.031 A 
ATOM     71  C   UNL A   1      38.940  29.416  28.347  1.00  0.00     0.131 A 
ATOM     72  C   UNL A   1      38.189  29.557  31.002  1.00  0.00     0.055 A 
ATOM     73  C   UNL A   1      37.597  29.613  28.676  1.00  0.00     0.041 A 
ATOM     74  F   UNL A   1      39.243  29.278  27.046  1.00  0.00    -0.206 F 
ATOM     75  C   UNL A   1      37.211  29.659  30.011  1.00  0.00     0.022 A 
BRANCH  72  76
ATOM     76  S   UNL A   1      37.707  29.330  32.736  1.00  0.00     0.124 S 
ATOM     77  O   UNL A   1      36.412  30.006  32.774  1.00  0.00    -0.237 OA
ATOM     78  O   UNL A   1      37.674  27.878  32.866  1.00  0.00    -0.237 OA
ATOM     79  O   UNL A   1      38.772  30.001  33.479  1.00  0.00    -0.744 OA
ENDBRANCH  72  76
ENDBRANCH  55  69
BRANCH  56  80
ATOM     80  C   UNL A   1      49.172  26.950  26.246  1.00  0.00     0.023 A 
ATOM     81  C   UNL A   1      50.278  26.757  27.087  1.00  0.00     0.031 A 
ATOM     82  C   UNL A   1      49.368  26.844  24.857  1.00  0.00     0.131 A 
ATOM     83  C   UNL A   1      51.540  26.493  26.531  1.00  0.00     0.055 A 
ATOM     84  C   UNL A   1      50.616  26.544  24.312  1.00  0.00     0.041 A 
ATOM     85  F   UNL A   1      48.338  27.015  24.012  1.00  0.00    -0.206 F 
ATOM     86  C   UNL A   1      51.713  26.370  25.151  1.00  0.00     0.022 A 
BRANCH  83  87
ATOM     87  S   UNL A   1      52.972  26.362  27.637  1.00  0.00     0.124 S 
ATOM     88  O   UNL A   1      53.576  27.682  27.495  1.00  0.00    -0.237 OA
ATOM     89  O   UNL A   1      52.342  26.078  28.922  1.00  0.00    -0.237 OA
ATOM     90  O   UNL A   1      53.742  25.258  27.068  1.00  0.00    -0.744 OA
ENDBRANCH  83  87
ENDBRANCH  56  80
BRANCH  68  91
ATOM     91  C   UNL A   1      46.247  32.840  28.601  1.00  0.00     0.023 A 
ATOM     92  C   UNL A   1      46.284  33.844  27.618  1.00  0.00     0.031 A 
ATOM     93  C   UNL A   1      46.714  33.157  29.890  1.00  0.00     0.131 A 
ATOM     94  C   UNL A   1      46.807  35.109  27.934  1.00  0.00     0.055 A 
ATOM     95  C   UNL A   1      47.179  34.431  30.212  1.00  0.00     0.041 A 
ATOM     96  F   UNL A   1      46.706  32.232  30.865  1.00  0.00    -0.206 F 
ATOM     97  C   UNL A   1      47.235  35.414  29.229  1.00  0.00     0.022 A 
BRANCH  94  98
ATOM     98  S   UNL A   1      46.980  36.340  26.613  1.00  0.00     0.124 S 
ATOM     99  O   UNL A   1      47.060  35.500  25.423  1.00  0.00    -0.237 OA
ATOM    100  O   UNL A   1      45.761  37.129  26.757  1.00  0.00    -0.237 OA
ATOM    101  O   UNL A   1      48.215  37.043  26.959  1.00  0.00    -0.744 OA
ENDBRANCH  94  98
ENDBRANCH  68  91
ENDBRANCH  42  43
ENDBRANCH  34  37
ENDBRANCH  32  33
ENDBRANCH   1  32
TORSDOF 16
ENDMDL
MODEL 2
REMARK VINA RESULT:     -13.2      5.582     11.465
REMARK SMILES C[C@H](C(=O)NCCCNC(=O)c1ccc(-c2c3nc(c(-c4cc(S(=O)(=O)[O-])ccc4F)c4ccc([nH]4)c(-c4cc(S(=O)(=O)[O-])ccc4F)c4nc(c(-c5cc(S(=O)(=O)[O-])ccc5F)c5ccc2[nH]5)C=C4)C=C3)cc1)c1ccc2c3cc(Cl)ccc3n(C(=O)c3ccc(Cl)cc3)c2c1
REMARK SMILES IDX 7 1 6 2 5 3 3 4 4 5 2 7 1 8 75 9 76 10 97 11 77 12 96 13
REMARK SMILES IDX 78 14 86 15 79 16 85 17 80 18 84 19 81 20 83 21 82 22 87 23
REMARK SMILES IDX 88 24 89 25 90 26 95 27 91 28 94 29 92 30 93 31 8 32 9 33
REMARK SMILES IDX 10 34 11 36 12 37 13 38 74 39 14 40 73 41 15 42 16 43 17 44
REMARK SMILES IDX 67 45 18 46 72 47 66 48 68 49 19 50 71 51 65 52 64 53 20 55
REMARK SMILES IDX 52 56 32 57 51 58 33 59 36 60 50 61 69 62 34 63 35 64 49 66
REMARK SMILES IDX 70 67 37 68 21 69 22 70 30 71 23 72 29 73 31 74 28 75 24 76
REMARK SMILES IDX 25 77 26 78 27 79 53 80 54 81 62 82 55 83 61 84 63 85 60 86
REMARK SMILES IDX 56 87 57 88 58 89 59 90 38 91 39 92 47 93 40 94 46 95 48 96
REMARK SMILES IDX 45 97 41 98 42 99 43 100 44 101
REMARK H PARENT 5 6 9 35 68 54 36 65
REMARK Flexibility Score: inf
ROOT
ATOM      1  C   UNL A   1      32.023  30.698  26.819  1.00  0.00     0.042 C 
ENDROOT
BRANCH   1   2
ATOM      2  C   UNL A   1      32.267  29.203  27.010  1.00  0.00     0.117 C 
BRANCH   2   3
ATOM      3  N   UNL A   1      33.072  28.624  25.944  1.00  0.00    -0.356 N 
ATOM      4  C   UNL A   1      32.758  27.700  24.986  1.00  0.00     0.227 C 
ATOM      5  O   UNL A   1      33.648  27.408  24.181  1.00  0.00    -0.274 OA
ATOM      6  H   UNL A   1      33.999  28.954  25.906  1.00  0.00     0.163 HD
BRANCH   4   7
ATOM      7  C   UNL A   1      31.337  27.114  24.875  1.00  0.00     0.105 C 
ATOM      8  C   UNL A   1      30.485  27.850  23.835  1.00  0.00     0.023 C 
BRANCH   7   9
ATOM      9  C   UNL A   1      31.328  25.618  24.604  1.00  0.00    -0.034 A 
ATOM     10  C   UNL A   1      30.494  25.036  23.654  1.00  0.00     0.005 A 
ATOM     11  C   UNL A   1      32.267  24.827  25.283  1.00  0.00     0.032 A 
ATOM     12  C   UNL A   1      30.690  23.703  23.274  1.00  0.00     0.011 A 
ATOM     13  C   UNL A   1      32.495  23.498  24.876  1.00  0.00     0.057 A 
ATOM     14  C   UNL A   1      31.735  22.944  23.853  1.00  0.00     0.008 A 
ATOM     15  N   UNL A   1      33.474  22.563  25.272  1.00  0.00    -0.276 N 
ATOM     16  C   UNL A   1      32.236  21.637  23.621  1.00  0.00     0.009 A 
ATOM     17  C   UNL A   1      33.203  21.363  24.600  1.00  0.00     0.057 A 
ATOM     18  C   UNL A   1      31.893  20.653  22.670  1.00  0.00     0.031 A 
ATOM     19  C   UNL A   1      33.693  20.051  24.753  1.00  0.00     0.029 A 
ATOM     20  C   UNL A   1      32.451  19.385  22.776  1.00  0.00     0.041 A 
ATOM     21  C   UNL A   1      33.308  19.075  23.823  1.00  0.00     0.023 A 
ATOM     22  Cl  UNL A   1      32.044  18.185  21.618  1.00  0.00    -0.084 Cl
BRANCH  15  23
ATOM     23  C   UNL A   1      34.521  22.875  26.191  1.00  0.00     0.262 C 
ATOM     24  O   UNL A   1      34.169  23.247  27.315  1.00  0.00    -0.268 OA
BRANCH  23  25
ATOM     25  C   UNL A   1      36.000  22.882  26.026  1.00  0.00     0.040 A 
ATOM     26  C   UNL A   1      36.590  21.645  25.682  1.00  0.00     0.015 A 
ATOM     27  C   UNL A   1      36.837  23.946  26.369  1.00  0.00     0.015 A 
ATOM     28  C   UNL A   1      37.973  21.470  25.678  1.00  0.00     0.021 A 
ATOM     29  C   UNL A   1      38.233  23.779  26.331  1.00  0.00     0.021 A 
ATOM     30  C   UNL A   1      38.793  22.543  26.002  1.00  0.00     0.041 A 
ATOM     31  Cl  UNL A   1      40.498  22.325  26.034  1.00  0.00    -0.084 Cl
ENDBRANCH  23  25
ENDBRANCH  15  23
ENDBRANCH   7   9
ENDBRANCH   4   7
ENDBRANCH   2   3
ENDBRANCH   1   2
BRANCH   1  32
ATOM     32  C   UNL A   1      33.234  31.576  27.098  1.00  0.00     0.118 C 
BRANCH  32  33
ATOM     33  N   UNL A   1      32.868  32.953  27.392  1.00  0.00    -0.352 N 
ATOM     34  C   UNL A   1      33.359  33.802  28.359  1.00  0.00     0.251 C 
ATOM     35  H   UNL A   1      32.165  33.332  26.817  1.00  0.00     0.163 HD
ATOM     36  O   UNL A   1      32.785  34.860  28.579  1.00  0.00    -0.269 OA
BRANCH  34  37
ATOM     37  C   UNL A   1      34.559  33.421  29.142  1.00  0.00     0.039 A 
ATOM     38  C   UNL A   1      34.403  32.608  30.270  1.00  0.00     0.014 A 
ATOM     39  C   UNL A   1      35.829  33.870  28.775  1.00  0.00     0.014 A 
ATOM     40  C   UNL A   1      35.529  32.189  30.987  1.00  0.00     0.010 A 
ATOM     41  C   UNL A   1      36.952  33.391  29.443  1.00  0.00     0.010 A 
ATOM     42  C   UNL A   1      36.816  32.548  30.559  1.00  0.00    -0.014 A 
BRANCH  42  43
ATOM     43  C   UNL A   1      38.043  32.094  31.265  1.00  0.00     0.031 A 
ATOM     44  C   UNL A   1      38.887  31.008  30.654  1.00  0.00     0.074 A 
ATOM     45  C   UNL A   1      38.337  32.569  32.492  1.00  0.00     0.049 A 
ATOM     46  N   UNL A   1      39.868  30.320  31.179  1.00  0.00    -0.248 NA
ATOM     47  C   UNL A   1      38.545  30.621  29.278  1.00  0.00     0.031 C 
ATOM     48  C   UNL A   1      37.586  33.603  33.204  1.00  0.00     0.029 A 
ATOM     49  N   UNL A   1      39.333  32.218  33.370  1.00  0.00    -0.354 N 
ATOM     50  C   UNL A   1      40.239  29.393  30.209  1.00  0.00     0.074 A 
ATOM     51  C   UNL A   1      39.334  29.574  29.094  1.00  0.00     0.031 C 
ATOM     52  C   UNL A   1      38.143  33.799  34.409  1.00  0.00     0.029 A 
ATOM     53  C   UNL A   1      39.258  32.871  34.578  1.00  0.00     0.049 A 
ATOM     54  H   UNL A   1      40.034  31.561  33.155  1.00  0.00     0.167 HD
ATOM     55  C   UNL A   1      41.250  28.488  30.241  1.00  0.00     0.034 A 
ATOM     56  C   UNL A   1      39.977  32.714  35.707  1.00  0.00     0.034 A 
ATOM     57  C   UNL A   1      42.142  28.329  31.365  1.00  0.00     0.049 A 
ATOM     58  C   UNL A   1      41.071  31.679  35.743  1.00  0.00     0.074 A 
ATOM     59  C   UNL A   1      43.230  27.483  31.491  1.00  0.00     0.029 A 
ATOM     60  N   UNL A   1      42.042  29.025  32.565  1.00  0.00    -0.354 N 
ATOM     61  N   UNL A   1      41.427  30.821  34.815  1.00  0.00    -0.248 NA
ATOM     62  C   UNL A   1      41.860  31.591  36.979  1.00  0.00     0.031 C 
ATOM     63  C   UNL A   1      43.736  27.609  32.789  1.00  0.00     0.029 A 
ATOM     64  C   UNL A   1      43.027  28.602  33.444  1.00  0.00     0.049 A 
ATOM     65  H   UNL A   1      41.370  29.717  32.760  1.00  0.00     0.167 HD
ATOM     66  C   UNL A   1      42.505  30.116  35.343  1.00  0.00     0.074 A 
ATOM     67  C   UNL A   1      42.736  30.645  36.672  1.00  0.00     0.031 C 
ATOM     68  C   UNL A   1      43.245  29.132  34.772  1.00  0.00     0.034 A 
BRANCH  55  69
ATOM     69  C   UNL A   1      41.403  27.579  29.041  1.00  0.00     0.023 A 
ATOM     70  C   UNL A   1      42.402  27.793  28.075  1.00  0.00     0.031 A 
ATOM     71  C   UNL A   1      40.498  26.526  28.821  1.00  0.00     0.131 A 
ATOM     72  C   UNL A   1      42.401  27.047  26.887  1.00  0.00     0.055 A 
ATOM     73  C   UNL A   1      40.568  25.717  27.685  1.00  0.00     0.041 A 
ATOM     74  F   UNL A   1      39.508  26.279  29.694  1.00  0.00    -0.206 F 
ATOM     75  C   UNL A   1      41.508  25.992  26.696  1.00  0.00     0.022 A 
BRANCH  72  76
ATOM     76  S   UNL A   1      43.446  27.614  25.516  1.00  0.00     0.124 S 
ATOM     77  O   UNL A   1      44.242  26.421  25.239  1.00  0.00    -0.237 OA
ATOM     78  O   UNL A   1      42.463  27.976  24.501  1.00  0.00    -0.237 OA
ATOM     79  O   UNL A   1      44.192  28.730  26.093  1.00  0.00    -0.744 OA
ENDBRANCH  72  76
ENDBRANCH  55  69
BRANCH  56  80
ATOM     80  C   UNL A   1      39.659  33.527  36.913  1.00  0.00     0.023 A 
ATOM     81  C   UNL A   1      38.940  32.985  37.989  1.00  0.00     0.031 A 
ATOM     82  C   UNL A   1      40.059  34.872  36.993  1.00  0.00     0.131 A 
ATOM     83  C   UNL A   1      38.620  33.793  39.092  1.00  0.00     0.055 A 
ATOM     84  C   UNL A   1      39.771  35.660  38.108  1.00  0.00     0.041 A 
ATOM     85  F   UNL A   1      40.754  35.434  35.990  1.00  0.00    -0.206 F 
ATOM     86  C   UNL A   1      39.044  35.122  39.165  1.00  0.00     0.022 A 
BRANCH  83  87
ATOM     87  S   UNL A   1      37.592  33.098  40.415  1.00  0.00     0.124 S 
ATOM     88  O   UNL A   1      38.415  31.986  40.876  1.00  0.00    -0.237 OA
ATOM     89  O   UNL A   1      37.467  34.228  41.332  1.00  0.00    -0.237 OA
ATOM     90  O   UNL A   1      36.359  32.721  39.727  1.00  0.00    -0.744 OA
ENDBRANCH  83  87
ENDBRANCH  56  80
BRANCH  68  91
ATOM     91  C   UNL A   1      44.427  28.608  35.550  1.00  0.00     0.023 A 
ATOM     92  C   UNL A   1      44.304  27.588  36.509  1.00  0.00     0.031 A 
ATOM     93  C   UNL A   1      45.711  29.126  35.295  1.00  0.00     0.131 A 
ATOM     94  C   UNL A   1      45.442  27.140  37.200  1.00  0.00     0.055 A 
ATOM     95  C   UNL A   1      46.844  28.639  35.945  1.00  0.00     0.041 A 
ATOM     96  F   UNL A   1      45.884  30.107  34.393  1.00  0.00    -0.206 F 
ATOM     97  C   UNL A   1      46.713  27.645  36.909  1.00  0.00     0.022 A 
BRANCH  94  98
ATOM     98  S   UNL A   1      45.237  25.929  38.535  1.00  0.00     0.124 S 
ATOM     99  O   UNL A   1      46.603  25.783  39.024  1.00  0.00    -0.237 OA
ATOM    100  O   UNL A   1      44.306  26.605  39.432  1.00  0.00    -0.237 OA
ATOM    101  O   UNL A   1      44.694  24.754  37.852  1.00  0.00    -0.744 OA
ENDBRANCH  94  98
ENDBRANCH  68  91
ENDBRANCH  42  43
ENDBRANCH  34  37
ENDBRANCH  32  33
ENDBRANCH   1  32
TORSDOF 16
ENDMDL
MODEL 3
REMARK VINA RESULT:     -13.0      2.065      3.451
REMARK SMILES C[C@H](C(=O)NCCCNC(=O)c1ccc(-c2c3nc(c(-c4cc(S(=O)(=O)[O-])ccc4F)c4ccc([nH]4)c(-c4cc(S(=O)(=O)[O-])ccc4F)c4nc(c(-c5cc(S(=O)(=O)[O-])ccc5F)c5ccc2[nH]5)C=C4)C=C3)cc1)c1ccc2c3cc(Cl)ccc3n(C(=O)c3ccc(Cl)cc3)c2c1
REMARK SMILES IDX 7 1 6 2 5 3 3 4 4 5 2 7 1 8 75 9 76 10 97 11 77 12 96 13
REMARK SMILES IDX 78 14 86 15 79 16 85 17 80 18 84 19 81 20 83 21 82 22 87 23
REMARK SMILES IDX 88 24 89 25 90 26 95 27 91 28 94 29 92 30 93 31 8 32 9 33
REMARK SMILES IDX 10 34 11 36 12 37 13 38 74 39 14 40 73 41 15 42 16 43 17 44
REMARK SMILES IDX 67 45 18 46 72 47 66 48 68 49 19 50 71 51 65 52 64 53 20 55
REMARK SMILES IDX 52 56 32 57 51 58 33 59 36 60 50 61 69 62 34 63 35 64 49 66
REMARK SMILES IDX 70 67 37 68 21 69 22 70 30 71 23 72 29 73 31 74 28 75 24 76
REMARK SMILES IDX 25 77 26 78 27 79 53 80 54 81 62 82 55 83 61 84 63 85 60 86
REMARK SMILES IDX 56 87 57 88 58 89 59 90 38 91 39 92 47 93 40 94 46 95 48 96
REMARK SMILES IDX 45 97 41 98 42 99 43 100 44 101
REMARK H PARENT 5 6 9 35 68 54 36 65
REMARK Flexibility Score: inf
ROOT
ATOM      1  C   UNL A   1      37.932  20.273  25.000  1.00  0.00     0.042 C 
ENDROOT
BRANCH   1   2
ATOM      2  C   UNL A   1      36.731  21.189  25.228  1.00  0.00     0.117 C 
BRANCH   2   3
ATOM      3  N   UNL A   1      36.385  21.966  24.048  1.00  0.00    -0.356 N 
ATOM      4  C   UNL A   1      35.324  22.794  23.800  1.00  0.00     0.227 C 
ATOM      5  O   UNL A   1      35.300  23.351  22.698  1.00  0.00    -0.274 OA
ATOM      6  H   UNL A   1      37.021  21.882  23.301  1.00  0.00     0.163 HD
BRANCH   4   7
ATOM      7  C   UNL A   1      34.259  23.073  24.877  1.00  0.00     0.105 C 
ATOM      8  C   UNL A   1      34.862  23.684  26.146  1.00  0.00     0.023 C 
BRANCH   7   9
ATOM      9  C   UNL A   1      33.110  23.930  24.372  1.00  0.00    -0.034 A 
ATOM     10  C   UNL A   1      31.858  23.401  24.070  1.00  0.00     0.005 A 
ATOM     11  C   UNL A   1      33.312  25.317  24.302  1.00  0.00     0.032 A 
ATOM     12  C   UNL A   1      30.773  24.255  23.841  1.00  0.00     0.011 A 
ATOM     13  C   UNL A   1      32.217  26.181  24.113  1.00  0.00     0.057 A 
ATOM     14  C   UNL A   1      30.944  25.658  23.916  1.00  0.00     0.008 A 
ATOM     15  N   UNL A   1      32.126  27.588  24.168  1.00  0.00    -0.276 N 
ATOM     16  C   UNL A   1      30.050  26.756  23.830  1.00  0.00     0.009 A 
ATOM     17  C   UNL A   1      30.809  27.936  23.836  1.00  0.00     0.057 A 
ATOM     18  C   UNL A   1      28.647  26.819  23.697  1.00  0.00     0.031 A 
ATOM     19  C   UNL A   1      30.197  29.165  23.521  1.00  0.00     0.029 A 
ATOM     20  C   UNL A   1      28.041  28.050  23.476  1.00  0.00     0.041 A 
ATOM     21  C   UNL A   1      28.806  29.201  23.351  1.00  0.00     0.023 A 
ATOM     22  Cl  UNL A   1      26.333  28.134  23.322  1.00  0.00    -0.084 Cl
BRANCH  15  23
ATOM     23  C   UNL A   1      33.227  28.425  24.520  1.00  0.00     0.262 C 
ATOM     24  O   UNL A   1      34.136  28.511  23.687  1.00  0.00    -0.268 OA
BRANCH  23  25
ATOM     25  C   UNL A   1      33.516  29.198  25.759  1.00  0.00     0.040 A 
ATOM     26  C   UNL A   1      32.624  30.255  26.050  1.00  0.00     0.015 A 
ATOM     27  C   UNL A   1      34.679  29.079  26.522  1.00  0.00     0.015 A 
ATOM     28  C   UNL A   1      32.882  31.168  27.071  1.00  0.00     0.021 A 
ATOM     29  C   UNL A   1      34.922  29.979  27.575  1.00  0.00     0.021 A 
ATOM     30  C   UNL A   1      34.033  31.025  27.834  1.00  0.00     0.041 A 
ATOM     31  Cl  UNL A   1      34.375  32.169  29.072  1.00  0.00    -0.084 Cl
ENDBRANCH  23  25
ENDBRANCH  15  23
ENDBRANCH   7   9
ENDBRANCH   4   7
ENDBRANCH   2   3
ENDBRANCH   1   2
BRANCH   1  32
ATOM     32  C   UNL A   1      39.155  20.616  25.839  1.00  0.00     0.118 C 
BRANCH  32  33
ATOM     33  N   UNL A   1      40.109  19.521  25.906  1.00  0.00    -0.352 N 
ATOM     34  C   UNL A   1      41.477  19.558  26.067  1.00  0.00     0.251 C 
ATOM     35  H   UNL A   1      39.720  18.620  25.823  1.00  0.00     0.163 HD
ATOM     36  O   UNL A   1      42.131  18.538  25.900  1.00  0.00    -0.269 OA
BRANCH  34  37
ATOM     37  C   UNL A   1      42.148  20.833  26.413  1.00  0.00     0.039 A 
ATOM     38  C   UNL A   1      42.478  21.727  25.389  1.00  0.00     0.014 A 
ATOM     39  C   UNL A   1      42.463  21.143  27.739  1.00  0.00     0.014 A 
ATOM     40  C   UNL A   1      43.058  22.961  25.702  1.00  0.00     0.010 A 
ATOM     41  C   UNL A   1      42.969  22.401  28.053  1.00  0.00     0.010 A 
ATOM     42  C   UNL A   1      43.276  23.323  27.039  1.00  0.00    -0.014 A 
BRANCH  42  43
ATOM     43  C   UNL A   1      43.853  24.639  27.421  1.00  0.00     0.031 A 
ATOM     44  C   UNL A   1      42.948  25.712  27.964  1.00  0.00     0.074 A 
ATOM     45  C   UNL A   1      45.151  24.909  27.181  1.00  0.00     0.049 A 
ATOM     46  N   UNL A   1      43.188  26.982  28.165  1.00  0.00    -0.248 NA
ATOM     47  C   UNL A   1      41.573  25.299  28.281  1.00  0.00     0.031 C 
ATOM     48  C   UNL A   1      46.127  23.964  26.636  1.00  0.00     0.029 A 
ATOM     49  N   UNL A   1      45.866  26.071  27.338  1.00  0.00    -0.354 N 
ATOM     50  C   UNL A   1      41.983  27.529  28.600  1.00  0.00     0.074 A 
ATOM     51  C   UNL A   1      41.008  26.460  28.572  1.00  0.00     0.031 C 
ATOM     52  C   UNL A   1      47.310  24.585  26.498  1.00  0.00     0.029 A 
ATOM     53  C   UNL A   1      47.166  25.982  26.896  1.00  0.00     0.049 A 
ATOM     54  H   UNL A   1      45.485  26.890  27.728  1.00  0.00     0.167 HD
ATOM     55  C   UNL A   1      41.723  28.800  28.999  1.00  0.00     0.034 A 
ATOM     56  C   UNL A   1      48.121  26.926  26.786  1.00  0.00     0.034 A 
ATOM     57  C   UNL A   1      42.715  29.848  29.022  1.00  0.00     0.049 A 
ATOM     58  C   UNL A   1      47.807  28.341  27.196  1.00  0.00     0.074 A 
ATOM     59  C   UNL A   1      42.579  31.156  29.453  1.00  0.00     0.029 A 
ATOM     60  N   UNL A   1      44.027  29.711  28.583  1.00  0.00    -0.354 N 
ATOM     61  N   UNL A   1      46.673  28.845  27.624  1.00  0.00    -0.248 NA
ATOM     62  C   UNL A   1      48.903  29.316  27.109  1.00  0.00     0.031 C 
ATOM     63  C   UNL A   1      43.780  31.828  29.201  1.00  0.00     0.029 A 
ATOM     64  C   UNL A   1      44.698  30.918  28.702  1.00  0.00     0.049 A 
ATOM     65  H   UNL A   1      44.422  28.878  28.237  1.00  0.00     0.167 HD
ATOM     66  C   UNL A   1      46.929  30.187  27.890  1.00  0.00     0.074 A 
ATOM     67  C   UNL A   1      48.323  30.415  27.569  1.00  0.00     0.031 C 
ATOM     68  C   UNL A   1      46.089  31.138  28.373  1.00  0.00     0.034 A 
BRANCH  55  69
ATOM     69  C   UNL A   1      40.299  29.120  29.397  1.00  0.00     0.023 A 
ATOM     70  C   UNL A   1      39.886  29.106  30.741  1.00  0.00     0.031 A 
ATOM     71  C   UNL A   1      39.323  29.378  28.418  1.00  0.00     0.131 A 
ATOM     72  C   UNL A   1      38.525  29.227  31.059  1.00  0.00     0.055 A 
ATOM     73  C   UNL A   1      37.985  29.604  28.750  1.00  0.00     0.041 A 
ATOM     74  F   UNL A   1      39.646  29.388  27.115  1.00  0.00    -0.206 F 
ATOM     75  C   UNL A   1      37.574  29.503  30.075  1.00  0.00     0.022 A 
BRANCH  72  76
ATOM     76  S   UNL A   1      37.995  28.810  32.744  1.00  0.00     0.124 S 
ATOM     77  O   UNL A   1      39.006  29.494  33.548  1.00  0.00    -0.237 OA
ATOM     78  O   UNL A   1      36.650  29.369  32.798  1.00  0.00    -0.237 OA
ATOM     79  O   UNL A   1      38.070  27.351  32.775  1.00  0.00    -0.744 OA
ENDBRANCH  72  76
ENDBRANCH  55  69
BRANCH  56  80
ATOM     80  C   UNL A   1      49.454  26.576  26.222  1.00  0.00     0.023 A 
ATOM     81  C   UNL A   1      49.845  27.011  24.947  1.00  0.00     0.031 A 
ATOM     82  C   UNL A   1      50.352  25.779  26.956  1.00  0.00     0.131 A 
ATOM     83  C   UNL A   1      51.092  26.625  24.430  1.00  0.00     0.055 A 
ATOM     84  C   UNL A   1      51.605  25.430  26.452  1.00  0.00     0.041 A 
ATOM     85  F   UNL A   1      50.025  25.344  28.183  1.00  0.00    -0.206 F 
ATOM     86  C   UNL A   1      51.981  25.851  25.180  1.00  0.00     0.022 A 
BRANCH  83  87
ATOM     87  S   UNL A   1      51.521  27.106  22.734  1.00  0.00     0.124 S 
ATOM     88  O   UNL A   1      51.732  28.541  22.878  1.00  0.00    -0.237 OA
ATOM     89  O   UNL A   1      52.715  26.304  22.481  1.00  0.00    -0.237 OA
ATOM     90  O   UNL A   1      50.342  26.721  21.962  1.00  0.00    -0.744 OA
ENDBRANCH  83  87
ENDBRANCH  56  80
BRANCH  68  91
ATOM     91  C   UNL A   1      46.670  32.502  28.656  1.00  0.00     0.023 A 
ATOM     92  C   UNL A   1      47.232  32.836  29.900  1.00  0.00     0.031 A 
ATOM     93  C   UNL A   1      46.685  33.475  27.639  1.00  0.00     0.131 A 
ATOM     94  C   UNL A   1      47.758  34.123  30.103  1.00  0.00     0.055 A 
ATOM     95  C   UNL A   1      47.259  34.730  27.829  1.00  0.00     0.041 A 
ATOM     96  F   UNL A   1      46.155  33.209  26.433  1.00  0.00    -0.206 F 
ATOM     97  C   UNL A   1      47.794  35.063  29.070  1.00  0.00     0.022 A 
BRANCH  94  98
ATOM     98  S   UNL A   1      48.344  34.578  31.758  1.00  0.00     0.124 S 
ATOM     99  O   UNL A   1      47.825  33.487  32.575  1.00  0.00    -0.237 OA
ATOM    100  O   UNL A   1      49.792  34.610  31.580  1.00  0.00    -0.237 OA
ATOM    101  O   UNL A   1      47.723  35.881  31.996  1.00  0.00    -0.744 OA
ENDBRANCH  94  98
ENDBRANCH  68  91
ENDBRANCH  42  43
ENDBRANCH  34  37
ENDBRANCH  32  33
ENDBRANCH   1  32
TORSDOF 16
ENDMDL
