MODEL 1
REMARK VINA RESULT:     -12.0      0.000      0.000
REMARK SMILES CC[C@](C)(NC(=O)[C@](C)([NH3+])c1ccccc1)C(=O)NCCCNC(=O)c1ccc(-c2c3nc(c(-c4cc(S(=O)(=O)[O-])ccc4F)c4ccc([nH]4)c(-c4cc(S(=O)(=O)[O-])ccc4F)c4nc(c(-c5cc(S(=O)(=O)[O-])ccc5F)c5ccc2[nH]5)C=C4)C=C3)cc1
REMARK SMILES IDX 21 1 20 2 19 3 17 4 18 5 3 7 4 8 2 9 1 10 5 11 6 12 7 14
REMARK SMILES IDX 8 15 9 16 10 17 11 21 12 22 16 23 13 24 15 25 14 26 22 27
REMARK SMILES IDX 23 28 24 29 25 31 26 32 27 33 88 34 28 35 87 36 29 37 30 38
REMARK SMILES IDX 31 39 81 40 32 41 86 42 80 43 82 44 33 45 85 46 79 47 78 48
REMARK SMILES IDX 34 50 66 51 46 52 65 53 47 54 50 55 64 56 83 57 48 58 49 59
REMARK SMILES IDX 63 61 84 62 51 63 35 64 36 65 44 66 37 67 43 68 45 69 42 70
REMARK SMILES IDX 38 71 39 72 40 73 41 74 67 75 68 76 76 77 69 78 75 79 77 80
REMARK SMILES IDX 74 81 70 82 71 83 72 84 73 85 52 86 53 87 61 88 54 89 60 90
REMARK SMILES IDX 62 91 59 92 55 93 56 94 57 95 58 96
REMARK H PARENT 19 6 5 13 10 18 10 19 10 20 23 30 82 49 50 60
REMARK Flexibility Score: inf
ROOT
ATOM      1  C   UNL A   1      35.572  21.714  26.091  1.00  0.00     0.042 C 
ENDROOT
BRANCH   1   2
ATOM      2  C   UNL A   1      34.175  22.025  25.544  1.00  0.00     0.117 C 
BRANCH   2   3
ATOM      3  N   UNL A   1      33.871  22.095  24.113  1.00  0.00    -0.354 N 
ATOM      4  C   UNL A   1      33.801  23.199  23.261  1.00  0.00     0.245 C 
ATOM      5  O   UNL A   1      34.124  23.097  22.074  1.00  0.00    -0.272 OA
ATOM      6  H   UNL A   1      33.688  21.227  23.685  1.00  0.00     0.163 HD
BRANCH   4   7
ATOM      7  C   UNL A   1      33.488  24.567  23.852  1.00  0.00     0.116 C 
ATOM      8  C   UNL A   1      34.283  25.068  25.077  1.00  0.00     0.045 C 
BRANCH   7   9
ATOM      9  C   UNL A   1      31.991  24.468  24.394  1.00  0.00     0.035 C 
ATOM     10  C   UNL A   1      30.841  24.008  23.473  1.00  0.00     0.007 C 
ENDBRANCH   7   9
BRANCH   7  11
ATOM     11  N   UNL A   1      33.764  25.519  22.755  1.00  0.00    -0.336 N 
ATOM     12  C   UNL A   1      33.271  26.746  22.400  1.00  0.00     0.286 C 
ATOM     13  H   UNL A   1      34.462  25.198  22.141  1.00  0.00     0.164 HD
ATOM     14  O   UNL A   1      33.600  27.005  21.217  1.00  0.00    -0.267 OA
BRANCH  12  15
ATOM     15  C   UNL A   1      32.335  27.890  23.161  1.00  0.00     0.196 C 
ATOM     16  C   UNL A   1      30.859  27.687  22.799  1.00  0.00     0.096 C 
BRANCH  15  17
ATOM     17  N   UNL A   1      32.721  29.150  22.418  1.00  0.00    -0.341 N 
ATOM     18  H   UNL A   1      33.412  29.668  22.962  1.00  0.00     0.345 HD
ATOM     19  H   UNL A   1      31.893  29.730  22.279  1.00  0.00     0.345 HD
ATOM     20  H   UNL A   1      33.118  28.903  21.512  1.00  0.00     0.345 HD
ENDBRANCH  15  17
BRANCH  15  21
ATOM     21  C   UNL A   1      32.462  28.215  24.686  1.00  0.00     0.022 A 
ATOM     22  C   UNL A   1      31.399  28.086  25.594  1.00  0.00     0.011 A 
ATOM     23  C   UNL A   1      33.613  28.808  25.248  1.00  0.00     0.011 A 
ATOM     24  C   UNL A   1      31.584  28.195  26.989  1.00  0.00     0.001 A 
ATOM     25  C   UNL A   1      33.801  28.964  26.633  1.00  0.00     0.001 A 
ATOM     26  C   UNL A   1      32.810  28.575  27.514  1.00  0.00     0.000 A 
ENDBRANCH  15  21
ENDBRANCH  12  15
ENDBRANCH   7  11
ENDBRANCH   4   7
ENDBRANCH   2   3
ENDBRANCH   1   2
BRANCH   1  27
ATOM     27  C   UNL A   1      36.838  21.917  25.278  1.00  0.00     0.118 C 
BRANCH  27  28
ATOM     28  N   UNL A   1      37.856  20.902  25.390  1.00  0.00    -0.352 N 
ATOM     29  C   UNL A   1      39.109  21.024  25.960  1.00  0.00     0.251 C 
ATOM     30  H   UNL A   1      37.632  20.019  25.018  1.00  0.00     0.163 HD
ATOM     31  O   UNL A   1      39.861  20.063  25.979  1.00  0.00    -0.269 OA
BRANCH  29  32
ATOM     32  C   UNL A   1      39.555  22.334  26.507  1.00  0.00     0.039 A 
ATOM     33  C   UNL A   1      40.608  22.339  27.421  1.00  0.00     0.014 A 
ATOM     34  C   UNL A   1      38.951  23.542  26.144  1.00  0.00     0.014 A 
ATOM     35  C   UNL A   1      41.102  23.554  27.907  1.00  0.00     0.010 A 
ATOM     36  C   UNL A   1      39.474  24.759  26.593  1.00  0.00     0.010 A 
ATOM     37  C   UNL A   1      40.572  24.780  27.463  1.00  0.00    -0.014 A 
BRANCH  37  38
ATOM     38  C   UNL A   1      41.243  26.058  27.833  1.00  0.00     0.031 A 
ATOM     39  C   UNL A   1      42.645  26.376  27.392  1.00  0.00     0.074 A 
ATOM     40  C   UNL A   1      40.564  26.939  28.596  1.00  0.00     0.049 A 
ATOM     41  N   UNL A   1      43.330  27.480  27.560  1.00  0.00    -0.248 NA
ATOM     42  C   UNL A   1      43.378  25.315  26.690  1.00  0.00     0.031 C 
ATOM     43  C   UNL A   1      39.223  26.716  29.142  1.00  0.00     0.029 A 
ATOM     44  N   UNL A   1      40.891  28.199  29.033  1.00  0.00    -0.354 N 
ATOM     45  C   UNL A   1      44.571  27.255  26.974  1.00  0.00     0.074 A 
ATOM     46  C   UNL A   1      44.562  25.883  26.506  1.00  0.00     0.031 C 
ATOM     47  C   UNL A   1      38.822  27.819  29.792  1.00  0.00     0.029 A 
ATOM     48  C   UNL A   1      39.888  28.813  29.749  1.00  0.00     0.049 A 
ATOM     49  H   UNL A   1      41.760  28.624  28.849  1.00  0.00     0.167 HD
ATOM     50  C   UNL A   1      45.610  28.117  26.824  1.00  0.00     0.034 A 
ATOM     51  C   UNL A   1      39.827  30.038  30.309  1.00  0.00     0.034 A 
ATOM     52  C   UNL A   1      45.609  29.477  27.318  1.00  0.00     0.049 A 
ATOM     53  C   UNL A   1      41.000  30.969  30.143  1.00  0.00     0.074 A 
ATOM     54  C   UNL A   1      46.589  30.445  27.182  1.00  0.00     0.029 A 
ATOM     55  N   UNL A   1      44.586  30.057  28.060  1.00  0.00    -0.354 N 
ATOM     56  N   UNL A   1      42.137  30.765  29.516  1.00  0.00    -0.248 NA
ATOM     57  C   UNL A   1      40.873  32.302  30.743  1.00  0.00     0.031 C 
ATOM     58  C   UNL A   1      46.198  31.577  27.907  1.00  0.00     0.029 A 
ATOM     59  C   UNL A   1      44.929  31.355  28.417  1.00  0.00     0.049 A 
ATOM     60  H   UNL A   1      43.740  29.613  28.298  1.00  0.00     0.167 HD
ATOM     61  C   UNL A   1      42.846  31.960  29.621  1.00  0.00     0.074 A 
ATOM     62  C   UNL A   1      41.994  32.882  30.344  1.00  0.00     0.031 C 
ATOM     63  C   UNL A   1      44.086  32.266  29.159  1.00  0.00     0.034 A 
BRANCH  50  64
ATOM     64  C   UNL A   1      46.847  27.604  26.118  1.00  0.00     0.023 A 
ATOM     65  C   UNL A   1      47.115  27.922  24.774  1.00  0.00     0.031 A 
ATOM     66  C   UNL A   1      47.769  26.783  26.791  1.00  0.00     0.131 A 
ATOM     67  C   UNL A   1      48.230  27.364  24.127  1.00  0.00     0.055 A 
ATOM     68  C   UNL A   1      48.922  26.300  26.168  1.00  0.00     0.041 A 
ATOM     69  F   UNL A   1      47.564  26.428  28.070  1.00  0.00    -0.206 F 
ATOM     70  C   UNL A   1      49.149  26.576  24.822  1.00  0.00     0.022 A 
BRANCH  67  71
ATOM     71  S   UNL A   1      48.379  27.561  22.330  1.00  0.00     0.124 S 
ATOM     72  O   UNL A   1      49.570  28.400  22.223  1.00  0.00    -0.237 OA
ATOM     73  O   UNL A   1      48.525  26.184  21.873  1.00  0.00    -0.237 OA
ATOM     74  O   UNL A   1      47.129  28.215  21.952  1.00  0.00    -0.744 OA
ENDBRANCH  67  71
ENDBRANCH  50  64
BRANCH  51  75
ATOM     75  C   UNL A   1      38.617  30.462  31.073  1.00  0.00     0.023 A 
ATOM     76  C   UNL A   1      37.546  31.114  30.442  1.00  0.00     0.031 A 
ATOM     77  C   UNL A   1      38.538  30.262  32.464  1.00  0.00     0.131 A 
ATOM     78  C   UNL A   1      36.467  31.589  31.205  1.00  0.00     0.055 A 
ATOM     79  C   UNL A   1      37.434  30.681  33.208  1.00  0.00     0.041 A 
ATOM     80  F   UNL A   1      39.532  29.642  33.120  1.00  0.00    -0.206 F 
ATOM     81  C   UNL A   1      36.397  31.363  32.581  1.00  0.00     0.022 A 
BRANCH  78  82
ATOM     82  S   UNL A   1      35.201  32.600  30.386  1.00  0.00     0.124 S 
ATOM     83  O   UNL A   1      34.820  31.748  29.266  1.00  0.00    -0.237 OA
ATOM     84  O   UNL A   1      34.208  32.754  31.444  1.00  0.00    -0.237 OA
ATOM     85  O   UNL A   1      35.922  33.821  30.029  1.00  0.00    -0.744 OA
ENDBRANCH  78  82
ENDBRANCH  51  75
BRANCH  63  86
ATOM     86  C   UNL A   1      44.572  33.680  29.394  1.00  0.00     0.023 A 
ATOM     87  C   UNL A   1      44.246  34.733  28.520  1.00  0.00     0.031 A 
ATOM     88  C   UNL A   1      45.418  33.968  30.480  1.00  0.00     0.131 A 
ATOM     89  C   UNL A   1      44.831  35.996  28.693  1.00  0.00     0.055 A 
ATOM     90  C   UNL A   1      45.934  35.248  30.694  1.00  0.00     0.041 A 
ATOM     91  F   UNL A   1      45.772  33.006  31.347  1.00  0.00    -0.206 F 
ATOM     92  C   UNL A   1      45.658  36.266  29.786  1.00  0.00     0.022 A 
BRANCH  89  93
ATOM     93  S   UNL A   1      44.620  37.238  27.388  1.00  0.00     0.124 S 
ATOM     94  O   UNL A   1      44.445  38.463  28.161  1.00  0.00    -0.237 OA
ATOM     95  O   UNL A   1      45.871  37.128  26.646  1.00  0.00    -0.237 OA
ATOM     96  O   UNL A   1      43.431  36.783  26.670  1.00  0.00    -0.744 OA
ENDBRANCH  89  93
ENDBRANCH  63  86
ENDBRANCH  37  38
ENDBRANCH  29  32
ENDBRANCH  27  28
ENDBRANCH   1  27
TORSDOF 18
ENDMDL
MODEL 2
REMARK VINA RESULT:     -11.9      4.893     10.189
REMARK SMILES CC[C@](C)(NC(=O)[C@](C)([NH3+])c1ccccc1)C(=O)NCCCNC(=O)c1ccc(-c2c3nc(c(-c4cc(S(=O)(=O)[O-])ccc4F)c4ccc([nH]4)c(-c4cc(S(=O)(=O)[O-])ccc4F)c4nc(c(-c5cc(S(=O)(=O)[O-])ccc5F)c5ccc2[nH]5)C=C4)C=C3)cc1
REMARK SMILES IDX 21 1 20 2 19 3 17 4 18 5 3 7 4 8 2 9 1 10 5 11 6 12 7 14
REMARK SMILES IDX 8 15 9 16 10 17 11 21 12 22 16 23 13 24 15 25 14 26 22 27
REMARK SMILES IDX 23 28 24 29 25 31 26 32 27 33 88 34 28 35 87 36 29 37 30 38
REMARK SMILES IDX 31 39 81 40 32 41 86 42 80 43 82 44 33 45 85 46 79 47 78 48
REMARK SMILES IDX 34 50 66 51 46 52 65 53 47 54 50 55 64 56 83 57 48 58 49 59
REMARK SMILES IDX 63 61 84 62 51 63 35 64 36 65 44 66 37 67 43 68 45 69 42 70
REMARK SMILES IDX 38 71 39 72 40 73 41 74 67 75 68 76 76 77 69 78 75 79 77 80
REMARK SMILES IDX 74 81 70 82 71 83 72 84 73 85 52 86 53 87 61 88 54 89 60 90
REMARK SMILES IDX 62 91 59 92 55 93 56 94 57 95 58 96
REMARK H PARENT 19 6 5 13 10 18 10 19 10 20 23 30 82 49 50 60
REMARK Flexibility Score: inf
ROOT
ATOM      1  C   UNL A   1      31.512  29.755  25.207  1.00  0.00     0.042 C 
ENDROOT
BRANCH   1   2
ATOM      2  C   UNL A   1      31.648  28.353  24.604  1.00  0.00     0.117 C 
BRANCH   2   3
ATOM      3  N   UNL A   1      30.629  27.312  24.757  1.00  0.00    -0.354 N 
ATOM      4  C   UNL A   1      30.689  26.086  25.423  1.00  0.00     0.245 C 
ATOM      5  O   UNL A   1      29.685  25.618  25.967  1.00  0.00    -0.272 OA
ATOM      6  H   UNL A   1      29.766  27.508  24.324  1.00  0.00     0.163 HD
BRANCH   4   7
ATOM      7  C   UNL A   1      32.043  25.418  25.616  1.00  0.00     0.116 C 
ATOM      8  C   UNL A   1      33.262  26.271  26.028  1.00  0.00     0.045 C 
BRANCH   7   9
ATOM      9  C   UNL A   1      32.452  24.853  24.182  1.00  0.00     0.035 C 
ATOM     10  C   UNL A   1      33.663  25.426  23.416  1.00  0.00     0.007 C 
ENDBRANCH   7   9
BRANCH   7  11
ATOM     11  N   UNL A   1      31.827  24.444  26.707  1.00  0.00    -0.336 N 
ATOM     12  C   UNL A   1      32.152  23.127  26.899  1.00  0.00     0.286 C 
ATOM     13  H   UNL A   1      31.337  24.829  27.468  1.00  0.00     0.164 HD
ATOM     14  O   UNL A   1      31.475  22.661  27.846  1.00  0.00    -0.267 OA
BRANCH  12  15
ATOM     15  C   UNL A   1      33.179  22.059  26.144  1.00  0.00     0.196 C 
ATOM     16  C   UNL A   1      32.403  21.215  25.126  1.00  0.00     0.096 C 
BRANCH  15  17
ATOM     17  N   UNL A   1      33.488  21.087  27.262  1.00  0.00    -0.341 N 
ATOM     18  H   UNL A   1      32.791  20.340  27.265  1.00  0.00     0.345 HD
ATOM     19  H   UNL A   1      33.464  21.577  28.156  1.00  0.00     0.345 HD
ATOM     20  H   UNL A   1      34.414  20.686  27.118  1.00  0.00     0.345 HD
ENDBRANCH  15  17
BRANCH  15  21
ATOM     21  C   UNL A   1      34.553  22.488  25.533  1.00  0.00     0.022 A 
ATOM     22  C   UNL A   1      35.025  22.026  24.295  1.00  0.00     0.011 A 
ATOM     23  C   UNL A   1      35.499  23.258  26.244  1.00  0.00     0.011 A 
ATOM     24  C   UNL A   1      36.169  22.573  23.674  1.00  0.00     0.001 A 
ATOM     25  C   UNL A   1      36.666  23.778  25.658  1.00  0.00     0.001 A 
ATOM     26  C   UNL A   1      36.959  23.501  24.336  1.00  0.00     0.000 A 
ENDBRANCH  15  21
ENDBRANCH  12  15
ENDBRANCH   7  11
ENDBRANCH   4   7
ENDBRANCH   2   3
ENDBRANCH   1   2
BRANCH   1  27
ATOM     27  C   UNL A   1      32.417  30.267  26.314  1.00  0.00     0.118 C 
BRANCH  27  28
ATOM     28  N   UNL A   1      32.257  31.646  26.703  1.00  0.00    -0.352 N 
ATOM     29  C   UNL A   1      33.148  32.431  27.411  1.00  0.00     0.251 C 
ATOM     30  H   UNL A   1      31.416  32.079  26.432  1.00  0.00     0.163 HD
ATOM     31  O   UNL A   1      32.865  33.590  27.662  1.00  0.00    -0.269 OA
BRANCH  29  32
ATOM     32  C   UNL A   1      34.427  31.850  27.903  1.00  0.00     0.039 A 
ATOM     33  C   UNL A   1      35.532  32.693  28.011  1.00  0.00     0.014 A 
ATOM     34  C   UNL A   1      34.552  30.499  28.245  1.00  0.00     0.014 A 
ATOM     35  C   UNL A   1      36.733  32.201  28.534  1.00  0.00     0.010 A 
ATOM     36  C   UNL A   1      35.738  30.019  28.811  1.00  0.00     0.010 A 
ATOM     37  C   UNL A   1      36.836  30.872  28.983  1.00  0.00    -0.014 A 
BRANCH  37  38
ATOM     38  C   UNL A   1      38.053  30.428  29.720  1.00  0.00     0.031 A 
ATOM     39  C   UNL A   1      38.340  30.882  31.125  1.00  0.00     0.074 A 
ATOM     40  C   UNL A   1      38.918  29.606  29.092  1.00  0.00     0.049 A 
ATOM     41  N   UNL A   1      39.310  30.515  31.926  1.00  0.00    -0.248 NA
ATOM     42  C   UNL A   1      37.438  31.890  31.696  1.00  0.00     0.031 C 
ATOM     43  C   UNL A   1      38.784  29.150  27.706  1.00  0.00     0.029 A 
ATOM     44  N   UNL A   1      40.066  28.993  29.529  1.00  0.00    -0.354 N 
ATOM     45  C   UNL A   1      39.128  31.235  33.103  1.00  0.00     0.074 A 
ATOM     46  C   UNL A   1      37.994  32.108  32.880  1.00  0.00     0.031 C 
ATOM     47  C   UNL A   1      39.775  28.291  27.426  1.00  0.00     0.029 A 
ATOM     48  C   UNL A   1      40.642  28.165  28.592  1.00  0.00     0.049 A 
ATOM     49  H   UNL A   1      40.442  29.133  30.428  1.00  0.00     0.167 HD
ATOM     50  C   UNL A   1      39.830  31.158  34.263  1.00  0.00     0.034 A 
ATOM     51  C   UNL A   1      41.741  27.388  28.659  1.00  0.00     0.034 A 
ATOM     52  C   UNL A   1      40.975  30.295  34.460  1.00  0.00     0.049 A 
ATOM     53  C   UNL A   1      42.513  27.335  29.952  1.00  0.00     0.074 A 
ATOM     54  C   UNL A   1      41.729  30.110  35.606  1.00  0.00     0.029 A 
ATOM     55  N   UNL A   1      41.545  29.488  33.482  1.00  0.00    -0.354 N 
ATOM     56  N   UNL A   1      42.280  27.964  31.083  1.00  0.00    -0.248 NA
ATOM     57  C   UNL A   1      43.683  26.450  29.985  1.00  0.00     0.031 C 
ATOM     58  C   UNL A   1      42.797  29.258  35.301  1.00  0.00     0.029 A 
ATOM     59  C   UNL A   1      42.659  28.832  33.990  1.00  0.00     0.049 A 
ATOM     60  H   UNL A   1      41.207  29.393  32.562  1.00  0.00     0.167 HD
ATOM     61  C   UNL A   1      43.259  27.523  31.969  1.00  0.00     0.074 A 
ATOM     62  C   UNL A   1      44.062  26.556  31.249  1.00  0.00     0.031 C 
ATOM     63  C   UNL A   1      43.473  27.884  33.261  1.00  0.00     0.034 A 
BRANCH  50  64
ATOM     64  C   UNL A   1      39.394  32.053  35.404  1.00  0.00     0.023 A 
ATOM     65  C   UNL A   1      39.887  33.363  35.545  1.00  0.00     0.031 A 
ATOM     66  C   UNL A   1      38.479  31.592  36.368  1.00  0.00     0.131 A 
ATOM     67  C   UNL A   1      39.523  34.136  36.659  1.00  0.00     0.055 A 
ATOM     68  C   UNL A   1      38.055  32.396  37.429  1.00  0.00     0.041 A 
ATOM     69  F   UNL A   1      37.984  30.345  36.302  1.00  0.00    -0.206 F 
ATOM     70  C   UNL A   1      38.590  33.671  37.588  1.00  0.00     0.022 A 
BRANCH  67  71
ATOM     71  S   UNL A   1      40.399  35.696  36.956  1.00  0.00     0.124 S 
ATOM     72  O   UNL A   1      40.205  35.876  38.392  1.00  0.00    -0.237 OA
ATOM     73  O   UNL A   1      41.758  35.381  36.530  1.00  0.00    -0.237 OA
ATOM     74  O   UNL A   1      39.687  36.655  36.113  1.00  0.00    -0.744 OA
ENDBRANCH  67  71
ENDBRANCH  50  64
BRANCH  51  75
ATOM     75  C   UNL A   1      42.181  26.593  27.474  1.00  0.00     0.023 A 
ATOM     76  C   UNL A   1      41.866  25.230  27.352  1.00  0.00     0.031 A 
ATOM     77  C   UNL A   1      42.968  27.180  26.466  1.00  0.00     0.131 A 
ATOM     78  C   UNL A   1      42.378  24.487  26.276  1.00  0.00     0.055 A 
ATOM     79  C   UNL A   1      43.422  26.451  25.366  1.00  0.00     0.041 A 
ATOM     80  F   UNL A   1      43.297  28.480  26.529  1.00  0.00    -0.206 F 
ATOM     81  C   UNL A   1      43.141  25.092  25.274  1.00  0.00     0.022 A 
BRANCH  78  82
ATOM     82  S   UNL A   1      42.118  22.691  26.258  1.00  0.00     0.124 S 
ATOM     83  O   UNL A   1      42.817  22.278  27.468  1.00  0.00    -0.237 OA
ATOM     84  O   UNL A   1      40.663  22.596  26.290  1.00  0.00    -0.237 OA
ATOM     85  O   UNL A   1      42.739  22.272  25.002  1.00  0.00    -0.744 OA
ENDBRANCH  78  82
ENDBRANCH  51  75
BRANCH  63  86
ATOM     86  C   UNL A   1      44.604  27.188  33.986  1.00  0.00     0.023 A 
ATOM     87  C   UNL A   1      44.452  25.907  34.546  1.00  0.00     0.031 A 
ATOM     88  C   UNL A   1      45.838  27.840  34.166  1.00  0.00     0.131 A 
ATOM     89  C   UNL A   1      45.477  25.358  35.331  1.00  0.00     0.055 A 
ATOM     90  C   UNL A   1      46.885  27.254  34.880  1.00  0.00     0.041 A 
ATOM     91  F   UNL A   1      46.045  29.067  33.662  1.00  0.00    -0.206 F 
ATOM     92  C   UNL A   1      46.700  26.014  35.485  1.00  0.00     0.022 A 
BRANCH  89  93
ATOM     93  S   UNL A   1      45.136  23.844  36.271  1.00  0.00     0.124 S 
ATOM     94  O   UNL A   1      46.367  23.085  36.082  1.00  0.00    -0.237 OA
ATOM     95  O   UNL A   1      44.906  24.358  37.617  1.00  0.00    -0.237 OA
ATOM     96  O   UNL A   1      43.957  23.288  35.610  1.00  0.00    -0.744 OA
ENDBRANCH  89  93
ENDBRANCH  63  86
ENDBRANCH  37  38
ENDBRANCH  29  32
ENDBRANCH  27  28
ENDBRANCH   1  27
TORSDOF 18
ENDMDL
MODEL 3
REMARK VINA RESULT:     -11.9      4.934     10.306
REMARK SMILES CC[C@](C)(NC(=O)[C@](C)([NH3+])c1ccccc1)C(=O)NCCCNC(=O)c1ccc(-c2c3nc(c(-c4cc(S(=O)(=O)[O-])ccc4F)c4ccc([nH]4)c(-c4cc(S(=O)(=O)[O-])ccc4F)c4nc(c(-c5cc(S(=O)(=O)[O-])ccc5F)c5ccc2[nH]5)C=C4)C=C3)cc1
REMARK SMILES IDX 21 1 20 2 19 3 17 4 18 5 3 7 4 8 2 9 1 10 5 11 6 12 7 14
REMARK SMILES IDX 8 15 9 16 10 17 11 21 12 22 16 23 13 24 15 25 14 26 22 27
REMARK SMILES IDX 23 28 24 29 25 31 26 32 27 33 88 34 28 35 87 36 29 37 30 38
REMARK SMILES IDX 31 39 81 40 32 41 86 42 80 43 82 44 33 45 85 46 79 47 78 48
REMARK SMILES IDX 34 50 66 51 46 52 65 53 47 54 50 55 64 56 83 57 48 58 49 59
REMARK SMILES IDX 63 61 84 62 51 63 35 64 36 65 44 66 37 67 43 68 45 69 42 70
REMARK SMILES IDX 38 71 39 72 40 73 41 74 67 75 68 76 76 77 69 78 75 79 77 80
REMARK SMILES IDX 74 81 70 82 71 83 72 84 73 85 52 86 53 87 61 88 54 89 60 90
REMARK SMILES IDX 62 91 59 92 55 93 56 94 57 95 58 96
REMARK H PARENT 19 6 5 13 10 18 10 19 10 20 23 30 82 49 50 60
REMARK Flexibility Score: inf
ROOT
ATOM      1  C   UNL A   1      31.897  29.688  25.201  1.00  0.00     0.042 C 
ENDROOT
BRANCH   1   2
ATOM      2  C   UNL A   1      31.812  28.233  24.729  1.00  0.00     0.117 C 
BRANCH   2   3
ATOM      3  N   UNL A   1      30.721  27.330  25.107  1.00  0.00    -0.354 N 
ATOM      4  C   UNL A   1      30.761  26.091  25.749  1.00  0.00     0.245 C 
ATOM      5  O   UNL A   1      29.847  25.745  26.502  1.00  0.00    -0.272 OA
ATOM      6  H   UNL A   1      29.819  27.647  24.871  1.00  0.00     0.163 HD
BRANCH   4   7
ATOM      7  C   UNL A   1      32.024  25.248  25.645  1.00  0.00     0.116 C 
ATOM      8  C   UNL A   1      33.406  25.928  25.749  1.00  0.00     0.045 C 
BRANCH   7   9
ATOM      9  C   UNL A   1      32.017  24.642  24.169  1.00  0.00     0.035 C 
ATOM     10  C   UNL A   1      30.730  24.047  23.561  1.00  0.00     0.007 C 
ENDBRANCH   7   9
BRANCH   7  11
ATOM     11  N   UNL A   1      31.937  24.303  26.779  1.00  0.00    -0.336 N 
ATOM     12  C   UNL A   1      32.320  23.004  26.981  1.00  0.00     0.286 C 
ATOM     13  H   UNL A   1      31.506  24.699  27.570  1.00  0.00     0.164 HD
ATOM     14  O   UNL A   1      31.746  22.549  27.999  1.00  0.00    -0.267 OA
BRANCH  12  15
ATOM     15  C   UNL A   1      33.310  21.942  26.169  1.00  0.00     0.196 C 
ATOM     16  C   UNL A   1      32.492  21.129  25.159  1.00  0.00     0.096 C 
BRANCH  15  17
ATOM     17  N   UNL A   1      33.645  20.942  27.254  1.00  0.00    -0.341 N 
ATOM     18  H   UNL A   1      33.322  21.297  28.155  1.00  0.00     0.345 HD
ATOM     19  H   UNL A   1      34.655  20.801  27.286  1.00  0.00     0.345 HD
ATOM     20  H   UNL A   1      33.184  20.055  27.053  1.00  0.00     0.345 HD
ENDBRANCH  15  17
BRANCH  15  21
ATOM     21  C   UNL A   1      34.668  22.371  25.523  1.00  0.00     0.022 A 
ATOM     22  C   UNL A   1      35.117  21.894  24.281  1.00  0.00     0.011 A 
ATOM     23  C   UNL A   1      35.624  23.156  26.202  1.00  0.00     0.011 A 
ATOM     24  C   UNL A   1      36.244  22.439  23.628  1.00  0.00     0.001 A 
ATOM     25  C   UNL A   1      36.775  23.675  25.583  1.00  0.00     0.001 A 
ATOM     26  C   UNL A   1      37.041  23.381  24.259  1.00  0.00     0.000 A 
ENDBRANCH  15  21
ENDBRANCH  12  15
ENDBRANCH   7  11
ENDBRANCH   4   7
ENDBRANCH   2   3
ENDBRANCH   1   2
BRANCH   1  27
ATOM     27  C   UNL A   1      32.822  30.138  26.318  1.00  0.00     0.118 C 
BRANCH  27  28
ATOM     28  N   UNL A   1      32.651  31.485  26.805  1.00  0.00    -0.352 N 
ATOM     29  C   UNL A   1      33.527  32.217  27.583  1.00  0.00     0.251 C 
ATOM     30  H   UNL A   1      31.813  31.935  26.553  1.00  0.00     0.163 HD
ATOM     31  O   UNL A   1      33.236  33.355  27.914  1.00  0.00    -0.269 OA
BRANCH  29  32
ATOM     32  C   UNL A   1      34.800  31.605  28.052  1.00  0.00     0.039 A 
ATOM     33  C   UNL A   1      35.945  32.401  28.068  1.00  0.00     0.014 A 
ATOM     34  C   UNL A   1      34.881  30.270  28.462  1.00  0.00     0.014 A 
ATOM     35  C   UNL A   1      37.145  31.883  28.566  1.00  0.00     0.010 A 
ATOM     36  C   UNL A   1      36.069  29.767  29.003  1.00  0.00     0.010 A 
ATOM     37  C   UNL A   1      37.210  30.576  29.082  1.00  0.00    -0.014 A 
BRANCH  37  38
ATOM     38  C   UNL A   1      38.438  30.116  29.791  1.00  0.00     0.031 A 
ATOM     39  C   UNL A   1      38.776  30.585  31.179  1.00  0.00     0.074 A 
ATOM     40  C   UNL A   1      39.265  29.264  29.151  1.00  0.00     0.049 A 
ATOM     41  N   UNL A   1      39.760  30.209  31.958  1.00  0.00    -0.248 NA
ATOM     42  C   UNL A   1      37.914  31.623  31.759  1.00  0.00     0.031 C 
ATOM     43  C   UNL A   1      39.080  28.790  27.777  1.00  0.00     0.029 A 
ATOM     44  N   UNL A   1      40.412  28.633  29.565  1.00  0.00    -0.354 N 
ATOM     45  C   UNL A   1      39.630  30.951  33.127  1.00  0.00     0.074 A 
ATOM     46  C   UNL A   1      38.509  31.846  32.924  1.00  0.00     0.031 C 
ATOM     47  C   UNL A   1      40.043  27.904  27.483  1.00  0.00     0.029 A 
ATOM     48  C   UNL A   1      40.941  27.777  28.625  1.00  0.00     0.049 A 
ATOM     49  H   UNL A   1      40.817  28.778  30.451  1.00  0.00     0.167 HD
ATOM     50  C   UNL A   1      40.363  30.876  34.268  1.00  0.00     0.034 A 
ATOM     51  C   UNL A   1      42.024  26.976  28.673  1.00  0.00     0.034 A 
ATOM     52  C   UNL A   1      41.494  29.991  34.445  1.00  0.00     0.049 A 
ATOM     53  C   UNL A   1      42.832  26.926  29.944  1.00  0.00     0.074 A 
ATOM     54  C   UNL A   1      42.277  29.806  35.572  1.00  0.00     0.029 A 
ATOM     55  N   UNL A   1      42.017  29.156  33.464  1.00  0.00    -0.354 N 
ATOM     56  N   UNL A   1      42.646  27.578  31.070  1.00  0.00    -0.248 NA
ATOM     57  C   UNL A   1      43.983  26.015  29.958  1.00  0.00     0.031 C 
ATOM     58  C   UNL A   1      43.316  28.926  35.250  1.00  0.00     0.029 A 
ATOM     59  C   UNL A   1      43.130  28.483  33.950  1.00  0.00     0.049 A 
ATOM     60  H   UNL A   1      41.650  29.054  32.556  1.00  0.00     0.167 HD
ATOM     61  C   UNL A   1      43.641  27.129  31.935  1.00  0.00     0.074 A 
ATOM     62  C   UNL A   1      44.401  26.132  31.208  1.00  0.00     0.031 C 
ATOM     63  C   UNL A   1      43.901  27.505  33.214  1.00  0.00     0.034 A 
BRANCH  50  64
ATOM     64  C   UNL A   1      39.981  31.799  35.407  1.00  0.00     0.023 A 
ATOM     65  C   UNL A   1      39.084  31.397  36.413  1.00  0.00     0.031 A 
ATOM     66  C   UNL A   1      40.513  33.098  35.487  1.00  0.00     0.131 A 
ATOM     67  C   UNL A   1      38.690  32.305  37.408  1.00  0.00     0.055 A 
ATOM     68  C   UNL A   1      40.183  33.969  36.528  1.00  0.00     0.041 A 
ATOM     69  F   UNL A   1      41.361  33.550  34.549  1.00  0.00    -0.206 F 
ATOM     70  C   UNL A   1      39.253  33.580  37.488  1.00  0.00     0.022 A 
BRANCH  67  71
ATOM     71  S   UNL A   1      37.321  31.848  38.507  1.00  0.00     0.124 S 
ATOM     72  O   UNL A   1      36.310  32.840  38.150  1.00  0.00    -0.237 OA
ATOM     73  O   UNL A   1      37.039  30.475  38.105  1.00  0.00    -0.237 OA
ATOM     74  O   UNL A   1      37.889  32.002  39.845  1.00  0.00    -0.744 OA
ENDBRANCH  67  71
ENDBRANCH  50  64
BRANCH  51  75
ATOM     75  C   UNL A   1      42.411  26.153  27.489  1.00  0.00     0.023 A 
ATOM     76  C   UNL A   1      42.026  24.807  27.378  1.00  0.00     0.031 A 
ATOM     77  C   UNL A   1      43.216  26.693  26.469  1.00  0.00     0.131 A 
ATOM     78  C   UNL A   1      42.489  24.033  26.303  1.00  0.00     0.055 A 
ATOM     79  C   UNL A   1      43.622  25.936  25.369  1.00  0.00     0.041 A 
ATOM     80  F   UNL A   1      43.612  27.975  26.521  1.00  0.00    -0.206 F 
ATOM     81  C   UNL A   1      43.271  24.592  25.289  1.00  0.00     0.022 A 
BRANCH  78  82
ATOM     82  S   UNL A   1      42.139  22.252  26.298  1.00  0.00     0.124 S 
ATOM     83  O   UNL A   1      40.687  22.235  26.428  1.00  0.00    -0.237 OA
ATOM     84  O   UNL A   1      42.673  21.842  25.005  1.00  0.00    -0.237 OA
ATOM     85  O   UNL A   1      42.877  21.759  27.460  1.00  0.00    -0.744 OA
ENDBRANCH  78  82
ENDBRANCH  51  75
BRANCH  63  86
ATOM     86  C   UNL A   1      45.038  26.795  33.917  1.00  0.00     0.023 A 
ATOM     87  C   UNL A   1      44.838  25.602  34.636  1.00  0.00     0.031 A 
ATOM     88  C   UNL A   1      46.331  27.349  33.913  1.00  0.00     0.131 A 
ATOM     89  C   UNL A   1      45.886  25.054  35.390  1.00  0.00     0.055 A 
ATOM     90  C   UNL A   1      47.390  26.754  34.599  1.00  0.00     0.041 A 
ATOM     91  F   UNL A   1      46.585  28.489  33.251  1.00  0.00    -0.206 F 
ATOM     92  C   UNL A   1      47.167  25.611  35.361  1.00  0.00     0.022 A 
BRANCH  89  93
ATOM     93  S   UNL A   1      45.517  23.690  36.529  1.00  0.00     0.124 S 
ATOM     94  O   UNL A   1      44.538  22.919  35.771  1.00  0.00    -0.237 OA
ATOM     95  O   UNL A   1      46.824  23.065  36.701  1.00  0.00    -0.237 OA
ATOM     96  O   UNL A   1      44.992  24.365  37.714  1.00  0.00    -0.744 OA
ENDBRANCH  89  93
ENDBRANCH  63  86
ENDBRANCH  37  38
ENDBRANCH  29  32
ENDBRANCH  27  28
ENDBRANCH   1  27
TORSDOF 18
ENDMDL
