MODEL 1
REMARK VINA RESULT:     -12.3      0.000      0.000
REMARK SMILES COc1c(Cl)cc(C(=O)NCCCNC(=O)c2ccc(-c3c4nc(c(-c5cc(S(=O)(=O)[O-])ccc5F)c5ccc([nH]5)c(-c5cc(S(=O)(=O)[O-])ccc5F)c5nc(c(-c6cc(S(=O)(=O)[O-])ccc6F)c6ccc3[nH]6)C=C5)C=C4)cc2)cc1NC(=S)NC(=O)c1ccccc1F
REMARK SMILES IDX 11 1 10 2 8 3 9 4 7 6 3 7 4 8 81 9 5 10 6 11 80 12 2 13 1 14
REMARK SMILES IDX 82 15 83 17 84 18 85 19 86 20 87 22 88 23 89 24 93 25 90 26
REMARK SMILES IDX 92 27 94 28 91 29 12 30 13 31 14 32 15 33 16 35 17 36 18 37
REMARK SMILES IDX 79 38 19 39 78 40 20 41 21 42 22 43 72 44 23 45 77 46 71 47
REMARK SMILES IDX 73 48 24 49 76 50 70 51 69 52 25 54 57 55 37 56 56 57 38 58
REMARK SMILES IDX 41 59 55 60 74 61 39 62 40 63 54 65 75 66 42 67 26 68 27 69
REMARK SMILES IDX 35 70 28 71 34 72 36 73 33 74 29 75 30 76 31 77 32 78 58 79
REMARK SMILES IDX 59 80 67 81 60 82 66 83 68 84 65 85 61 86 62 87 63 88 64 89
REMARK SMILES IDX 43 90 44 91 52 92 45 93 51 94 53 95 50 96 46 97 47 98 48 99
REMARK SMILES IDX 49 100
REMARK H PARENT 10 5 82 16 85 21 14 34 73 53 41 64
REMARK Flexibility Score: inf
ROOT
ATOM      1  C   UNL A   1      34.300  31.361  28.264  1.00  0.00     0.118 C 
ENDROOT
BRANCH   1   2
ATOM      2  N   UNL A   1      34.326  30.029  27.604  1.00  0.00    -0.352 N 
ATOM      3  C   UNL A   1      33.647  29.094  26.637  1.00  0.00     0.251 C 
ATOM      4  O   UNL A   1      34.631  28.275  26.790  1.00  0.00    -0.269 OA
ATOM      5  H   UNL A   1      35.123  29.561  27.940  1.00  0.00     0.163 HD
BRANCH   3   6
ATOM      6  C   UNL A   1      31.843  29.094  25.476  1.00  0.00     0.043 A 
ATOM      7  C   UNL A   1      29.673  28.987  23.261  1.00  0.00     0.160 A 
ATOM      8  C   UNL A   1      29.951  30.163  23.944  1.00  0.00     0.086 A 
ATOM      9  C   UNL A   1      30.450  27.913  23.615  1.00  0.00     0.085 A 
ATOM     10  Cl  UNL A   1      29.247  31.695  23.522  1.00  0.00    -0.080 Cl
ATOM     11  C   UNL A   1      30.966  30.205  24.958  1.00  0.00     0.038 A 
ATOM     12  C   UNL A   1      31.114  27.958  24.836  1.00  0.00     0.044 A 
BRANCH   7  13
ATOM     13  O   UNL A   1      28.729  28.791  22.296  1.00  0.00    -0.493 OA
ATOM     14  C   UNL A   1      27.380  28.833  22.773  1.00  0.00     0.278 C 
ENDBRANCH   7  13
BRANCH   9  15
ATOM     15  N   UNL A   1      30.602  26.728  22.863  1.00  0.00    -0.329 N 
ATOM     16  H   UNL A   1      29.764  26.280  22.606  1.00  0.00     0.169 HD
BRANCH  15  17
ATOM     17  C   UNL A   1      31.754  26.112  22.441  1.00  0.00     0.177 C 
ATOM     18  S   UNL A   1      33.075  27.066  22.050  1.00  0.00    -0.040 S 
BRANCH  17  19
ATOM     19  N   UNL A   1      31.923  24.739  22.361  1.00  0.00    -0.299 N 
ATOM     20  C   UNL A   1      32.955  23.907  22.786  1.00  0.00     0.260 C 
ATOM     21  H   UNL A   1      31.177  24.266  21.926  1.00  0.00     0.172 HD
ATOM     22  O   UNL A   1      33.910  23.639  22.064  1.00  0.00    -0.269 OA
BRANCH  20  23
ATOM     23  C   UNL A   1      32.886  23.284  24.138  1.00  0.00     0.075 A 
ATOM     24  C   UNL A   1      32.697  21.480  24.121  1.00  0.00     0.017 A 
ATOM     25  C   UNL A   1      33.488  24.117  25.675  1.00  0.00     0.135 A 
ATOM     26  C   UNL A   1      33.216  20.492  25.544  1.00  0.00     0.001 A 
ATOM     27  C   UNL A   1      34.099  23.122  27.059  1.00  0.00     0.040 A 
ATOM     28  F   UNL A   1      33.665  25.450  25.704  1.00  0.00    -0.206 F 
ATOM     29  C   UNL A   1      34.002  21.314  26.990  1.00  0.00     0.003 A 
ENDBRANCH  20  23
ENDBRANCH  17  19
ENDBRANCH  15  17
ENDBRANCH   9  15
ENDBRANCH   3   6
ENDBRANCH   1   2
BRANCH   1  30
ATOM     30  C   UNL A   1      33.829  32.485  27.347  1.00  0.00     0.042 C 
BRANCH  30  31
ATOM     31  C   UNL A   1      32.491  33.085  27.722  1.00  0.00     0.118 C 
BRANCH  31  32
ATOM     32  N   UNL A   1      32.593  34.511  27.980  1.00  0.00    -0.352 N 
ATOM     33  C   UNL A   1      33.342  35.192  28.908  1.00  0.00     0.251 C 
ATOM     34  H   UNL A   1      32.038  35.079  27.399  1.00  0.00     0.163 HD
ATOM     35  O   UNL A   1      33.048  36.359  29.158  1.00  0.00    -0.269 OA
BRANCH  33  36
ATOM     36  C   UNL A   1      34.479  34.541  29.597  1.00  0.00     0.039 A 
ATOM     37  C   UNL A   1      34.238  33.856  30.792  1.00  0.00     0.014 A 
ATOM     38  C   UNL A   1      35.785  34.643  29.112  1.00  0.00     0.014 A 
ATOM     39  C   UNL A   1      35.296  33.250  31.468  1.00  0.00     0.010 A 
ATOM     40  C   UNL A   1      36.817  33.936  29.719  1.00  0.00     0.010 A 
ATOM     41  C   UNL A   1      36.590  33.255  30.920  1.00  0.00    -0.014 A 
BRANCH  41  42
ATOM     42  C   UNL A   1      37.719  32.576  31.606  1.00  0.00     0.031 A 
ATOM     43  C   UNL A   1      38.434  31.435  30.931  1.00  0.00     0.074 A 
ATOM     44  C   UNL A   1      38.074  32.971  32.845  1.00  0.00     0.049 A 
ATOM     45  N   UNL A   1      39.410  30.693  31.384  1.00  0.00    -0.248 NA
ATOM     46  C   UNL A   1      37.979  31.061  29.581  1.00  0.00     0.031 C 
ATOM     47  C   UNL A   1      37.426  34.044  33.604  1.00  0.00     0.029 A 
ATOM     48  N   UNL A   1      39.059  32.521  33.686  1.00  0.00    -0.354 N 
ATOM     49  C   UNL A   1      39.679  29.764  30.384  1.00  0.00     0.074 A 
ATOM     50  C   UNL A   1      38.723  29.995  29.325  1.00  0.00     0.031 C 
ATOM     51  C   UNL A   1      38.059  34.197  34.778  1.00  0.00     0.029 A 
ATOM     52  C   UNL A   1      39.106  33.188  34.889  1.00  0.00     0.049 A 
ATOM     53  H   UNL A   1      39.676  31.791  33.451  1.00  0.00     0.167 HD
ATOM     54  C   UNL A   1      40.647  28.818  30.349  1.00  0.00     0.034 A 
ATOM     55  C   UNL A   1      39.887  32.993  35.971  1.00  0.00     0.034 A 
ATOM     56  C   UNL A   1      41.593  28.607  31.416  1.00  0.00     0.049 A 
ATOM     57  C   UNL A   1      40.921  31.895  35.923  1.00  0.00     0.074 A 
ATOM     58  C   UNL A   1      42.648  27.713  31.461  1.00  0.00     0.029 A 
ATOM     59  N   UNL A   1      41.593  29.284  32.629  1.00  0.00    -0.354 N 
ATOM     60  N   UNL A   1      41.194  31.061  34.945  1.00  0.00    -0.248 NA
ATOM     61  C   UNL A   1      41.756  31.715  37.116  1.00  0.00     0.031 C 
ATOM     62  C   UNL A   1      43.215  27.772  32.735  1.00  0.00     0.029 A 
ATOM     63  C   UNL A   1      42.597  28.789  33.445  1.00  0.00     0.049 A 
ATOM     64  H   UNL A   1      40.971  30.007  32.873  1.00  0.00     0.167 HD
ATOM     65  C   UNL A   1      42.261  30.287  35.394  1.00  0.00     0.074 A 
ATOM     66  C   UNL A   1      42.590  30.766  36.720  1.00  0.00     0.031 C 
ATOM     67  C   UNL A   1      42.913  29.276  34.767  1.00  0.00     0.034 A 
BRANCH  54  68
ATOM     68  C   UNL A   1      40.715  27.913  29.144  1.00  0.00     0.023 A 
ATOM     69  C   UNL A   1      41.642  28.120  28.107  1.00  0.00     0.031 A 
ATOM     70  C   UNL A   1      39.852  26.807  29.045  1.00  0.00     0.131 A 
ATOM     71  C   UNL A   1      41.652  27.260  26.998  1.00  0.00     0.055 A 
ATOM     72  C   UNL A   1      39.925  25.908  27.980  1.00  0.00     0.041 A 
ATOM     73  F   UNL A   1      38.924  26.578  29.987  1.00  0.00    -0.206 F 
ATOM     74  C   UNL A   1      40.823  26.137  26.943  1.00  0.00     0.022 A 
BRANCH  71  75
ATOM     75  S   UNL A   1      42.673  27.703  25.565  1.00  0.00     0.124 S 
ATOM     76  O   UNL A   1      42.543  26.511  24.731  1.00  0.00    -0.237 OA
ATOM     77  O   UNL A   1      42.017  28.906  25.068  1.00  0.00    -0.237 OA
ATOM     78  O   UNL A   1      44.001  27.908  26.141  1.00  0.00    -0.744 OA
ENDBRANCH  71  75
ENDBRANCH  54  68
BRANCH  55  79
ATOM     79  C   UNL A   1      39.704  33.815  37.205  1.00  0.00     0.023 A 
ATOM     80  C   UNL A   1      40.544  34.904  37.484  1.00  0.00     0.031 A 
ATOM     81  C   UNL A   1      38.740  33.468  38.169  1.00  0.00     0.131 A 
ATOM     82  C   UNL A   1      40.457  35.554  38.725  1.00  0.00     0.055 A 
ATOM     83  C   UNL A   1      38.601  34.173  39.365  1.00  0.00     0.041 A 
ATOM     84  F   UNL A   1      37.913  32.430  37.962  1.00  0.00    -0.206 F 
ATOM     85  C   UNL A   1      39.478  35.210  39.658  1.00  0.00     0.022 A 
BRANCH  82  86
ATOM     86  S   UNL A   1      41.750  36.748  39.166  1.00  0.00     0.124 S 
ATOM     87  O   UNL A   1      42.693  36.578  38.066  1.00  0.00    -0.237 OA
ATOM     88  O   UNL A   1      41.009  38.005  39.189  1.00  0.00    -0.237 OA
ATOM     89  O   UNL A   1      42.218  36.277  40.468  1.00  0.00    -0.744 OA
ENDBRANCH  82  86
ENDBRANCH  55  79
BRANCH  67  90
ATOM     90  C   UNL A   1      44.092  28.663  35.483  1.00  0.00     0.023 A 
ATOM     91  C   UNL A   1      43.951  27.573  36.358  1.00  0.00     0.031 A 
ATOM     92  C   UNL A   1      45.384  29.186  35.283  1.00  0.00     0.131 A 
ATOM     93  C   UNL A   1      45.069  27.086  37.051  1.00  0.00     0.055 A 
ATOM     94  C   UNL A   1      46.504  28.641  35.909  1.00  0.00     0.041 A 
ATOM     95  F   UNL A   1      45.579  30.233  34.465  1.00  0.00    -0.206 F 
ATOM     96  C   UNL A   1      46.348  27.596  36.813  1.00  0.00     0.022 A 
BRANCH  93  97
ATOM     97  S   UNL A   1      44.811  25.863  38.365  1.00  0.00     0.124 S 
ATOM     98  O   UNL A   1      46.179  25.473  38.688  1.00  0.00    -0.237 OA
ATOM     99  O   UNL A   1      44.112  26.640  39.383  1.00  0.00    -0.237 OA
ATOM    100  O   UNL A   1      44.008  24.828  37.715  1.00  0.00    -0.744 OA
ENDBRANCH  93  97
ENDBRANCH  67  90
ENDBRANCH  41  42
ENDBRANCH  33  36
ENDBRANCH  31  32
ENDBRANCH  30  31
ENDBRANCH   1  30
TORSDOF 18
ENDMDL
MODEL 2
REMARK VINA RESULT:     -12.1      2.374      3.115
REMARK SMILES COc1c(Cl)cc(C(=O)NCCCNC(=O)c2ccc(-c3c4nc(c(-c5cc(S(=O)(=O)[O-])ccc5F)c5ccc([nH]5)c(-c5cc(S(=O)(=O)[O-])ccc5F)c5nc(c(-c6cc(S(=O)(=O)[O-])ccc6F)c6ccc3[nH]6)C=C5)C=C4)cc2)cc1NC(=S)NC(=O)c1ccccc1F
REMARK SMILES IDX 11 1 10 2 8 3 9 4 7 6 3 7 4 8 81 9 5 10 6 11 80 12 2 13 1 14
REMARK SMILES IDX 82 15 83 17 84 18 85 19 86 20 87 22 88 23 89 24 93 25 90 26
REMARK SMILES IDX 92 27 94 28 91 29 12 30 13 31 14 32 15 33 16 35 17 36 18 37
REMARK SMILES IDX 79 38 19 39 78 40 20 41 21 42 22 43 72 44 23 45 77 46 71 47
REMARK SMILES IDX 73 48 24 49 76 50 70 51 69 52 25 54 57 55 37 56 56 57 38 58
REMARK SMILES IDX 41 59 55 60 74 61 39 62 40 63 54 65 75 66 42 67 26 68 27 69
REMARK SMILES IDX 35 70 28 71 34 72 36 73 33 74 29 75 30 76 31 77 32 78 58 79
REMARK SMILES IDX 59 80 67 81 60 82 66 83 68 84 65 85 61 86 62 87 63 88 64 89
REMARK SMILES IDX 43 90 44 91 52 92 45 93 51 94 53 95 50 96 46 97 47 98 48 99
REMARK SMILES IDX 49 100
REMARK H PARENT 10 5 82 16 85 21 14 34 73 53 41 64
REMARK Flexibility Score: inf
ROOT
ATOM      1  C   UNL A   1      34.284  30.499  27.634  1.00  0.00     0.118 C 
ENDROOT
BRANCH   1   2
ATOM      2  N   UNL A   1      33.043  29.681  27.657  1.00  0.00    -0.352 N 
ATOM      3  C   UNL A   1      32.330  28.466  27.121  1.00  0.00     0.251 C 
ATOM      4  O   UNL A   1      31.362  28.717  27.933  1.00  0.00    -0.269 OA
ATOM      5  H   UNL A   1      32.427  30.116  28.289  1.00  0.00     0.163 HD
BRANCH   3   6
ATOM      6  C   UNL A   1      32.726  26.946  25.660  1.00  0.00     0.043 A 
ATOM      7  C   UNL A   1      33.951  25.001  23.576  1.00  0.00     0.160 A 
ATOM      8  C   UNL A   1      33.027  25.968  23.206  1.00  0.00     0.086 A 
ATOM      9  C   UNL A   1      34.296  25.006  24.904  1.00  0.00     0.085 A 
ATOM     10  Cl  UNL A   1      32.599  26.289  21.552  1.00  0.00    -0.080 Cl
ATOM     11  C   UNL A   1      32.476  26.871  24.175  1.00  0.00     0.038 A 
ATOM     12  C   UNL A   1      33.445  25.644  25.801  1.00  0.00     0.044 A 
BRANCH   7  13
ATOM     13  O   UNL A   1      34.539  24.066  22.776  1.00  0.00    -0.493 OA
ATOM     14  C   UNL A   1      33.617  23.242  22.054  1.00  0.00     0.278 C 
ENDBRANCH   7  13
BRANCH   9  15
ATOM     15  N   UNL A   1      35.430  24.374  25.460  1.00  0.00    -0.329 N 
ATOM     16  H   UNL A   1      36.098  24.977  25.857  1.00  0.00     0.169 HD
BRANCH  15  17
ATOM     17  C   UNL A   1      35.731  23.036  25.522  1.00  0.00     0.177 C 
ATOM     18  S   UNL A   1      37.302  22.553  25.197  1.00  0.00    -0.040 S 
BRANCH  17  19
ATOM     19  N   UNL A   1      34.831  22.047  25.887  1.00  0.00    -0.299 N 
ATOM     20  C   UNL A   1      33.700  21.544  25.250  1.00  0.00     0.260 C 
ATOM     21  H   UNL A   1      35.027  21.624  26.754  1.00  0.00     0.172 HD
ATOM     22  O   UNL A   1      32.587  22.028  25.426  1.00  0.00    -0.269 OA
BRANCH  20  23
ATOM     23  C   UNL A   1      33.828  20.353  24.362  1.00  0.00     0.075 A 
ATOM     24  C   UNL A   1      35.042  19.128  24.923  1.00  0.00     0.017 A 
ATOM     25  C   UNL A   1      32.534  19.852  23.139  1.00  0.00     0.135 A 
ATOM     26  C   UNL A   1      34.912  17.403  24.397  1.00  0.00     0.001 A 
ATOM     27  C   UNL A   1      32.345  18.108  22.692  1.00  0.00     0.040 A 
ATOM     28  F   UNL A   1      31.604  20.733  22.730  1.00  0.00    -0.206 F 
ATOM     29  C   UNL A   1      33.501  16.873  23.341  1.00  0.00     0.003 A 
ENDBRANCH  20  23
ENDBRANCH  17  19
ENDBRANCH  15  17
ENDBRANCH   9  15
ENDBRANCH   3   6
ENDBRANCH   1   2
BRANCH   1  30
ATOM     30  C   UNL A   1      34.046  31.952  27.236  1.00  0.00     0.042 C 
BRANCH  30  31
ATOM     31  C   UNL A   1      32.642  32.454  27.498  1.00  0.00     0.118 C 
BRANCH  31  32
ATOM     32  N   UNL A   1      32.626  33.876  27.800  1.00  0.00    -0.352 N 
ATOM     33  C   UNL A   1      33.296  34.584  28.766  1.00  0.00     0.251 C 
ATOM     34  H   UNL A   1      32.043  34.416  27.220  1.00  0.00     0.163 HD
ATOM     35  O   UNL A   1      32.905  35.717  29.041  1.00  0.00    -0.269 OA
BRANCH  33  36
ATOM     36  C   UNL A   1      34.463  34.003  29.467  1.00  0.00     0.039 A 
ATOM     37  C   UNL A   1      34.239  33.152  30.553  1.00  0.00     0.014 A 
ATOM     38  C   UNL A   1      35.772  34.328  29.103  1.00  0.00     0.014 A 
ATOM     39  C   UNL A   1      35.324  32.606  31.240  1.00  0.00     0.010 A 
ATOM     40  C   UNL A   1      36.848  33.689  29.708  1.00  0.00     0.010 A 
ATOM     41  C   UNL A   1      36.638  32.842  30.802  1.00  0.00    -0.014 A 
BRANCH  41  42
ATOM     42  C   UNL A   1      37.801  32.232  31.495  1.00  0.00     0.031 A 
ATOM     43  C   UNL A   1      38.594  31.142  30.822  1.00  0.00     0.074 A 
ATOM     44  C   UNL A   1      38.119  32.643  32.739  1.00  0.00     0.049 A 
ATOM     45  N   UNL A   1      39.611  30.461  31.281  1.00  0.00    -0.248 NA
ATOM     46  C   UNL A   1      38.176  30.747  29.467  1.00  0.00     0.031 C 
ATOM     47  C   UNL A   1      37.398  33.669  33.497  1.00  0.00     0.029 A 
ATOM     48  N   UNL A   1      39.123  32.252  33.588  1.00  0.00    -0.354 N 
ATOM     49  C   UNL A   1      39.947  29.556  30.280  1.00  0.00     0.074 A 
ATOM     50  C   UNL A   1      38.988  29.732  29.213  1.00  0.00     0.031 C 
ATOM     51  C   UNL A   1      38.008  33.856  34.677  1.00  0.00     0.029 A 
ATOM     52  C   UNL A   1      39.117  32.915  34.794  1.00  0.00     0.049 A 
ATOM     53  H   UNL A   1      39.787  31.564  33.356  1.00  0.00     0.167 HD
ATOM     54  C   UNL A   1      40.973  28.674  30.250  1.00  0.00     0.034 A 
ATOM     55  C   UNL A   1      39.898  32.765  35.883  1.00  0.00     0.034 A 
ATOM     56  C   UNL A   1      41.921  28.518  31.325  1.00  0.00     0.049 A 
ATOM     57  C   UNL A   1      41.000  31.734  35.839  1.00  0.00     0.074 A 
ATOM     58  C   UNL A   1      43.030  27.692  31.376  1.00  0.00     0.029 A 
ATOM     59  N   UNL A   1      41.867  29.187  32.541  1.00  0.00    -0.354 N 
ATOM     60  N   UNL A   1      41.334  30.924  34.860  1.00  0.00    -0.248 NA
ATOM     61  C   UNL A   1      41.833  31.601  37.040  1.00  0.00     0.031 C 
ATOM     62  C   UNL A   1      43.581  27.781  32.656  1.00  0.00     0.029 A 
ATOM     63  C   UNL A   1      42.893  28.753  33.365  1.00  0.00     0.049 A 
ATOM     64  H   UNL A   1      41.198  29.868  32.782  1.00  0.00     0.167 HD
ATOM     65  C   UNL A   1      42.444  30.217  35.317  1.00  0.00     0.074 A 
ATOM     66  C   UNL A   1      42.730  30.709  36.648  1.00  0.00     0.031 C 
ATOM     67  C   UNL A   1      43.165  29.252  34.691  1.00  0.00     0.034 A 
BRANCH  54  68
ATOM     68  C   UNL A   1      41.110  27.781  29.041  1.00  0.00     0.023 A 
ATOM     69  C   UNL A   1      42.107  27.985  28.072  1.00  0.00     0.031 A 
ATOM     70  C   UNL A   1      40.240  26.689  28.872  1.00  0.00     0.131 A 
ATOM     71  C   UNL A   1      42.180  27.138  26.956  1.00  0.00     0.055 A 
ATOM     72  C   UNL A   1      40.371  25.800  27.804  1.00  0.00     0.041 A 
ATOM     73  F   UNL A   1      39.248  26.464  29.746  1.00  0.00    -0.206 F 
ATOM     74  C   UNL A   1      41.341  26.027  26.832  1.00  0.00     0.022 A 
BRANCH  71  75
ATOM     75  S   UNL A   1      43.301  27.580  25.600  1.00  0.00     0.124 S 
ATOM     76  O   UNL A   1      42.360  27.966  24.553  1.00  0.00    -0.237 OA
ATOM     77  O   UNL A   1      44.090  28.660  26.182  1.00  0.00    -0.237 OA
ATOM     78  O   UNL A   1      44.033  26.341  25.343  1.00  0.00    -0.744 OA
ENDBRANCH  71  75
ENDBRANCH  54  68
BRANCH  55  79
ATOM     79  C   UNL A   1      39.652  33.567  37.118  1.00  0.00     0.023 A 
ATOM     80  C   UNL A   1      38.963  33.022  38.214  1.00  0.00     0.031 A 
ATOM     81  C   UNL A   1      40.025  34.921  37.188  1.00  0.00     0.131 A 
ATOM     82  C   UNL A   1      38.602  33.844  39.291  1.00  0.00     0.055 A 
ATOM     83  C   UNL A   1      39.738  35.713  38.300  1.00  0.00     0.041 A 
ATOM     84  F   UNL A   1      40.679  35.501  36.167  1.00  0.00    -0.206 F 
ATOM     85  C   UNL A   1      39.002  35.180  39.352  1.00  0.00     0.022 A 
BRANCH  82  86
ATOM     86  S   UNL A   1      37.459  33.183  40.536  1.00  0.00     0.124 S 
ATOM     87  O   UNL A   1      36.351  32.728  39.704  1.00  0.00    -0.237 OA
ATOM     88  O   UNL A   1      38.262  32.140  41.164  1.00  0.00    -0.237 OA
ATOM     89  O   UNL A   1      37.171  34.340  41.381  1.00  0.00    -0.744 OA
ENDBRANCH  82  86
ENDBRANCH  55  79
BRANCH  67  90
ATOM     90  C   UNL A   1      44.374  28.712  35.415  1.00  0.00     0.023 A 
ATOM     91  C   UNL A   1      44.280  27.666  36.349  1.00  0.00     0.031 A 
ATOM     92  C   UNL A   1      45.646  29.261  35.164  1.00  0.00     0.131 A 
ATOM     93  C   UNL A   1      45.424  27.248  37.045  1.00  0.00     0.055 A 
ATOM     94  C   UNL A   1      46.792  28.782  35.797  1.00  0.00     0.041 A 
ATOM     95  F   UNL A   1      45.796  30.269  34.291  1.00  0.00    -0.206 F 
ATOM     96  C   UNL A   1      46.683  27.782  36.756  1.00  0.00     0.022 A 
BRANCH  93  97
ATOM     97  S   UNL A   1      45.225  26.088  38.424  1.00  0.00     0.124 S 
ATOM     98  O   UNL A   1      43.929  26.483  38.966  1.00  0.00    -0.237 OA
ATOM     99  O   UNL A   1      45.267  24.793  37.753  1.00  0.00    -0.237 OA
ATOM    100  O   UNL A   1      46.372  26.378  39.283  1.00  0.00    -0.744 OA
ENDBRANCH  93  97
ENDBRANCH  67  90
ENDBRANCH  41  42
ENDBRANCH  33  36
ENDBRANCH  31  32
ENDBRANCH  30  31
ENDBRANCH   1  30
TORSDOF 18
ENDMDL
MODEL 3
REMARK VINA RESULT:     -12.1      1.155      7.439
REMARK SMILES COc1c(Cl)cc(C(=O)NCCCNC(=O)c2ccc(-c3c4nc(c(-c5cc(S(=O)(=O)[O-])ccc5F)c5ccc([nH]5)c(-c5cc(S(=O)(=O)[O-])ccc5F)c5nc(c(-c6cc(S(=O)(=O)[O-])ccc6F)c6ccc3[nH]6)C=C5)C=C4)cc2)cc1NC(=S)NC(=O)c1ccccc1F
REMARK SMILES IDX 11 1 10 2 8 3 9 4 7 6 3 7 4 8 81 9 5 10 6 11 80 12 2 13 1 14
REMARK SMILES IDX 82 15 83 17 84 18 85 19 86 20 87 22 88 23 89 24 93 25 90 26
REMARK SMILES IDX 92 27 94 28 91 29 12 30 13 31 14 32 15 33 16 35 17 36 18 37
REMARK SMILES IDX 79 38 19 39 78 40 20 41 21 42 22 43 72 44 23 45 77 46 71 47
REMARK SMILES IDX 73 48 24 49 76 50 70 51 69 52 25 54 57 55 37 56 56 57 38 58
REMARK SMILES IDX 41 59 55 60 74 61 39 62 40 63 54 65 75 66 42 67 26 68 27 69
REMARK SMILES IDX 35 70 28 71 34 72 36 73 33 74 29 75 30 76 31 77 32 78 58 79
REMARK SMILES IDX 59 80 67 81 60 82 66 83 68 84 65 85 61 86 62 87 63 88 64 89
REMARK SMILES IDX 43 90 44 91 52 92 45 93 51 94 53 95 50 96 46 97 47 98 48 99
REMARK SMILES IDX 49 100
REMARK H PARENT 10 5 82 16 85 21 14 34 73 53 41 64
REMARK Flexibility Score: inf
ROOT
ATOM      1  C   UNL A   1      34.275  31.363  28.184  1.00  0.00     0.118 C 
ENDROOT
BRANCH   1   2
ATOM      2  N   UNL A   1      34.234  30.020  27.548  1.00  0.00    -0.352 N 
ATOM      3  C   UNL A   1      33.537  29.119  26.562  1.00  0.00     0.251 C 
ATOM      4  O   UNL A   1      34.446  28.232  26.781  1.00  0.00    -0.269 OA
ATOM      5  H   UNL A   1      34.975  29.500  27.933  1.00  0.00     0.163 HD
BRANCH   3   6
ATOM      6  C   UNL A   1      31.800  29.230  25.307  1.00  0.00     0.043 A 
ATOM      7  C   UNL A   1      29.761  29.437  22.977  1.00  0.00     0.160 A 
ATOM      8  C   UNL A   1      29.899  30.456  23.910  1.00  0.00     0.086 A 
ATOM      9  C   UNL A   1      30.612  28.374  23.150  1.00  0.00     0.085 A 
ATOM     10  Cl  UNL A   1      29.083  31.984  23.773  1.00  0.00    -0.080 Cl
ATOM     11  C   UNL A   1      30.854  30.356  24.977  1.00  0.00     0.038 A 
ATOM     12  C   UNL A   1      31.208  28.206  24.395  1.00  0.00     0.044 A 
BRANCH   7  13
ATOM     13  O   UNL A   1      28.888  29.381  21.931  1.00  0.00    -0.493 OA
ATOM     14  C   UNL A   1      27.514  29.250  22.315  1.00  0.00     0.278 C 
ENDBRANCH   7  13
BRANCH   9  15
ATOM     15  N   UNL A   1      30.907  27.394  22.177  1.00  0.00    -0.329 N 
ATOM     16  H   UNL A   1      30.236  27.291  21.464  1.00  0.00     0.169 HD
BRANCH  15  17
ATOM     17  C   UNL A   1      31.996  26.563  22.088  1.00  0.00     0.177 C 
ATOM     18  S   UNL A   1      33.526  27.244  22.116  1.00  0.00    -0.040 S 
BRANCH  17  19
ATOM     19  N   UNL A   1      31.922  25.180  22.026  1.00  0.00    -0.299 N 
ATOM     20  C   UNL A   1      32.897  24.195  22.154  1.00  0.00     0.260 C 
ATOM     21  H   UNL A   1      31.015  24.832  21.864  1.00  0.00     0.172 HD
ATOM     22  O   UNL A   1      33.529  23.779  21.188  1.00  0.00    -0.269 OA
BRANCH  20  23
ATOM     23  C   UNL A   1      33.156  23.588  23.491  1.00  0.00     0.075 A 
ATOM     24  C   UNL A   1      32.772  21.819  23.597  1.00  0.00     0.017 A 
ATOM     25  C   UNL A   1      34.270  24.351  24.755  1.00  0.00     0.135 A 
ATOM     26  C   UNL A   1      33.571  20.782  24.844  1.00  0.00     0.001 A 
ATOM     27  C   UNL A   1      35.144  23.295  25.938  1.00  0.00     0.040 A 
ATOM     28  F   UNL A   1      34.595  25.653  24.681  1.00  0.00    -0.206 F 
ATOM     29  C   UNL A   1      34.832  21.511  25.969  1.00  0.00     0.003 A 
ENDBRANCH  20  23
ENDBRANCH  17  19
ENDBRANCH  15  17
ENDBRANCH   9  15
ENDBRANCH   3   6
ENDBRANCH   1   2
BRANCH   1  30
ATOM     30  C   UNL A   1      33.723  32.473  27.295  1.00  0.00     0.042 C 
BRANCH  30  31
ATOM     31  C   UNL A   1      32.408  33.059  27.764  1.00  0.00     0.118 C 
BRANCH  31  32
ATOM     32  N   UNL A   1      32.521  34.481  28.043  1.00  0.00    -0.352 N 
ATOM     33  C   UNL A   1      33.290  35.144  28.967  1.00  0.00     0.251 C 
ATOM     34  H   UNL A   1      31.958  35.060  27.481  1.00  0.00     0.163 HD
ATOM     35  O   UNL A   1      33.006  36.308  29.241  1.00  0.00    -0.269 OA
BRANCH  33  36
ATOM     36  C   UNL A   1      34.438  34.478  29.624  1.00  0.00     0.039 A 
ATOM     37  C   UNL A   1      34.210  33.745  30.793  1.00  0.00     0.014 A 
ATOM     38  C   UNL A   1      35.739  34.611  29.136  1.00  0.00     0.014 A 
ATOM     39  C   UNL A   1      35.278  33.124  31.440  1.00  0.00     0.010 A 
ATOM     40  C   UNL A   1      36.782  33.892  29.710  1.00  0.00     0.010 A 
ATOM     41  C   UNL A   1      36.568  33.162  30.885  1.00  0.00    -0.014 A 
BRANCH  41  42
ATOM     42  C   UNL A   1      37.707  32.468  31.538  1.00  0.00     0.031 A 
ATOM     43  C   UNL A   1      38.239  32.967  32.856  1.00  0.00     0.074 A 
ATOM     44  C   UNL A   1      38.276  31.411  30.924  1.00  0.00     0.049 A 
ATOM     45  N   UNL A   1      39.249  32.522  33.557  1.00  0.00    -0.248 NA
ATOM     46  C   UNL A   1      37.565  34.132  33.455  1.00  0.00     0.031 C 
ATOM     47  C   UNL A   1      37.861  30.866  29.629  1.00  0.00     0.029 A 
ATOM     48  N   UNL A   1      39.322  30.607  31.300  1.00  0.00    -0.354 N 
ATOM     49  C   UNL A   1      39.336  33.354  34.669  1.00  0.00     0.074 A 
ATOM     50  C   UNL A   1      38.317  34.367  34.520  1.00  0.00     0.031 C 
ATOM     51  C   UNL A   1      38.615  29.794  29.341  1.00  0.00     0.029 A 
ATOM     52  C   UNL A   1      39.614  29.618  30.389  1.00  0.00     0.049 A 
ATOM     53  H   UNL A   1      39.817  30.726  32.143  1.00  0.00     0.167 HD
ATOM     54  C   UNL A   1      40.181  33.265  35.724  1.00  0.00     0.034 A 
ATOM     55  C   UNL A   1      40.592  28.689  30.384  1.00  0.00     0.034 A 
ATOM     56  C   UNL A   1      41.188  32.243  35.854  1.00  0.00     0.049 A 
ATOM     57  C   UNL A   1      41.551  28.651  31.549  1.00  0.00     0.074 A 
ATOM     58  C   UNL A   1      42.060  32.029  36.907  1.00  0.00     0.029 A 
ATOM     59  N   UNL A   1      41.471  31.275  34.900  1.00  0.00    -0.354 N 
ATOM     60  N   UNL A   1      41.583  29.414  32.618  1.00  0.00    -0.248 NA
ATOM     61  C   UNL A   1      42.599  27.624  31.513  1.00  0.00     0.031 C 
ATOM     62  C   UNL A   1      42.937  31.005  36.545  1.00  0.00     0.029 A 
ATOM     63  C   UNL A   1      42.538  30.496  35.319  1.00  0.00     0.049 A 
ATOM     64  H   UNL A   1      40.987  31.159  34.050  1.00  0.00     0.167 HD
ATOM     65  C   UNL A   1      42.630  28.929  33.398  1.00  0.00     0.074 A 
ATOM     66  C   UNL A   1      43.189  27.800  32.685  1.00  0.00     0.031 C 
ATOM     67  C   UNL A   1      43.086  29.373  34.597  1.00  0.00     0.034 A 
BRANCH  54  68
ATOM     68  C   UNL A   1      40.083  34.315  36.803  1.00  0.00     0.023 A 
ATOM     69  C   UNL A   1      39.601  34.020  38.091  1.00  0.00     0.031 A 
ATOM     70  C   UNL A   1      40.506  35.631  36.545  1.00  0.00     0.131 A 
ATOM     71  C   UNL A   1      39.513  35.036  39.054  1.00  0.00     0.055 A 
ATOM     72  C   UNL A   1      40.495  36.617  37.532  1.00  0.00     0.041 A 
ATOM     73  F   UNL A   1      40.944  35.981  35.325  1.00  0.00    -0.206 F 
ATOM     74  C   UNL A   1      39.987  36.324  38.794  1.00  0.00     0.022 A 
BRANCH  71  75
ATOM     75  S   UNL A   1      38.649  34.686  40.610  1.00  0.00     0.124 S 
ATOM     76  O   UNL A   1      38.238  36.024  41.026  1.00  0.00    -0.237 OA
ATOM     77  O   UNL A   1      37.580  33.791  40.184  1.00  0.00    -0.237 OA
ATOM     78  O   UNL A   1      39.682  34.074  41.444  1.00  0.00    -0.744 OA
ENDBRANCH  71  75
ENDBRANCH  54  68
BRANCH  55  79
ATOM     79  C   UNL A   1      40.750  27.750  29.234  1.00  0.00     0.023 A 
ATOM     80  C   UNL A   1      41.687  27.996  28.219  1.00  0.00     0.031 A 
ATOM     81  C   UNL A   1      39.903  26.636  29.088  1.00  0.00     0.131 A 
ATOM     82  C   UNL A   1      41.701  27.190  27.070  1.00  0.00     0.055 A 
ATOM     83  C   UNL A   1      39.979  25.787  27.983  1.00  0.00     0.041 A 
ATOM     84  F   UNL A   1      38.980  26.355  30.023  1.00  0.00    -0.206 F 
ATOM     85  C   UNL A   1      40.869  26.076  26.954  1.00  0.00     0.022 A 
BRANCH  82  86
ATOM     86  S   UNL A   1      42.710  27.717  25.657  1.00  0.00     0.124 S 
ATOM     87  O   UNL A   1      42.434  26.661  24.690  1.00  0.00    -0.237 OA
ATOM     88  O   UNL A   1      42.147  29.029  25.354  1.00  0.00    -0.237 OA
ATOM     89  O   UNL A   1      44.068  27.733  26.196  1.00  0.00    -0.744 OA
ENDBRANCH  82  86
ENDBRANCH  55  79
BRANCH  67  90
ATOM     90  C   UNL A   1      44.204  28.593  35.245  1.00  0.00     0.023 A 
ATOM     91  C   UNL A   1      43.958  27.531  36.131  1.00  0.00     0.031 A 
ATOM     92  C   UNL A   1      45.544  28.927  34.968  1.00  0.00     0.131 A 
ATOM     93  C   UNL A   1      45.034  26.885  36.760  1.00  0.00     0.055 A 
ATOM     94  C   UNL A   1      46.609  28.224  35.530  1.00  0.00     0.041 A 
ATOM     95  F   UNL A   1      45.839  29.939  34.137  1.00  0.00    -0.206 F 
ATOM     96  C   UNL A   1      46.357  27.208  36.445  1.00  0.00     0.022 A 
BRANCH  93  97
ATOM     97  S   UNL A   1      44.679  25.706  38.090  1.00  0.00     0.124 S 
ATOM     98  O   UNL A   1      46.008  25.189  38.398  1.00  0.00    -0.237 OA
ATOM     99  O   UNL A   1      44.075  26.556  39.109  1.00  0.00    -0.237 OA
ATOM    100  O   UNL A   1      43.770  24.747  37.464  1.00  0.00    -0.744 OA
ENDBRANCH  93  97
ENDBRANCH  67  90
ENDBRANCH  41  42
ENDBRANCH  33  36
ENDBRANCH  31  32
ENDBRANCH  30  31
ENDBRANCH   1  30
TORSDOF 18
ENDMDL
