MODEL 1
REMARK VINA RESULT:     -11.2      0.000      0.000
REMARK SMILES O=C(NCCCNC(=O)c1ccc(NCCCO)c(F)c1F)c1ccc(-c2c3nc(c(-c4cc(S(=O)(=O)[O-])ccc4F)c4ccc([nH]4)c(-c4cc(S(=O)(=O)[O-])ccc4F)c4nc(c(-c5cc(S(=O)(=O)[O-])ccc5F)c5ccc2[nH]5)C=C4)C=C3)cc1
REMARK SMILES IDX 6 1 5 2 4 3 3 4 1 5 2 6 23 8 24 9 85 10 25 11 84 12 26 13
REMARK SMILES IDX 27 14 28 15 78 16 29 17 83 18 77 19 79 20 30 21 82 22 76 23
REMARK SMILES IDX 75 24 31 26 63 27 43 28 62 29 44 30 47 31 61 32 80 33 45 34
REMARK SMILES IDX 46 35 60 37 81 38 48 39 32 40 33 41 41 42 34 43 40 44 42 45
REMARK SMILES IDX 39 46 35 47 36 48 37 49 38 50 64 51 65 52 73 53 66 54 72 55
REMARK SMILES IDX 74 56 71 57 67 58 68 59 69 60 70 61 49 62 50 63 58 64 51 65
REMARK SMILES IDX 57 66 59 67 56 68 52 69 53 70 54 71 55 72 7 73 8 74 9 76
REMARK SMILES IDX 10 77 11 78 21 79 12 80 19 81 22 82 13 83 20 84 14 85 15 87
REMARK SMILES IDX 16 88 17 89 18 90
REMARK H PARENT 3 7 79 25 47 36 7 75 14 86 18 91
REMARK Flexibility Score: inf
ROOT
ATOM      1  C   UNL A   1      31.731  30.478  25.896  1.00  0.00     0.118 C 
ENDROOT
BRANCH   1   2
ATOM      2  C   UNL A   1      31.464  31.811  26.577  1.00  0.00     0.042 C 
BRANCH   2   3
ATOM      3  C   UNL A   1      32.695  32.433  27.214  1.00  0.00     0.118 C 
BRANCH   3   4
ATOM      4  N   UNL A   1      32.484  33.821  27.604  1.00  0.00    -0.352 N 
ATOM      5  O   UNL A   1      32.647  35.661  28.888  1.00  0.00    -0.269 OA
ATOM      6  C   UNL A   1      33.102  34.562  28.583  1.00  0.00     0.251 C 
ATOM      7  H   UNL A   1      31.795  34.300  27.089  1.00  0.00     0.163 HD
BRANCH   6   8
ATOM      8  C   UNL A   1      34.301  34.032  29.267  1.00  0.00     0.039 A 
ATOM      9  C   UNL A   1      34.172  33.162  30.351  1.00  0.00     0.014 A 
ATOM     10  C   UNL A   1      35.571  34.382  28.799  1.00  0.00     0.014 A 
ATOM     11  C   UNL A   1      35.298  32.753  31.053  1.00  0.00     0.010 A 
ATOM     12  C   UNL A   1      36.709  33.883  29.443  1.00  0.00     0.010 A 
ATOM     13  C   UNL A   1      36.579  33.072  30.581  1.00  0.00    -0.014 A 
BRANCH  13  14
ATOM     14  C   UNL A   1      37.758  32.429  31.213  1.00  0.00     0.031 A 
ATOM     15  C   UNL A   1      38.485  31.299  30.546  1.00  0.00     0.074 A 
ATOM     16  C   UNL A   1      38.158  32.892  32.416  1.00  0.00     0.049 A 
ATOM     17  N   UNL A   1      39.505  30.608  30.987  1.00  0.00    -0.248 NA
ATOM     18  C   UNL A   1      38.009  30.882  29.218  1.00  0.00     0.031 C 
ATOM     19  C   UNL A   1      37.514  33.988  33.150  1.00  0.00     0.029 A 
ATOM     20  N   UNL A   1      39.189  32.512  33.236  1.00  0.00    -0.354 N 
ATOM     21  C   UNL A   1      39.782  29.661  30.007  1.00  0.00     0.074 A 
ATOM     22  C   UNL A   1      38.812  29.859  28.949  1.00  0.00     0.031 C 
ATOM     23  C   UNL A   1      38.179  34.208  34.291  1.00  0.00     0.029 A 
ATOM     24  C   UNL A   1      39.236  33.215  34.419  1.00  0.00     0.049 A 
ATOM     25  H   UNL A   1      39.834  31.807  33.000  1.00  0.00     0.167 HD
ATOM     26  C   UNL A   1      40.752  28.716  30.005  1.00  0.00     0.034 A 
ATOM     27  C   UNL A   1      40.007  33.047  35.511  1.00  0.00     0.034 A 
ATOM     28  C   UNL A   1      41.713  28.550  31.071  1.00  0.00     0.049 A 
ATOM     29  C   UNL A   1      41.033  31.945  35.497  1.00  0.00     0.074 A 
ATOM     30  C   UNL A   1      42.789  27.680  31.128  1.00  0.00     0.029 A 
ATOM     31  N   UNL A   1      41.701  29.245  32.273  1.00  0.00    -0.354 N 
ATOM     32  N   UNL A   1      41.322  31.103  34.532  1.00  0.00    -0.248 NA
ATOM     33  C   UNL A   1      41.833  31.768  36.714  1.00  0.00     0.031 C 
ATOM     34  C   UNL A   1      43.368  27.784  32.397  1.00  0.00     0.029 A 
ATOM     35  C   UNL A   1      42.711  28.779  33.102  1.00  0.00     0.049 A 
ATOM     36  H   UNL A   1      41.069  29.965  32.503  1.00  0.00     0.167 HD
ATOM     37  C   UNL A   1      42.347  30.303  35.026  1.00  0.00     0.074 A 
ATOM     38  C   UNL A   1      42.647  30.787  36.357  1.00  0.00     0.031 C 
ATOM     39  C   UNL A   1      42.981  29.260  34.436  1.00  0.00     0.034 A 
BRANCH  26  40
ATOM     40  C   UNL A   1      40.805  27.745  28.851  1.00  0.00     0.023 A 
ATOM     41  C   UNL A   1      41.761  27.847  27.826  1.00  0.00     0.031 A 
ATOM     42  C   UNL A   1      39.908  26.661  28.811  1.00  0.00     0.131 A 
ATOM     43  C   UNL A   1      41.776  26.900  26.788  1.00  0.00     0.055 A 
ATOM     44  C   UNL A   1      39.969  25.688  27.813  1.00  0.00     0.041 A 
ATOM     45  F   UNL A   1      38.961  26.526  29.753  1.00  0.00    -0.206 F 
ATOM     46  C   UNL A   1      40.904  25.807  26.790  1.00  0.00     0.022 A 
BRANCH  43  47
ATOM     47  S   UNL A   1      42.895  27.161  25.385  1.00  0.00     0.124 S 
ATOM     48  O   UNL A   1      42.836  25.865  24.714  1.00  0.00    -0.237 OA
ATOM     49  O   UNL A   1      42.265  28.272  24.681  1.00  0.00    -0.237 OA
ATOM     50  O   UNL A   1      44.175  27.470  26.018  1.00  0.00    -0.744 OA
ENDBRANCH  43  47
ENDBRANCH  26  40
BRANCH  27  51
ATOM     51  C   UNL A   1      39.786  33.877  36.729  1.00  0.00     0.023 A 
ATOM     52  C   UNL A   1      39.188  33.337  37.876  1.00  0.00     0.031 A 
ATOM     53  C   UNL A   1      40.111  35.248  36.740  1.00  0.00     0.131 A 
ATOM     54  C   UNL A   1      38.874  34.173  38.959  1.00  0.00     0.055 A 
ATOM     55  C   UNL A   1      39.865  36.059  37.848  1.00  0.00     0.041 A 
ATOM     56  F   UNL A   1      40.683  35.820  35.668  1.00  0.00    -0.206 F 
ATOM     57  C   UNL A   1      39.224  35.525  38.960  1.00  0.00     0.022 A 
BRANCH  54  58
ATOM     58  S   UNL A   1      37.875  33.494  40.312  1.00  0.00     0.124 S 
ATOM     59  O   UNL A   1      38.775  32.490  40.868  1.00  0.00    -0.237 OA
ATOM     60  O   UNL A   1      37.643  34.674  41.137  1.00  0.00    -0.237 OA
ATOM     61  O   UNL A   1      36.695  32.966  39.630  1.00  0.00    -0.744 OA
ENDBRANCH  54  58
ENDBRANCH  27  51
BRANCH  39  62
ATOM     62  C   UNL A   1      44.073  28.589  35.230  1.00  0.00     0.023 A 
ATOM     63  C   UNL A   1      43.797  27.510  36.088  1.00  0.00     0.031 A 
ATOM     64  C   UNL A   1      45.401  29.037  35.132  1.00  0.00     0.131 A 
ATOM     65  C   UNL A   1      44.828  26.946  36.852  1.00  0.00     0.055 A 
ATOM     66  C   UNL A   1      46.434  28.431  35.847  1.00  0.00     0.041 A 
ATOM     67  F   UNL A   1      45.719  30.067  34.332  1.00  0.00    -0.206 F 
ATOM     68  C   UNL A   1      46.147  27.386  36.722  1.00  0.00     0.022 A 
BRANCH  65  69
ATOM     69  S   UNL A   1      44.408  25.679  38.079  1.00  0.00     0.124 S 
ATOM     70  O   UNL A   1      44.107  26.485  39.257  1.00  0.00    -0.237 OA
ATOM     71  O   UNL A   1      43.270  25.007  37.459  1.00  0.00    -0.237 OA
ATOM     72  O   UNL A   1      45.625  24.874  38.171  1.00  0.00    -0.744 OA
ENDBRANCH  65  69
ENDBRANCH  39  62
ENDBRANCH  13  14
ENDBRANCH   6   8
ENDBRANCH   3   4
ENDBRANCH   2   3
ENDBRANCH   1   2
BRANCH   1  73
ATOM     73  N   UNL A   1      31.006  30.333  24.640  1.00  0.00    -0.352 N 
ATOM     74  C   UNL A   1      30.949  29.270  23.774  1.00  0.00     0.254 C 
ATOM     75  H   UNL A   1      30.475  31.117  24.372  1.00  0.00     0.163 HD
ATOM     76  O   UNL A   1      30.343  29.371  22.709  1.00  0.00    -0.269 OA
BRANCH  74  77
ATOM     77  C   UNL A   1      31.580  27.997  24.142  1.00  0.00     0.078 A 
ATOM     78  C   UNL A   1      32.973  27.905  24.242  1.00  0.00     0.019 A 
ATOM     79  C   UNL A   1      30.794  26.886  24.409  1.00  0.00     0.173 A 
ATOM     80  C   UNL A   1      33.578  26.672  24.501  1.00  0.00     0.030 A 
ATOM     81  C   UNL A   1      31.406  25.670  24.687  1.00  0.00     0.182 A 
ATOM     82  F   UNL A   1      29.455  26.953  24.363  1.00  0.00    -0.203 F 
ATOM     83  C   UNL A   1      32.809  25.521  24.696  1.00  0.00     0.073 A 
ATOM     84  F   UNL A   1      30.642  24.590  24.926  1.00  0.00    -0.201 F 
BRANCH  83  85
ATOM     85  N   UNL A   1      33.350  24.264  24.898  1.00  0.00    -0.383 N 
ATOM     86  H   UNL A   1      33.228  23.607  24.175  1.00  0.00     0.160 HD
BRANCH  85  87
ATOM     87  C   UNL A   1      34.079  23.815  26.070  1.00  0.00     0.115 C 
BRANCH  87  88
ATOM     88  C   UNL A   1      33.872  22.319  26.283  1.00  0.00     0.049 C 
BRANCH  88  89
ATOM     89  C   UNL A   1      33.741  21.933  27.751  1.00  0.00     0.158 C 
BRANCH  89  90
ATOM     90  O   UNL A   1      32.445  22.251  28.245  1.00  0.00    -0.396 OA
ATOM     91  H   UNL A   1      31.833  22.360  27.500  1.00  0.00     0.210 HD
ENDBRANCH  89  90
ENDBRANCH  88  89
ENDBRANCH  87  88
ENDBRANCH  85  87
ENDBRANCH  83  85
ENDBRANCH  74  77
ENDBRANCH   1  73
TORSDOF 18
ENDMDL
MODEL 2
REMARK VINA RESULT:     -11.1      3.456      9.153
REMARK SMILES O=C(NCCCNC(=O)c1ccc(NCCCO)c(F)c1F)c1ccc(-c2c3nc(c(-c4cc(S(=O)(=O)[O-])ccc4F)c4ccc([nH]4)c(-c4cc(S(=O)(=O)[O-])ccc4F)c4nc(c(-c5cc(S(=O)(=O)[O-])ccc5F)c5ccc2[nH]5)C=C4)C=C3)cc1
REMARK SMILES IDX 6 1 5 2 4 3 3 4 1 5 2 6 23 8 24 9 85 10 25 11 84 12 26 13
REMARK SMILES IDX 27 14 28 15 78 16 29 17 83 18 77 19 79 20 30 21 82 22 76 23
REMARK SMILES IDX 75 24 31 26 63 27 43 28 62 29 44 30 47 31 61 32 80 33 45 34
REMARK SMILES IDX 46 35 60 37 81 38 48 39 32 40 33 41 41 42 34 43 40 44 42 45
REMARK SMILES IDX 39 46 35 47 36 48 37 49 38 50 64 51 65 52 73 53 66 54 72 55
REMARK SMILES IDX 74 56 71 57 67 58 68 59 69 60 70 61 49 62 50 63 58 64 51 65
REMARK SMILES IDX 57 66 59 67 56 68 52 69 53 70 54 71 55 72 7 73 8 74 9 76
REMARK SMILES IDX 10 77 11 78 21 79 12 80 19 81 22 82 13 83 20 84 14 85 15 87
REMARK SMILES IDX 16 88 17 89 18 90
REMARK H PARENT 3 7 79 25 47 36 7 75 14 86 18 91
REMARK Flexibility Score: inf
ROOT
ATOM      1  C   UNL A   1      31.905  27.646  26.127  1.00  0.00     0.118 C 
ENDROOT
BRANCH   1   2
ATOM      2  C   UNL A   1      33.207  27.886  26.874  1.00  0.00     0.042 C 
BRANCH   2   3
ATOM      3  C   UNL A   1      34.101  28.933  26.230  1.00  0.00     0.118 C 
BRANCH   3   4
ATOM      4  N   UNL A   1      33.798  30.284  26.683  1.00  0.00    -0.352 N 
ATOM      5  O   UNL A   1      33.886  32.090  28.023  1.00  0.00    -0.269 OA
ATOM      6  C   UNL A   1      34.412  31.044  27.650  1.00  0.00     0.251 C 
ATOM      7  H   UNL A   1      33.040  30.718  26.228  1.00  0.00     0.163 HD
BRANCH   6   8
ATOM      8  C   UNL A   1      35.693  30.598  28.241  1.00  0.00     0.039 A 
ATOM      9  C   UNL A   1      35.705  29.692  29.303  1.00  0.00     0.014 A 
ATOM     10  C   UNL A   1      36.897  31.064  27.705  1.00  0.00     0.014 A 
ATOM     11  C   UNL A   1      36.904  29.361  29.920  1.00  0.00     0.010 A 
ATOM     12  C   UNL A   1      38.110  30.645  28.260  1.00  0.00     0.010 A 
ATOM     13  C   UNL A   1      38.122  29.797  29.378  1.00  0.00    -0.014 A 
BRANCH  13  14
ATOM     14  C   UNL A   1      39.388  29.238  29.914  1.00  0.00     0.031 A 
ATOM     15  C   UNL A   1      40.092  29.869  31.079  1.00  0.00     0.074 A 
ATOM     16  C   UNL A   1      39.893  28.140  29.315  1.00  0.00     0.049 A 
ATOM     17  N   UNL A   1      41.224  29.524  31.636  1.00  0.00    -0.248 NA
ATOM     18  C   UNL A   1      39.452  31.040  31.699  1.00  0.00     0.031 C 
ATOM     19  C   UNL A   1      39.284  27.452  28.171  1.00  0.00     0.029 A 
ATOM     20  N   UNL A   1      41.022  27.406  29.573  1.00  0.00    -0.354 N 
ATOM     21  C   UNL A   1      41.448  30.443  32.655  1.00  0.00     0.074 A 
ATOM     22  C   UNL A   1      40.336  31.371  32.633  1.00  0.00     0.031 C 
ATOM     23  C   UNL A   1      40.028  26.387  27.846  1.00  0.00     0.029 A 
ATOM     24  C   UNL A   1      41.213  26.365  28.692  1.00  0.00     0.049 A 
ATOM     25  H   UNL A   1      41.637  27.604  30.317  1.00  0.00     0.167 HD
ATOM     26  C   UNL A   1      42.491  30.500  33.519  1.00  0.00     0.034 A 
ATOM     27  C   UNL A   1      42.250  25.518  28.544  1.00  0.00     0.034 A 
ATOM     28  C   UNL A   1      43.581  29.552  33.524  1.00  0.00     0.049 A 
ATOM     29  C   UNL A   1      43.420  25.652  29.481  1.00  0.00     0.074 A 
ATOM     30  C   UNL A   1      44.642  29.470  34.409  1.00  0.00     0.029 A 
ATOM     31  N   UNL A   1      43.766  28.542  32.589  1.00  0.00    -0.354 N 
ATOM     32  N   UNL A   1      43.582  26.487  30.481  1.00  0.00    -0.248 NA
ATOM     33  C   UNL A   1      44.547  24.736  29.271  1.00  0.00     0.031 C 
ATOM     34  C   UNL A   1      45.513  28.474  33.957  1.00  0.00     0.029 A 
ATOM     35  C   UNL A   1      44.955  27.874  32.840  1.00  0.00     0.049 A 
ATOM     36  H   UNL A   1      43.143  28.330  31.856  1.00  0.00     0.167 HD
ATOM     37  C   UNL A   1      44.826  26.186  31.025  1.00  0.00     0.074 A 
ATOM     38  C   UNL A   1      45.354  25.074  30.265  1.00  0.00     0.031 C 
ATOM     39  C   UNL A   1      45.476  26.779  32.057  1.00  0.00     0.034 A 
BRANCH  26  40
ATOM     40  C   UNL A   1      42.549  31.647  34.498  1.00  0.00     0.023 A 
ATOM     41  C   UNL A   1      41.918  31.597  35.752  1.00  0.00     0.031 A 
ATOM     42  C   UNL A   1      43.304  32.793  34.183  1.00  0.00     0.131 A 
ATOM     43  C   UNL A   1      42.027  32.687  36.632  1.00  0.00     0.055 A 
ATOM     44  C   UNL A   1      43.459  33.845  35.086  1.00  0.00     0.041 A 
ATOM     45  F   UNL A   1      43.910  32.904  32.990  1.00  0.00    -0.206 F 
ATOM     46  C   UNL A   1      42.815  33.799  36.317  1.00  0.00     0.022 A 
BRANCH  43  47
ATOM     47  S   UNL A   1      41.052  32.674  38.161  1.00  0.00     0.124 S 
ATOM     48  O   UNL A   1      39.816  32.034  37.720  1.00  0.00    -0.237 OA
ATOM     49  O   UNL A   1      41.889  31.891  39.063  1.00  0.00    -0.237 OA
ATOM     50  O   UNL A   1      40.925  34.091  38.500  1.00  0.00    -0.744 OA
ENDBRANCH  43  47
ENDBRANCH  26  40
BRANCH  27  51
ATOM     51  C   UNL A   1      42.270  24.533  27.424  1.00  0.00     0.023 A 
ATOM     52  C   UNL A   1      41.526  23.347  27.490  1.00  0.00     0.031 A 
ATOM     53  C   UNL A   1      43.089  24.736  26.297  1.00  0.00     0.131 A 
ATOM     54  C   UNL A   1      41.666  22.380  26.482  1.00  0.00     0.055 A 
ATOM     55  C   UNL A   1      43.167  23.804  25.261  1.00  0.00     0.041 A 
ATOM     56  F   UNL A   1      43.827  25.852  26.182  1.00  0.00    -0.206 F 
ATOM     57  C   UNL A   1      42.467  22.607  25.360  1.00  0.00     0.022 A 
BRANCH  54  58
ATOM     58  S   UNL A   1      40.890  20.759  26.728  1.00  0.00     0.124 S 
ATOM     59  O   UNL A   1      40.840  20.674  28.184  1.00  0.00    -0.237 OA
ATOM     60  O   UNL A   1      39.609  20.932  26.051  1.00  0.00    -0.237 OA
ATOM     61  O   UNL A   1      41.819  19.836  26.081  1.00  0.00    -0.744 OA
ENDBRANCH  54  58
ENDBRANCH  27  51
BRANCH  39  62
ATOM     62  C   UNL A   1      46.825  26.214  32.426  1.00  0.00     0.023 A 
ATOM     63  C   UNL A   1      46.955  25.210  33.401  1.00  0.00     0.031 A 
ATOM     64  C   UNL A   1      47.990  26.689  31.800  1.00  0.00     0.131 A 
ATOM     65  C   UNL A   1      48.229  24.746  33.758  1.00  0.00     0.055 A 
ATOM     66  C   UNL A   1      49.249  26.178  32.114  1.00  0.00     0.041 A 
ATOM     67  F   UNL A   1      47.922  27.650  30.866  1.00  0.00    -0.206 F 
ATOM     68  C   UNL A   1      49.375  25.209  33.106  1.00  0.00     0.022 A 
BRANCH  65  69
ATOM     69  S   UNL A   1      48.376  23.584  35.141  1.00  0.00     0.124 S 
ATOM     70  O   UNL A   1      47.204  23.918  35.944  1.00  0.00    -0.237 OA
ATOM     71  O   UNL A   1      48.339  22.289  34.468  1.00  0.00    -0.237 OA
ATOM     72  O   UNL A   1      49.662  23.930  35.744  1.00  0.00    -0.744 OA
ENDBRANCH  65  69
ENDBRANCH  39  62
ENDBRANCH  13  14
ENDBRANCH   6   8
ENDBRANCH   3   4
ENDBRANCH   2   3
ENDBRANCH   1   2
BRANCH   1  73
ATOM     73  N   UNL A   1      31.966  26.484  25.248  1.00  0.00    -0.352 N 
ATOM     74  C   UNL A   1      31.239  26.192  24.122  1.00  0.00     0.254 C 
ATOM     75  H   UNL A   1      32.633  25.806  25.500  1.00  0.00     0.163 HD
ATOM     76  O   UNL A   1      31.378  25.109  23.558  1.00  0.00    -0.269 OA
BRANCH  74  77
ATOM     77  C   UNL A   1      30.321  27.195  23.568  1.00  0.00     0.078 A 
ATOM     78  C   UNL A   1      28.949  27.114  23.829  1.00  0.00     0.019 A 
ATOM     79  C   UNL A   1      30.816  28.237  22.799  1.00  0.00     0.173 A 
ATOM     80  C   UNL A   1      28.065  28.013  23.226  1.00  0.00     0.030 A 
ATOM     81  C   UNL A   1      29.930  29.139  22.223  1.00  0.00     0.182 A 
ATOM     82  F   UNL A   1      32.132  28.367  22.566  1.00  0.00    -0.203 F 
ATOM     83  C   UNL A   1      28.534  29.025  22.384  1.00  0.00     0.073 A 
ATOM     84  F   UNL A   1      30.413  30.137  21.461  1.00  0.00    -0.201 F 
BRANCH  83  85
ATOM     85  N   UNL A   1      27.706  29.909  21.714  1.00  0.00    -0.383 N 
ATOM     86  H   UNL A   1      26.908  29.527  21.282  1.00  0.00     0.160 HD
BRANCH  85  87
ATOM     87  C   UNL A   1      27.896  31.341  21.585  1.00  0.00     0.115 C 
BRANCH  87  88
ATOM     88  C   UNL A   1      27.935  31.998  22.961  1.00  0.00     0.049 C 
BRANCH  88  89
ATOM     89  C   UNL A   1      29.061  33.013  23.112  1.00  0.00     0.158 C 
BRANCH  89  90
ATOM     90  O   UNL A   1      28.544  34.335  23.200  1.00  0.00    -0.396 OA
ATOM     91  H   UNL A   1      28.356  34.547  24.128  1.00  0.00     0.210 HD
ENDBRANCH  89  90
ENDBRANCH  88  89
ENDBRANCH  87  88
ENDBRANCH  85  87
ENDBRANCH  83  85
ENDBRANCH  74  77
ENDBRANCH   1  73
TORSDOF 18
ENDMDL
MODEL 3
REMARK VINA RESULT:     -11.0      5.905     11.679
REMARK SMILES O=C(NCCCNC(=O)c1ccc(NCCCO)c(F)c1F)c1ccc(-c2c3nc(c(-c4cc(S(=O)(=O)[O-])ccc4F)c4ccc([nH]4)c(-c4cc(S(=O)(=O)[O-])ccc4F)c4nc(c(-c5cc(S(=O)(=O)[O-])ccc5F)c5ccc2[nH]5)C=C4)C=C3)cc1
REMARK SMILES IDX 6 1 5 2 4 3 3 4 1 5 2 6 23 8 24 9 85 10 25 11 84 12 26 13
REMARK SMILES IDX 27 14 28 15 78 16 29 17 83 18 77 19 79 20 30 21 82 22 76 23
REMARK SMILES IDX 75 24 31 26 63 27 43 28 62 29 44 30 47 31 61 32 80 33 45 34
REMARK SMILES IDX 46 35 60 37 81 38 48 39 32 40 33 41 41 42 34 43 40 44 42 45
REMARK SMILES IDX 39 46 35 47 36 48 37 49 38 50 64 51 65 52 73 53 66 54 72 55
REMARK SMILES IDX 74 56 71 57 67 58 68 59 69 60 70 61 49 62 50 63 58 64 51 65
REMARK SMILES IDX 57 66 59 67 56 68 52 69 53 70 54 71 55 72 7 73 8 74 9 76
REMARK SMILES IDX 10 77 11 78 21 79 12 80 19 81 22 82 13 83 20 84 14 85 15 87
REMARK SMILES IDX 16 88 17 89 18 90
REMARK H PARENT 3 7 79 25 47 36 7 75 14 86 18 91
REMARK Flexibility Score: inf
ROOT
ATOM      1  C   UNL A   1      36.752  20.871  24.988  1.00  0.00     0.118 C 
ENDROOT
BRANCH   1   2
ATOM      2  C   UNL A   1      37.894  19.870  25.033  1.00  0.00     0.042 C 
BRANCH   2   3
ATOM      3  C   UNL A   1      39.117  20.365  25.789  1.00  0.00     0.118 C 
BRANCH   3   4
ATOM      4  N   UNL A   1      40.151  19.346  25.911  1.00  0.00    -0.352 N 
ATOM      5  O   UNL A   1      42.238  18.509  25.984  1.00  0.00    -0.269 OA
ATOM      6  C   UNL A   1      41.504  19.487  26.101  1.00  0.00     0.251 C 
ATOM      7  H   UNL A   1      39.832  18.416  25.848  1.00  0.00     0.163 HD
BRANCH   6   8
ATOM      8  C   UNL A   1      42.071  20.811  26.437  1.00  0.00     0.039 A 
ATOM      9  C   UNL A   1      42.341  21.742  25.432  1.00  0.00     0.014 A 
ATOM     10  C   UNL A   1      42.304  21.141  27.776  1.00  0.00     0.014 A 
ATOM     11  C   UNL A   1      42.970  22.940  25.744  1.00  0.00     0.010 A 
ATOM     12  C   UNL A   1      42.839  22.392  28.098  1.00  0.00     0.010 A 
ATOM     13  C   UNL A   1      43.185  23.297  27.083  1.00  0.00    -0.014 A 
BRANCH  13  14
ATOM     14  C   UNL A   1      43.640  24.675  27.394  1.00  0.00     0.031 A 
ATOM     15  C   UNL A   1      42.690  25.716  27.909  1.00  0.00     0.074 A 
ATOM     16  C   UNL A   1      44.943  24.968  27.195  1.00  0.00     0.049 A 
ATOM     17  N   UNL A   1      42.926  26.972  28.189  1.00  0.00    -0.248 NA
ATOM     18  C   UNL A   1      41.297  25.303  28.136  1.00  0.00     0.031 C 
ATOM     19  C   UNL A   1      45.947  24.024  26.693  1.00  0.00     0.029 A 
ATOM     20  N   UNL A   1      45.650  26.127  27.385  1.00  0.00    -0.354 N 
ATOM     21  C   UNL A   1      41.711  27.509  28.602  1.00  0.00     0.074 A 
ATOM     22  C   UNL A   1      40.735  26.441  28.526  1.00  0.00     0.031 C 
ATOM     23  C   UNL A   1      47.140  24.631  26.642  1.00  0.00     0.029 A 
ATOM     24  C   UNL A   1      46.972  26.028  27.016  1.00  0.00     0.049 A 
ATOM     25  H   UNL A   1      45.250  26.949  27.750  1.00  0.00     0.167 HD
ATOM     26  C   UNL A   1      41.447  28.777  29.001  1.00  0.00     0.034 A 
ATOM     27  C   UNL A   1      47.934  26.968  26.934  1.00  0.00     0.034 A 
ATOM     28  C   UNL A   1      42.445  29.818  29.077  1.00  0.00     0.049 A 
ATOM     29  C   UNL A   1      47.587  28.380  27.324  1.00  0.00     0.074 A 
ATOM     30  C   UNL A   1      42.300  31.112  29.547  1.00  0.00     0.029 A 
ATOM     31  N   UNL A   1      43.761  29.697  28.651  1.00  0.00    -0.354 N 
ATOM     32  N   UNL A   1      46.448  28.852  27.776  1.00  0.00    -0.248 NA
ATOM     33  C   UNL A   1      48.648  29.385  27.192  1.00  0.00     0.031 C 
ATOM     34  C   UNL A   1      43.498  31.797  29.319  1.00  0.00     0.029 A 
ATOM     35  C   UNL A   1      44.420  30.910  28.788  1.00  0.00     0.049 A 
ATOM     36  H   UNL A   1      44.168  28.870  28.302  1.00  0.00     0.167 HD
ATOM     37  C   UNL A   1      46.663  30.209  27.992  1.00  0.00     0.074 A 
ATOM     38  C   UNL A   1      48.046  30.470  27.654  1.00  0.00     0.031 C 
ATOM     39  C   UNL A   1      45.794  31.156  28.425  1.00  0.00     0.034 A 
BRANCH  26  40
ATOM     40  C   UNL A   1      40.021  29.142  29.333  1.00  0.00     0.023 A 
ATOM     41  C   UNL A   1      39.557  29.230  30.656  1.00  0.00     0.031 A 
ATOM     42  C   UNL A   1      39.124  29.461  28.296  1.00  0.00     0.131 A 
ATOM     43  C   UNL A   1      38.224  29.596  30.906  1.00  0.00     0.055 A 
ATOM     44  C   UNL A   1      37.820  29.886  28.553  1.00  0.00     0.041 A 
ATOM     45  F   UNL A   1      39.507  29.373  27.012  1.00  0.00    -0.206 F 
ATOM     46  C   UNL A   1      37.361  29.950  29.864  1.00  0.00     0.022 A 
BRANCH  43  47
ATOM     47  S   UNL A   1      37.602  29.521  32.608  1.00  0.00     0.124 S 
ATOM     48  O   UNL A   1      38.630  30.264  33.333  1.00  0.00    -0.237 OA
ATOM     49  O   UNL A   1      36.302  30.173  32.499  1.00  0.00    -0.237 OA
ATOM     50  O   UNL A   1      37.559  28.089  32.896  1.00  0.00    -0.744 OA
ENDBRANCH  43  47
ENDBRANCH  26  40
BRANCH  27  51
ATOM     51  C   UNL A   1      49.280  26.629  26.389  1.00  0.00     0.023 A 
ATOM     52  C   UNL A   1      50.393  26.505  27.232  1.00  0.00     0.031 A 
ATOM     53  C   UNL A   1      49.486  26.492  25.002  1.00  0.00     0.131 A 
ATOM     54  C   UNL A   1      51.669  26.315  26.679  1.00  0.00     0.055 A 
ATOM     55  C   UNL A   1      50.745  26.229  24.463  1.00  0.00     0.041 A 
ATOM     56  F   UNL A   1      48.457  26.605  24.146  1.00  0.00    -0.206 F 
ATOM     57  C   UNL A   1      51.851  26.158  25.303  1.00  0.00     0.022 A 
BRANCH  54  58
ATOM     58  S   UNL A   1      53.108  26.414  27.778  1.00  0.00     0.124 S 
ATOM     59  O   UNL A   1      53.943  25.330  27.271  1.00  0.00    -0.237 OA
ATOM     60  O   UNL A   1      53.589  27.767  27.524  1.00  0.00    -0.237 OA
ATOM     61  O   UNL A   1      52.538  26.193  29.105  1.00  0.00    -0.744 OA
ENDBRANCH  54  58
ENDBRANCH  27  51
BRANCH  39  62
ATOM     62  C   UNL A   1      46.333  32.557  28.572  1.00  0.00     0.023 A 
ATOM     63  C   UNL A   1      46.384  33.439  27.478  1.00  0.00     0.031 A 
ATOM     64  C   UNL A   1      46.804  33.012  29.815  1.00  0.00     0.131 A 
ATOM     65  C   UNL A   1      46.941  34.716  27.638  1.00  0.00     0.055 A 
ATOM     66  C   UNL A   1      47.298  34.305  29.983  1.00  0.00     0.041 A 
ATOM     67  F   UNL A   1      46.782  32.208  30.890  1.00  0.00    -0.206 F 
ATOM     68  C   UNL A   1      47.379  35.161  28.887  1.00  0.00     0.022 A 
BRANCH  65  69
ATOM     69  S   UNL A   1      47.157  35.761  26.173  1.00  0.00     0.124 S 
ATOM     70  O   UNL A   1      47.714  34.819  25.208  1.00  0.00    -0.237 OA
ATOM     71  O   UNL A   1      45.794  36.213  25.907  1.00  0.00    -0.237 OA
ATOM     72  O   UNL A   1      48.076  36.803  26.627  1.00  0.00    -0.744 OA
ENDBRANCH  65  69
ENDBRANCH  39  62
ENDBRANCH  13  14
ENDBRANCH   6   8
ENDBRANCH   3   4
ENDBRANCH   2   3
ENDBRANCH   1   2
BRANCH   1  73
ATOM     73  N   UNL A   1      35.470  20.279  25.350  1.00  0.00    -0.352 N 
ATOM     74  C   UNL A   1      34.209  20.820  25.318  1.00  0.00     0.254 C 
ATOM     75  H   UNL A   1      35.515  19.347  25.665  1.00  0.00     0.163 HD
ATOM     76  O   UNL A   1      33.251  20.183  25.750  1.00  0.00    -0.269 OA
BRANCH  74  77
ATOM     77  C   UNL A   1      34.002  22.148  24.729  1.00  0.00     0.078 A 
ATOM     78  C   UNL A   1      33.779  22.281  23.354  1.00  0.00     0.019 A 
ATOM     79  C   UNL A   1      34.010  23.274  25.538  1.00  0.00     0.173 A 
ATOM     80  C   UNL A   1      33.674  23.550  22.779  1.00  0.00     0.030 A 
ATOM     81  C   UNL A   1      33.883  24.531  24.958  1.00  0.00     0.182 A 
ATOM     82  F   UNL A   1      34.179  23.176  26.865  1.00  0.00    -0.203 F 
ATOM     83  C   UNL A   1      33.757  24.703  23.564  1.00  0.00     0.073 A 
ATOM     84  F   UNL A   1      33.910  25.622  25.744  1.00  0.00    -0.201 F 
BRANCH  83  85
ATOM     85  N   UNL A   1      33.719  25.987  23.047  1.00  0.00    -0.383 N 
ATOM     86  H   UNL A   1      34.158  26.691  23.577  1.00  0.00     0.160 HD
BRANCH  85  87
ATOM     87  C   UNL A   1      33.096  26.399  21.803  1.00  0.00     0.115 C 
BRANCH  87  88
ATOM     88  C   UNL A   1      31.577  26.412  21.950  1.00  0.00     0.049 C 
BRANCH  88  89
ATOM     89  C   UNL A   1      31.062  27.594  22.762  1.00  0.00     0.158 C 
BRANCH  89  90
ATOM     90  O   UNL A   1      31.257  27.377  24.154  1.00  0.00    -0.396 OA
ATOM     91  H   UNL A   1      31.101  26.442  24.360  1.00  0.00     0.210 HD
ENDBRANCH  89  90
ENDBRANCH  88  89
ENDBRANCH  87  88
ENDBRANCH  85  87
ENDBRANCH  83  85
ENDBRANCH  74  77
ENDBRANCH   1  73
TORSDOF 18
ENDMDL
