MODEL 1
REMARK VINA RESULT:     -12.7      0.000      0.000
REMARK SMILES Cc1cc([C@H](C)NC(=O)N2CC[C@H](C(=O)NCCCNC(=O)c3ccc(-c4c5nc(c(-c6cc(S(=O)(=O)[O-])ccc6F)c6ccc([nH]6)c(-c6cc(S(=O)(=O)[O-])ccc6F)c6nc(c(-c7cc(S(=O)(=O)[O-])ccc7F)c7ccc4[nH]7)C=C6)C=C5)cc3)[C@@H]2C)c(C)s1
REMARK SMILES IDX 18 1 17 2 16 3 14 4 15 5 13 7 10 8 11 9 86 10 12 11 87 12
REMARK SMILES IDX 8 13 7 14 9 16 5 17 6 18 4 19 1 20 2 21 3 22 90 23 88 24
REMARK SMILES IDX 89 25 19 26 20 27 21 28 22 30 23 31 24 32 85 33 25 34 84 35
REMARK SMILES IDX 26 36 27 37 28 38 78 39 29 40 83 41 77 42 79 43 30 44 82 45
REMARK SMILES IDX 76 46 75 47 31 49 63 50 43 51 62 52 44 53 47 54 61 55 80 56
REMARK SMILES IDX 45 57 46 58 60 60 81 61 48 62 32 63 33 64 41 65 34 66 40 67
REMARK SMILES IDX 42 68 39 69 35 70 36 71 37 72 38 73 64 74 65 75 73 76 66 77
REMARK SMILES IDX 72 78 74 79 71 80 67 81 68 82 69 83 70 84 49 85 50 86 58 87
REMARK SMILES IDX 51 88 57 89 59 90 56 91 52 92 53 93 54 94 55 95
REMARK H PARENT 16 6 7 15 20 29 79 48 47 59
REMARK Flexibility Score: inf
ROOT
ATOM      1  C   UNL A   1      32.090  28.972  24.318  1.00  0.00     0.042 C 
ENDROOT
BRANCH   1   2
ATOM      2  C   UNL A   1      32.784  28.749  22.980  1.00  0.00     0.117 C 
BRANCH   2   3
ATOM      3  N   UNL A   1      33.474  27.475  22.873  1.00  0.00    -0.356 N 
ATOM      4  C   UNL A   1      33.006  26.202  23.023  1.00  0.00     0.225 C 
ATOM      5  O   UNL A   1      33.671  25.285  22.536  1.00  0.00    -0.275 OA
ATOM      6  H   UNL A   1      34.433  27.540  22.658  1.00  0.00     0.163 HD
BRANCH   4   7
ATOM      7  C   UNL A   1      31.723  25.939  23.793  1.00  0.00     0.102 C 
ATOM      8  N   UNL A   1      31.165  24.061  25.176  1.00  0.00    -0.321 N 
ATOM      9  C   UNL A   1      30.972  23.638  23.805  1.00  0.00     0.122 C 
ATOM     10  C   UNL A   1      31.931  25.311  25.195  1.00  0.00     0.096 C 
ATOM     11  C   UNL A   1      30.825  24.942  23.044  1.00  0.00     0.037 C 
ATOM     12  C   UNL A   1      33.382  25.054  25.606  1.00  0.00     0.032 C 
BRANCH   8  13
ATOM     13  C   UNL A   1      30.987  23.175  26.202  1.00  0.00     0.318 C 
ATOM     14  N   UNL A   1      31.436  21.900  26.074  1.00  0.00    -0.331 N 
ATOM     15  H   UNL A   1      30.797  21.178  26.277  1.00  0.00     0.165 HD
ATOM     16  O   UNL A   1      30.421  23.487  27.250  1.00  0.00    -0.249 OA
BRANCH  14  17
ATOM     17  C   UNL A   1      32.775  21.500  25.663  1.00  0.00     0.112 C 
ATOM     18  C   UNL A   1      33.732  21.581  26.860  1.00  0.00     0.036 C 
BRANCH  17  19
ATOM     19  C   UNL A   1      32.692  20.115  25.039  1.00  0.00    -0.012 A 
ATOM     20  C   UNL A   1      33.076  16.332  25.299  1.00  0.00     0.056 C 
ATOM     21  C   UNL A   1      32.840  17.759  24.946  1.00  0.00     0.002 A 
ATOM     22  C   UNL A   1      32.905  18.876  25.751  1.00  0.00     0.021 A 
ATOM     23  S   UNL A   1      32.436  18.168  23.348  1.00  0.00    -0.146 S 
ATOM     24  C   UNL A   1      32.432  19.844  23.698  1.00  0.00     0.007 A 
ATOM     25  C   UNL A   1      32.155  20.771  22.562  1.00  0.00     0.057 C 
ENDBRANCH  17  19
ENDBRANCH  14  17
ENDBRANCH   8  13
ENDBRANCH   4   7
ENDBRANCH   2   3
ENDBRANCH   1   2
BRANCH   1  26
ATOM     26  C   UNL A   1      32.983  29.477  25.452  1.00  0.00     0.118 C 
BRANCH  26  27
ATOM     27  N   UNL A   1      32.531  30.727  26.048  1.00  0.00    -0.352 N 
ATOM     28  C   UNL A   1      33.102  31.512  27.024  1.00  0.00     0.251 C 
ATOM     29  H   UNL A   1      31.678  31.066  25.694  1.00  0.00     0.163 HD
ATOM     30  O   UNL A   1      32.483  32.493  27.432  1.00  0.00    -0.269 OA
BRANCH  28  31
ATOM     31  C   UNL A   1      34.417  31.170  27.613  1.00  0.00     0.039 A 
ATOM     32  C   UNL A   1      35.375  32.181  27.752  1.00  0.00     0.014 A 
ATOM     33  C   UNL A   1      34.723  29.869  28.018  1.00  0.00     0.014 A 
ATOM     34  C   UNL A   1      36.595  31.912  28.380  1.00  0.00     0.010 A 
ATOM     35  C   UNL A   1      35.912  29.616  28.703  1.00  0.00     0.010 A 
ATOM     36  C   UNL A   1      36.855  30.637  28.906  1.00  0.00    -0.014 A 
BRANCH  36  37
ATOM     37  C   UNL A   1      38.090  30.343  29.685  1.00  0.00     0.031 A 
ATOM     38  C   UNL A   1      39.108  29.377  29.145  1.00  0.00     0.074 A 
ATOM     39  C   UNL A   1      38.246  30.864  30.919  1.00  0.00     0.049 A 
ATOM     40  N   UNL A   1      40.147  28.847  29.738  1.00  0.00    -0.248 NA
ATOM     41  C   UNL A   1      38.907  28.925  27.760  1.00  0.00     0.031 C 
ATOM     42  C   UNL A   1      37.324  31.799  31.567  1.00  0.00     0.029 A 
ATOM     43  N   UNL A   1      39.225  30.660  31.862  1.00  0.00    -0.354 N 
ATOM     44  C   UNL A   1      40.711  27.978  28.810  1.00  0.00     0.074 A 
ATOM     45  C   UNL A   1      39.869  28.024  27.631  1.00  0.00     0.031 C 
ATOM     46  C   UNL A   1      37.782  32.090  32.795  1.00  0.00     0.029 A 
ATOM     47  C   UNL A   1      38.997  31.322  33.047  1.00  0.00     0.049 A 
ATOM     48  H   UNL A   1      40.013  30.093  31.704  1.00  0.00     0.167 HD
ATOM     49  C   UNL A   1      41.834  27.225  28.924  1.00  0.00     0.034 A 
ATOM     50  C   UNL A   1      39.672  31.293  34.215  1.00  0.00     0.034 A 
ATOM     51  C   UNL A   1      42.674  27.205  30.098  1.00  0.00     0.049 A 
ATOM     52  C   UNL A   1      40.898  30.423  34.333  1.00  0.00     0.074 A 
ATOM     53  C   UNL A   1      43.857  26.516  30.301  1.00  0.00     0.029 A 
ATOM     54  N   UNL A   1      42.417  27.902  31.272  1.00  0.00    -0.354 N 
ATOM     55  N   UNL A   1      41.431  29.624  33.439  1.00  0.00    -0.248 NA
ATOM     56  C   UNL A   1      41.616  30.457  35.614  1.00  0.00     0.031 C 
ATOM     57  C   UNL A   1      44.284  26.749  31.613  1.00  0.00     0.029 A 
ATOM     58  C   UNL A   1      43.406  27.639  32.208  1.00  0.00     0.049 A 
ATOM     59  H   UNL A   1      41.645  28.496  31.419  1.00  0.00     0.167 HD
ATOM     60  C   UNL A   1      42.567  29.087  34.039  1.00  0.00     0.074 A 
ATOM     61  C   UNL A   1      42.642  29.655  35.369  1.00  0.00     0.031 C 
ATOM     62  C   UNL A   1      43.471  28.212  33.532  1.00  0.00     0.034 A 
BRANCH  49  63
ATOM     63  C   UNL A   1      42.195  26.337  27.758  1.00  0.00     0.023 A 
ATOM     64  C   UNL A   1      41.697  25.028  27.644  1.00  0.00     0.031 A 
ATOM     65  C   UNL A   1      43.073  26.796  26.759  1.00  0.00     0.131 A 
ATOM     66  C   UNL A   1      42.143  24.197  26.606  1.00  0.00     0.055 A 
ATOM     67  C   UNL A   1      43.447  25.991  25.681  1.00  0.00     0.041 A 
ATOM     68  F   UNL A   1      43.595  28.031  26.823  1.00  0.00    -0.206 F 
ATOM     69  C   UNL A   1      42.994  24.678  25.609  1.00  0.00     0.022 A 
BRANCH  66  70
ATOM     70  S   UNL A   1      41.710  22.437  26.663  1.00  0.00     0.124 S 
ATOM     71  O   UNL A   1      42.269  21.956  25.402  1.00  0.00    -0.237 OA
ATOM     72  O   UNL A   1      42.384  21.985  27.875  1.00  0.00    -0.237 OA
ATOM     73  O   UNL A   1      40.250  22.445  26.726  1.00  0.00    -0.744 OA
ENDBRANCH  66  70
ENDBRANCH  49  63
BRANCH  50  74
ATOM     74  C   UNL A   1      39.192  32.087  35.382  1.00  0.00     0.023 A 
ATOM     75  C   UNL A   1      39.653  33.394  35.602  1.00  0.00     0.031 A 
ATOM     76  C   UNL A   1      38.297  31.535  36.316  1.00  0.00     0.131 A 
ATOM     77  C   UNL A   1      39.253  34.092  36.752  1.00  0.00     0.055 A 
ATOM     78  C   UNL A   1      37.863  32.251  37.432  1.00  0.00     0.041 A 
ATOM     79  F   UNL A   1      37.822  30.291  36.149  1.00  0.00    -0.206 F 
ATOM     80  C   UNL A   1      38.352  33.535  37.663  1.00  0.00     0.022 A 
BRANCH  77  81
ATOM     81  S   UNL A   1      39.991  35.715  37.084  1.00  0.00     0.124 S 
ATOM     82  O   UNL A   1      39.654  36.447  35.869  1.00  0.00    -0.237 OA
ATOM     83  O   UNL A   1      39.289  36.124  38.297  1.00  0.00    -0.237 OA
ATOM     84  O   UNL A   1      41.410  35.413  37.260  1.00  0.00    -0.744 OA
ENDBRANCH  77  81
ENDBRANCH  50  74
BRANCH  62  85
ATOM     85  C   UNL A   1      44.657  27.867  34.395  1.00  0.00     0.023 A 
ATOM     86  C   UNL A   1      44.647  26.768  35.272  1.00  0.00     0.031 A 
ATOM     87  C   UNL A   1      45.824  28.651  34.327  1.00  0.00     0.131 A 
ATOM     88  C   UNL A   1      45.769  26.505  36.073  1.00  0.00     0.055 A 
ATOM     89  C   UNL A   1      46.954  28.354  35.090  1.00  0.00     0.041 A 
ATOM     90  F   UNL A   1      45.886  29.712  33.507  1.00  0.00    -0.206 F 
ATOM     91  C   UNL A   1      46.927  27.281  35.975  1.00  0.00     0.022 A 
BRANCH  88  92
ATOM     92  S   UNL A   1      45.677  25.164  37.291  1.00  0.00     0.124 S 
ATOM     93  O   UNL A   1      44.252  25.139  37.609  1.00  0.00    -0.237 OA
ATOM     94  O   UNL A   1      46.183  24.021  36.538  1.00  0.00    -0.237 OA
ATOM     95  O   UNL A   1      46.546  25.624  38.374  1.00  0.00    -0.744 OA
ENDBRANCH  88  92
ENDBRANCH  62  85
ENDBRANCH  36  37
ENDBRANCH  28  31
ENDBRANCH  26  27
ENDBRANCH   1  26
TORSDOF 16
ENDMDL
MODEL 2
REMARK VINA RESULT:     -12.6      5.183     10.211
REMARK SMILES Cc1cc([C@H](C)NC(=O)N2CC[C@H](C(=O)NCCCNC(=O)c3ccc(-c4c5nc(c(-c6cc(S(=O)(=O)[O-])ccc6F)c6ccc([nH]6)c(-c6cc(S(=O)(=O)[O-])ccc6F)c6nc(c(-c7cc(S(=O)(=O)[O-])ccc7F)c7ccc4[nH]7)C=C6)C=C5)cc3)[C@@H]2C)c(C)s1
REMARK SMILES IDX 18 1 17 2 16 3 14 4 15 5 13 7 10 8 11 9 86 10 12 11 87 12
REMARK SMILES IDX 8 13 7 14 9 16 5 17 6 18 4 19 1 20 2 21 3 22 90 23 88 24
REMARK SMILES IDX 89 25 19 26 20 27 21 28 22 30 23 31 24 32 85 33 25 34 84 35
REMARK SMILES IDX 26 36 27 37 28 38 78 39 29 40 83 41 77 42 79 43 30 44 82 45
REMARK SMILES IDX 76 46 75 47 31 49 63 50 43 51 62 52 44 53 47 54 61 55 80 56
REMARK SMILES IDX 45 57 46 58 60 60 81 61 48 62 32 63 33 64 41 65 34 66 40 67
REMARK SMILES IDX 42 68 39 69 35 70 36 71 37 72 38 73 64 74 65 75 73 76 66 77
REMARK SMILES IDX 72 78 74 79 71 80 67 81 68 82 69 83 70 84 49 85 50 86 58 87
REMARK SMILES IDX 51 88 57 89 59 90 56 91 52 92 53 93 54 94 55 95
REMARK H PARENT 16 6 7 15 20 29 79 48 47 59
REMARK Flexibility Score: inf
ROOT
ATOM      1  C   UNL A   1      35.662  21.515  24.750  1.00  0.00     0.042 C 
ENDROOT
BRANCH   1   2
ATOM      2  C   UNL A   1      34.402  21.081  25.490  1.00  0.00     0.117 C 
BRANCH   2   3
ATOM      3  N   UNL A   1      33.596  22.182  25.990  1.00  0.00    -0.356 N 
ATOM      4  C   UNL A   1      32.613  22.904  25.379  1.00  0.00     0.225 C 
ATOM      5  O   UNL A   1      31.832  23.531  26.096  1.00  0.00    -0.275 OA
ATOM      6  H   UNL A   1      33.790  22.449  26.917  1.00  0.00     0.163 HD
BRANCH   4   7
ATOM      7  C   UNL A   1      32.518  22.947  23.863  1.00  0.00     0.102 C 
ATOM      8  N   UNL A   1      32.261  24.855  22.432  1.00  0.00    -0.321 N 
ATOM      9  C   UNL A   1      30.949  24.557  22.967  1.00  0.00     0.122 C 
ATOM     10  C   UNL A   1      33.274  24.129  23.204  1.00  0.00     0.096 C 
ATOM     11  C   UNL A   1      31.060  23.110  23.406  1.00  0.00     0.037 C 
ATOM     12  C   UNL A   1      34.009  25.071  24.160  1.00  0.00     0.032 C 
BRANCH   8  13
ATOM     13  C   UNL A   1      32.446  25.943  21.627  1.00  0.00     0.318 C 
ATOM     14  N   UNL A   1      31.619  27.014  21.742  1.00  0.00    -0.331 N 
ATOM     15  H   UNL A   1      31.209  27.354  20.914  1.00  0.00     0.165 HD
ATOM     16  O   UNL A   1      33.340  25.991  20.781  1.00  0.00    -0.249 OA
BRANCH  14  17
ATOM     17  C   UNL A   1      31.281  27.706  22.979  1.00  0.00     0.112 C 
ATOM     18  C   UNL A   1      32.477  28.548  23.446  1.00  0.00     0.036 C 
BRANCH  17  19
ATOM     19  C   UNL A   1      30.016  28.518  22.744  1.00  0.00    -0.012 A 
ATOM     20  C   UNL A   1      28.290  31.696  21.541  1.00  0.00     0.056 C 
ATOM     21  C   UNL A   1      28.714  30.365  22.059  1.00  0.00     0.002 A 
ATOM     22  C   UNL A   1      29.972  29.804  22.088  1.00  0.00     0.021 A 
ATOM     23  S   UNL A   1      27.554  29.325  22.737  1.00  0.00    -0.146 S 
ATOM     24  C   UNL A   1      28.734  28.157  23.152  1.00  0.00     0.007 A 
ATOM     25  C   UNL A   1      28.257  26.939  23.871  1.00  0.00     0.057 C 
ENDBRANCH  17  19
ENDBRANCH  14  17
ENDBRANCH   8  13
ENDBRANCH   4   7
ENDBRANCH   2   3
ENDBRANCH   1   2
BRANCH   1  26
ATOM     26  C   UNL A   1      36.834  21.947  25.633  1.00  0.00     0.118 C 
BRANCH  26  27
ATOM     27  N   UNL A   1      37.916  20.974  25.698  1.00  0.00    -0.352 N 
ATOM     28  C   UNL A   1      39.218  21.109  26.120  1.00  0.00     0.251 C 
ATOM     29  H   UNL A   1      37.674  20.071  25.388  1.00  0.00     0.163 HD
ATOM     30  O   UNL A   1      39.982  20.153  25.998  1.00  0.00    -0.269 OA
BRANCH  28  31
ATOM     31  C   UNL A   1      39.718  22.390  26.672  1.00  0.00     0.039 A 
ATOM     32  C   UNL A   1      40.643  22.353  27.722  1.00  0.00     0.014 A 
ATOM     33  C   UNL A   1      39.281  23.621  26.180  1.00  0.00     0.014 A 
ATOM     34  C   UNL A   1      41.197  23.540  28.210  1.00  0.00     0.010 A 
ATOM     35  C   UNL A   1      39.883  24.799  26.621  1.00  0.00     0.010 A 
ATOM     36  C   UNL A   1      40.859  24.772  27.631  1.00  0.00    -0.014 A 
BRANCH  36  37
ATOM     37  C   UNL A   1      41.516  26.044  28.041  1.00  0.00     0.031 A 
ATOM     38  C   UNL A   1      40.715  27.119  28.723  1.00  0.00     0.074 A 
ATOM     39  C   UNL A   1      42.803  26.273  27.711  1.00  0.00     0.049 A 
ATOM     40  N   UNL A   1      41.044  28.356  28.993  1.00  0.00    -0.248 NA
ATOM     41  C   UNL A   1      39.348  26.756  29.127  1.00  0.00     0.031 C 
ATOM     42  C   UNL A   1      43.686  25.321  27.033  1.00  0.00     0.029 A 
ATOM     43  N   UNL A   1      43.587  27.389  27.877  1.00  0.00    -0.354 N 
ATOM     44  C   UNL A   1      39.918  28.930  29.574  1.00  0.00     0.074 A 
ATOM     45  C   UNL A   1      38.885  27.913  29.575  1.00  0.00     0.031 C 
ATOM     46  C   UNL A   1      44.887  25.891  26.846  1.00  0.00     0.029 A 
ATOM     47  C   UNL A   1      44.847  27.264  27.336  1.00  0.00     0.049 A 
ATOM     48  H   UNL A   1      43.277  28.201  28.338  1.00  0.00     0.167 HD
ATOM     49  C   UNL A   1      39.765  30.183  30.073  1.00  0.00     0.034 A 
ATOM     50  C   UNL A   1      45.847  28.162  27.220  1.00  0.00     0.034 A 
ATOM     51  C   UNL A   1      40.810  31.178  30.083  1.00  0.00     0.049 A 
ATOM     52  C   UNL A   1      45.645  29.560  27.751  1.00  0.00     0.074 A 
ATOM     53  C   UNL A   1      40.775  32.460  30.607  1.00  0.00     0.029 A 
ATOM     54  N   UNL A   1      42.077  31.008  29.540  1.00  0.00    -0.354 N 
ATOM     55  N   UNL A   1      44.582  30.081  28.317  1.00  0.00    -0.248 NA
ATOM     56  C   UNL A   1      46.779  30.486  27.632  1.00  0.00     0.031 C 
ATOM     57  C   UNL A   1      41.997  33.083  30.328  1.00  0.00     0.029 A 
ATOM     58  C   UNL A   1      42.821  32.168  29.693  1.00  0.00     0.049 A 
ATOM     59  H   UNL A   1      42.400  30.184  29.107  1.00  0.00     0.167 HD
ATOM     60  C   UNL A   1      44.933  31.385  28.654  1.00  0.00     0.074 A 
ATOM     61  C   UNL A   1      46.305  31.570  28.229  1.00  0.00     0.031 C 
ATOM     62  C   UNL A   1      44.190  32.341  29.267  1.00  0.00     0.034 A 
BRANCH  49  63
ATOM     63  C   UNL A   1      38.406  30.550  30.618  1.00  0.00     0.023 A 
ATOM     64  C   UNL A   1      37.460  31.240  29.840  1.00  0.00     0.031 A 
ATOM     65  C   UNL A   1      38.061  30.232  31.944  1.00  0.00     0.131 A 
ATOM     66  C   UNL A   1      36.253  31.660  30.416  1.00  0.00     0.055 A 
ATOM     67  C   UNL A   1      36.822  30.580  32.486  1.00  0.00     0.041 A 
ATOM     68  F   UNL A   1      38.930  29.591  32.741  1.00  0.00    -0.206 F 
ATOM     69  C   UNL A   1      35.916  31.313  31.727  1.00  0.00     0.022 A 
BRANCH  66  70
ATOM     70  S   UNL A   1      35.196  32.794  29.475  1.00  0.00     0.124 S 
ATOM     71  O   UNL A   1      36.150  33.366  28.527  1.00  0.00    -0.237 OA
ATOM     72  O   UNL A   1      34.194  31.897  28.911  1.00  0.00    -0.237 OA
ATOM     73  O   UNL A   1      34.703  33.724  30.489  1.00  0.00    -0.744 OA
ENDBRANCH  66  70
ENDBRANCH  49  63
BRANCH  50  74
ATOM     74  C   UNL A   1      47.124  27.785  26.549  1.00  0.00     0.023 A 
ATOM     75  C   UNL A   1      47.264  27.889  25.156  1.00  0.00     0.031 A 
ATOM     76  C   UNL A   1      48.208  27.278  27.286  1.00  0.00     0.131 A 
ATOM     77  C   UNL A   1      48.444  27.449  24.538  1.00  0.00     0.055 A 
ATOM     78  C   UNL A   1      49.399  26.888  26.671  1.00  0.00     0.041 A 
ATOM     79  F   UNL A   1      48.129  27.164  28.621  1.00  0.00    -0.206 F 
ATOM     80  C   UNL A   1      49.518  26.961  25.286  1.00  0.00     0.022 A 
BRANCH  77  81
ATOM     81  S   UNL A   1      48.528  27.452  22.726  1.00  0.00     0.124 S 
ATOM     82  O   UNL A   1      48.501  26.025  22.426  1.00  0.00    -0.237 OA
ATOM     83  O   UNL A   1      47.330  28.206  22.369  1.00  0.00    -0.237 OA
ATOM     84  O   UNL A   1      49.792  28.127  22.445  1.00  0.00    -0.744 OA
ENDBRANCH  77  81
ENDBRANCH  50  74
BRANCH  62  85
ATOM     85  C   UNL A   1      44.869  33.650  29.577  1.00  0.00     0.023 A 
ATOM     86  C   UNL A   1      44.730  34.776  28.747  1.00  0.00     0.031 A 
ATOM     87  C   UNL A   1      45.660  33.771  30.735  1.00  0.00     0.131 A 
ATOM     88  C   UNL A   1      45.405  35.965  29.068  1.00  0.00     0.055 A 
ATOM     89  C   UNL A   1      46.287  34.970  31.074  1.00  0.00     0.041 A 
ATOM     90  F   UNL A   1      45.825  32.726  31.560  1.00  0.00    -0.206 F 
ATOM     91  C   UNL A   1      46.168  36.073  30.234  1.00  0.00     0.022 A 
BRANCH  88  92
ATOM     92  S   UNL A   1      45.317  37.358  27.910  1.00  0.00     0.124 S 
ATOM     93  O   UNL A   1      44.435  36.835  26.871  1.00  0.00    -0.237 OA
ATOM     94  O   UNL A   1      44.763  38.422  28.740  1.00  0.00    -0.237 OA
ATOM     95  O   UNL A   1      46.708  37.554  27.501  1.00  0.00    -0.744 OA
ENDBRANCH  88  92
ENDBRANCH  62  85
ENDBRANCH  36  37
ENDBRANCH  28  31
ENDBRANCH  26  27
ENDBRANCH   1  26
TORSDOF 16
ENDMDL
MODEL 3
REMARK VINA RESULT:     -12.6      5.074      8.004
REMARK SMILES Cc1cc([C@H](C)NC(=O)N2CC[C@H](C(=O)NCCCNC(=O)c3ccc(-c4c5nc(c(-c6cc(S(=O)(=O)[O-])ccc6F)c6ccc([nH]6)c(-c6cc(S(=O)(=O)[O-])ccc6F)c6nc(c(-c7cc(S(=O)(=O)[O-])ccc7F)c7ccc4[nH]7)C=C6)C=C5)cc3)[C@@H]2C)c(C)s1
REMARK SMILES IDX 18 1 17 2 16 3 14 4 15 5 13 7 10 8 11 9 86 10 12 11 87 12
REMARK SMILES IDX 8 13 7 14 9 16 5 17 6 18 4 19 1 20 2 21 3 22 90 23 88 24
REMARK SMILES IDX 89 25 19 26 20 27 21 28 22 30 23 31 24 32 85 33 25 34 84 35
REMARK SMILES IDX 26 36 27 37 28 38 78 39 29 40 83 41 77 42 79 43 30 44 82 45
REMARK SMILES IDX 76 46 75 47 31 49 63 50 43 51 62 52 44 53 47 54 61 55 80 56
REMARK SMILES IDX 45 57 46 58 60 60 81 61 48 62 32 63 33 64 41 65 34 66 40 67
REMARK SMILES IDX 42 68 39 69 35 70 36 71 37 72 38 73 64 74 65 75 73 76 66 77
REMARK SMILES IDX 72 78 74 79 71 80 67 81 68 82 69 83 70 84 49 85 50 86 58 87
REMARK SMILES IDX 51 88 57 89 59 90 56 91 52 92 53 93 54 94 55 95
REMARK H PARENT 16 6 7 15 20 29 79 48 47 59
REMARK Flexibility Score: inf
ROOT
ATOM      1  C   UNL A   1      36.162  21.491  24.533  1.00  0.00     0.042 C 
ENDROOT
BRANCH   1   2
ATOM      2  C   UNL A   1      34.883  21.151  25.290  1.00  0.00     0.117 C 
BRANCH   2   3
ATOM      3  N   UNL A   1      34.169  22.309  25.801  1.00  0.00    -0.356 N 
ATOM      4  C   UNL A   1      33.110  22.994  25.280  1.00  0.00     0.225 C 
ATOM      5  O   UNL A   1      32.450  23.699  26.045  1.00  0.00    -0.275 OA
ATOM      6  H   UNL A   1      34.502  22.655  26.661  1.00  0.00     0.163 HD
BRANCH   4   7
ATOM      7  C   UNL A   1      32.789  22.903  23.798  1.00  0.00     0.102 C 
ATOM      8  N   UNL A   1      32.319  24.679  22.255  1.00  0.00    -0.321 N 
ATOM      9  C   UNL A   1      31.103  24.447  23.004  1.00  0.00     0.122 C 
ATOM     10  C   UNL A   1      33.437  24.012  22.929  1.00  0.00     0.096 C 
ATOM     11  C   UNL A   1      31.279  23.043  23.551  1.00  0.00     0.037 C 
ATOM     12  C   UNL A   1      34.307  25.025  23.675  1.00  0.00     0.032 C 
BRANCH   8  13
ATOM     13  C   UNL A   1      32.382  25.689  21.337  1.00  0.00     0.318 C 
ATOM     14  N   UNL A   1      31.600  26.788  21.492  1.00  0.00    -0.331 N 
ATOM     15  H   UNL A   1      31.061  27.068  20.717  1.00  0.00     0.165 HD
ATOM     16  O   UNL A   1      33.121  25.639  20.353  1.00  0.00    -0.249 OA
BRANCH  14  17
ATOM     17  C   UNL A   1      31.485  27.593  22.701  1.00  0.00     0.112 C 
ATOM     18  C   UNL A   1      32.766  28.416  22.901  1.00  0.00     0.036 C 
BRANCH  17  19
ATOM     19  C   UNL A   1      30.225  28.440  22.595  1.00  0.00    -0.012 A 
ATOM     20  C   UNL A   1      28.487  31.694  21.638  1.00  0.00     0.056 C 
ATOM     21  C   UNL A   1      28.918  30.338  22.078  1.00  0.00     0.002 A 
ATOM     22  C   UNL A   1      30.160  29.748  21.986  1.00  0.00     0.021 A 
ATOM     23  S   UNL A   1      27.791  29.301  22.812  1.00  0.00    -0.146 S 
ATOM     24  C   UNL A   1      28.972  28.093  23.094  1.00  0.00     0.007 A 
ATOM     25  C   UNL A   1      28.523  26.863  23.809  1.00  0.00     0.057 C 
ENDBRANCH  17  19
ENDBRANCH  14  17
ENDBRANCH   8  13
ENDBRANCH   4   7
ENDBRANCH   2   3
ENDBRANCH   1   2
BRANCH   1  26
ATOM     26  C   UNL A   1      37.252  22.185  25.352  1.00  0.00     0.118 C 
BRANCH  26  27
ATOM     27  N   UNL A   1      38.336  21.302  25.760  1.00  0.00    -0.352 N 
ATOM     28  C   UNL A   1      39.530  21.579  26.385  1.00  0.00     0.251 C 
ATOM     29  H   UNL A   1      38.190  20.350  25.555  1.00  0.00     0.163 HD
ATOM     30  O   UNL A   1      40.337  20.666  26.553  1.00  0.00    -0.269 OA
BRANCH  28  31
ATOM     31  C   UNL A   1      39.871  22.955  26.815  1.00  0.00     0.039 A 
ATOM     32  C   UNL A   1      40.763  23.125  27.880  1.00  0.00     0.014 A 
ATOM     33  C   UNL A   1      39.317  24.076  26.193  1.00  0.00     0.014 A 
ATOM     34  C   UNL A   1      41.171  24.409  28.257  1.00  0.00     0.010 A 
ATOM     35  C   UNL A   1      39.774  25.351  26.525  1.00  0.00     0.010 A 
ATOM     36  C   UNL A   1      40.717  25.533  27.549  1.00  0.00    -0.014 A 
BRANCH  36  37
ATOM     37  C   UNL A   1      41.219  26.904  27.842  1.00  0.00     0.031 A 
ATOM     38  C   UNL A   1      42.648  27.262  27.541  1.00  0.00     0.074 A 
ATOM     39  C   UNL A   1      40.421  27.791  28.470  1.00  0.00     0.049 A 
ATOM     40  N   UNL A   1      43.328  28.326  27.884  1.00  0.00    -0.248 NA
ATOM     41  C   UNL A   1      43.422  26.272  26.777  1.00  0.00     0.031 C 
ATOM     42  C   UNL A   1      39.022  27.563  28.834  1.00  0.00     0.029 A 
ATOM     43  N   UNL A   1      40.681  29.057  28.938  1.00  0.00    -0.354 N 
ATOM     44  C   UNL A   1      44.617  28.125  27.402  1.00  0.00     0.074 A 
ATOM     45  C   UNL A   1      44.630  26.815  26.781  1.00  0.00     0.031 C 
ATOM     46  C   UNL A   1      38.547  28.651  29.462  1.00  0.00     0.029 A 
ATOM     47  C   UNL A   1      39.619  29.631  29.598  1.00  0.00     0.049 A 
ATOM     48  H   UNL A   1      41.546  29.510  28.813  1.00  0.00     0.167 HD
ATOM     49  C   UNL A   1      45.685  28.960  27.458  1.00  0.00     0.034 A 
ATOM     50  C   UNL A   1      39.525  30.800  30.264  1.00  0.00     0.034 A 
ATOM     51  C   UNL A   1      45.651  30.270  28.062  1.00  0.00     0.049 A 
ATOM     52  C   UNL A   1      40.733  31.699  30.344  1.00  0.00     0.074 A 
ATOM     53  C   UNL A   1      46.661  31.215  28.130  1.00  0.00     0.029 A 
ATOM     54  N   UNL A   1      44.552  30.822  28.707  1.00  0.00    -0.354 N 
ATOM     55  N   UNL A   1      41.939  31.504  29.865  1.00  0.00    -0.248 NA
ATOM     56  C   UNL A   1      40.566  32.977  31.050  1.00  0.00     0.031 C 
ATOM     57  C   UNL A   1      46.193  32.309  28.866  1.00  0.00     0.029 A 
ATOM     58  C   UNL A   1      44.867  32.080  29.197  1.00  0.00     0.049 A 
ATOM     59  H   UNL A   1      43.675  30.383  28.803  1.00  0.00     0.167 HD
ATOM     60  C   UNL A   1      42.663  32.651  30.180  1.00  0.00     0.074 A 
ATOM     61  C   UNL A   1      41.759  33.532  30.889  1.00  0.00     0.031 C 
ATOM     62  C   UNL A   1      43.956  32.951  29.901  1.00  0.00     0.034 A 
BRANCH  49  63
ATOM     63  C   UNL A   1      46.986  28.461  26.878  1.00  0.00     0.023 A 
ATOM     64  C   UNL A   1      47.194  28.382  25.490  1.00  0.00     0.031 A 
ATOM     65  C   UNL A   1      48.025  28.031  27.723  1.00  0.00     0.131 A 
ATOM     66  C   UNL A   1      48.372  27.810  24.990  1.00  0.00     0.055 A 
ATOM     67  C   UNL A   1      49.230  27.541  27.219  1.00  0.00     0.041 A 
ATOM     68  F   UNL A   1      47.878  28.065  29.057  1.00  0.00    -0.206 F 
ATOM     69  C   UNL A   1      49.404  27.412  25.844  1.00  0.00     0.022 A 
BRANCH  66  70
ATOM     70  S   UNL A   1      48.475  27.458  23.214  1.00  0.00     0.124 S 
ATOM     71  O   UNL A   1      47.309  28.175  22.705  1.00  0.00    -0.237 OA
ATOM     72  O   UNL A   1      49.774  28.015  22.856  1.00  0.00    -0.237 OA
ATOM     73  O   UNL A   1      48.380  26.001  23.148  1.00  0.00    -0.744 OA
ENDBRANCH  66  70
ENDBRANCH  49  63
BRANCH  50  74
ATOM     74  C   UNL A   1      38.251  31.184  30.937  1.00  0.00     0.023 A 
ATOM     75  C   UNL A   1      37.228  31.834  30.228  1.00  0.00     0.031 A 
ATOM     76  C   UNL A   1      38.054  30.942  32.308  1.00  0.00     0.131 A 
ATOM     77  C   UNL A   1      36.073  32.260  30.901  1.00  0.00     0.055 A 
ATOM     78  C   UNL A   1      36.882  31.323  32.963  1.00  0.00     0.041 A 
ATOM     79  F   UNL A   1      38.997  30.318  33.031  1.00  0.00    -0.206 F 
ATOM     80  C   UNL A   1      35.887  31.999  32.261  1.00  0.00     0.022 A 
BRANCH  77  81
ATOM     81  S   UNL A   1      34.847  33.235  29.988  1.00  0.00     0.124 S 
ATOM     82  O   UNL A   1      34.002  33.735  31.067  1.00  0.00    -0.237 OA
ATOM     83  O   UNL A   1      35.685  34.224  29.318  1.00  0.00    -0.237 OA
ATOM     84  O   UNL A   1      34.220  32.253  29.107  1.00  0.00    -0.744 OA
ENDBRANCH  77  81
ENDBRANCH  50  74
BRANCH  62  85
ATOM     85  C   UNL A   1      44.450  34.317  30.302  1.00  0.00     0.023 A 
ATOM     86  C   UNL A   1      44.280  35.443  29.478  1.00  0.00     0.031 A 
ATOM     87  C   UNL A   1      45.091  34.492  31.542  1.00  0.00     0.131 A 
ATOM     88  C   UNL A   1      44.781  36.689  29.888  1.00  0.00     0.055 A 
ATOM     89  C   UNL A   1      45.543  35.743  31.966  1.00  0.00     0.041 A 
ATOM     90  F   UNL A   1      45.280  33.450  32.366  1.00  0.00    -0.206 F 
ATOM     91  C   UNL A   1      45.396  36.848  31.133  1.00  0.00     0.022 A 
BRANCH  88  92
ATOM     92  S   UNL A   1      44.668  38.094  28.747  1.00  0.00     0.124 S 
ATOM     93  O   UNL A   1      46.051  38.557  28.698  1.00  0.00    -0.237 OA
ATOM     94  O   UNL A   1      44.161  37.470  27.529  1.00  0.00    -0.237 OA
ATOM     95  O   UNL A   1      43.733  39.002  29.411  1.00  0.00    -0.744 OA
ENDBRANCH  88  92
ENDBRANCH  62  85
ENDBRANCH  36  37
ENDBRANCH  28  31
ENDBRANCH  26  27
ENDBRANCH   1  26
TORSDOF 16
ENDMDL
