MODEL 1
REMARK VINA RESULT:     -11.5      0.000      0.000
REMARK SMILES CC[N@H+](CC(C)(C)C(=O)NCCCNC(=O)c1ccc(-c2c3nc(c(-c4cc(S(=O)(=O)[O-])ccc4F)c4ccc([nH]4)c(-c4cc(S(=O)(=O)[O-])ccc4F)c4nc(c(-c5cc(S(=O)(=O)[O-])ccc5F)c5ccc2[nH]5)C=C4)C=C3)cc1)[C@H]1CCC[NH2+]C1
REMARK SMILES IDX 12 1 11 2 10 3 8 4 9 5 5 7 6 8 7 9 4 10 3 11 2 13 1 14 80 15
REMARK SMILES IDX 81 16 85 17 82 18 84 19 83 20 13 23 14 24 15 25 16 27 17 28
REMARK SMILES IDX 18 29 79 30 19 31 78 32 20 33 21 34 22 35 72 36 23 37 77 38
REMARK SMILES IDX 71 39 73 40 24 41 76 42 70 43 69 44 25 46 57 47 37 48 56 49
REMARK SMILES IDX 38 50 41 51 55 52 74 53 39 54 40 55 54 57 75 58 42 59 26 60
REMARK SMILES IDX 27 61 35 62 28 63 34 64 36 65 33 66 29 67 30 68 31 69 32 70
REMARK SMILES IDX 58 71 59 72 67 73 60 74 66 75 68 76 65 77 61 78 62 79 63 80
REMARK SMILES IDX 64 81 43 82 44 83 52 84 45 85 51 86 53 87 50 88 46 89 47 90
REMARK SMILES IDX 48 91 49 92
REMARK H PARENT 10 6 3 12 84 21 84 22 14 26 73 45 41 56
REMARK Flexibility Score: inf
ROOT
ATOM      1  C   UNL A   1      31.573  31.840  26.551  1.00  0.00     0.042 C 
ENDROOT
BRANCH   1   2
ATOM      2  C   UNL A   1      31.781  30.436  25.992  1.00  0.00     0.117 C 
BRANCH   2   3
ATOM      3  N   UNL A   1      31.810  29.457  27.059  1.00  0.00    -0.355 N 
ATOM      4  C   UNL A   1      31.802  28.102  27.048  1.00  0.00     0.231 C 
ATOM      5  O   UNL A   1      31.362  27.573  28.075  1.00  0.00    -0.274 OA
ATOM      6  H   UNL A   1      31.840  29.848  27.962  1.00  0.00     0.163 HD
BRANCH   4   7
ATOM      7  C   UNL A   1      32.280  27.270  25.846  1.00  0.00     0.092 C 
ATOM      8  C   UNL A   1      32.853  25.887  26.209  1.00  0.00     0.027 C 
ATOM      9  C   UNL A   1      33.349  28.096  25.100  1.00  0.00     0.027 C 
BRANCH   7  10
ATOM     10  C   UNL A   1      31.071  27.068  24.854  1.00  0.00     0.279 C 
BRANCH  10  11
ATOM     11  N   UNL A   1      31.325  26.991  23.390  1.00  0.00    -0.327 N 
ATOM     12  H   UNL A   1      32.296  27.274  23.261  1.00  0.00     0.348 HD
BRANCH  11  13
ATOM     13  C   UNL A   1      31.234  25.613  22.867  1.00  0.00     0.259 C 
ATOM     14  C   UNL A   1      30.403  24.658  23.721  1.00  0.00     0.071 C 
ENDBRANCH  11  13
BRANCH  11  15
ATOM     15  C   UNL A   1      30.518  27.978  22.596  1.00  0.00     0.239 C 
ATOM     16  C   UNL A   1      29.102  28.274  23.148  1.00  0.00     0.077 C 
ATOM     17  C   UNL A   1      31.230  29.344  22.319  1.00  0.00     0.326 C 
ATOM     18  C   UNL A   1      28.359  29.272  22.260  1.00  0.00     0.068 C 
ATOM     19  N   UNL A   1      30.457  30.269  21.477  1.00  0.00    -0.341 N 
ATOM     20  C   UNL A   1      29.157  30.555  22.083  1.00  0.00     0.260 C 
ATOM     21  H   UNL A   1      30.976  31.142  21.375  1.00  0.00     0.346 HD
ATOM     22  H   UNL A   1      30.307  29.838  20.566  1.00  0.00     0.346 HD
ENDBRANCH  11  15
ENDBRANCH  10  11
ENDBRANCH   7  10
ENDBRANCH   4   7
ENDBRANCH   2   3
ENDBRANCH   1   2
BRANCH   1  23
ATOM     23  C   UNL A   1      32.786  32.401  27.285  1.00  0.00     0.118 C 
BRANCH  23  24
ATOM     24  N   UNL A   1      32.652  33.820  27.580  1.00  0.00    -0.352 N 
ATOM     25  C   UNL A   1      33.258  34.580  28.549  1.00  0.00     0.251 C 
ATOM     26  H   UNL A   1      32.030  34.310  26.995  1.00  0.00     0.163 HD
ATOM     27  O   UNL A   1      32.836  35.710  28.777  1.00  0.00    -0.269 OA
BRANCH  25  28
ATOM     28  C   UNL A   1      34.392  34.032  29.326  1.00  0.00     0.039 A 
ATOM     29  C   UNL A   1      34.125  33.131  30.358  1.00  0.00     0.014 A 
ATOM     30  C   UNL A   1      35.708  34.416  29.053  1.00  0.00     0.014 A 
ATOM     31  C   UNL A   1      35.183  32.569  31.075  1.00  0.00     0.010 A 
ATOM     32  C   UNL A   1      36.764  33.789  29.708  1.00  0.00     0.010 A 
ATOM     33  C   UNL A   1      36.513  32.866  30.732  1.00  0.00    -0.014 A 
BRANCH  33  34
ATOM     34  C   UNL A   1      37.643  32.210  31.439  1.00  0.00     0.031 A 
ATOM     35  C   UNL A   1      38.407  31.093  30.783  1.00  0.00     0.074 A 
ATOM     36  C   UNL A   1      37.938  32.585  32.699  1.00  0.00     0.049 A 
ATOM     37  N   UNL A   1      39.415  30.396  31.244  1.00  0.00    -0.248 NA
ATOM     38  C   UNL A   1      37.955  30.679  29.447  1.00  0.00     0.031 C 
ATOM     39  C   UNL A   1      37.210  33.596  33.471  1.00  0.00     0.029 A 
ATOM     40  N   UNL A   1      38.919  32.157  33.556  1.00  0.00    -0.354 N 
ATOM     41  C   UNL A   1      39.706  29.452  30.264  1.00  0.00     0.074 A 
ATOM     42  C   UNL A   1      38.722  29.625  29.216  1.00  0.00     0.031 C 
ATOM     43  C   UNL A   1      37.785  33.728  34.675  1.00  0.00     0.029 A 
ATOM     44  C   UNL A   1      38.899  32.792  34.777  1.00  0.00     0.049 A 
ATOM     45  H   UNL A   1      39.574  31.462  33.321  1.00  0.00     0.167 HD
ATOM     46  C   UNL A   1      40.714  28.544  30.230  1.00  0.00     0.034 A 
ATOM     47  C   UNL A   1      39.689  32.637  35.857  1.00  0.00     0.034 A 
ATOM     48  C   UNL A   1      41.692  28.399  31.284  1.00  0.00     0.049 A 
ATOM     49  C   UNL A   1      40.826  31.653  35.786  1.00  0.00     0.074 A 
ATOM     50  C   UNL A   1      42.806  27.580  31.321  1.00  0.00     0.029 A 
ATOM     51  N   UNL A   1      41.664  29.082  32.494  1.00  0.00    -0.354 N 
ATOM     52  N   UNL A   1      41.150  30.834  34.811  1.00  0.00    -0.248 NA
ATOM     53  C   UNL A   1      41.717  31.593  36.949  1.00  0.00     0.031 C 
ATOM     54  C   UNL A   1      43.410  27.714  32.578  1.00  0.00     0.029 A 
ATOM     55  C   UNL A   1      42.719  28.675  33.300  1.00  0.00     0.049 A 
ATOM     56  H   UNL A   1      40.993  29.757  32.745  1.00  0.00     0.167 HD
ATOM     57  C   UNL A   1      42.292  30.166  35.242  1.00  0.00     0.074 A 
ATOM     58  C   UNL A   1      42.616  30.707  36.548  1.00  0.00     0.031 C 
ATOM     59  C   UNL A   1      43.008  29.194  34.618  1.00  0.00     0.034 A 
BRANCH  46  60
ATOM     60  C   UNL A   1      40.780  27.626  29.030  1.00  0.00     0.023 A 
ATOM     61  C   UNL A   1      41.731  27.806  28.008  1.00  0.00     0.031 A 
ATOM     62  C   UNL A   1      39.849  26.583  28.879  1.00  0.00     0.131 A 
ATOM     63  C   UNL A   1      41.670  27.025  26.845  1.00  0.00     0.055 A 
ATOM     64  C   UNL A   1      39.850  25.750  27.757  1.00  0.00     0.041 A 
ATOM     65  F   UNL A   1      38.904  26.369  29.807  1.00  0.00    -0.206 F 
ATOM     66  C   UNL A   1      40.751  25.981  26.722  1.00  0.00     0.022 A 
BRANCH  63  67
ATOM     67  S   UNL A   1      42.693  27.506  25.425  1.00  0.00     0.124 S 
ATOM     68  O   UNL A   1      42.698  26.277  24.634  1.00  0.00    -0.237 OA
ATOM     69  O   UNL A   1      41.946  28.625  24.863  1.00  0.00    -0.237 OA
ATOM     70  O   UNL A   1      43.978  27.852  26.030  1.00  0.00    -0.744 OA
ENDBRANCH  63  67
ENDBRANCH  46  60
BRANCH  47  71
ATOM     71  C   UNL A   1      39.428  33.429  37.091  1.00  0.00     0.023 A 
ATOM     72  C   UNL A   1      38.743  32.874  38.182  1.00  0.00     0.031 A 
ATOM     73  C   UNL A   1      39.860  34.764  37.190  1.00  0.00     0.131 A 
ATOM     74  C   UNL A   1      38.479  33.662  39.315  1.00  0.00     0.055 A 
ATOM     75  C   UNL A   1      39.636  35.529  38.335  1.00  0.00     0.041 A 
ATOM     76  F   UNL A   1      40.532  35.337  36.178  1.00  0.00    -0.206 F 
ATOM     77  C   UNL A   1      38.932  34.980  39.403  1.00  0.00     0.022 A 
BRANCH  74  78
ATOM     78  S   UNL A   1      37.489  32.951  40.658  1.00  0.00     0.124 S 
ATOM     79  O   UNL A   1      36.184  32.809  40.023  1.00  0.00    -0.237 OA
ATOM     80  O   UNL A   1      38.205  31.710  40.938  1.00  0.00    -0.237 OA
ATOM     81  O   UNL A   1      37.568  33.963  41.710  1.00  0.00    -0.744 OA
ENDBRANCH  74  78
ENDBRANCH  47  71
BRANCH  59  82
ATOM     82  C   UNL A   1      44.217  28.669  35.354  1.00  0.00     0.023 A 
ATOM     83  C   UNL A   1      44.118  27.599  36.262  1.00  0.00     0.031 A 
ATOM     84  C   UNL A   1      45.475  29.274  35.184  1.00  0.00     0.131 A 
ATOM     85  C   UNL A   1      45.234  27.219  37.022  1.00  0.00     0.055 A 
ATOM     86  C   UNL A   1      46.598  28.845  35.892  1.00  0.00     0.041 A 
ATOM     87  F   UNL A   1      45.630  30.302  34.334  1.00  0.00    -0.206 F 
ATOM     88  C   UNL A   1      46.478  27.824  36.830  1.00  0.00     0.022 A 
BRANCH  85  89
ATOM     89  S   UNL A   1      45.004  26.014  38.358  1.00  0.00     0.124 S 
ATOM     90  O   UNL A   1      44.152  25.014  37.723  1.00  0.00    -0.237 OA
ATOM     91  O   UNL A   1      46.375  25.599  38.641  1.00  0.00    -0.237 OA
ATOM     92  O   UNL A   1      44.363  26.794  39.415  1.00  0.00    -0.744 OA
ENDBRANCH  85  89
ENDBRANCH  59  82
ENDBRANCH  33  34
ENDBRANCH  25  28
ENDBRANCH  23  24
ENDBRANCH   1  23
TORSDOF 17
ENDMDL
MODEL 2
REMARK VINA RESULT:     -11.0      2.803      8.727
REMARK SMILES CC[N@H+](CC(C)(C)C(=O)NCCCNC(=O)c1ccc(-c2c3nc(c(-c4cc(S(=O)(=O)[O-])ccc4F)c4ccc([nH]4)c(-c4cc(S(=O)(=O)[O-])ccc4F)c4nc(c(-c5cc(S(=O)(=O)[O-])ccc5F)c5ccc2[nH]5)C=C4)C=C3)cc1)[C@H]1CCC[NH2+]C1
REMARK SMILES IDX 12 1 11 2 10 3 8 4 9 5 5 7 6 8 7 9 4 10 3 11 2 13 1 14 80 15
REMARK SMILES IDX 81 16 85 17 82 18 84 19 83 20 13 23 14 24 15 25 16 27 17 28
REMARK SMILES IDX 18 29 79 30 19 31 78 32 20 33 21 34 22 35 72 36 23 37 77 38
REMARK SMILES IDX 71 39 73 40 24 41 76 42 70 43 69 44 25 46 57 47 37 48 56 49
REMARK SMILES IDX 38 50 41 51 55 52 74 53 39 54 40 55 54 57 75 58 42 59 26 60
REMARK SMILES IDX 27 61 35 62 28 63 34 64 36 65 33 66 29 67 30 68 31 69 32 70
REMARK SMILES IDX 58 71 59 72 67 73 60 74 66 75 68 76 65 77 61 78 62 79 63 80
REMARK SMILES IDX 64 81 43 82 44 83 52 84 45 85 51 86 53 87 50 88 46 89 47 90
REMARK SMILES IDX 48 91 49 92
REMARK H PARENT 10 6 3 12 84 21 84 22 14 26 73 45 41 56
REMARK Flexibility Score: inf
ROOT
ATOM      1  C   UNL A   1      33.239  29.329  24.303  1.00  0.00     0.042 C 
ENDROOT
BRANCH   1   2
ATOM      2  C   UNL A   1      32.049  28.706  23.579  1.00  0.00     0.117 C 
BRANCH   2   3
ATOM      3  N   UNL A   1      32.496  27.806  22.535  1.00  0.00    -0.355 N 
ATOM      4  C   UNL A   1      32.946  26.528  22.570  1.00  0.00     0.231 C 
ATOM      5  O   UNL A   1      33.677  26.206  21.627  1.00  0.00    -0.274 OA
ATOM      6  H   UNL A   1      32.468  28.195  21.631  1.00  0.00     0.163 HD
BRANCH   4   7
ATOM      7  C   UNL A   1      32.602  25.548  23.704  1.00  0.00     0.092 C 
ATOM      8  C   UNL A   1      31.119  25.539  24.118  1.00  0.00     0.027 C 
ATOM      9  C   UNL A   1      33.480  25.912  24.920  1.00  0.00     0.027 C 
BRANCH   7  10
ATOM     10  C   UNL A   1      33.007  24.091  23.257  1.00  0.00     0.279 C 
BRANCH  10  11
ATOM     11  N   UNL A   1      33.053  22.998  24.266  1.00  0.00    -0.327 N 
ATOM     12  H   UNL A   1      32.813  23.431  25.157  1.00  0.00     0.348 HD
BRANCH  11  13
ATOM     13  C   UNL A   1      32.027  21.963  24.032  1.00  0.00     0.259 C 
ATOM     14  C   UNL A   1      32.153  21.225  22.701  1.00  0.00     0.071 C 
ENDBRANCH  11  13
BRANCH  11  15
ATOM     15  C   UNL A   1      34.431  22.430  24.462  1.00  0.00     0.239 C 
ATOM     16  C   UNL A   1      35.532  23.035  23.558  1.00  0.00     0.077 C 
ATOM     17  C   UNL A   1      34.947  22.445  25.939  1.00  0.00     0.326 C 
ATOM     18  C   UNL A   1      36.887  22.378  23.821  1.00  0.00     0.068 C 
ATOM     19  N   UNL A   1      36.265  21.818  26.125  1.00  0.00    -0.341 N 
ATOM     20  C   UNL A   1      37.271  22.472  25.290  1.00  0.00     0.260 C 
ATOM     21  H   UNL A   1      36.540  21.900  27.105  1.00  0.00     0.346 HD
ATOM     22  H   UNL A   1      36.203  20.836  25.856  1.00  0.00     0.346 HD
ENDBRANCH  11  15
ENDBRANCH  10  11
ENDBRANCH   7  10
ENDBRANCH   4   7
ENDBRANCH   2   3
ENDBRANCH   1   2
BRANCH   1  23
ATOM     23  C   UNL A   1      33.054  29.447  25.812  1.00  0.00     0.118 C 
BRANCH  23  24
ATOM     24  N   UNL A   1      32.839  30.820  26.242  1.00  0.00    -0.352 N 
ATOM     25  C   UNL A   1      33.486  31.554  27.205  1.00  0.00     0.251 C 
ATOM     26  H   UNL A   1      32.119  31.296  25.769  1.00  0.00     0.163 HD
ATOM     27  O   UNL A   1      33.002  32.620  27.573  1.00  0.00    -0.269 OA
BRANCH  25  28
ATOM     28  C   UNL A   1      34.739  31.051  27.809  1.00  0.00     0.039 A 
ATOM     29  C   UNL A   1      35.797  31.942  28.001  1.00  0.00     0.014 A 
ATOM     30  C   UNL A   1      34.880  29.708  28.169  1.00  0.00     0.014 A 
ATOM     31  C   UNL A   1      36.972  31.498  28.610  1.00  0.00     0.010 A 
ATOM     32  C   UNL A   1      36.017  29.288  28.855  1.00  0.00     0.010 A 
ATOM     33  C   UNL A   1      37.079  30.175  29.074  1.00  0.00    -0.014 A 
BRANCH  33  34
ATOM     34  C   UNL A   1      38.296  29.720  29.793  1.00  0.00     0.031 A 
ATOM     35  C   UNL A   1      38.608  30.240  31.170  1.00  0.00     0.074 A 
ATOM     36  C   UNL A   1      39.151  28.882  29.175  1.00  0.00     0.049 A 
ATOM     37  N   UNL A   1      39.623  29.965  31.949  1.00  0.00    -0.248 NA
ATOM     38  C   UNL A   1      37.675  31.228  31.729  1.00  0.00     0.031 C 
ATOM     39  C   UNL A   1      38.999  28.380  27.807  1.00  0.00     0.029 A 
ATOM     40  N   UNL A   1      40.319  28.310  29.609  1.00  0.00    -0.354 N 
ATOM     41  C   UNL A   1      39.460  30.757  33.081  1.00  0.00     0.074 A 
ATOM     42  C   UNL A   1      38.286  31.571  32.853  1.00  0.00     0.031 C 
ATOM     43  C   UNL A   1      40.019  27.556  27.524  1.00  0.00     0.029 A 
ATOM     44  C   UNL A   1      40.915  27.496  28.675  1.00  0.00     0.049 A 
ATOM     45  H   UNL A   1      40.695  28.467  30.505  1.00  0.00     0.167 HD
ATOM     46  C   UNL A   1      40.206  30.783  34.215  1.00  0.00     0.034 A 
ATOM     47  C   UNL A   1      42.055  26.781  28.736  1.00  0.00     0.034 A 
ATOM     48  C   UNL A   1      41.369  29.951  34.424  1.00  0.00     0.049 A 
ATOM     49  C   UNL A   1      42.848  26.792  30.015  1.00  0.00     0.074 A 
ATOM     50  C   UNL A   1      42.148  29.826  35.560  1.00  0.00     0.029 A 
ATOM     51  N   UNL A   1      41.928  29.111  33.468  1.00  0.00    -0.354 N 
ATOM     52  N   UNL A   1      42.627  27.472  31.117  1.00  0.00    -0.248 NA
ATOM     53  C   UNL A   1      44.026  25.921  30.066  1.00  0.00     0.031 C 
ATOM     54  C   UNL A   1      43.216  28.968  35.270  1.00  0.00     0.029 A 
ATOM     55  C   UNL A   1      43.063  28.493  33.976  1.00  0.00     0.049 A 
ATOM     56  H   UNL A   1      41.571  28.973  32.561  1.00  0.00     0.167 HD
ATOM     57  C   UNL A   1      43.638  27.102  31.999  1.00  0.00     0.074 A 
ATOM     58  C   UNL A   1      44.443  26.112  31.309  1.00  0.00     0.031 C 
ATOM     59  C   UNL A   1      43.880  27.538  33.263  1.00  0.00     0.034 A 
BRANCH  46  60
ATOM     60  C   UNL A   1      39.798  31.766  35.290  1.00  0.00     0.023 A 
ATOM     61  C   UNL A   1      39.038  31.371  36.407  1.00  0.00     0.031 A 
ATOM     62  C   UNL A   1      40.131  33.127  35.176  1.00  0.00     0.131 A 
ATOM     63  C   UNL A   1      38.558  32.334  37.307  1.00  0.00     0.055 A 
ATOM     64  C   UNL A   1      39.724  34.069  36.125  1.00  0.00     0.041 A 
ATOM     65  F   UNL A   1      40.837  33.573  34.125  1.00  0.00    -0.206 F 
ATOM     66  C   UNL A   1      38.916  33.678  37.188  1.00  0.00     0.022 A 
BRANCH  63  67
ATOM     67  S   UNL A   1      37.318  31.829  38.533  1.00  0.00     0.124 S 
ATOM     68  O   UNL A   1      37.042  30.454  38.125  1.00  0.00    -0.237 OA
ATOM     69  O   UNL A   1      38.037  31.991  39.792  1.00  0.00    -0.237 OA
ATOM     70  O   UNL A   1      36.219  32.768  38.316  1.00  0.00    -0.744 OA
ENDBRANCH  63  67
ENDBRANCH  46  60
BRANCH  47  71
ATOM     71  C   UNL A   1      42.510  26.001  27.551  1.00  0.00     0.023 A 
ATOM     72  C   UNL A   1      42.145  24.658  27.378  1.00  0.00     0.031 A 
ATOM     73  C   UNL A   1      43.327  26.596  26.573  1.00  0.00     0.131 A 
ATOM     74  C   UNL A   1      42.625  23.941  26.269  1.00  0.00     0.055 A 
ATOM     75  C   UNL A   1      43.764  25.893  25.449  1.00  0.00     0.041 A 
ATOM     76  F   UNL A   1      43.693  27.883  26.686  1.00  0.00    -0.206 F 
ATOM     77  C   UNL A   1      43.421  24.553  25.298  1.00  0.00     0.022 A 
BRANCH  74  78
ATOM     78  S   UNL A   1      42.232  22.175  26.138  1.00  0.00     0.124 S 
ATOM     79  O   UNL A   1      43.051  21.771  25.000  1.00  0.00    -0.237 OA
ATOM     80  O   UNL A   1      42.652  21.673  27.442  1.00  0.00    -0.237 OA
ATOM     81  O   UNL A   1      40.789  22.165  25.906  1.00  0.00    -0.744 OA
ENDBRANCH  74  78
ENDBRANCH  47  71
BRANCH  59  82
ATOM     82  C   UNL A   1      45.067  26.930  33.970  1.00  0.00     0.023 A 
ATOM     83  C   UNL A   1      44.939  25.771  34.757  1.00  0.00     0.031 A 
ATOM     84  C   UNL A   1      46.332  27.539  33.897  1.00  0.00     0.131 A 
ATOM     85  C   UNL A   1      46.033  25.304  35.501  1.00  0.00     0.055 A 
ATOM     86  C   UNL A   1      47.434  27.029  34.585  1.00  0.00     0.041 A 
ATOM     87  F   UNL A   1      46.514  28.650  33.165  1.00  0.00    -0.206 F 
ATOM     88  C   UNL A   1      47.284  25.916  35.406  1.00  0.00     0.022 A 
BRANCH  85  89
ATOM     89  S   UNL A   1      45.762  23.966  36.696  1.00  0.00     0.124 S 
ATOM     90  O   UNL A   1      44.606  24.453  37.441  1.00  0.00    -0.237 OA
ATOM     91  O   UNL A   1      45.525  22.817  35.829  1.00  0.00    -0.237 OA
ATOM     92  O   UNL A   1      47.013  23.925  37.452  1.00  0.00    -0.744 OA
ENDBRANCH  85  89
ENDBRANCH  59  82
ENDBRANCH  33  34
ENDBRANCH  25  28
ENDBRANCH  23  24
ENDBRANCH   1  23
TORSDOF 17
ENDMDL
MODEL 3
REMARK VINA RESULT:     -11.0      1.528      1.855
REMARK SMILES CC[N@H+](CC(C)(C)C(=O)NCCCNC(=O)c1ccc(-c2c3nc(c(-c4cc(S(=O)(=O)[O-])ccc4F)c4ccc([nH]4)c(-c4cc(S(=O)(=O)[O-])ccc4F)c4nc(c(-c5cc(S(=O)(=O)[O-])ccc5F)c5ccc2[nH]5)C=C4)C=C3)cc1)[C@H]1CCC[NH2+]C1
REMARK SMILES IDX 12 1 11 2 10 3 8 4 9 5 5 7 6 8 7 9 4 10 3 11 2 13 1 14 80 15
REMARK SMILES IDX 81 16 85 17 82 18 84 19 83 20 13 23 14 24 15 25 16 27 17 28
REMARK SMILES IDX 18 29 79 30 19 31 78 32 20 33 21 34 22 35 72 36 23 37 77 38
REMARK SMILES IDX 71 39 73 40 24 41 76 42 70 43 69 44 25 46 57 47 37 48 56 49
REMARK SMILES IDX 38 50 41 51 55 52 74 53 39 54 40 55 54 57 75 58 42 59 26 60
REMARK SMILES IDX 27 61 35 62 28 63 34 64 36 65 33 66 29 67 30 68 31 69 32 70
REMARK SMILES IDX 58 71 59 72 67 73 60 74 66 75 68 76 65 77 61 78 62 79 63 80
REMARK SMILES IDX 64 81 43 82 44 83 52 84 45 85 51 86 53 87 50 88 46 89 47 90
REMARK SMILES IDX 48 91 49 92
REMARK H PARENT 10 6 3 12 84 21 84 22 14 26 73 45 41 56
REMARK Flexibility Score: inf
ROOT
ATOM      1  C   UNL A   1      31.228  32.428  26.452  1.00  0.00     0.042 C 
ENDROOT
BRANCH   1   2
ATOM      2  C   UNL A   1      31.003  30.932  26.253  1.00  0.00     0.117 C 
BRANCH   2   3
ATOM      3  N   UNL A   1      32.012  30.372  25.376  1.00  0.00    -0.355 N 
ATOM      4  C   UNL A   1      32.650  29.177  25.373  1.00  0.00     0.231 C 
ATOM      5  O   UNL A   1      33.754  29.176  24.819  1.00  0.00    -0.274 OA
ATOM      6  H   UNL A   1      32.285  30.973  24.645  1.00  0.00     0.163 HD
BRANCH   4   7
ATOM      7  C   UNL A   1      32.067  27.913  26.027  1.00  0.00     0.092 C 
ATOM      8  C   UNL A   1      31.437  28.140  27.415  1.00  0.00     0.027 C 
ATOM      9  C   UNL A   1      33.205  26.876  26.136  1.00  0.00     0.027 C 
BRANCH   7  10
ATOM     10  C   UNL A   1      30.971  27.304  25.071  1.00  0.00     0.279 C 
BRANCH  10  11
ATOM     11  N   UNL A   1      31.258  27.164  23.618  1.00  0.00    -0.327 N 
ATOM     12  H   UNL A   1      32.210  27.506  23.487  1.00  0.00     0.348 HD
BRANCH  11  13
ATOM     13  C   UNL A   1      31.272  25.756  23.173  1.00  0.00     0.259 C 
ATOM     14  C   UNL A   1      30.679  24.764  24.171  1.00  0.00     0.071 C 
ENDBRANCH  11  13
BRANCH  11  15
ATOM     15  C   UNL A   1      30.400  28.047  22.756  1.00  0.00     0.239 C 
ATOM     16  C   UNL A   1      29.040  28.456  23.373  1.00  0.00     0.077 C 
ATOM     17  C   UNL A   1      31.106  29.339  22.226  1.00  0.00     0.326 C 
ATOM     18  C   UNL A   1      28.239  29.334  22.412  1.00  0.00     0.068 C 
ATOM     19  N   UNL A   1      30.277  30.153  21.324  1.00  0.00    -0.341 N 
ATOM     20  C   UNL A   1      29.037  30.556  21.985  1.00  0.00     0.260 C 
ATOM     21  H   UNL A   1      30.798  30.988  21.053  1.00  0.00     0.346 HD
ATOM     22  H   UNL A   1      30.045  29.599  20.500  1.00  0.00     0.346 HD
ENDBRANCH  11  15
ENDBRANCH  10  11
ENDBRANCH   7  10
ENDBRANCH   4   7
ENDBRANCH   2   3
ENDBRANCH   1   2
BRANCH   1  23
ATOM     23  C   UNL A   1      32.592  32.777  27.038  1.00  0.00     0.118 C 
BRANCH  23  24
ATOM     24  N   UNL A   1      32.636  34.125  27.584  1.00  0.00    -0.352 N 
ATOM     25  C   UNL A   1      33.390  34.635  28.611  1.00  0.00     0.251 C 
ATOM     26  H   UNL A   1      32.031  34.769  27.152  1.00  0.00     0.163 HD
ATOM     27  O   UNL A   1      33.113  35.740  29.068  1.00  0.00    -0.269 OA
BRANCH  25  28
ATOM     28  C   UNL A   1      34.510  33.851  29.175  1.00  0.00     0.039 A 
ATOM     29  C   UNL A   1      35.819  34.251  28.896  1.00  0.00     0.014 A 
ATOM     30  C   UNL A   1      34.277  32.718  29.960  1.00  0.00     0.014 A 
ATOM     31  C   UNL A   1      36.889  33.551  29.454  1.00  0.00     0.010 A 
ATOM     32  C   UNL A   1      35.341  32.075  30.586  1.00  0.00     0.010 A 
ATOM     33  C   UNL A   1      36.659  32.478  30.333  1.00  0.00    -0.014 A 
BRANCH  33  34
ATOM     34  C   UNL A   1      37.792  31.781  30.992  1.00  0.00     0.031 A 
ATOM     35  C   UNL A   1      38.588  30.744  30.247  1.00  0.00     0.074 A 
ATOM     36  C   UNL A   1      38.064  32.044  32.285  1.00  0.00     0.049 A 
ATOM     37  N   UNL A   1      39.605  30.028  30.657  1.00  0.00    -0.248 NA
ATOM     38  C   UNL A   1      38.161  30.447  28.872  1.00  0.00     0.031 C 
ATOM     39  C   UNL A   1      37.305  32.965  33.136  1.00  0.00     0.029 A 
ATOM     40  N   UNL A   1      39.042  31.558  33.114  1.00  0.00    -0.354 N 
ATOM     41  C   UNL A   1      39.927  29.184  29.598  1.00  0.00     0.074 A 
ATOM     42  C   UNL A   1      38.954  29.434  28.557  1.00  0.00     0.031 C 
ATOM     43  C   UNL A   1      37.862  32.996  34.356  1.00  0.00     0.029 A 
ATOM     44  C   UNL A   1      38.994  32.076  34.387  1.00  0.00     0.049 A 
ATOM     45  H   UNL A   1      39.715  30.901  32.825  1.00  0.00     0.167 HD
ATOM     46  C   UNL A   1      40.955  28.304  29.496  1.00  0.00     0.034 A 
ATOM     47  C   UNL A   1      39.773  31.838  35.460  1.00  0.00     0.034 A 
ATOM     48  C   UNL A   1      41.922  28.081  30.546  1.00  0.00     0.049 A 
ATOM     49  C   UNL A   1      40.931  30.888  35.315  1.00  0.00     0.074 A 
ATOM     50  C   UNL A   1      43.052  27.284  30.523  1.00  0.00     0.029 A 
ATOM     51  N   UNL A   1      41.864  28.648  31.813  1.00  0.00    -0.354 N 
ATOM     52  N   UNL A   1      41.285  30.168  34.274  1.00  0.00    -0.248 NA
ATOM     53  C   UNL A   1      41.808  30.737  36.480  1.00  0.00     0.031 C 
ATOM     54  C   UNL A   1      43.637  27.312  31.796  1.00  0.00     0.029 A 
ATOM     55  C   UNL A   1      42.917  28.190  32.594  1.00  0.00     0.049 A 
ATOM     56  H   UNL A   1      41.176  29.284  32.115  1.00  0.00     0.167 HD
ATOM     57  C   UNL A   1      42.435  29.486  34.658  1.00  0.00     0.074 A 
ATOM     58  C   UNL A   1      42.731  29.910  36.013  1.00  0.00     0.031 C 
ATOM     59  C   UNL A   1      43.179  28.590  33.957  1.00  0.00     0.034 A 
BRANCH  46  60
ATOM     60  C   UNL A   1      41.055  27.501  28.217  1.00  0.00     0.023 A 
ATOM     61  C   UNL A   1      40.694  26.143  28.162  1.00  0.00     0.031 A 
ATOM     62  C   UNL A   1      41.565  28.088  27.046  1.00  0.00     0.131 A 
ATOM     63  C   UNL A   1      40.935  25.396  26.999  1.00  0.00     0.055 A 
ATOM     64  C   UNL A   1      41.719  27.361  25.862  1.00  0.00     0.041 A 
ATOM     65  F   UNL A   1      41.947  29.375  27.035  1.00  0.00    -0.206 F 
ATOM     66  C   UNL A   1      41.423  26.002  25.840  1.00  0.00     0.022 A 
BRANCH  63  67
ATOM     67  S   UNL A   1      40.766  23.591  27.078  1.00  0.00     0.124 S 
ATOM     68  O   UNL A   1      41.253  23.308  28.427  1.00  0.00    -0.237 OA
ATOM     69  O   UNL A   1      39.336  23.399  26.861  1.00  0.00    -0.237 OA
ATOM     70  O   UNL A   1      41.631  23.117  26.000  1.00  0.00    -0.744 OA
ENDBRANCH  63  67
ENDBRANCH  46  60
BRANCH  47  71
ATOM     71  C   UNL A   1      39.480  32.507  36.758  1.00  0.00     0.023 A 
ATOM     72  C   UNL A   1      38.576  31.953  37.676  1.00  0.00     0.031 A 
ATOM     73  C   UNL A   1      40.103  33.723  37.093  1.00  0.00     0.131 A 
ATOM     74  C   UNL A   1      38.293  32.631  38.873  1.00  0.00     0.055 A 
ATOM     75  C   UNL A   1      39.853  34.370  38.304  1.00  0.00     0.041 A 
ATOM     76  F   UNL A   1      40.987  34.287  36.254  1.00  0.00    -0.206 F 
ATOM     77  C   UNL A   1      38.935  33.828  39.199  1.00  0.00     0.022 A 
BRANCH  74  78
ATOM     78  S   UNL A   1      37.032  31.947  39.984  1.00  0.00     0.124 S 
ATOM     79  O   UNL A   1      36.086  31.365  39.038  1.00  0.00    -0.237 OA
ATOM     80  O   UNL A   1      37.809  31.002  40.779  1.00  0.00    -0.237 OA
ATOM     81  O   UNL A   1      36.549  33.120  40.711  1.00  0.00    -0.744 OA
ENDBRANCH  74  78
ENDBRANCH  47  71
BRANCH  59  82
ATOM     82  C   UNL A   1      44.389  28.023  34.660  1.00  0.00     0.023 A 
ATOM     83  C   UNL A   1      44.321  26.821  35.387  1.00  0.00     0.031 A 
ATOM     84  C   UNL A   1      45.613  28.714  34.642  1.00  0.00     0.131 A 
ATOM     85  C   UNL A   1      45.428  26.388  36.131  1.00  0.00     0.055 A 
ATOM     86  C   UNL A   1      46.733  28.242  35.328  1.00  0.00     0.041 A 
ATOM     87  F   UNL A   1      45.737  29.869  33.968  1.00  0.00    -0.206 F 
ATOM     88  C   UNL A   1      46.640  27.082  36.092  1.00  0.00     0.022 A 
BRANCH  85  89
ATOM     89  S   UNL A   1      45.223  24.979  37.255  1.00  0.00     0.124 S 
ATOM     90  O   UNL A   1      43.906  25.238  37.829  1.00  0.00    -0.237 OA
ATOM     91  O   UNL A   1      45.310  23.841  36.346  1.00  0.00    -0.237 OA
ATOM     92  O   UNL A   1      46.342  25.118  38.185  1.00  0.00    -0.744 OA
ENDBRANCH  85  89
ENDBRANCH  59  82
ENDBRANCH  33  34
ENDBRANCH  25  28
ENDBRANCH  23  24
ENDBRANCH   1  23
TORSDOF 17
ENDMDL
