MODEL 1
REMARK VINA RESULT:     -12.9      0.000      0.000
REMARK SMILES Cc1nn(C)cc1C[NH+]1CCN(C(=O)Cn2ccc(C(=O)NCCCNC(=O)c3ccc(-c4c5nc(c(-c6cc(S(=O)(=O)[O-])ccc6F)c6ccc([nH]6)c(-c6cc(S(=O)(=O)[O-])ccc6F)c6nc(c(-c7cc(S(=O)(=O)[O-])ccc7F)c7ccc4[nH]7)C=C6)C=C5)cc3)n2)CC1
REMARK SMILES IDX 23 1 22 2 20 3 21 4 19 6 16 7 17 8 92 9 18 10 15 11 13 12
REMARK SMILES IDX 9 13 10 14 94 15 11 17 93 18 12 19 14 20 8 21 7 22 1 23 2 24
REMARK SMILES IDX 3 25 4 26 6 27 5 28 24 29 25 30 26 31 27 32 28 34 29 35
REMARK SMILES IDX 30 36 91 37 31 38 90 39 32 40 33 41 34 42 84 43 35 44 89 45
REMARK SMILES IDX 83 46 85 47 36 48 88 49 82 50 81 51 37 53 69 54 49 55 68 56
REMARK SMILES IDX 50 57 53 58 67 59 86 60 51 61 52 62 66 64 87 65 54 66 38 67
REMARK SMILES IDX 39 68 47 69 40 70 46 71 48 72 45 73 41 74 42 75 43 76 44 77
REMARK SMILES IDX 70 78 71 79 79 80 72 81 78 82 80 83 77 84 73 85 74 86 75 87
REMARK SMILES IDX 76 88 55 89 56 90 64 91 57 92 63 93 65 94 62 95 58 96 59 97
REMARK SMILES IDX 60 98 61 99
REMARK H PARENT 22 5 9 16 26 33 85 52 53 63
REMARK Flexibility Score: inf
ROOT
ATOM      1  C   UNL A   1      36.188  22.130  25.730  1.00  0.00     0.118 C 
ENDROOT
BRANCH   1   2
ATOM      2  N   UNL A   1      35.634  20.825  25.419  1.00  0.00    -0.351 N 
ATOM      3  C   UNL A   1      34.391  20.457  24.947  1.00  0.00     0.271 C 
ATOM      4  O   UNL A   1      34.235  19.271  24.665  1.00  0.00    -0.267 OA
ATOM      5  H   UNL A   1      36.250  20.073  25.573  1.00  0.00     0.163 HD
BRANCH   3   6
ATOM      6  C   UNL A   1      33.316  21.459  24.775  1.00  0.00     0.150 A 
ATOM      7  N   UNL A   1      32.204  23.016  23.805  1.00  0.00    -0.263 N 
ATOM      8  C   UNL A   1      31.568  22.834  24.995  1.00  0.00     0.110 A 
ATOM      9  N   UNL A   1      33.236  22.172  23.632  1.00  0.00    -0.167 NA
ATOM     10  C   UNL A   1      32.242  21.821  25.631  1.00  0.00     0.056 A 
BRANCH   7  11
ATOM     11  C   UNL A   1      31.846  23.883  22.689  1.00  0.00     0.244 C 
BRANCH  11  12
ATOM     12  C   UNL A   1      32.753  25.091  22.554  1.00  0.00     0.244 C 
ATOM     13  N   UNL A   1      31.268  29.148  23.161  1.00  0.00    -0.328 N 
ATOM     14  C   UNL A   1      32.640  28.857  22.735  1.00  0.00     0.284 C 
ATOM     15  C   UNL A   1      30.351  28.085  22.748  1.00  0.00     0.284 C 
ATOM     16  H   UNL A   1      30.989  29.980  22.640  1.00  0.00     0.348 HD
ATOM     17  C   UNL A   1      33.159  27.442  23.046  1.00  0.00     0.181 C 
ATOM     18  C   UNL A   1      30.798  26.629  22.991  1.00  0.00     0.181 C 
ATOM     19  N   UNL A   1      32.216  26.364  22.735  1.00  0.00    -0.330 N 
ATOM     20  O   UNL A   1      33.958  24.936  22.331  1.00  0.00    -0.273 OA
BRANCH  13  21
ATOM     21  C   UNL A   1      31.092  29.681  24.516  1.00  0.00     0.302 C 
BRANCH  21  22
ATOM     22  C   UNL A   1      32.124  29.233  25.491  1.00  0.00     0.047 A 
ATOM     23  C   UNL A   1      31.114  26.990  26.427  1.00  0.00     0.069 C 
ATOM     24  C   UNL A   1      32.110  28.088  26.342  1.00  0.00     0.068 A 
ATOM     25  N   UNL A   1      33.146  28.090  27.192  1.00  0.00    -0.178 NA
ATOM     26  N   UNL A   1      33.823  29.205  26.875  1.00  0.00    -0.275 N 
ATOM     27  C   UNL A   1      33.345  29.823  25.761  1.00  0.00     0.118 A 
ATOM     28  C   UNL A   1      34.843  29.706  27.764  1.00  0.00     0.173 C 
ENDBRANCH  21  22
ENDBRANCH  13  21
ENDBRANCH  11  12
ENDBRANCH   7  11
ENDBRANCH   3   6
ENDBRANCH   1   2
BRANCH   1  29
ATOM     29  C   UNL A   1      37.664  22.241  25.329  1.00  0.00     0.042 C 
BRANCH  29  30
ATOM     30  C   UNL A   1      38.393  23.287  26.157  1.00  0.00     0.118 C 
BRANCH  30  31
ATOM     31  N   UNL A   1      39.400  22.690  27.048  1.00  0.00    -0.352 N 
ATOM     32  C   UNL A   1      40.441  23.293  27.741  1.00  0.00     0.251 C 
ATOM     33  H   UNL A   1      39.323  21.717  27.172  1.00  0.00     0.163 HD
ATOM     34  O   UNL A   1      41.380  22.623  28.143  1.00  0.00    -0.269 OA
BRANCH  32  35
ATOM     35  C   UNL A   1      40.384  24.747  27.989  1.00  0.00     0.039 A 
ATOM     36  C   UNL A   1      39.241  25.525  27.767  1.00  0.00     0.014 A 
ATOM     37  C   UNL A   1      41.533  25.328  28.496  1.00  0.00     0.014 A 
ATOM     38  C   UNL A   1      39.285  26.883  28.098  1.00  0.00     0.010 A 
ATOM     39  C   UNL A   1      41.461  26.539  29.107  1.00  0.00     0.010 A 
ATOM     40  C   UNL A   1      40.414  27.375  28.764  1.00  0.00    -0.014 A 
BRANCH  40  41
ATOM     41  C   UNL A   1      40.558  28.739  29.254  1.00  0.00     0.031 A 
ATOM     42  C   UNL A   1      41.705  29.442  28.635  1.00  0.00     0.074 A 
ATOM     43  C   UNL A   1      39.533  29.368  29.884  1.00  0.00     0.049 A 
ATOM     44  N   UNL A   1      42.845  29.724  29.173  1.00  0.00    -0.248 NA
ATOM     45  C   UNL A   1      41.688  29.623  27.168  1.00  0.00     0.031 C 
ATOM     46  C   UNL A   1      38.199  28.839  30.205  1.00  0.00     0.029 A 
ATOM     47  N   UNL A   1      39.415  30.669  30.258  1.00  0.00    -0.354 N 
ATOM     48  C   UNL A   1      43.546  30.405  28.184  1.00  0.00     0.074 A 
ATOM     49  C   UNL A   1      42.948  30.000  26.946  1.00  0.00     0.031 C 
ATOM     50  C   UNL A   1      37.359  29.857  30.503  1.00  0.00     0.029 A 
ATOM     51  C   UNL A   1      38.115  31.097  30.537  1.00  0.00     0.049 A 
ATOM     52  H   UNL A   1      40.193  31.268  30.329  1.00  0.00     0.167 HD
ATOM     53  C   UNL A   1      44.288  31.509  28.485  1.00  0.00     0.034 A 
ATOM     54  C   UNL A   1      37.693  32.381  30.738  1.00  0.00     0.034 A 
ATOM     55  C   UNL A   1      44.485  31.603  29.920  1.00  0.00     0.049 A 
ATOM     56  C   UNL A   1      38.915  33.167  31.063  1.00  0.00     0.074 A 
ATOM     57  C   UNL A   1      44.996  30.749  30.881  1.00  0.00     0.029 A 
ATOM     58  N   UNL A   1      43.727  32.524  30.616  1.00  0.00    -0.354 N 
ATOM     59  N   UNL A   1      39.632  32.957  32.137  1.00  0.00    -0.248 NA
ATOM     60  C   UNL A   1      39.634  33.782  29.955  1.00  0.00     0.031 C 
ATOM     61  C   UNL A   1      44.110  30.879  31.992  1.00  0.00     0.029 A 
ATOM     62  C   UNL A   1      43.188  31.890  31.708  1.00  0.00     0.049 A 
ATOM     63  H   UNL A   1      43.595  33.469  30.371  1.00  0.00     0.167 HD
ATOM     64  C   UNL A   1      40.951  32.993  31.704  1.00  0.00     0.074 A 
ATOM     65  C   UNL A   1      40.891  33.583  30.364  1.00  0.00     0.031 C 
ATOM     66  C   UNL A   1      41.922  32.255  32.324  1.00  0.00     0.034 A 
BRANCH  53  67
ATOM     67  C   UNL A   1      44.468  32.711  27.572  1.00  0.00     0.023 A 
ATOM     68  C   UNL A   1      43.830  33.901  27.971  1.00  0.00     0.031 A 
ATOM     69  C   UNL A   1      44.973  32.713  26.249  1.00  0.00     0.131 A 
ATOM     70  C   UNL A   1      43.596  34.942  27.056  1.00  0.00     0.055 A 
ATOM     71  C   UNL A   1      44.792  33.778  25.362  1.00  0.00     0.041 A 
ATOM     72  F   UNL A   1      45.603  31.673  25.695  1.00  0.00    -0.206 F 
ATOM     73  C   UNL A   1      44.066  34.887  25.750  1.00  0.00     0.022 A 
BRANCH  70  74
ATOM     74  S   UNL A   1      42.500  36.288  27.564  1.00  0.00     0.124 S 
ATOM     75  O   UNL A   1      42.849  37.325  26.600  1.00  0.00    -0.237 OA
ATOM     76  O   UNL A   1      41.185  35.675  27.408  1.00  0.00    -0.237 OA
ATOM     77  O   UNL A   1      42.907  36.550  28.943  1.00  0.00    -0.744 OA
ENDBRANCH  70  74
ENDBRANCH  53  67
BRANCH  54  78
ATOM     78  C   UNL A   1      36.399  33.007  30.307  1.00  0.00     0.023 A 
ATOM     79  C   UNL A   1      35.576  33.794  31.152  1.00  0.00     0.031 A 
ATOM     80  C   UNL A   1      36.072  33.028  28.931  1.00  0.00     0.131 A 
ATOM     81  C   UNL A   1      34.491  34.540  30.613  1.00  0.00     0.055 A 
ATOM     82  C   UNL A   1      35.006  33.766  28.407  1.00  0.00     0.041 A 
ATOM     83  F   UNL A   1      36.837  32.394  28.029  1.00  0.00    -0.206 F 
ATOM     84  C   UNL A   1      34.214  34.532  29.244  1.00  0.00     0.022 A 
BRANCH  81  85
ATOM     85  S   UNL A   1      33.448  35.605  31.674  1.00  0.00     0.124 S 
ATOM     86  O   UNL A   1      34.438  36.352  32.441  1.00  0.00    -0.237 OA
ATOM     87  O   UNL A   1      32.675  36.364  30.698  1.00  0.00    -0.237 OA
ATOM     88  O   UNL A   1      32.664  34.649  32.459  1.00  0.00    -0.744 OA
ENDBRANCH  81  85
ENDBRANCH  54  78
BRANCH  66  89
ATOM     89  C   UNL A   1      41.610  31.613  33.665  1.00  0.00     0.023 A 
ATOM     90  C   UNL A   1      41.606  32.275  34.918  1.00  0.00     0.031 A 
ATOM     91  C   UNL A   1      41.153  30.284  33.632  1.00  0.00     0.131 A 
ATOM     92  C   UNL A   1      41.156  31.595  36.072  1.00  0.00     0.055 A 
ATOM     93  C   UNL A   1      40.687  29.626  34.769  1.00  0.00     0.041 A 
ATOM     94  F   UNL A   1      41.109  29.609  32.472  1.00  0.00    -0.206 F 
ATOM     95  C   UNL A   1      40.690  30.278  35.994  1.00  0.00     0.022 A 
BRANCH  92  96
ATOM     96  S   UNL A   1      41.178  32.401  37.710  1.00  0.00     0.124 S 
ATOM     97  O   UNL A   1      39.784  32.347  38.134  1.00  0.00    -0.237 OA
ATOM     98  O   UNL A   1      42.108  31.564  38.463  1.00  0.00    -0.237 OA
ATOM     99  O   UNL A   1      41.674  33.748  37.420  1.00  0.00    -0.744 OA
ENDBRANCH  92  96
ENDBRANCH  66  89
ENDBRANCH  40  41
ENDBRANCH  32  35
ENDBRANCH  30  31
ENDBRANCH  29  30
ENDBRANCH   1  29
TORSDOF 17
ENDMDL
MODEL 2
REMARK VINA RESULT:     -12.9      3.727      9.584
REMARK SMILES Cc1nn(C)cc1C[NH+]1CCN(C(=O)Cn2ccc(C(=O)NCCCNC(=O)c3ccc(-c4c5nc(c(-c6cc(S(=O)(=O)[O-])ccc6F)c6ccc([nH]6)c(-c6cc(S(=O)(=O)[O-])ccc6F)c6nc(c(-c7cc(S(=O)(=O)[O-])ccc7F)c7ccc4[nH]7)C=C6)C=C5)cc3)n2)CC1
REMARK SMILES IDX 23 1 22 2 20 3 21 4 19 6 16 7 17 8 92 9 18 10 15 11 13 12
REMARK SMILES IDX 9 13 10 14 94 15 11 17 93 18 12 19 14 20 8 21 7 22 1 23 2 24
REMARK SMILES IDX 3 25 4 26 6 27 5 28 24 29 25 30 26 31 27 32 28 34 29 35
REMARK SMILES IDX 30 36 91 37 31 38 90 39 32 40 33 41 34 42 84 43 35 44 89 45
REMARK SMILES IDX 83 46 85 47 36 48 88 49 82 50 81 51 37 53 69 54 49 55 68 56
REMARK SMILES IDX 50 57 53 58 67 59 86 60 51 61 52 62 66 64 87 65 54 66 38 67
REMARK SMILES IDX 39 68 47 69 40 70 46 71 48 72 45 73 41 74 42 75 43 76 44 77
REMARK SMILES IDX 70 78 71 79 79 80 72 81 78 82 80 83 77 84 73 85 74 86 75 87
REMARK SMILES IDX 76 88 55 89 56 90 64 91 57 92 63 93 65 94 62 95 58 96 59 97
REMARK SMILES IDX 60 98 61 99
REMARK H PARENT 22 5 9 16 26 33 85 52 53 63
REMARK Flexibility Score: inf
ROOT
ATOM      1  C   UNL A   1      32.701  29.952  25.946  1.00  0.00     0.118 C 
ENDROOT
BRANCH   1   2
ATOM      2  N   UNL A   1      33.343  29.685  24.672  1.00  0.00    -0.351 N 
ATOM      3  C   UNL A   1      32.909  28.980  23.568  1.00  0.00     0.271 C 
ATOM      4  O   UNL A   1      33.628  29.014  22.572  1.00  0.00    -0.267 OA
ATOM      5  H   UNL A   1      34.244  30.071  24.580  1.00  0.00     0.163 HD
BRANCH   3   6
ATOM      6  C   UNL A   1      31.626  28.244  23.593  1.00  0.00     0.150 A 
ATOM      7  N   UNL A   1      30.273  26.650  24.071  1.00  0.00    -0.263 N 
ATOM      8  C   UNL A   1      29.534  27.507  23.314  1.00  0.00     0.110 A 
ATOM      9  N   UNL A   1      31.524  27.090  24.285  1.00  0.00    -0.167 NA
ATOM     10  C   UNL A   1      30.367  28.556  23.013  1.00  0.00     0.056 A 
BRANCH   7  11
ATOM     11  C   UNL A   1      29.859  25.431  24.755  1.00  0.00     0.244 C 
BRANCH  11  12
ATOM     12  C   UNL A   1      30.916  24.885  25.697  1.00  0.00     0.244 C 
ATOM     13  N   UNL A   1      33.860  21.948  24.379  1.00  0.00    -0.328 N 
ATOM     14  C   UNL A   1      33.763  22.413  25.766  1.00  0.00     0.284 C 
ATOM     15  C   UNL A   1      32.569  22.049  23.698  1.00  0.00     0.284 C 
ATOM     16  H   UNL A   1      34.072  20.951  24.438  1.00  0.00     0.348 HD
ATOM     17  C   UNL A   1      33.061  23.764  25.978  1.00  0.00     0.181 C 
ATOM     18  C   UNL A   1      31.774  23.357  23.877  1.00  0.00     0.181 C 
ATOM     19  N   UNL A   1      31.814  23.929  25.225  1.00  0.00    -0.330 N 
ATOM     20  O   UNL A   1      30.997  25.319  26.850  1.00  0.00    -0.273 OA
BRANCH  13  21
ATOM     21  C   UNL A   1      35.041  22.368  23.619  1.00  0.00     0.302 C 
BRANCH  21  22
ATOM     22  C   UNL A   1      36.272  22.537  24.439  1.00  0.00     0.047 A 
ATOM     23  C   UNL A   1      37.061  20.057  24.831  1.00  0.00     0.069 C 
ATOM     24  C   UNL A   1      37.121  21.532  24.992  1.00  0.00     0.068 A 
ATOM     25  N   UNL A   1      38.052  22.059  25.798  1.00  0.00    -0.178 NA
ATOM     26  N   UNL A   1      37.818  23.379  25.744  1.00  0.00    -0.275 N 
ATOM     27  C   UNL A   1      36.879  23.719  24.819  1.00  0.00     0.118 A 
ATOM     28  C   UNL A   1      38.432  24.261  26.708  1.00  0.00     0.173 C 
ENDBRANCH  21  22
ENDBRANCH  13  21
ENDBRANCH  11  12
ENDBRANCH   7  11
ENDBRANCH   3   6
ENDBRANCH   1   2
BRANCH   1  29
ATOM     29  C   UNL A   1      33.426  29.270  27.112  1.00  0.00     0.042 C 
BRANCH  29  30
ATOM     30  C   UNL A   1      34.764  29.930  27.405  1.00  0.00     0.118 C 
BRANCH  30  31
ATOM     31  N   UNL A   1      34.650  30.999  28.410  1.00  0.00    -0.352 N 
ATOM     32  C   UNL A   1      35.482  31.305  29.478  1.00  0.00     0.251 C 
ATOM     33  H   UNL A   1      33.866  31.585  28.309  1.00  0.00     0.163 HD
ATOM     34  O   UNL A   1      35.066  31.983  30.405  1.00  0.00    -0.269 OA
BRANCH  32  35
ATOM     35  C   UNL A   1      36.872  30.807  29.464  1.00  0.00     0.039 A 
ATOM     36  C   UNL A   1      37.989  31.635  29.310  1.00  0.00     0.014 A 
ATOM     37  C   UNL A   1      37.035  29.444  29.648  1.00  0.00     0.014 A 
ATOM     38  C   UNL A   1      39.261  31.058  29.377  1.00  0.00     0.010 A 
ATOM     39  C   UNL A   1      38.244  28.959  30.033  1.00  0.00     0.010 A 
ATOM     40  C   UNL A   1      39.367  29.708  29.734  1.00  0.00    -0.014 A 
BRANCH  40  41
ATOM     41  C   UNL A   1      40.624  29.001  29.936  1.00  0.00     0.031 A 
ATOM     42  C   UNL A   1      40.930  28.798  31.372  1.00  0.00     0.074 A 
ATOM     43  C   UNL A   1      41.201  28.296  28.931  1.00  0.00     0.049 A 
ATOM     44  N   UNL A   1      41.808  29.416  32.089  1.00  0.00    -0.248 NA
ATOM     45  C   UNL A   1      39.976  28.001  32.170  1.00  0.00     0.031 C 
ATOM     46  C   UNL A   1      40.737  28.143  27.544  1.00  0.00     0.029 A 
ATOM     47  N   UNL A   1      42.263  27.449  28.965  1.00  0.00    -0.354 N 
ATOM     48  C   UNL A   1      41.712  28.835  33.348  1.00  0.00     0.074 A 
ATOM     49  C   UNL A   1      40.395  28.272  33.407  1.00  0.00     0.031 C 
ATOM     50  C   UNL A   1      41.369  27.099  26.958  1.00  0.00     0.029 A 
ATOM     51  C   UNL A   1      42.383  26.593  27.867  1.00  0.00     0.049 A 
ATOM     52  H   UNL A   1      42.904  27.441  29.712  1.00  0.00     0.167 HD
ATOM     53  C   UNL A   1      42.829  28.540  34.072  1.00  0.00     0.034 A 
ATOM     54  C   UNL A   1      43.227  25.525  27.741  1.00  0.00     0.034 A 
ATOM     55  C   UNL A   1      43.984  29.214  33.505  1.00  0.00     0.049 A 
ATOM     56  C   UNL A   1      44.291  25.721  28.763  1.00  0.00     0.074 A 
ATOM     57  C   UNL A   1      44.279  30.531  33.204  1.00  0.00     0.029 A 
ATOM     58  N   UNL A   1      44.865  28.461  32.755  1.00  0.00    -0.354 N 
ATOM     59  N   UNL A   1      45.132  26.723  28.733  1.00  0.00    -0.248 NA
ATOM     60  C   UNL A   1      44.070  25.144  30.083  1.00  0.00     0.031 C 
ATOM     61  C   UNL A   1      44.928  30.478  31.934  1.00  0.00     0.029 A 
ATOM     62  C   UNL A   1      45.111  29.138  31.585  1.00  0.00     0.049 A 
ATOM     63  H   UNL A   1      45.249  27.592  33.013  1.00  0.00     0.167 HD
ATOM     64  C   UNL A   1      45.198  27.180  30.042  1.00  0.00     0.074 A 
ATOM     65  C   UNL A   1      44.583  26.118  30.843  1.00  0.00     0.031 C 
ATOM     66  C   UNL A   1      45.445  28.496  30.324  1.00  0.00     0.034 A 
BRANCH  53  67
ATOM     67  C   UNL A   1      42.976  27.344  34.999  1.00  0.00     0.023 A 
ATOM     68  C   UNL A   1      43.771  26.282  34.528  1.00  0.00     0.031 A 
ATOM     69  C   UNL A   1      42.206  27.054  36.151  1.00  0.00     0.131 A 
ATOM     70  C   UNL A   1      43.676  24.998  35.090  1.00  0.00     0.055 A 
ATOM     71  C   UNL A   1      42.164  25.790  36.745  1.00  0.00     0.041 A 
ATOM     72  F   UNL A   1      41.389  27.935  36.736  1.00  0.00    -0.206 F 
ATOM     73  C   UNL A   1      42.872  24.740  36.193  1.00  0.00     0.022 A 
BRANCH  70  74
ATOM     74  S   UNL A   1      44.489  23.631  34.229  1.00  0.00     0.124 S 
ATOM     75  O   UNL A   1      44.286  22.535  35.169  1.00  0.00    -0.237 OA
ATOM     76  O   UNL A   1      43.726  23.568  32.987  1.00  0.00    -0.237 OA
ATOM     77  O   UNL A   1      45.868  24.093  34.091  1.00  0.00    -0.744 OA
ENDBRANCH  70  74
ENDBRANCH  53  67
BRANCH  54  78
ATOM     78  C   UNL A   1      42.959  24.210  27.070  1.00  0.00     0.023 A 
ATOM     79  C   UNL A   1      43.825  23.611  26.120  1.00  0.00     0.031 A 
ATOM     80  C   UNL A   1      41.916  23.389  27.560  1.00  0.00     0.131 A 
ATOM     81  C   UNL A   1      43.620  22.266  25.703  1.00  0.00     0.055 A 
ATOM     82  C   UNL A   1      41.722  22.067  27.148  1.00  0.00     0.041 A 
ATOM     83  F   UNL A   1      41.093  23.822  28.528  1.00  0.00    -0.206 F 
ATOM     84  C   UNL A   1      42.578  21.496  26.223  1.00  0.00     0.022 A 
BRANCH  81  85
ATOM     85  S   UNL A   1      44.755  21.454  24.520  1.00  0.00     0.124 S 
ATOM     86  O   UNL A   1      44.227  20.096  24.461  1.00  0.00    -0.237 OA
ATOM     87  O   UNL A   1      44.594  22.265  23.319  1.00  0.00    -0.237 OA
ATOM     88  O   UNL A   1      46.066  21.571  25.162  1.00  0.00    -0.744 OA
ENDBRANCH  81  85
ENDBRANCH  54  78
BRANCH  66  89
ATOM     89  C   UNL A   1      45.927  29.405  29.207  1.00  0.00     0.023 A 
ATOM     90  C   UNL A   1      45.130  30.336  28.495  1.00  0.00     0.031 A 
ATOM     91  C   UNL A   1      47.312  29.415  28.960  1.00  0.00     0.131 A 
ATOM     92  C   UNL A   1      45.735  31.226  27.579  1.00  0.00     0.055 A 
ATOM     93  C   UNL A   1      47.906  30.311  28.074  1.00  0.00     0.041 A 
ATOM     94  F   UNL A   1      48.124  28.574  29.620  1.00  0.00    -0.206 F 
ATOM     95  C   UNL A   1      47.120  31.217  27.377  1.00  0.00     0.022 A 
BRANCH  92  96
ATOM     96  S   UNL A   1      44.735  32.408  26.612  1.00  0.00     0.124 S 
ATOM     97  O   UNL A   1      44.099  33.230  27.634  1.00  0.00    -0.237 OA
ATOM     98  O   UNL A   1      45.740  33.075  25.789  1.00  0.00    -0.237 OA
ATOM     99  O   UNL A   1      43.817  31.547  25.866  1.00  0.00    -0.744 OA
ENDBRANCH  92  96
ENDBRANCH  66  89
ENDBRANCH  40  41
ENDBRANCH  32  35
ENDBRANCH  30  31
ENDBRANCH  29  30
ENDBRANCH   1  29
TORSDOF 17
ENDMDL
MODEL 3
REMARK VINA RESULT:     -12.8      1.859      2.194
REMARK SMILES Cc1nn(C)cc1C[NH+]1CCN(C(=O)Cn2ccc(C(=O)NCCCNC(=O)c3ccc(-c4c5nc(c(-c6cc(S(=O)(=O)[O-])ccc6F)c6ccc([nH]6)c(-c6cc(S(=O)(=O)[O-])ccc6F)c6nc(c(-c7cc(S(=O)(=O)[O-])ccc7F)c7ccc4[nH]7)C=C6)C=C5)cc3)n2)CC1
REMARK SMILES IDX 23 1 22 2 20 3 21 4 19 6 16 7 17 8 92 9 18 10 15 11 13 12
REMARK SMILES IDX 9 13 10 14 94 15 11 17 93 18 12 19 14 20 8 21 7 22 1 23 2 24
REMARK SMILES IDX 3 25 4 26 6 27 5 28 24 29 25 30 26 31 27 32 28 34 29 35
REMARK SMILES IDX 30 36 91 37 31 38 90 39 32 40 33 41 34 42 84 43 35 44 89 45
REMARK SMILES IDX 83 46 85 47 36 48 88 49 82 50 81 51 37 53 69 54 49 55 68 56
REMARK SMILES IDX 50 57 53 58 67 59 86 60 51 61 52 62 66 64 87 65 54 66 38 67
REMARK SMILES IDX 39 68 47 69 40 70 46 71 48 72 45 73 41 74 42 75 43 76 44 77
REMARK SMILES IDX 70 78 71 79 79 80 72 81 78 82 80 83 77 84 73 85 74 86 75 87
REMARK SMILES IDX 76 88 55 89 56 90 64 91 57 92 63 93 65 94 62 95 58 96 59 97
REMARK SMILES IDX 60 98 61 99
REMARK H PARENT 22 5 9 16 26 33 85 52 53 63
REMARK Flexibility Score: inf
ROOT
ATOM      1  C   UNL A   1      35.962  21.871  26.075  1.00  0.00     0.118 C 
ENDROOT
BRANCH   1   2
ATOM      2  N   UNL A   1      35.333  20.653  25.600  1.00  0.00    -0.351 N 
ATOM      3  C   UNL A   1      34.128  20.443  24.961  1.00  0.00     0.271 C 
ATOM      4  O   UNL A   1      33.901  19.302  24.569  1.00  0.00    -0.267 OA
ATOM      5  H   UNL A   1      35.856  19.834  25.762  1.00  0.00     0.163 HD
BRANCH   3   6
ATOM      6  C   UNL A   1      33.177  21.557  24.749  1.00  0.00     0.150 A 
ATOM      7  N   UNL A   1      32.221  23.165  23.700  1.00  0.00    -0.263 N 
ATOM      8  C   UNL A   1      31.622  23.153  24.923  1.00  0.00     0.110 A 
ATOM      9  N   UNL A   1      33.133  22.188  23.558  1.00  0.00    -0.167 NA
ATOM     10  C   UNL A   1      32.196  22.114  25.613  1.00  0.00     0.056 A 
BRANCH   7  11
ATOM     11  C   UNL A   1      31.921  23.984  22.533  1.00  0.00     0.244 C 
BRANCH  11  12
ATOM     12  C   UNL A   1      32.807  25.210  22.418  1.00  0.00     0.244 C 
ATOM     13  N   UNL A   1      31.286  29.217  23.231  1.00  0.00    -0.328 N 
ATOM     14  C   UNL A   1      32.647  28.964  22.752  1.00  0.00     0.284 C 
ATOM     15  C   UNL A   1      30.371  28.158  22.805  1.00  0.00     0.284 C 
ATOM     16  H   UNL A   1      30.979  30.065  22.752  1.00  0.00     0.348 HD
ATOM     17  C   UNL A   1      33.195  27.546  22.990  1.00  0.00     0.181 C 
ATOM     18  C   UNL A   1      30.845  26.701  22.976  1.00  0.00     0.181 C 
ATOM     19  N   UNL A   1      32.258  26.467  22.666  1.00  0.00    -0.330 N 
ATOM     20  O   UNL A   1      34.006  25.082  22.151  1.00  0.00    -0.273 OA
BRANCH  13  21
ATOM     21  C   UNL A   1      31.145  29.694  24.611  1.00  0.00     0.302 C 
BRANCH  21  22
ATOM     22  C   UNL A   1      32.190  29.191  25.544  1.00  0.00     0.047 A 
ATOM     23  C   UNL A   1      31.168  26.922  26.401  1.00  0.00     0.069 C 
ATOM     24  C   UNL A   1      32.178  28.009  26.344  1.00  0.00     0.068 A 
ATOM     25  N   UNL A   1      33.230  27.961  27.172  1.00  0.00    -0.178 NA
ATOM     26  N   UNL A   1      33.916  29.079  26.890  1.00  0.00    -0.275 N 
ATOM     27  C   UNL A   1      33.424  29.752  25.814  1.00  0.00     0.118 A 
ATOM     28  C   UNL A   1      34.960  29.528  27.780  1.00  0.00     0.173 C 
ENDBRANCH  21  22
ENDBRANCH  13  21
ENDBRANCH  11  12
ENDBRANCH   7  11
ENDBRANCH   3   6
ENDBRANCH   1   2
BRANCH   1  29
ATOM     29  C   UNL A   1      37.234  22.209  25.289  1.00  0.00     0.042 C 
BRANCH  29  30
ATOM     30  C   UNL A   1      38.138  23.155  26.064  1.00  0.00     0.118 C 
BRANCH  30  31
ATOM     31  N   UNL A   1      39.229  22.447  26.751  1.00  0.00    -0.352 N 
ATOM     32  C   UNL A   1      40.379  22.950  27.345  1.00  0.00     0.251 C 
ATOM     33  H   UNL A   1      39.128  21.469  26.797  1.00  0.00     0.163 HD
ATOM     34  O   UNL A   1      41.333  22.217  27.551  1.00  0.00    -0.269 OA
BRANCH  32  35
ATOM     35  C   UNL A   1      40.418  24.376  27.726  1.00  0.00     0.039 A 
ATOM     36  C   UNL A   1      39.328  25.243  27.587  1.00  0.00     0.014 A 
ATOM     37  C   UNL A   1      41.604  24.830  28.276  1.00  0.00     0.014 A 
ATOM     38  C   UNL A   1      39.462  26.559  28.042  1.00  0.00     0.010 A 
ATOM     39  C   UNL A   1      41.612  25.981  28.996  1.00  0.00     0.010 A 
ATOM     40  C   UNL A   1      40.622  26.912  28.742  1.00  0.00    -0.014 A 
BRANCH  40  41
ATOM     41  C   UNL A   1      40.856  28.212  29.355  1.00  0.00     0.031 A 
ATOM     42  C   UNL A   1      41.929  28.972  28.672  1.00  0.00     0.074 A 
ATOM     43  C   UNL A   1      39.934  28.774  30.177  1.00  0.00     0.049 A 
ATOM     44  N   UNL A   1      43.134  29.185  29.085  1.00  0.00    -0.248 NA
ATOM     45  C   UNL A   1      41.727  29.315  27.249  1.00  0.00     0.031 C 
ATOM     46  C   UNL A   1      38.642  28.221  30.609  1.00  0.00     0.029 A 
ATOM     47  N   UNL A   1      39.893  30.026  30.704  1.00  0.00    -0.354 N 
ATOM     48  C   UNL A   1      43.717  29.967  28.094  1.00  0.00     0.074 A 
ATOM     49  C   UNL A   1      42.956  29.705  26.907  1.00  0.00     0.031 C 
ATOM     50  C   UNL A   1      37.868  29.206  31.124  1.00  0.00     0.029 A 
ATOM     51  C   UNL A   1      38.648  30.429  31.194  1.00  0.00     0.049 A 
ATOM     52  H   UNL A   1      40.685  30.609  30.738  1.00  0.00     0.167 HD
ATOM     53  C   UNL A   1      44.513  31.026  28.415  1.00  0.00     0.034 A 
ATOM     54  C   UNL A   1      38.282  31.686  31.588  1.00  0.00     0.034 A 
ATOM     55  C   UNL A   1      44.896  30.959  29.814  1.00  0.00     0.049 A 
ATOM     56  C   UNL A   1      39.552  32.423  31.835  1.00  0.00     0.074 A 
ATOM     57  C   UNL A   1      45.507  30.000  30.601  1.00  0.00     0.029 A 
ATOM     58  N   UNL A   1      44.252  31.802  30.698  1.00  0.00    -0.354 N 
ATOM     59  N   UNL A   1      40.397  32.090  32.777  1.00  0.00    -0.248 NA
ATOM     60  C   UNL A   1      40.135  33.152  30.716  1.00  0.00     0.031 C 
ATOM     61  C   UNL A   1      44.774  30.012  31.825  1.00  0.00     0.029 A 
ATOM     62  C   UNL A   1      43.845  31.054  31.776  1.00  0.00     0.049 A 
ATOM     63  H   UNL A   1      44.110  32.769  30.577  1.00  0.00     0.167 HD
ATOM     64  C   UNL A   1      41.649  32.165  32.182  1.00  0.00     0.074 A 
ATOM     65  C   UNL A   1      41.431  32.901  30.935  1.00  0.00     0.031 C 
ATOM     66  C   UNL A   1      42.676  31.357  32.586  1.00  0.00     0.034 A 
BRANCH  53  67
ATOM     67  C   UNL A   1      44.601  32.321  27.622  1.00  0.00     0.023 A 
ATOM     68  C   UNL A   1      44.010  33.455  28.211  1.00  0.00     0.031 A 
ATOM     69  C   UNL A   1      44.964  32.469  26.262  1.00  0.00     0.131 A 
ATOM     70  C   UNL A   1      43.683  34.586  27.444  1.00  0.00     0.055 A 
ATOM     71  C   UNL A   1      44.694  33.622  25.519  1.00  0.00     0.041 A 
ATOM     72  F   UNL A   1      45.531  31.501  25.538  1.00  0.00    -0.206 F 
ATOM     73  C   UNL A   1      44.015  34.676  26.097  1.00  0.00     0.022 A 
BRANCH  70  74
ATOM     74  S   UNL A   1      42.649  35.859  28.205  1.00  0.00     0.124 S 
ATOM     75  O   UNL A   1      41.326  35.490  27.713  1.00  0.00    -0.237 OA
ATOM     76  O   UNL A   1      42.897  35.632  29.625  1.00  0.00    -0.237 OA
ATOM     77  O   UNL A   1      43.195  37.102  27.666  1.00  0.00    -0.744 OA
ENDBRANCH  70  74
ENDBRANCH  53  67
BRANCH  54  78
ATOM     78  C   UNL A   1      36.957  32.365  31.399  1.00  0.00     0.023 A 
ATOM     79  C   UNL A   1      36.440  32.764  30.140  1.00  0.00     0.031 A 
ATOM     80  C   UNL A   1      36.050  32.412  32.483  1.00  0.00     0.131 A 
ATOM     81  C   UNL A   1      35.088  33.187  30.017  1.00  0.00     0.055 A 
ATOM     82  C   UNL A   1      34.721  32.827  32.355  1.00  0.00     0.041 A 
ATOM     83  F   UNL A   1      36.404  31.971  33.701  1.00  0.00    -0.206 F 
ATOM     84  C   UNL A   1      34.230  33.209  31.119  1.00  0.00     0.022 A 
BRANCH  81  85
ATOM     85  S   UNL A   1      34.382  33.656  28.395  1.00  0.00     0.124 S 
ATOM     86  O   UNL A   1      33.475  32.549  28.115  1.00  0.00    -0.237 OA
ATOM     87  O   UNL A   1      33.764  34.945  28.680  1.00  0.00    -0.237 OA
ATOM     88  O   UNL A   1      35.551  33.722  27.515  1.00  0.00    -0.744 OA
ENDBRANCH  81  85
ENDBRANCH  54  78
BRANCH  66  89
ATOM     89  C   UNL A   1      42.526  30.572  33.879  1.00  0.00     0.023 A 
ATOM     90  C   UNL A   1      42.141  29.212  33.981  1.00  0.00     0.031 A 
ATOM     91  C   UNL A   1      42.939  31.219  35.057  1.00  0.00     0.131 A 
ATOM     92  C   UNL A   1      42.180  28.561  35.234  1.00  0.00     0.055 A 
ATOM     93  C   UNL A   1      42.999  30.566  36.285  1.00  0.00     0.041 A 
ATOM     94  F   UNL A   1      43.339  32.501  35.023  1.00  0.00    -0.206 F 
ATOM     95  C   UNL A   1      42.617  29.235  36.380  1.00  0.00     0.022 A 
BRANCH  92  96
ATOM     96  S   UNL A   1      41.650  26.823  35.412  1.00  0.00     0.124 S 
ATOM     97  O   UNL A   1      42.871  26.068  35.160  1.00  0.00    -0.237 OA
ATOM     98  O   UNL A   1      41.144  26.784  36.781  1.00  0.00    -0.237 OA
ATOM     99  O   UNL A   1      40.620  26.675  34.382  1.00  0.00    -0.744 OA
ENDBRANCH  92  96
ENDBRANCH  66  89
ENDBRANCH  40  41
ENDBRANCH  32  35
ENDBRANCH  30  31
ENDBRANCH  29  30
ENDBRANCH   1  29
TORSDOF 17
ENDMDL
