MODEL 1
REMARK VINA RESULT:     -11.7      0.000      0.000
REMARK SMILES COc1ccc(CCc2nnc(NC(=O)[C@@H]3[C@@H](C(=O)NCCCNC(=O)c4ccc(-c5c6nc(c(-c7cc(S(=O)(=O)[O-])ccc7F)c7ccc([nH]7)c(-c7cc(S(=O)(=O)[O-])ccc7F)c7nc(c(-c8cc(S(=O)(=O)[O-])ccc8F)c8ccc5[nH]8)C=C7)C=C6)cc4)C3(C)C)s2)cc1
REMARK SMILES IDX 18 1 19 2 20 3 17 5 16 6 90 7 91 8 92 9 14 10 13 11 15 13
REMARK SMILES IDX 12 14 9 15 10 16 93 17 11 18 8 19 7 20 6 21 3 22 4 23 95 24
REMARK SMILES IDX 5 25 94 26 2 27 1 28 21 29 22 30 23 31 24 32 25 33 26 35
REMARK SMILES IDX 27 36 28 37 89 38 29 39 88 40 30 41 31 42 32 43 82 44 33 45
REMARK SMILES IDX 87 46 81 47 83 48 34 49 86 50 80 51 79 52 35 54 67 55 47 56
REMARK SMILES IDX 66 57 48 58 51 59 65 60 84 61 49 62 50 63 64 65 85 66 52 67
REMARK SMILES IDX 36 68 37 69 45 70 38 71 44 72 46 73 43 74 39 75 40 76 41 77
REMARK SMILES IDX 42 78 68 79 69 80 77 81 70 82 76 83 78 84 75 85 71 86 72 87
REMARK SMILES IDX 73 88 74 89 53 90 54 91 62 92 55 93 61 94 63 95 60 96 56 97
REMARK SMILES IDX 57 98 58 99 59 100
REMARK H PARENT 20 4 13 12 24 34 83 53 51 64
REMARK Flexibility Score: inf
ROOT
ATOM      1  C   UNL A   1      36.181  22.443  23.555  1.00  0.00     0.224 C 
ATOM      2  O   UNL A   1      36.584  23.304  22.771  1.00  0.00    -0.275 OA
ATOM      3  N   UNL A   1      37.134  21.686  24.169  1.00  0.00    -0.356 N 
ATOM      4  H   UNL A   1      38.050  21.986  23.962  1.00  0.00     0.163 HD
ENDROOT
BRANCH   1   5
ATOM      5  C   UNL A   1      34.715  22.362  23.768  1.00  0.00     0.098 C 
ATOM      6  C   UNL A   1      33.613  23.316  23.416  1.00  0.00     0.098 C 
ATOM      7  C   UNL A   1      33.991  23.108  24.887  1.00  0.00    -0.011 C 
ATOM      8  C   UNL A   1      34.653  24.285  25.577  1.00  0.00     0.013 C 
ATOM      9  C   UNL A   1      33.110  22.303  25.809  1.00  0.00     0.013 C 
BRANCH   6  10
ATOM     10  C   UNL A   1      32.383  22.779  22.754  1.00  0.00     0.230 C 
ATOM     11  N   UNL A   1      31.204  23.478  22.862  1.00  0.00    -0.300 N 
ATOM     12  H   UNL A   1      30.370  23.005  22.638  1.00  0.00     0.172 HD
ATOM     13  O   UNL A   1      32.383  21.690  22.185  1.00  0.00    -0.274 OA
BRANCH  11  14
ATOM     14  C   UNL A   1      31.103  24.780  23.258  1.00  0.00     0.212 A 
ATOM     15  C   UNL A   1      31.014  26.723  24.598  1.00  0.00     0.119 A 
ATOM     16  N   UNL A   1      31.223  27.001  23.327  1.00  0.00    -0.142 NA
ATOM     17  S   UNL A   1      30.717  25.048  24.898  1.00  0.00    -0.080 S 
ATOM     18  N   UNL A   1      31.288  25.867  22.553  1.00  0.00    -0.120 NA
BRANCH  15  19
ATOM     19  C   UNL A   1      31.055  27.740  25.693  1.00  0.00     0.074 C 
BRANCH  19  20
ATOM     20  C   UNL A   1      31.519  29.126  25.220  1.00  0.00     0.043 C 
BRANCH  20  21
ATOM     21  C   UNL A   1      32.489  29.831  26.141  1.00  0.00    -0.047 A 
ATOM     22  C   UNL A   1      34.294  31.126  27.855  1.00  0.00     0.118 A 
ATOM     23  C   UNL A   1      34.633  29.905  27.283  1.00  0.00     0.046 A 
ATOM     24  C   UNL A   1      33.071  31.721  27.560  1.00  0.00     0.046 A 
ATOM     25  C   UNL A   1      33.731  29.253  26.442  1.00  0.00     0.007 A 
ATOM     26  C   UNL A   1      32.171  31.076  26.705  1.00  0.00     0.007 A 
BRANCH  22  27
ATOM     27  O   UNL A   1      35.247  31.735  28.625  1.00  0.00    -0.497 OA
ATOM     28  C   UNL A   1      34.683  32.715  29.496  1.00  0.00     0.278 C 
ENDBRANCH  22  27
ENDBRANCH  20  21
ENDBRANCH  19  20
ENDBRANCH  15  19
ENDBRANCH  11  14
ENDBRANCH   6  10
ENDBRANCH   1   5
BRANCH   3  29
ATOM     29  C   UNL A   1      37.106  20.538  25.055  1.00  0.00     0.117 C 
BRANCH  29  30
ATOM     30  C   UNL A   1      38.384  19.719  24.949  1.00  0.00     0.042 C 
BRANCH  30  31
ATOM     31  C   UNL A   1      39.389  20.000  26.055  1.00  0.00     0.118 C 
BRANCH  31  32
ATOM     32  N   UNL A   1      40.550  19.123  26.008  1.00  0.00    -0.352 N 
ATOM     33  C   UNL A   1      41.896  19.403  26.043  1.00  0.00     0.251 C 
ATOM     34  H   UNL A   1      40.335  18.165  25.938  1.00  0.00     0.163 HD
ATOM     35  O   UNL A   1      42.699  18.494  25.832  1.00  0.00    -0.269 OA
BRANCH  33  36
ATOM     36  C   UNL A   1      42.396  20.775  26.304  1.00  0.00     0.039 A 
ATOM     37  C   UNL A   1      42.609  21.164  27.631  1.00  0.00     0.014 A 
ATOM     38  C   UNL A   1      42.615  21.695  25.278  1.00  0.00     0.014 A 
ATOM     39  C   UNL A   1      43.110  22.436  27.920  1.00  0.00     0.010 A 
ATOM     40  C   UNL A   1      43.200  22.928  25.556  1.00  0.00     0.010 A 
ATOM     41  C   UNL A   1      43.438  23.318  26.882  1.00  0.00    -0.014 A 
BRANCH  41  42
ATOM     42  C   UNL A   1      43.966  24.676  27.167  1.00  0.00     0.031 A 
ATOM     43  C   UNL A   1      43.041  25.734  27.704  1.00  0.00     0.074 A 
ATOM     44  C   UNL A   1      45.254  24.969  26.903  1.00  0.00     0.049 A 
ATOM     45  N   UNL A   1      43.284  26.993  27.967  1.00  0.00    -0.248 NA
ATOM     46  C   UNL A   1      41.648  25.328  27.943  1.00  0.00     0.031 C 
ATOM     47  C   UNL A   1      46.228  24.038  26.332  1.00  0.00     0.029 A 
ATOM     48  N   UNL A   1      45.965  26.131  27.069  1.00  0.00    -0.354 N 
ATOM     49  C   UNL A   1      42.071  27.532  28.383  1.00  0.00     0.074 A 
ATOM     50  C   UNL A   1      41.084  26.478  28.273  1.00  0.00     0.031 C 
ATOM     51  C   UNL A   1      47.416  24.656  26.219  1.00  0.00     0.029 A 
ATOM     52  C   UNL A   1      47.279  26.038  26.668  1.00  0.00     0.049 A 
ATOM     53  H   UNL A   1      45.572  26.954  27.439  1.00  0.00     0.167 HD
ATOM     54  C   UNL A   1      41.809  28.781  28.838  1.00  0.00     0.034 A 
ATOM     55  C   UNL A   1      48.256  26.966  26.655  1.00  0.00     0.034 A 
ATOM     56  C   UNL A   1      42.811  29.812  28.953  1.00  0.00     0.049 A 
ATOM     57  C   UNL A   1      47.944  28.351  27.166  1.00  0.00     0.074 A 
ATOM     58  C   UNL A   1      42.676  31.096  29.450  1.00  0.00     0.029 A 
ATOM     59  N   UNL A   1      44.136  29.678  28.556  1.00  0.00    -0.354 N 
ATOM     60  N   UNL A   1      46.806  28.830  27.612  1.00  0.00    -0.248 NA
ATOM     61  C   UNL A   1      49.052  29.314  27.185  1.00  0.00     0.031 C 
ATOM     62  C   UNL A   1      43.900  31.757  29.296  1.00  0.00     0.029 A 
ATOM     63  C   UNL A   1      44.822  30.864  28.773  1.00  0.00     0.049 A 
ATOM     64  H   UNL A   1      44.531  28.860  28.178  1.00  0.00     0.167 HD
ATOM     65  C   UNL A   1      47.068  30.144  27.990  1.00  0.00     0.074 A 
ATOM     66  C   UNL A   1      48.476  30.373  27.736  1.00  0.00     0.031 C 
ATOM     67  C   UNL A   1      46.225  31.077  28.502  1.00  0.00     0.034 A 
BRANCH  54  68
ATOM     68  C   UNL A   1      40.379  29.096  29.209  1.00  0.00     0.023 A 
ATOM     69  C   UNL A   1      39.946  29.089  30.547  1.00  0.00     0.031 A 
ATOM     70  C   UNL A   1      39.423  29.354  28.211  1.00  0.00     0.131 A 
ATOM     71  C   UNL A   1      38.582  29.246  30.844  1.00  0.00     0.055 A 
ATOM     72  C   UNL A   1      38.083  29.595  28.520  1.00  0.00     0.041 A 
ATOM     73  F   UNL A   1      39.771  29.353  26.914  1.00  0.00    -0.206 F 
ATOM     74  C   UNL A   1      37.652  29.524  29.842  1.00  0.00     0.022 A 
BRANCH  71  75
ATOM     75  S   UNL A   1      38.024  28.921  32.539  1.00  0.00     0.124 S 
ATOM     76  O   UNL A   1      38.903  29.795  33.313  1.00  0.00    -0.237 OA
ATOM     77  O   UNL A   1      36.619  29.311  32.488  1.00  0.00    -0.237 OA
ATOM     78  O   UNL A   1      38.269  27.490  32.713  1.00  0.00    -0.744 OA
ENDBRANCH  71  75
ENDBRANCH  54  68
BRANCH  55  79
ATOM     79  C   UNL A   1      49.613  26.630  26.138  1.00  0.00     0.023 A 
ATOM     80  C   UNL A   1      50.035  27.060  24.869  1.00  0.00     0.031 A 
ATOM     81  C   UNL A   1      50.499  25.840  26.892  1.00  0.00     0.131 A 
ATOM     82  C   UNL A   1      51.288  26.663  24.375  1.00  0.00     0.055 A 
ATOM     83  C   UNL A   1      51.763  25.487  26.417  1.00  0.00     0.041 A 
ATOM     84  F   UNL A   1      50.150  25.408  28.115  1.00  0.00    -0.206 F 
ATOM     85  C   UNL A   1      52.159  25.889  25.145  1.00  0.00     0.022 A 
BRANCH  82  86
ATOM     86  S   UNL A   1      51.735  27.113  22.675  1.00  0.00     0.124 S 
ATOM     87  O   UNL A   1      52.731  26.099  22.350  1.00  0.00    -0.237 OA
ATOM     88  O   UNL A   1      50.453  26.999  21.986  1.00  0.00    -0.237 OA
ATOM     89  O   UNL A   1      52.248  28.474  22.808  1.00  0.00    -0.744 OA
ENDBRANCH  82  86
ENDBRANCH  55  79
BRANCH  67  90
ATOM     90  C   UNL A   1      46.824  32.415  28.861  1.00  0.00     0.023 A 
ATOM     91  C   UNL A   1      46.833  33.489  27.954  1.00  0.00     0.031 A 
ATOM     92  C   UNL A   1      47.407  32.611  30.125  1.00  0.00     0.131 A 
ATOM     93  C   UNL A   1      47.465  34.692  28.302  1.00  0.00     0.055 A 
ATOM     94  C   UNL A   1      47.979  33.830  30.489  1.00  0.00     0.041 A 
ATOM     95  F   UNL A   1      47.429  31.617  31.029  1.00  0.00    -0.206 F 
ATOM     96  C   UNL A   1      48.023  34.874  29.571  1.00  0.00     0.022 A 
BRANCH  93  97
ATOM     97  S   UNL A   1      47.636  35.983  27.040  1.00  0.00     0.124 S 
ATOM     98  O   UNL A   1      47.706  37.193  27.853  1.00  0.00    -0.237 OA
ATOM     99  O   UNL A   1      48.869  35.597  26.364  1.00  0.00    -0.237 OA
ATOM    100  O   UNL A   1      46.420  35.844  26.240  1.00  0.00    -0.744 OA
ENDBRANCH  93  97
ENDBRANCH  67  90
ENDBRANCH  41  42
ENDBRANCH  33  36
ENDBRANCH  31  32
ENDBRANCH  30  31
ENDBRANCH  29  30
ENDBRANCH   3  29
TORSDOF 19
ENDMDL
MODEL 2
REMARK VINA RESULT:     -11.2      1.968      2.634
REMARK SMILES COc1ccc(CCc2nnc(NC(=O)[C@@H]3[C@@H](C(=O)NCCCNC(=O)c4ccc(-c5c6nc(c(-c7cc(S(=O)(=O)[O-])ccc7F)c7ccc([nH]7)c(-c7cc(S(=O)(=O)[O-])ccc7F)c7nc(c(-c8cc(S(=O)(=O)[O-])ccc8F)c8ccc5[nH]8)C=C7)C=C6)cc4)C3(C)C)s2)cc1
REMARK SMILES IDX 18 1 19 2 20 3 17 5 16 6 90 7 91 8 92 9 14 10 13 11 15 13
REMARK SMILES IDX 12 14 9 15 10 16 93 17 11 18 8 19 7 20 6 21 3 22 4 23 95 24
REMARK SMILES IDX 5 25 94 26 2 27 1 28 21 29 22 30 23 31 24 32 25 33 26 35
REMARK SMILES IDX 27 36 28 37 89 38 29 39 88 40 30 41 31 42 32 43 82 44 33 45
REMARK SMILES IDX 87 46 81 47 83 48 34 49 86 50 80 51 79 52 35 54 67 55 47 56
REMARK SMILES IDX 66 57 48 58 51 59 65 60 84 61 49 62 50 63 64 65 85 66 52 67
REMARK SMILES IDX 36 68 37 69 45 70 38 71 44 72 46 73 43 74 39 75 40 76 41 77
REMARK SMILES IDX 42 78 68 79 69 80 77 81 70 82 76 83 78 84 75 85 71 86 72 87
REMARK SMILES IDX 73 88 74 89 53 90 54 91 62 92 55 93 61 94 63 95 60 96 56 97
REMARK SMILES IDX 57 98 58 99 59 100
REMARK H PARENT 20 4 13 12 24 34 83 53 51 64
REMARK Flexibility Score: inf
ROOT
ATOM      1  C   UNL A   1      36.615  22.380  23.840  1.00  0.00     0.224 C 
ATOM      2  O   UNL A   1      36.764  22.803  22.692  1.00  0.00    -0.275 OA
ATOM      3  N   UNL A   1      37.751  22.100  24.537  1.00  0.00    -0.356 N 
ATOM      4  H   UNL A   1      38.569  22.355  24.051  1.00  0.00     0.163 HD
ENDROOT
BRANCH   1   5
ATOM      5  C   UNL A   1      35.221  22.265  24.336  1.00  0.00     0.098 C 
ATOM      6  C   UNL A   1      33.987  23.048  24.000  1.00  0.00     0.098 C 
ATOM      7  C   UNL A   1      34.628  23.204  25.384  1.00  0.00    -0.011 C 
ATOM      8  C   UNL A   1      35.279  24.544  25.669  1.00  0.00     0.013 C 
ATOM      9  C   UNL A   1      34.000  22.582  26.606  1.00  0.00     0.013 C 
BRANCH   6  10
ATOM     10  C   UNL A   1      32.721  22.303  23.712  1.00  0.00     0.230 C 
ATOM     11  N   UNL A   1      31.588  23.009  23.384  1.00  0.00    -0.300 N 
ATOM     12  H   UNL A   1      30.725  22.538  23.436  1.00  0.00     0.172 HD
ATOM     13  O   UNL A   1      32.650  21.083  23.840  1.00  0.00    -0.274 OA
BRANCH  11  14
ATOM     14  C   UNL A   1      31.570  24.316  22.991  1.00  0.00     0.212 A 
ATOM     15  C   UNL A   1      31.389  26.671  23.020  1.00  0.00     0.119 A 
ATOM     16  N   UNL A   1      31.987  26.228  21.933  1.00  0.00    -0.142 NA
ATOM     17  S   UNL A   1      30.780  25.412  24.033  1.00  0.00    -0.080 S 
ATOM     18  N   UNL A   1      32.102  24.859  21.926  1.00  0.00    -0.120 NA
BRANCH  15  19
ATOM     19  C   UNL A   1      31.267  28.118  23.376  1.00  0.00     0.074 C 
BRANCH  19  20
ATOM     20  C   UNL A   1      29.854  28.519  23.825  1.00  0.00     0.043 C 
BRANCH  20  21
ATOM     21  C   UNL A   1      29.313  29.784  23.200  1.00  0.00    -0.047 A 
ATOM     22  C   UNL A   1      28.313  32.129  22.026  1.00  0.00     0.118 A 
ATOM     23  C   UNL A   1      28.271  30.929  21.326  1.00  0.00     0.046 A 
ATOM     24  C   UNL A   1      28.828  32.167  23.319  1.00  0.00     0.046 A 
ATOM     25  C   UNL A   1      28.781  29.765  21.902  1.00  0.00     0.007 A 
ATOM     26  C   UNL A   1      29.326  30.998  23.904  1.00  0.00     0.007 A 
BRANCH  22  27
ATOM     27  O   UNL A   1      27.747  33.218  21.423  1.00  0.00    -0.497 OA
ATOM     28  C   UNL A   1      27.571  33.022  20.021  1.00  0.00     0.278 C 
ENDBRANCH  22  27
ENDBRANCH  20  21
ENDBRANCH  19  20
ENDBRANCH  15  19
ENDBRANCH  11  14
ENDBRANCH   6  10
ENDBRANCH   1   5
BRANCH   3  29
ATOM     29  C   UNL A   1      38.029  21.509  25.832  1.00  0.00     0.117 C 
BRANCH  29  30
ATOM     30  C   UNL A   1      39.524  21.464  26.116  1.00  0.00     0.042 C 
BRANCH  30  31
ATOM     31  C   UNL A   1      39.984  20.182  26.792  1.00  0.00     0.118 C 
BRANCH  31  32
ATOM     32  N   UNL A   1      41.083  19.530  26.095  1.00  0.00    -0.352 N 
ATOM     33  C   UNL A   1      42.304  20.011  25.684  1.00  0.00     0.251 C 
ATOM     34  H   UNL A   1      40.925  18.583  25.879  1.00  0.00     0.163 HD
ATOM     35  O   UNL A   1      43.013  19.303  24.968  1.00  0.00    -0.269 OA
BRANCH  33  36
ATOM     36  C   UNL A   1      42.771  21.367  26.064  1.00  0.00     0.039 A 
ATOM     37  C   UNL A   1      42.841  22.350  25.070  1.00  0.00     0.014 A 
ATOM     38  C   UNL A   1      43.180  21.677  27.361  1.00  0.00     0.014 A 
ATOM     39  C   UNL A   1      43.244  23.649  25.391  1.00  0.00     0.010 A 
ATOM     40  C   UNL A   1      43.493  22.990  27.702  1.00  0.00     0.010 A 
ATOM     41  C   UNL A   1      43.544  23.987  26.717  1.00  0.00    -0.014 A 
BRANCH  41  42
ATOM     42  C   UNL A   1      43.980  25.360  27.079  1.00  0.00     0.031 A 
ATOM     43  C   UNL A   1      42.983  26.324  27.661  1.00  0.00     0.074 A 
ATOM     44  C   UNL A   1      45.248  25.750  26.844  1.00  0.00     0.049 A 
ATOM     45  N   UNL A   1      43.141  27.580  27.993  1.00  0.00    -0.248 NA
ATOM     46  C   UNL A   1      41.618  25.816  27.864  1.00  0.00     0.031 C 
ATOM     47  C   UNL A   1      46.285  24.916  26.235  1.00  0.00     0.029 A 
ATOM     48  N   UNL A   1      45.879  26.945  27.078  1.00  0.00    -0.354 N 
ATOM     49  C   UNL A   1      41.892  28.016  28.425  1.00  0.00     0.074 A 
ATOM     50  C   UNL A   1      40.978  26.908  28.249  1.00  0.00     0.031 C 
ATOM     51  C   UNL A   1      47.430  25.616  26.166  1.00  0.00     0.029 A 
ATOM     52  C   UNL A   1      47.199  26.960  26.687  1.00  0.00     0.049 A 
ATOM     53  H   UNL A   1      45.430  27.720  27.487  1.00  0.00     0.167 HD
ATOM     54  C   UNL A   1      41.546  29.220  28.942  1.00  0.00     0.034 A 
ATOM     55  C   UNL A   1      48.113  27.950  26.733  1.00  0.00     0.034 A 
ATOM     56  C   UNL A   1      42.477  30.306  29.122  1.00  0.00     0.049 A 
ATOM     57  C   UNL A   1      47.707  29.281  27.313  1.00  0.00     0.074 A 
ATOM     58  C   UNL A   1      42.254  31.550  29.685  1.00  0.00     0.029 A 
ATOM     59  N   UNL A   1      43.811  30.281  28.732  1.00  0.00    -0.354 N 
ATOM     60  N   UNL A   1      46.537  29.660  27.772  1.00  0.00    -0.248 NA
ATOM     61  C   UNL A   1      48.749  30.312  27.395  1.00  0.00     0.031 C 
ATOM     62  C   UNL A   1      43.433  32.297  29.579  1.00  0.00     0.029 A 
ATOM     63  C   UNL A   1      44.415  31.495  29.019  1.00  0.00     0.049 A 
ATOM     64  H   UNL A   1      44.262  29.512  28.315  1.00  0.00     0.167 HD
ATOM     65  C   UNL A   1      46.709  30.966  28.221  1.00  0.00     0.074 A 
ATOM     66  C   UNL A   1      48.101  31.300  27.995  1.00  0.00     0.031 C 
ATOM     67  C   UNL A   1      45.803  31.814  28.774  1.00  0.00     0.034 A 
BRANCH  54  68
ATOM     68  C   UNL A   1      40.095  29.420  29.315  1.00  0.00     0.023 A 
ATOM     69  C   UNL A   1      39.678  29.460  30.657  1.00  0.00     0.031 A 
ATOM     70  C   UNL A   1      39.110  29.519  28.318  1.00  0.00     0.131 A 
ATOM     71  C   UNL A   1      38.309  29.505  30.965  1.00  0.00     0.055 A 
ATOM     72  C   UNL A   1      37.755  29.651  28.631  1.00  0.00     0.041 A 
ATOM     73  F   UNL A   1      39.444  29.465  27.018  1.00  0.00    -0.206 F 
ATOM     74  C   UNL A   1      37.346  29.626  29.962  1.00  0.00     0.022 A 
BRANCH  71  75
ATOM     75  S   UNL A   1      37.800  29.240  32.686  1.00  0.00     0.124 S 
ATOM     76  O   UNL A   1      36.481  29.869  32.704  1.00  0.00    -0.237 OA
ATOM     77  O   UNL A   1      37.817  27.786  32.800  1.00  0.00    -0.237 OA
ATOM     78  O   UNL A   1      38.826  29.940  33.459  1.00  0.00    -0.744 OA
ENDBRANCH  71  75
ENDBRANCH  54  68
BRANCH  55  79
ATOM     79  C   UNL A   1      49.493  27.731  26.213  1.00  0.00     0.023 A 
ATOM     80  C   UNL A   1      49.834  28.069  24.892  1.00  0.00     0.031 A 
ATOM     81  C   UNL A   1      50.485  27.145  27.019  1.00  0.00     0.131 A 
ATOM     82  C   UNL A   1      51.118  27.779  24.405  1.00  0.00     0.055 A 
ATOM     83  C   UNL A   1      51.776  26.903  26.545  1.00  0.00     0.041 A 
ATOM     84  F   UNL A   1      50.215  26.810  28.292  1.00  0.00    -0.206 F 
ATOM     85  C   UNL A   1      52.095  27.209  25.226  1.00  0.00     0.022 A 
BRANCH  82  86
ATOM     86  S   UNL A   1      51.475  28.092  22.653  1.00  0.00     0.124 S 
ATOM     87  O   UNL A   1      51.540  26.738  22.116  1.00  0.00    -0.237 OA
ATOM     88  O   UNL A   1      50.321  28.889  22.249  1.00  0.00    -0.237 OA
ATOM     89  O   UNL A   1      52.745  28.813  22.689  1.00  0.00    -0.744 OA
ENDBRANCH  82  86
ENDBRANCH  55  79
BRANCH  67  90
ATOM     90  C   UNL A   1      46.310  33.167  29.209  1.00  0.00     0.023 A 
ATOM     91  C   UNL A   1      46.361  34.258  28.324  1.00  0.00     0.031 A 
ATOM     92  C   UNL A   1      46.763  33.361  30.526  1.00  0.00     0.131 A 
ATOM     93  C   UNL A   1      46.907  35.478  28.750  1.00  0.00     0.055 A 
ATOM     94  C   UNL A   1      47.248  34.594  30.962  1.00  0.00     0.041 A 
ATOM     95  F   UNL A   1      46.740  32.352  31.412  1.00  0.00    -0.206 F 
ATOM     96  C   UNL A   1      47.335  35.657  30.068  1.00  0.00     0.022 A 
BRANCH  93  97
ATOM     97  S   UNL A   1      47.143  36.800  27.531  1.00  0.00     0.124 S 
ATOM     98  O   UNL A   1      45.768  37.145  27.189  1.00  0.00    -0.237 OA
ATOM     99  O   UNL A   1      47.882  37.800  28.294  1.00  0.00    -0.237 OA
ATOM    100  O   UNL A   1      47.903  36.150  26.464  1.00  0.00    -0.744 OA
ENDBRANCH  93  97
ENDBRANCH  67  90
ENDBRANCH  41  42
ENDBRANCH  33  36
ENDBRANCH  31  32
ENDBRANCH  30  31
ENDBRANCH  29  30
ENDBRANCH   3  29
TORSDOF 19
ENDMDL
MODEL 3
REMARK VINA RESULT:     -11.1      3.028      8.320
REMARK SMILES COc1ccc(CCc2nnc(NC(=O)[C@@H]3[C@@H](C(=O)NCCCNC(=O)c4ccc(-c5c6nc(c(-c7cc(S(=O)(=O)[O-])ccc7F)c7ccc([nH]7)c(-c7cc(S(=O)(=O)[O-])ccc7F)c7nc(c(-c8cc(S(=O)(=O)[O-])ccc8F)c8ccc5[nH]8)C=C7)C=C6)cc4)C3(C)C)s2)cc1
REMARK SMILES IDX 18 1 19 2 20 3 17 5 16 6 90 7 91 8 92 9 14 10 13 11 15 13
REMARK SMILES IDX 12 14 9 15 10 16 93 17 11 18 8 19 7 20 6 21 3 22 4 23 95 24
REMARK SMILES IDX 5 25 94 26 2 27 1 28 21 29 22 30 23 31 24 32 25 33 26 35
REMARK SMILES IDX 27 36 28 37 89 38 29 39 88 40 30 41 31 42 32 43 82 44 33 45
REMARK SMILES IDX 87 46 81 47 83 48 34 49 86 50 80 51 79 52 35 54 67 55 47 56
REMARK SMILES IDX 66 57 48 58 51 59 65 60 84 61 49 62 50 63 64 65 85 66 52 67
REMARK SMILES IDX 36 68 37 69 45 70 38 71 44 72 46 73 43 74 39 75 40 76 41 77
REMARK SMILES IDX 42 78 68 79 69 80 77 81 70 82 76 83 78 84 75 85 71 86 72 87
REMARK SMILES IDX 73 88 74 89 53 90 54 91 62 92 55 93 61 94 63 95 60 96 56 97
REMARK SMILES IDX 57 98 58 99 59 100
REMARK H PARENT 20 4 13 12 24 34 83 53 51 64
REMARK Flexibility Score: inf
ROOT
ATOM      1  C   UNL A   1      34.515  22.499  26.823  1.00  0.00     0.224 C 
ATOM      2  O   UNL A   1      34.101  22.421  27.981  1.00  0.00    -0.275 OA
ATOM      3  N   UNL A   1      35.867  22.563  26.665  1.00  0.00    -0.356 N 
ATOM      4  H   UNL A   1      36.356  22.454  27.514  1.00  0.00     0.163 HD
ENDROOT
BRANCH   1   5
ATOM      5  C   UNL A   1      33.498  22.474  25.743  1.00  0.00     0.098 C 
ATOM      6  C   UNL A   1      33.404  23.243  24.459  1.00  0.00     0.098 C 
ATOM      7  C   UNL A   1      32.414  23.538  25.592  1.00  0.00    -0.011 C 
ATOM      8  C   UNL A   1      32.562  24.886  26.272  1.00  0.00     0.013 C 
ATOM      9  C   UNL A   1      30.982  23.072  25.513  1.00  0.00     0.013 C 
BRANCH   6  10
ATOM     10  C   UNL A   1      33.082  22.501  23.200  1.00  0.00     0.230 C 
ATOM     11  N   UNL A   1      32.561  23.190  22.131  1.00  0.00    -0.300 N 
ATOM     12  H   UNL A   1      32.135  22.666  21.413  1.00  0.00     0.172 HD
ATOM     13  O   UNL A   1      33.197  21.280  23.127  1.00  0.00    -0.274 OA
BRANCH  11  14
ATOM     14  C   UNL A   1      32.590  24.547  21.989  1.00  0.00     0.212 A 
ATOM     15  C   UNL A   1      32.076  26.842  22.205  1.00  0.00     0.119 A 
ATOM     16  N   UNL A   1      33.271  26.643  21.688  1.00  0.00    -0.142 NA
ATOM     17  S   UNL A   1      31.173  25.388  22.436  1.00  0.00    -0.080 S 
ATOM     18  N   UNL A   1      33.571  25.307  21.576  1.00  0.00    -0.120 NA
BRANCH  15  19
ATOM     19  C   UNL A   1      31.546  28.186  22.591  1.00  0.00     0.074 C 
BRANCH  19  20
ATOM     20  C   UNL A   1      30.949  28.223  24.005  1.00  0.00     0.043 C 
BRANCH  20  21
ATOM     21  C   UNL A   1      31.931  28.529  25.113  1.00  0.00    -0.047 A 
ATOM     22  C   UNL A   1      33.743  29.098  27.178  1.00  0.00     0.118 A 
ATOM     23  C   UNL A   1      32.535  28.473  27.466  1.00  0.00     0.046 A 
ATOM     24  C   UNL A   1      34.068  29.421  25.863  1.00  0.00     0.046 A 
ATOM     25  C   UNL A   1      31.627  28.202  26.442  1.00  0.00     0.007 A 
ATOM     26  C   UNL A   1      33.164  29.137  24.833  1.00  0.00     0.007 A 
BRANCH  22  27
ATOM     27  O   UNL A   1      34.609  29.284  28.221  1.00  0.00    -0.497 OA
ATOM     28  C   UNL A   1      35.968  29.320  27.787  1.00  0.00     0.278 C 
ENDBRANCH  22  27
ENDBRANCH  20  21
ENDBRANCH  19  20
ENDBRANCH  15  19
ENDBRANCH  11  14
ENDBRANCH   6  10
ENDBRANCH   1   5
BRANCH   3  29
ATOM     29  C   UNL A   1      36.750  22.757  25.531  1.00  0.00     0.117 C 
BRANCH  29  30
ATOM     30  C   UNL A   1      38.015  21.921  25.659  1.00  0.00     0.042 C 
BRANCH  30  31
ATOM     31  C   UNL A   1      39.172  22.652  26.323  1.00  0.00     0.118 C 
BRANCH  31  32
ATOM     32  N   UNL A   1      40.475  22.144  25.919  1.00  0.00    -0.352 N 
ATOM     33  C   UNL A   1      41.719  22.730  25.940  1.00  0.00     0.251 C 
ATOM     34  H   UNL A   1      40.465  21.223  25.572  1.00  0.00     0.163 HD
ATOM     35  O   UNL A   1      42.659  22.149  25.398  1.00  0.00    -0.269 OA
BRANCH  33  36
ATOM     36  C   UNL A   1      41.943  24.050  26.577  1.00  0.00     0.039 A 
ATOM     37  C   UNL A   1      41.950  25.190  25.764  1.00  0.00     0.014 A 
ATOM     38  C   UNL A   1      42.189  24.186  27.944  1.00  0.00     0.014 A 
ATOM     39  C   UNL A   1      42.125  26.456  26.328  1.00  0.00     0.010 A 
ATOM     40  C   UNL A   1      42.272  25.450  28.520  1.00  0.00     0.010 A 
ATOM     41  C   UNL A   1      42.257  26.599  27.715  1.00  0.00    -0.014 A 
BRANCH  41  42
ATOM     42  C   UNL A   1      42.449  27.935  28.334  1.00  0.00     0.031 A 
ATOM     43  C   UNL A   1      43.843  28.464  28.537  1.00  0.00     0.074 A 
ATOM     44  C   UNL A   1      41.384  28.646  28.752  1.00  0.00     0.049 A 
ATOM     45  N   UNL A   1      44.233  29.577  29.105  1.00  0.00    -0.248 NA
ATOM     46  C   UNL A   1      44.944  27.610  28.067  1.00  0.00     0.031 C 
ATOM     47  C   UNL A   1      39.991  28.208  28.655  1.00  0.00     0.029 A 
ATOM     48  N   UNL A   1      41.302  29.878  29.349  1.00  0.00    -0.354 N 
ATOM     49  C   UNL A   1      45.623  29.546  29.079  1.00  0.00     0.074 A 
ATOM     50  C   UNL A   1      46.004  28.276  28.498  1.00  0.00     0.031 C 
ATOM     51  C   UNL A   1      39.191  29.167  29.151  1.00  0.00     0.029 A 
ATOM     52  C   UNL A   1      40.015  30.269  29.640  1.00  0.00     0.049 A 
ATOM     53  H   UNL A   1      42.091  30.431  29.552  1.00  0.00     0.167 HD
ATOM     54  C   UNL A   1      46.501  30.498  29.479  1.00  0.00     0.034 A 
ATOM     55  C   UNL A   1      39.554  31.384  30.241  1.00  0.00     0.034 A 
ATOM     56  C   UNL A   1      46.100  31.763  30.043  1.00  0.00     0.049 A 
ATOM     57  C   UNL A   1      40.548  32.432  30.678  1.00  0.00     0.074 A 
ATOM     58  C   UNL A   1      46.895  32.826  30.433  1.00  0.00     0.029 A 
ATOM     59  N   UNL A   1      44.786  32.135  30.305  1.00  0.00    -0.354 N 
ATOM     60  N   UNL A   1      41.858  32.414  30.592  1.00  0.00    -0.248 NA
ATOM     61  C   UNL A   1      39.999  33.653  31.278  1.00  0.00     0.031 C 
ATOM     62  C   UNL A   1      46.070  33.811  30.988  1.00  0.00     0.029 A 
ATOM     63  C   UNL A   1      44.752  33.398  30.875  1.00  0.00     0.049 A 
ATOM     64  H   UNL A   1      43.995  31.582  30.111  1.00  0.00     0.167 HD
ATOM     65  C   UNL A   1      42.288  33.635  31.105  1.00  0.00     0.074 A 
ATOM     66  C   UNL A   1      41.096  34.369  31.478  1.00  0.00     0.031 C 
ATOM     67  C   UNL A   1      43.552  34.109  31.252  1.00  0.00     0.034 A 
BRANCH  54  68
ATOM     68  C   UNL A   1      47.972  30.182  29.345  1.00  0.00     0.023 A 
ATOM     69  C   UNL A   1      48.730  30.645  28.254  1.00  0.00     0.031 A 
ATOM     70  C   UNL A   1      48.615  29.364  30.290  1.00  0.00     0.131 A 
ATOM     71  C   UNL A   1      50.056  30.215  28.088  1.00  0.00     0.055 A 
ATOM     72  C   UNL A   1      49.960  29.010  30.165  1.00  0.00     0.041 A 
ATOM     73  F   UNL A   1      47.939  28.874  31.342  1.00  0.00    -0.206 F 
ATOM     74  C   UNL A   1      50.684  29.421  29.050  1.00  0.00     0.022 A 
BRANCH  71  75
ATOM     75  S   UNL A   1      50.893  30.577  26.520  1.00  0.00     0.124 S 
ATOM     76  O   UNL A   1      50.531  29.411  25.717  1.00  0.00    -0.237 OA
ATOM     77  O   UNL A   1      50.283  31.841  26.122  1.00  0.00    -0.237 OA
ATOM     78  O   UNL A   1      52.304  30.654  26.893  1.00  0.00    -0.744 OA
ENDBRANCH  71  75
ENDBRANCH  54  68
BRANCH  55  79
ATOM     79  C   UNL A   1      38.094  31.570  30.475  1.00  0.00     0.023 A 
ATOM     80  C   UNL A   1      37.273  32.172  29.507  1.00  0.00     0.031 A 
ATOM     81  C   UNL A   1      37.501  31.179  31.689  1.00  0.00     0.131 A 
ATOM     82  C   UNL A   1      35.917  32.406  29.785  1.00  0.00     0.055 A 
ATOM     83  C   UNL A   1      36.141  31.370  31.943  1.00  0.00     0.041 A 
ATOM     84  F   UNL A   1      38.237  30.591  32.646  1.00  0.00    -0.206 F 
ATOM     85  C   UNL A   1      35.343  31.998  30.992  1.00  0.00     0.022 A 
BRANCH  82  86
ATOM     86  S   UNL A   1      34.925  33.321  28.571  1.00  0.00     0.124 S 
ATOM     87  O   UNL A   1      34.590  34.531  29.312  1.00  0.00    -0.237 OA
ATOM     88  O   UNL A   1      35.870  33.481  27.470  1.00  0.00    -0.237 OA
ATOM     89  O   UNL A   1      33.805  32.422  28.302  1.00  0.00    -0.744 OA
ENDBRANCH  82  86
ENDBRANCH  55  79
BRANCH  67  90
ATOM     90  C   UNL A   1      43.697  35.507  31.802  1.00  0.00     0.023 A 
ATOM     91  C   UNL A   1      43.809  36.626  30.959  1.00  0.00     0.031 A 
ATOM     92  C   UNL A   1      43.737  35.718  33.191  1.00  0.00     0.131 A 
ATOM     93  C   UNL A   1      44.015  37.899  31.512  1.00  0.00     0.055 A 
ATOM     94  C   UNL A   1      43.880  36.994  33.737  1.00  0.00     0.041 A 
ATOM     95  F   UNL A   1      43.638  34.684  34.043  1.00  0.00    -0.206 F 
ATOM     96  C   UNL A   1      44.034  38.092  32.896  1.00  0.00     0.022 A 
BRANCH  93  97
ATOM     97  S   UNL A   1      44.357  39.288  30.397  1.00  0.00     0.124 S 
ATOM     98  O   UNL A   1      44.584  40.381  31.336  1.00  0.00    -0.237 OA
ATOM     99  O   UNL A   1      45.530  38.821  29.666  1.00  0.00    -0.237 OA
ATOM    100  O   UNL A   1      43.135  39.398  29.602  1.00  0.00    -0.744 OA
ENDBRANCH  93  97
ENDBRANCH  67  90
ENDBRANCH  41  42
ENDBRANCH  33  36
ENDBRANCH  31  32
ENDBRANCH  30  31
ENDBRANCH  29  30
ENDBRANCH   3  29
TORSDOF 19
ENDMDL
