MODEL 1
REMARK VINA RESULT:     -12.4      0.000      0.000
REMARK SMILES O=C(NCCCNC(=O)[C@@H]1[C@H](C(=O)NCc2ccncc2)[C@H]2C=C[C@@H]1O2)c1ccc(-c2c3nc(c(-c4cc(S(=O)(=O)[O-])ccc4F)c4ccc([nH]4)c(-c4cc(S(=O)(=O)[O-])ccc4F)c4nc(c(-c5cc(S(=O)(=O)[O-])ccc5F)c5ccc2[nH]5)C=C4)C=C3)cc1
REMARK SMILES IDX 5 1 4 2 3 3 1 4 2 5 27 7 28 8 89 9 29 10 88 11 30 12 31 13
REMARK SMILES IDX 32 14 82 15 33 16 87 17 81 18 83 19 34 20 86 21 80 22 79 23
REMARK SMILES IDX 35 25 67 26 47 27 66 28 48 29 51 30 65 31 84 32 49 33 50 34
REMARK SMILES IDX 64 36 85 37 52 38 36 39 37 40 45 41 38 42 44 43 46 44 43 45
REMARK SMILES IDX 39 46 40 47 41 48 42 49 68 50 69 51 77 52 70 53 76 54 78 55
REMARK SMILES IDX 75 56 71 57 72 58 73 59 74 60 53 61 54 62 62 63 55 64 61 65
REMARK SMILES IDX 63 66 60 67 56 68 57 69 58 70 59 71 6 72 7 73 8 74 9 76
REMARK SMILES IDX 10 77 11 78 25 79 22 80 24 81 26 82 23 83 12 84 13 85 14 86
REMARK SMILES IDX 15 88 16 89 17 90 21 91 18 92 20 93 19 94
REMARK H PARENT 3 6 83 24 51 35 7 75 14 87
REMARK Flexibility Score: inf
ROOT
ATOM      1  C   UNL A   1      31.765  28.898  26.887  1.00  0.00     0.042 C 
ENDROOT
BRANCH   1   2
ATOM      2  C   UNL A   1      32.697  29.846  26.144  1.00  0.00     0.118 C 
BRANCH   2   3
ATOM      3  N   UNL A   1      32.487  31.248  26.485  1.00  0.00    -0.352 N 
ATOM      4  O   UNL A   1      32.795  33.189  27.589  1.00  0.00    -0.269 OA
ATOM      5  C   UNL A   1      33.232  32.081  27.287  1.00  0.00     0.251 C 
ATOM      6  H   UNL A   1      31.690  31.660  26.081  1.00  0.00     0.163 HD
BRANCH   5   7
ATOM      7  C   UNL A   1      34.542  31.629  27.810  1.00  0.00     0.039 A 
ATOM      8  C   UNL A   1      34.730  30.302  28.193  1.00  0.00     0.014 A 
ATOM      9  C   UNL A   1      35.590  32.545  27.936  1.00  0.00     0.014 A 
ATOM     10  C   UNL A   1      35.874  29.943  28.893  1.00  0.00     0.010 A 
ATOM     11  C   UNL A   1      36.790  32.149  28.536  1.00  0.00     0.010 A 
ATOM     12  C   UNL A   1      36.924  30.859  29.074  1.00  0.00    -0.014 A 
BRANCH  12  13
ATOM     13  C   UNL A   1      38.138  30.426  29.819  1.00  0.00     0.031 A 
ATOM     14  C   UNL A   1      38.364  30.842  31.250  1.00  0.00     0.074 A 
ATOM     15  C   UNL A   1      39.013  29.597  29.215  1.00  0.00     0.049 A 
ATOM     16  N   UNL A   1      39.340  30.517  32.062  1.00  0.00    -0.248 NA
ATOM     17  C   UNL A   1      37.374  31.752  31.845  1.00  0.00     0.031 C 
ATOM     18  C   UNL A   1      38.907  29.130  27.828  1.00  0.00     0.029 A 
ATOM     19  N   UNL A   1      40.137  28.969  29.688  1.00  0.00    -0.354 N 
ATOM     20  C   UNL A   1      39.101  31.204  33.248  1.00  0.00     0.074 A 
ATOM     21  C   UNL A   1      37.901  31.988  33.037  1.00  0.00     0.031 C 
ATOM     22  C   UNL A   1      39.879  28.239  27.588  1.00  0.00     0.029 A 
ATOM     23  C   UNL A   1      40.719  28.123  28.773  1.00  0.00     0.049 A 
ATOM     24  H   UNL A   1      40.491  29.110  30.595  1.00  0.00     0.167 HD
ATOM     25  C   UNL A   1      39.809  31.177  34.405  1.00  0.00     0.034 A 
ATOM     26  C   UNL A   1      41.815  27.344  28.870  1.00  0.00     0.034 A 
ATOM     27  C   UNL A   1      40.991  30.371  34.608  1.00  0.00     0.049 A 
ATOM     28  C   UNL A   1      42.582  27.332  30.163  1.00  0.00     0.074 A 
ATOM     29  C   UNL A   1      41.765  30.243  35.749  1.00  0.00     0.029 A 
ATOM     30  N   UNL A   1      41.572  29.553  33.646  1.00  0.00    -0.354 N 
ATOM     31  N   UNL A   1      42.335  27.983  31.275  1.00  0.00    -0.248 NA
ATOM     32  C   UNL A   1      43.772  26.476  30.213  1.00  0.00     0.031 C 
ATOM     33  C   UNL A   1      42.844  29.398  35.460  1.00  0.00     0.029 A 
ATOM     34  C   UNL A   1      42.707  28.940  34.160  1.00  0.00     0.049 A 
ATOM     35  H   UNL A   1      41.229  29.427  32.731  1.00  0.00     0.167 HD
ATOM     36  C   UNL A   1      43.333  27.601  32.165  1.00  0.00     0.074 A 
ATOM     37  C   UNL A   1      44.168  26.645  31.466  1.00  0.00     0.031 C 
ATOM     38  C   UNL A   1      43.541  28.003  33.445  1.00  0.00     0.034 A 
BRANCH  25  39
ATOM     39  C   UNL A   1      39.351  32.086  35.523  1.00  0.00     0.023 A 
ATOM     40  C   UNL A   1      39.796  33.415  35.636  1.00  0.00     0.031 A 
ATOM     41  C   UNL A   1      38.472  31.603  36.510  1.00  0.00     0.131 A 
ATOM     42  C   UNL A   1      39.423  34.188  36.746  1.00  0.00     0.055 A 
ATOM     43  C   UNL A   1      38.042  32.403  37.571  1.00  0.00     0.041 A 
ATOM     44  F   UNL A   1      38.027  30.337  36.468  1.00  0.00    -0.206 F 
ATOM     45  C   UNL A   1      38.531  33.700  37.703  1.00  0.00     0.022 A 
BRANCH  42  46
ATOM     46  S   UNL A   1      40.235  35.791  37.000  1.00  0.00     0.124 S 
ATOM     47  O   UNL A   1      39.708  36.572  35.882  1.00  0.00    -0.237 OA
ATOM     48  O   UNL A   1      39.765  36.177  38.325  1.00  0.00    -0.237 OA
ATOM     49  O   UNL A   1      41.659  35.474  36.910  1.00  0.00    -0.744 OA
ENDBRANCH  42  46
ENDBRANCH  25  39
BRANCH  26  50
ATOM     50  C   UNL A   1      42.261  26.530  27.705  1.00  0.00     0.023 A 
ATOM     51  C   UNL A   1      41.864  25.193  27.561  1.00  0.00     0.031 A 
ATOM     52  C   UNL A   1      43.110  27.078  26.726  1.00  0.00     0.131 A 
ATOM     53  C   UNL A   1      42.345  24.435  26.482  1.00  0.00     0.055 A 
ATOM     54  C   UNL A   1      43.544  26.336  25.628  1.00  0.00     0.041 A 
ATOM     55  F   UNL A   1      43.513  28.356  26.815  1.00  0.00    -0.206 F 
ATOM     56  C   UNL A   1      43.171  25.001  25.508  1.00  0.00     0.022 A 
BRANCH  53  57
ATOM     57  S   UNL A   1      41.932  22.671  26.406  1.00  0.00     0.124 S 
ATOM     58  O   UNL A   1      40.473  22.708  26.387  1.00  0.00    -0.237 OA
ATOM     59  O   UNL A   1      42.580  22.261  25.164  1.00  0.00    -0.237 OA
ATOM     60  O   UNL A   1      42.526  22.129  27.625  1.00  0.00    -0.744 OA
ENDBRANCH  53  57
ENDBRANCH  26  50
BRANCH  38  61
ATOM     61  C   UNL A   1      44.701  27.370  34.170  1.00  0.00     0.023 A 
ATOM     62  C   UNL A   1      44.549  26.187  34.915  1.00  0.00     0.031 A 
ATOM     63  C   UNL A   1      45.965  27.983  34.150  1.00  0.00     0.131 A 
ATOM     64  C   UNL A   1      45.627  25.691  35.664  1.00  0.00     0.055 A 
ATOM     65  C   UNL A   1      47.050  27.452  34.850  1.00  0.00     0.041 A 
ATOM     66  F   UNL A   1      46.166  29.114  33.455  1.00  0.00    -0.206 F 
ATOM     67  C   UNL A   1      46.880  26.309  35.625  1.00  0.00     0.022 A 
BRANCH  64  68
ATOM     68  S   UNL A   1      45.341  24.285  36.775  1.00  0.00     0.124 S 
ATOM     69  O   UNL A   1      44.570  23.379  35.928  1.00  0.00    -0.237 OA
ATOM     70  O   UNL A   1      46.701  23.858  37.092  1.00  0.00    -0.237 OA
ATOM     71  O   UNL A   1      44.601  24.873  37.890  1.00  0.00    -0.744 OA
ENDBRANCH  64  68
ENDBRANCH  38  61
ENDBRANCH  12  13
ENDBRANCH   5   7
ENDBRANCH   2   3
ENDBRANCH   1   2
BRANCH   1  72
ATOM     72  C   UNL A   1      31.259  27.725  26.059  1.00  0.00     0.117 C 
BRANCH  72  73
ATOM     73  N   UNL A   1      31.160  26.516  26.852  1.00  0.00    -0.356 N 
ATOM     74  C   UNL A   1      31.698  25.289  26.665  1.00  0.00     0.227 C 
ATOM     75  H   UNL A   1      30.607  26.601  27.662  1.00  0.00     0.163 HD
ATOM     76  O   UNL A   1      31.054  24.334  27.104  1.00  0.00    -0.275 OA
BRANCH  74  77
ATOM     77  C   UNL A   1      32.951  25.067  25.860  1.00  0.00     0.127 C 
ATOM     78  C   UNL A   1      32.688  24.951  24.328  1.00  0.00     0.127 C 
ATOM     79  C   UNL A   1      33.818  23.814  26.092  1.00  0.00     0.155 C 
ATOM     80  C   UNL A   1      33.581  23.773  23.930  1.00  0.00     0.155 C 
ATOM     81  C   UNL A   1      35.182  24.091  25.522  1.00  0.00     0.004 C 
ATOM     82  O   UNL A   1      33.362  22.898  25.062  1.00  0.00    -0.365 OA
ATOM     83  C   UNL A   1      35.030  24.087  24.188  1.00  0.00     0.004 C 
BRANCH  78  84
ATOM     84  C   UNL A   1      31.279  24.779  23.754  1.00  0.00     0.227 C 
ATOM     85  O   UNL A   1      30.695  23.704  23.965  1.00  0.00    -0.275 OA
ATOM     86  N   UNL A   1      30.539  25.710  23.103  1.00  0.00    -0.352 N 
ATOM     87  H   UNL A   1      29.667  25.361  22.806  1.00  0.00     0.163 HD
BRANCH  86  88
ATOM     88  C   UNL A   1      30.734  27.102  22.741  1.00  0.00     0.151 C 
BRANCH  88  89
ATOM     89  C   UNL A   1      29.521  27.995  22.866  1.00  0.00    -0.026 A 
ATOM     90  C   UNL A   1      28.291  27.571  23.379  1.00  0.00     0.025 A 
ATOM     91  C   UNL A   1      29.617  29.320  22.415  1.00  0.00     0.025 A 
ATOM     92  C   UNL A   1      27.220  28.452  23.364  1.00  0.00     0.111 A 
ATOM     93  C   UNL A   1      28.493  30.131  22.451  1.00  0.00     0.111 A 
ATOM     94  N   UNL A   1      27.294  29.720  22.906  1.00  0.00    -0.265 NA
ENDBRANCH  88  89
ENDBRANCH  86  88
ENDBRANCH  78  84
ENDBRANCH  74  77
ENDBRANCH  72  73
ENDBRANCH   1  72
TORSDOF 16
ENDMDL
MODEL 2
REMARK VINA RESULT:     -12.3      1.855      3.341
REMARK SMILES O=C(NCCCNC(=O)[C@@H]1[C@H](C(=O)NCc2ccncc2)[C@H]2C=C[C@@H]1O2)c1ccc(-c2c3nc(c(-c4cc(S(=O)(=O)[O-])ccc4F)c4ccc([nH]4)c(-c4cc(S(=O)(=O)[O-])ccc4F)c4nc(c(-c5cc(S(=O)(=O)[O-])ccc5F)c5ccc2[nH]5)C=C4)C=C3)cc1
REMARK SMILES IDX 5 1 4 2 3 3 1 4 2 5 27 7 28 8 89 9 29 10 88 11 30 12 31 13
REMARK SMILES IDX 32 14 82 15 33 16 87 17 81 18 83 19 34 20 86 21 80 22 79 23
REMARK SMILES IDX 35 25 67 26 47 27 66 28 48 29 51 30 65 31 84 32 49 33 50 34
REMARK SMILES IDX 64 36 85 37 52 38 36 39 37 40 45 41 38 42 44 43 46 44 43 45
REMARK SMILES IDX 39 46 40 47 41 48 42 49 68 50 69 51 77 52 70 53 76 54 78 55
REMARK SMILES IDX 75 56 71 57 72 58 73 59 74 60 53 61 54 62 62 63 55 64 61 65
REMARK SMILES IDX 63 66 60 67 56 68 57 69 58 70 59 71 6 72 7 73 8 74 9 76
REMARK SMILES IDX 10 77 11 78 25 79 22 80 24 81 26 82 23 83 12 84 13 85 14 86
REMARK SMILES IDX 15 88 16 89 17 90 21 91 18 92 20 93 19 94
REMARK H PARENT 3 6 83 24 51 35 7 75 14 87
REMARK Flexibility Score: inf
ROOT
ATOM      1  C   UNL A   1      32.276  28.124  25.495  1.00  0.00     0.042 C 
ENDROOT
BRANCH   1   2
ATOM      2  C   UNL A   1      33.230  29.306  25.383  1.00  0.00     0.118 C 
BRANCH   2   3
ATOM      3  N   UNL A   1      32.719  30.521  26.005  1.00  0.00    -0.352 N 
ATOM      4  O   UNL A   1      32.550  32.158  27.547  1.00  0.00    -0.269 OA
ATOM      5  C   UNL A   1      33.221  31.253  27.057  1.00  0.00     0.251 C 
ATOM      6  H   UNL A   1      31.886  30.871  25.614  1.00  0.00     0.163 HD
BRANCH   5   7
ATOM      7  C   UNL A   1      34.555  30.929  27.613  1.00  0.00     0.039 A 
ATOM      8  C   UNL A   1      34.861  29.625  28.000  1.00  0.00     0.014 A 
ATOM      9  C   UNL A   1      35.505  31.941  27.768  1.00  0.00     0.014 A 
ATOM     10  C   UNL A   1      36.016  29.376  28.730  1.00  0.00     0.010 A 
ATOM     11  C   UNL A   1      36.722  31.662  28.400  1.00  0.00     0.010 A 
ATOM     12  C   UNL A   1      36.966  30.389  28.939  1.00  0.00    -0.014 A 
BRANCH  12  13
ATOM     13  C   UNL A   1      38.197  30.074  29.716  1.00  0.00     0.031 A 
ATOM     14  C   UNL A   1      38.387  30.592  31.119  1.00  0.00     0.074 A 
ATOM     15  C   UNL A   1      39.121  29.258  29.171  1.00  0.00     0.049 A 
ATOM     16  N   UNL A   1      39.373  30.376  31.954  1.00  0.00    -0.248 NA
ATOM     17  C   UNL A   1      37.344  31.482  31.649  1.00  0.00     0.031 C 
ATOM     18  C   UNL A   1      39.053  28.699  27.817  1.00  0.00     0.029 A 
ATOM     19  N   UNL A   1      40.274  28.726  29.688  1.00  0.00    -0.354 N 
ATOM     20  C   UNL A   1      39.087  31.122  33.093  1.00  0.00     0.074 A 
ATOM     21  C   UNL A   1      37.847  31.823  32.826  1.00  0.00     0.031 C 
ATOM     22  C   UNL A   1      40.074  27.850  27.638  1.00  0.00     0.029 A 
ATOM     23  C   UNL A   1      40.911  27.857  28.832  1.00  0.00     0.049 A 
ATOM     24  H   UNL A   1      40.613  28.945  30.586  1.00  0.00     0.167 HD
ATOM     25  C   UNL A   1      39.787  31.210  34.252  1.00  0.00     0.034 A 
ATOM     26  C   UNL A   1      42.047  27.149  28.983  1.00  0.00     0.034 A 
ATOM     27  C   UNL A   1      41.010  30.486  34.511  1.00  0.00     0.049 A 
ATOM     28  C   UNL A   1      42.803  27.263  30.278  1.00  0.00     0.074 A 
ATOM     29  C   UNL A   1      41.781  30.475  35.662  1.00  0.00     0.029 A 
ATOM     30  N   UNL A   1      41.643  29.643  33.606  1.00  0.00    -0.354 N 
ATOM     31  N   UNL A   1      42.511  27.969  31.345  1.00  0.00    -0.248 NA
ATOM     32  C   UNL A   1      44.039  26.480  30.389  1.00  0.00     0.031 C 
ATOM     33  C   UNL A   1      42.907  29.675  35.432  1.00  0.00     0.029 A 
ATOM     34  C   UNL A   1      42.806  29.129  34.164  1.00  0.00     0.049 A 
ATOM     35  H   UNL A   1      41.315  29.439  32.701  1.00  0.00     0.167 HD
ATOM     36  C   UNL A   1      43.522  27.702  32.262  1.00  0.00     0.074 A 
ATOM     37  C   UNL A   1      44.415  26.751  31.630  1.00  0.00     0.031 C 
ATOM     38  C   UNL A   1      43.697  28.195  33.514  1.00  0.00     0.034 A 
BRANCH  25  39
ATOM     39  C   UNL A   1      39.269  32.161  35.307  1.00  0.00     0.023 A 
ATOM     40  C   UNL A   1      39.703  33.496  35.387  1.00  0.00     0.031 A 
ATOM     41  C   UNL A   1      38.344  31.714  36.269  1.00  0.00     0.131 A 
ATOM     42  C   UNL A   1      39.272  34.313  36.444  1.00  0.00     0.055 A 
ATOM     43  C   UNL A   1      37.858  32.554  37.273  1.00  0.00     0.041 A 
ATOM     44  F   UNL A   1      37.908  30.444  36.257  1.00  0.00    -0.206 F 
ATOM     45  C   UNL A   1      38.334  33.859  37.374  1.00  0.00     0.022 A 
BRANCH  42  46
ATOM     46  S   UNL A   1      40.063  35.930  36.671  1.00  0.00     0.124 S 
ATOM     47  O   UNL A   1      39.682  36.623  35.441  1.00  0.00    -0.237 OA
ATOM     48  O   UNL A   1      39.441  36.417  37.896  1.00  0.00    -0.237 OA
ATOM     49  O   UNL A   1      41.484  35.605  36.777  1.00  0.00    -0.744 OA
ENDBRANCH  42  46
ENDBRANCH  25  39
BRANCH  26  50
ATOM     50  C   UNL A   1      42.547  26.289  27.875  1.00  0.00     0.023 A 
ATOM     51  C   UNL A   1      42.070  24.982  27.701  1.00  0.00     0.031 A 
ATOM     52  C   UNL A   1      43.529  26.760  26.985  1.00  0.00     0.131 A 
ATOM     53  C   UNL A   1      42.600  24.176  26.681  1.00  0.00     0.055 A 
ATOM     54  C   UNL A   1      44.015  25.973  25.941  1.00  0.00     0.041 A 
ATOM     55  F   UNL A   1      44.014  28.007  27.105  1.00  0.00    -0.206 F 
ATOM     56  C   UNL A   1      43.559  24.667  25.792  1.00  0.00     0.022 A 
BRANCH  53  57
ATOM     57  S   UNL A   1      42.068  22.446  26.576  1.00  0.00     0.124 S 
ATOM     58  O   UNL A   1      42.902  21.815  27.594  1.00  0.00    -0.237 OA
ATOM     59  O   UNL A   1      40.645  22.547  26.885  1.00  0.00    -0.237 OA
ATOM     60  O   UNL A   1      42.380  22.077  25.197  1.00  0.00    -0.744 OA
ENDBRANCH  53  57
ENDBRANCH  26  50
BRANCH  38  61
ATOM     61  C   UNL A   1      44.885  27.676  34.284  1.00  0.00     0.023 A 
ATOM     62  C   UNL A   1      44.790  26.545  35.113  1.00  0.00     0.031 A 
ATOM     63  C   UNL A   1      46.117  28.349  34.219  1.00  0.00     0.131 A 
ATOM     64  C   UNL A   1      45.888  26.159  35.897  1.00  0.00     0.055 A 
ATOM     65  C   UNL A   1      47.224  27.926  34.956  1.00  0.00     0.041 A 
ATOM     66  F   UNL A   1      46.262  29.436  33.444  1.00  0.00    -0.206 F 
ATOM     67  C   UNL A   1      47.109  26.835  35.813  1.00  0.00     0.022 A 
BRANCH  64  68
ATOM     68  S   UNL A   1      45.670  24.826  37.107  1.00  0.00     0.124 S 
ATOM     69  O   UNL A   1      44.439  24.192  36.643  1.00  0.00    -0.237 OA
ATOM     70  O   UNL A   1      46.892  24.047  36.935  1.00  0.00    -0.237 OA
ATOM     71  O   UNL A   1      45.560  25.533  38.381  1.00  0.00    -0.744 OA
ENDBRANCH  64  68
ENDBRANCH  38  61
ENDBRANCH  12  13
ENDBRANCH   5   7
ENDBRANCH   2   3
ENDBRANCH   1   2
BRANCH   1  72
ATOM     72  C   UNL A   1      32.837  26.804  24.983  1.00  0.00     0.117 C 
BRANCH  72  73
ATOM     73  N   UNL A   1      32.756  25.764  25.989  1.00  0.00    -0.356 N 
ATOM     74  C   UNL A   1      33.379  24.567  26.075  1.00  0.00     0.227 C 
ATOM     75  H   UNL A   1      32.144  25.961  26.734  1.00  0.00     0.163 HD
ATOM     76  O   UNL A   1      32.766  23.668  26.654  1.00  0.00    -0.275 OA
BRANCH  74  77
ATOM     77  C   UNL A   1      34.696  24.288  25.399  1.00  0.00     0.127 C 
ATOM     78  C   UNL A   1      34.542  23.703  23.963  1.00  0.00     0.127 C 
ATOM     79  C   UNL A   1      35.689  23.278  26.009  1.00  0.00     0.155 C 
ATOM     80  C   UNL A   1      35.590  22.587  23.949  1.00  0.00     0.155 C 
ATOM     81  C   UNL A   1      37.043  23.554  25.416  1.00  0.00     0.004 C 
ATOM     82  O   UNL A   1      35.407  22.053  25.282  1.00  0.00    -0.365 OA
ATOM     83  C   UNL A   1      36.974  23.147  24.139  1.00  0.00     0.004 C 
BRANCH  78  84
ATOM     84  C   UNL A   1      33.200  23.191  23.432  1.00  0.00     0.227 C 
ATOM     85  O   UNL A   1      32.671  23.815  22.499  1.00  0.00    -0.275 OA
ATOM     86  N   UNL A   1      32.547  22.064  23.807  1.00  0.00    -0.352 N 
ATOM     87  H   UNL A   1      31.686  21.953  23.340  1.00  0.00     0.163 HD
BRANCH  86  88
ATOM     88  C   UNL A   1      32.819  20.984  24.736  1.00  0.00     0.151 C 
BRANCH  88  89
ATOM     89  C   UNL A   1      33.024  19.618  24.122  1.00  0.00    -0.026 A 
ATOM     90  C   UNL A   1      33.985  18.703  24.562  1.00  0.00     0.025 A 
ATOM     91  C   UNL A   1      32.228  19.252  23.026  1.00  0.00     0.025 A 
ATOM     92  C   UNL A   1      34.144  17.513  23.866  1.00  0.00     0.111 A 
ATOM     93  C   UNL A   1      32.453  18.034  22.403  1.00  0.00     0.111 A 
ATOM     94  N   UNL A   1      33.403  17.163  22.794  1.00  0.00    -0.265 NA
ENDBRANCH  88  89
ENDBRANCH  86  88
ENDBRANCH  78  84
ENDBRANCH  74  77
ENDBRANCH  72  73
ENDBRANCH   1  72
TORSDOF 16
ENDMDL
MODEL 3
REMARK VINA RESULT:     -12.2      1.400      1.707
REMARK SMILES O=C(NCCCNC(=O)[C@@H]1[C@H](C(=O)NCc2ccncc2)[C@H]2C=C[C@@H]1O2)c1ccc(-c2c3nc(c(-c4cc(S(=O)(=O)[O-])ccc4F)c4ccc([nH]4)c(-c4cc(S(=O)(=O)[O-])ccc4F)c4nc(c(-c5cc(S(=O)(=O)[O-])ccc5F)c5ccc2[nH]5)C=C4)C=C3)cc1
REMARK SMILES IDX 5 1 4 2 3 3 1 4 2 5 27 7 28 8 89 9 29 10 88 11 30 12 31 13
REMARK SMILES IDX 32 14 82 15 33 16 87 17 81 18 83 19 34 20 86 21 80 22 79 23
REMARK SMILES IDX 35 25 67 26 47 27 66 28 48 29 51 30 65 31 84 32 49 33 50 34
REMARK SMILES IDX 64 36 85 37 52 38 36 39 37 40 45 41 38 42 44 43 46 44 43 45
REMARK SMILES IDX 39 46 40 47 41 48 42 49 68 50 69 51 77 52 70 53 76 54 78 55
REMARK SMILES IDX 75 56 71 57 72 58 73 59 74 60 53 61 54 62 62 63 55 64 61 65
REMARK SMILES IDX 63 66 60 67 56 68 57 69 58 70 59 71 6 72 7 73 8 74 9 76
REMARK SMILES IDX 10 77 11 78 25 79 22 80 24 81 26 82 23 83 12 84 13 85 14 86
REMARK SMILES IDX 15 88 16 89 17 90 21 91 18 92 20 93 19 94
REMARK H PARENT 3 6 83 24 51 35 7 75 14 87
REMARK Flexibility Score: inf
ROOT
ATOM      1  C   UNL A   1      32.063  28.845  27.101  1.00  0.00     0.042 C 
ENDROOT
BRANCH   1   2
ATOM      2  C   UNL A   1      33.090  29.774  26.466  1.00  0.00     0.118 C 
BRANCH   2   3
ATOM      3  N   UNL A   1      32.954  31.162  26.892  1.00  0.00    -0.352 N 
ATOM      4  O   UNL A   1      33.400  33.029  28.076  1.00  0.00    -0.269 OA
ATOM      5  C   UNL A   1      33.776  31.924  27.691  1.00  0.00     0.251 C 
ATOM      6  H   UNL A   1      32.151  31.624  26.558  1.00  0.00     0.163 HD
BRANCH   5   7
ATOM      7  C   UNL A   1      35.095  31.398  28.109  1.00  0.00     0.039 A 
ATOM      8  C   UNL A   1      35.223  30.085  28.559  1.00  0.00     0.014 A 
ATOM      9  C   UNL A   1      36.216  32.231  28.070  1.00  0.00     0.014 A 
ATOM     10  C   UNL A   1      36.404  29.676  29.165  1.00  0.00     0.010 A 
ATOM     11  C   UNL A   1      37.439  31.775  28.574  1.00  0.00     0.010 A 
ATOM     12  C   UNL A   1      37.532  30.512  29.179  1.00  0.00    -0.014 A 
BRANCH  12  13
ATOM     13  C   UNL A   1      38.781  30.027  29.827  1.00  0.00     0.031 A 
ATOM     14  C   UNL A   1      39.154  30.458  31.222  1.00  0.00     0.074 A 
ATOM     15  C   UNL A   1      39.552  29.136  29.171  1.00  0.00     0.049 A 
ATOM     16  N   UNL A   1      40.179  30.096  31.954  1.00  0.00    -0.248 NA
ATOM     17  C   UNL A   1      38.273  31.436  31.876  1.00  0.00     0.031 C 
ATOM     18  C   UNL A   1      39.298  28.647  27.812  1.00  0.00     0.029 A 
ATOM     19  N   UNL A   1      40.676  28.454  29.561  1.00  0.00    -0.354 N 
ATOM     20  C   UNL A   1      40.084  30.820  33.139  1.00  0.00     0.074 A 
ATOM     21  C   UNL A   1      38.915  31.667  33.012  1.00  0.00     0.031 C 
ATOM     22  C   UNL A   1      40.194  27.696  27.511  1.00  0.00     0.029 A 
ATOM     23  C   UNL A   1      41.129  27.557  28.621  1.00  0.00     0.049 A 
ATOM     24  H   UNL A   1      41.117  28.595  30.430  1.00  0.00     0.167 HD
ATOM     25  C   UNL A   1      40.889  30.778  34.230  1.00  0.00     0.034 A 
ATOM     26  C   UNL A   1      42.184  26.720  28.643  1.00  0.00     0.034 A 
ATOM     27  C   UNL A   1      42.037  29.909  34.350  1.00  0.00     0.049 A 
ATOM     28  C   UNL A   1      43.060  26.691  29.864  1.00  0.00     0.074 A 
ATOM     29  C   UNL A   1      42.901  29.761  35.423  1.00  0.00     0.029 A 
ATOM     30  N   UNL A   1      42.485  29.040  33.363  1.00  0.00    -0.354 N 
ATOM     31  N   UNL A   1      42.948  27.379  30.977  1.00  0.00    -0.248 NA
ATOM     32  C   UNL A   1      44.201  25.769  29.834  1.00  0.00     0.031 C 
ATOM     33  C   UNL A   1      43.902  28.850  35.063  1.00  0.00     0.029 A 
ATOM     34  C   UNL A   1      43.626  28.374  33.792  1.00  0.00     0.049 A 
ATOM     35  H   UNL A   1      42.057  28.914  32.485  1.00  0.00     0.167 HD
ATOM     36  C   UNL A   1      43.998  26.959  31.786  1.00  0.00     0.074 A 
ATOM     37  C   UNL A   1      44.715  25.942  31.042  1.00  0.00     0.031 C 
ATOM     38  C   UNL A   1      44.340  27.375  33.032  1.00  0.00     0.034 A 
BRANCH  25  39
ATOM     39  C   UNL A   1      40.582  31.735  35.359  1.00  0.00     0.023 A 
ATOM     40  C   UNL A   1      39.491  31.542  36.225  1.00  0.00     0.031 A 
ATOM     41  C   UNL A   1      41.382  32.875  35.556  1.00  0.00     0.131 A 
ATOM     42  C   UNL A   1      39.186  32.510  37.196  1.00  0.00     0.055 A 
ATOM     43  C   UNL A   1      41.119  33.795  36.573  1.00  0.00     0.041 A 
ATOM     44  F   UNL A   1      42.426  33.124  34.749  1.00  0.00    -0.206 F 
ATOM     45  C   UNL A   1      40.006  33.623  37.391  1.00  0.00     0.022 A 
BRANCH  42  46
ATOM     46  S   UNL A   1      37.621  32.367  38.102  1.00  0.00     0.124 S 
ATOM     47  O   UNL A   1      37.372  30.928  38.043  1.00  0.00    -0.237 OA
ATOM     48  O   UNL A   1      37.965  32.902  39.414  1.00  0.00    -0.237 OA
ATOM     49  O   UNL A   1      36.694  33.182  37.319  1.00  0.00    -0.744 OA
ENDBRANCH  42  46
ENDBRANCH  25  39
BRANCH  26  50
ATOM     50  C   UNL A   1      42.480  25.857  27.465  1.00  0.00     0.023 A 
ATOM     51  C   UNL A   1      42.042  24.525  27.414  1.00  0.00     0.031 A 
ATOM     52  C   UNL A   1      43.225  26.351  26.380  1.00  0.00     0.131 A 
ATOM     53  C   UNL A   1      42.384  23.721  26.316  1.00  0.00     0.055 A 
ATOM     54  C   UNL A   1      43.518  25.563  25.267  1.00  0.00     0.041 A 
ATOM     55  F   UNL A   1      43.662  27.621  26.378  1.00  0.00    -0.206 F 
ATOM     56  C   UNL A   1      43.106  24.234  25.237  1.00  0.00     0.022 A 
BRANCH  53  57
ATOM     57  S   UNL A   1      41.928  21.966  26.350  1.00  0.00     0.124 S 
ATOM     58  O   UNL A   1      40.493  22.026  26.090  1.00  0.00    -0.237 OA
ATOM     59  O   UNL A   1      42.752  21.418  25.276  1.00  0.00    -0.237 OA
ATOM     60  O   UNL A   1      42.301  21.543  27.697  1.00  0.00    -0.744 OA
ENDBRANCH  53  57
ENDBRANCH  26  50
BRANCH  38  61
ATOM     61  C   UNL A   1      45.523  26.692  33.670  1.00  0.00     0.023 A 
ATOM     62  C   UNL A   1      45.371  25.542  34.465  1.00  0.00     0.031 A 
ATOM     63  C   UNL A   1      46.814  27.225  33.515  1.00  0.00     0.131 A 
ATOM     64  C   UNL A   1      46.482  25.001  35.130  1.00  0.00     0.055 A 
ATOM     65  C   UNL A   1      47.925  26.648  34.132  1.00  0.00     0.041 A 
ATOM     66  F   UNL A   1      47.015  28.322  32.768  1.00  0.00    -0.206 F 
ATOM     67  C   UNL A   1      47.760  25.539  34.957  1.00  0.00     0.022 A 
BRANCH  64  68
ATOM     68  S   UNL A   1      46.218  23.647  36.309  1.00  0.00     0.124 S 
ATOM     69  O   UNL A   1      47.475  22.910  36.211  1.00  0.00    -0.237 OA
ATOM     70  O   UNL A   1      45.995  24.364  37.561  1.00  0.00    -0.237 OA
ATOM     71  O   UNL A   1      45.049  22.951  35.776  1.00  0.00    -0.744 OA
ENDBRANCH  64  68
ENDBRANCH  38  61
ENDBRANCH  12  13
ENDBRANCH   5   7
ENDBRANCH   2   3
ENDBRANCH   1   2
BRANCH   1  72
ATOM     72  C   UNL A   1      31.480  27.803  26.157  1.00  0.00     0.117 C 
BRANCH  72  73
ATOM     73  N   UNL A   1      31.248  26.542  26.832  1.00  0.00    -0.356 N 
ATOM     74  C   UNL A   1      31.676  25.292  26.542  1.00  0.00     0.227 C 
ATOM     75  H   UNL A   1      30.684  26.605  27.636  1.00  0.00     0.163 HD
ATOM     76  O   UNL A   1      30.936  24.365  26.879  1.00  0.00    -0.275 OA
BRANCH  74  77
ATOM     77  C   UNL A   1      32.925  25.028  25.742  1.00  0.00     0.127 C 
ATOM     78  C   UNL A   1      32.679  25.011  24.203  1.00  0.00     0.127 C 
ATOM     79  C   UNL A   1      33.701  23.707  25.917  1.00  0.00     0.155 C 
ATOM     80  C   UNL A   1      33.497  23.796  23.754  1.00  0.00     0.155 C 
ATOM     81  C   UNL A   1      35.090  23.919  25.381  1.00  0.00     0.004 C 
ATOM     82  O   UNL A   1      33.200  22.880  24.834  1.00  0.00    -0.365 OA
ATOM     83  C   UNL A   1      34.960  23.996  24.047  1.00  0.00     0.004 C 
BRANCH  78  84
ATOM     84  C   UNL A   1      31.271  24.966  23.603  1.00  0.00     0.227 C 
ATOM     85  O   UNL A   1      30.641  23.900  23.684  1.00  0.00    -0.275 OA
ATOM     86  N   UNL A   1      30.580  25.997  23.057  1.00  0.00    -0.352 N 
ATOM     87  H   UNL A   1      29.697  25.722  22.716  1.00  0.00     0.163 HD
BRANCH  86  88
ATOM     88  C   UNL A   1      30.837  27.411  22.859  1.00  0.00     0.151 C 
BRANCH  88  89
ATOM     89  C   UNL A   1      29.617  28.295  22.734  1.00  0.00    -0.026 A 
ATOM     90  C   UNL A   1      29.625  29.552  22.124  1.00  0.00     0.025 A 
ATOM     91  C   UNL A   1      28.408  27.846  23.288  1.00  0.00     0.025 A 
ATOM     92  C   UNL A   1      28.466  30.314  22.145  1.00  0.00     0.111 A 
ATOM     93  C   UNL A   1      27.297  28.675  23.249  1.00  0.00     0.111 A 
ATOM     94  N   UNL A   1      27.305  29.905  22.700  1.00  0.00    -0.265 NA
ENDBRANCH  88  89
ENDBRANCH  86  88
ENDBRANCH  78  84
ENDBRANCH  74  77
ENDBRANCH  72  73
ENDBRANCH   1  72
TORSDOF 16
ENDMDL
