MODEL 1
REMARK VINA RESULT:     -13.6      0.000      0.000
REMARK SMILES C[C@@H](NC(=O)[C@H]1CC=CC[C@@H]1C(=O)NCCCNC(=O)c1ccc(-c2c3nc(c(-c4cc(S(=O)(=O)[O-])ccc4F)c4ccc([nH]4)c(-c4cc(S(=O)(=O)[O-])ccc4F)c4nc(c(-c5cc(S(=O)(=O)[O-])ccc5F)c5ccc2[nH]5)C=C4)C=C3)cc1)c1ccc(-n2ccnc2)cc1
REMARK SMILES IDX 15 1 14 2 12 3 13 4 11 6 6 7 7 8 8 9 10 10 9 11 4 12 3 13
REMARK SMILES IDX 5 15 2 16 1 17 84 18 85 19 94 20 86 21 93 22 87 23 88 24
REMARK SMILES IDX 89 25 92 26 90 27 91 28 16 29 17 30 18 31 19 32 20 34 21 35
REMARK SMILES IDX 22 36 83 37 23 38 82 39 24 40 25 41 26 42 76 43 27 44 81 45
REMARK SMILES IDX 75 46 77 47 28 48 80 49 74 50 73 51 29 53 61 54 41 55 60 56
REMARK SMILES IDX 42 57 45 58 59 59 78 60 43 61 44 62 58 64 79 65 46 66 30 67
REMARK SMILES IDX 31 68 39 69 32 70 38 71 40 72 37 73 33 74 34 75 35 76 36 77
REMARK SMILES IDX 62 78 63 79 71 80 64 81 70 82 72 83 69 84 65 85 66 86 67 87
REMARK SMILES IDX 68 88 47 89 48 90 56 91 49 92 55 93 57 94 54 95 50 96 51 97
REMARK SMILES IDX 52 98 53 99
REMARK H PARENT 14 5 3 14 18 33 77 52 45 63
REMARK Flexibility Score: inf
ROOT
ATOM      1  C   UNL A   1      35.627  20.933  24.917  1.00  0.00     0.117 C 
ENDROOT
BRANCH   1   2
ATOM      2  N   UNL A   1      35.049  21.055  26.240  1.00  0.00    -0.356 N 
ATOM      3  C   UNL A   1      34.253  22.003  26.803  1.00  0.00     0.224 C 
ATOM      4  O   UNL A   1      34.009  21.835  28.004  1.00  0.00    -0.275 OA
ATOM      5  H   UNL A   1      35.276  20.313  26.845  1.00  0.00     0.163 HD
BRANCH   3   6
ATOM      6  C   UNL A   1      33.712  23.331  25.936  1.00  0.00     0.095 C 
ATOM      7  C   UNL A   1      32.249  22.287  25.168  1.00  0.00     0.095 C 
ATOM      8  C   UNL A   1      32.230  22.170  23.278  1.00  0.00     0.041 C 
ATOM      9  C   UNL A   1      33.200  23.298  22.179  1.00  0.00    -0.030 C 
ATOM     10  C   UNL A   1      34.641  24.670  24.425  1.00  0.00     0.041 C 
ATOM     11  C   UNL A   1      34.153  24.308  22.583  1.00  0.00    -0.030 C 
BRANCH   7  12
ATOM     12  C   UNL A   1      30.888  22.880  25.689  1.00  0.00     0.224 C 
ATOM     13  N   UNL A   1      30.483  24.192  25.546  1.00  0.00    -0.349 N 
ATOM     14  H   UNL A   1      29.525  24.303  25.750  1.00  0.00     0.164 HD
ATOM     15  O   UNL A   1      30.046  22.108  26.167  1.00  0.00    -0.275 OA
BRANCH  13  16
ATOM     16  C   UNL A   1      31.127  25.492  25.160  1.00  0.00     0.109 C 
ATOM     17  C   UNL A   1      31.184  26.442  26.348  1.00  0.00     0.036 C 
BRANCH  16  18
ATOM     18  C   UNL A   1      30.425  26.149  23.985  1.00  0.00    -0.026 A 
ATOM     19  C   UNL A   1      31.486  27.244  23.192  1.00  0.00     0.008 A 
ATOM     20  C   UNL A   1      28.749  26.577  24.028  1.00  0.00     0.008 A 
ATOM     21  C   UNL A   1      30.839  28.992  22.585  1.00  0.00     0.027 A 
ATOM     22  C   UNL A   1      28.125  28.074  23.405  1.00  0.00     0.027 A 
ATOM     23  C   UNL A   1      29.110  29.298  22.696  1.00  0.00     0.046 A 
BRANCH  23  24
ATOM     24  N   UNL A   1      28.516  30.429  22.125  1.00  0.00    -0.306 N 
ATOM     25  C   UNL A   1      28.287  30.654  20.794  1.00  0.00     0.113 A 
ATOM     26  C   UNL A   1      28.313  31.623  22.765  1.00  0.00     0.204 A 
ATOM     27  C   UNL A   1      27.876  31.963  20.706  1.00  0.00     0.131 A 
ATOM     28  N   UNL A   1      27.908  32.564  21.937  1.00  0.00    -0.245 NA
ENDBRANCH  23  24
ENDBRANCH  16  18
ENDBRANCH  13  16
ENDBRANCH   7  12
ENDBRANCH   3   6
ENDBRANCH   1   2
BRANCH   1  29
ATOM     29  C   UNL A   1      36.767  21.918  24.720  1.00  0.00     0.042 C 
BRANCH  29  30
ATOM     30  C   UNL A   1      37.902  21.743  25.721  1.00  0.00     0.118 C 
BRANCH  30  31
ATOM     31  N   UNL A   1      38.568  20.448  25.661  1.00  0.00    -0.352 N 
ATOM     32  C   UNL A   1      39.894  20.180  25.939  1.00  0.00     0.251 C 
ATOM     33  H   UNL A   1      38.011  19.681  25.395  1.00  0.00     0.163 HD
ATOM     34  O   UNL A   1      40.358  19.056  25.781  1.00  0.00    -0.269 OA
BRANCH  32  35
ATOM     35  C   UNL A   1      40.742  21.308  26.375  1.00  0.00     0.039 A 
ATOM     36  C   UNL A   1      41.681  21.834  25.488  1.00  0.00     0.014 A 
ATOM     37  C   UNL A   1      40.448  21.958  27.577  1.00  0.00     0.014 A 
ATOM     38  C   UNL A   1      42.265  23.070  25.771  1.00  0.00     0.010 A 
ATOM     39  C   UNL A   1      40.942  23.238  27.792  1.00  0.00     0.010 A 
ATOM     40  C   UNL A   1      41.861  23.809  26.897  1.00  0.00    -0.014 A 
BRANCH  40  41
ATOM     41  C   UNL A   1      42.412  25.166  27.165  1.00  0.00     0.031 A 
ATOM     42  C   UNL A   1      41.554  26.192  27.859  1.00  0.00     0.074 A 
ATOM     43  C   UNL A   1      43.655  25.492  26.752  1.00  0.00     0.049 A 
ATOM     44  N   UNL A   1      41.828  27.436  28.162  1.00  0.00    -0.248 NA
ATOM     45  C   UNL A   1      40.189  25.777  28.219  1.00  0.00     0.031 C 
ATOM     46  C   UNL A   1      44.564  24.609  26.015  1.00  0.00     0.029 A 
ATOM     47  N   UNL A   1      44.376  26.652  26.898  1.00  0.00    -0.354 N 
ATOM     48  C   UNL A   1      40.667  27.949  28.730  1.00  0.00     0.074 A 
ATOM     49  C   UNL A   1      39.662  26.915  28.638  1.00  0.00     0.031 C 
ATOM     50  C   UNL A   1      45.735  25.238  25.827  1.00  0.00     0.029 A 
ATOM     51  C   UNL A   1      45.653  26.584  26.384  1.00  0.00     0.049 A 
ATOM     52  H   UNL A   1      44.014  27.459  27.331  1.00  0.00     0.167 HD
ATOM     53  C   UNL A   1      40.465  29.156  29.314  1.00  0.00     0.034 A 
ATOM     54  C   UNL A   1      46.643  27.500  26.372  1.00  0.00     0.034 A 
ATOM     55  C   UNL A   1      41.486  30.168  29.419  1.00  0.00     0.049 A 
ATOM     56  C   UNL A   1      46.393  28.844  27.014  1.00  0.00     0.074 A 
ATOM     57  C   UNL A   1      41.417  31.401  30.041  1.00  0.00     0.029 A 
ATOM     58  N   UNL A   1      42.764  30.065  28.884  1.00  0.00    -0.354 N 
ATOM     59  N   UNL A   1      45.309  29.289  27.611  1.00  0.00    -0.248 NA
ATOM     60  C   UNL A   1      47.504  29.803  26.993  1.00  0.00     0.031 C 
ATOM     61  C   UNL A   1      42.623  32.072  29.817  1.00  0.00     0.029 A 
ATOM     62  C   UNL A   1      43.480  31.225  29.132  1.00  0.00     0.049 A 
ATOM     63  H   UNL A   1      43.110  29.281  28.399  1.00  0.00     0.167 HD
ATOM     64  C   UNL A   1      45.627  30.565  28.070  1.00  0.00     0.074 A 
ATOM     65  C   UNL A   1      47.004  30.809  27.695  1.00  0.00     0.031 C 
ATOM     66  C   UNL A   1      44.852  31.454  28.745  1.00  0.00     0.034 A 
BRANCH  53  67
ATOM     67  C   UNL A   1      39.083  29.438  29.859  1.00  0.00     0.023 A 
ATOM     68  C   UNL A   1      38.171  30.261  29.172  1.00  0.00     0.031 A 
ATOM     69  C   UNL A   1      38.691  28.929  31.108  1.00  0.00     0.131 A 
ATOM     70  C   UNL A   1      36.963  30.630  29.780  1.00  0.00     0.055 A 
ATOM     71  C   UNL A   1      37.444  29.221  31.665  1.00  0.00     0.041 A 
ATOM     72  F   UNL A   1      39.523  28.156  31.824  1.00  0.00    -0.206 F 
ATOM     73  C   UNL A   1      36.580  30.093  31.009  1.00  0.00     0.022 A 
BRANCH  70  74
ATOM     74  S   UNL A   1      35.988  31.960  29.023  1.00  0.00     0.124 S 
ATOM     75  O   UNL A   1      35.759  31.429  27.680  1.00  0.00    -0.237 OA
ATOM     76  O   UNL A   1      34.817  32.026  29.890  1.00  0.00    -0.237 OA
ATOM     77  O   UNL A   1      36.879  33.117  29.084  1.00  0.00    -0.744 OA
ENDBRANCH  70  74
ENDBRANCH  53  67
BRANCH  54  78
ATOM     78  C   UNL A   1      47.966  27.191  25.754  1.00  0.00     0.023 A 
ATOM     79  C   UNL A   1      49.010  26.639  26.515  1.00  0.00     0.031 A 
ATOM     80  C   UNL A   1      48.228  27.492  24.405  1.00  0.00     0.131 A 
ATOM     81  C   UNL A   1      50.279  26.456  25.943  1.00  0.00     0.055 A 
ATOM     82  C   UNL A   1      49.476  27.256  23.824  1.00  0.00     0.041 A 
ATOM     83  F   UNL A   1      47.267  28.016  23.627  1.00  0.00    -0.206 F 
ATOM     84  C   UNL A   1      50.515  26.748  24.597  1.00  0.00     0.022 A 
BRANCH  81  85
ATOM     85  S   UNL A   1      51.646  25.918  27.007  1.00  0.00     0.124 S 
ATOM     86  O   UNL A   1      52.570  27.040  26.895  1.00  0.00    -0.237 OA
ATOM     87  O   UNL A   1      50.980  25.760  28.297  1.00  0.00    -0.237 OA
ATOM     88  O   UNL A   1      52.093  24.675  26.384  1.00  0.00    -0.744 OA
ENDBRANCH  81  85
ENDBRANCH  54  78
BRANCH  66  89
ATOM     89  C   UNL A   1      45.503  32.750  29.167  1.00  0.00     0.023 A 
ATOM     90  C   UNL A   1      45.641  33.835  28.284  1.00  0.00     0.031 A 
ATOM     91  C   UNL A   1      46.008  32.894  30.472  1.00  0.00     0.131 A 
ATOM     92  C   UNL A   1      46.326  34.988  28.694  1.00  0.00     0.055 A 
ATOM     93  C   UNL A   1      46.624  34.071  30.898  1.00  0.00     0.041 A 
ATOM     94  F   UNL A   1      45.907  31.890  31.359  1.00  0.00    -0.206 F 
ATOM     95  C   UNL A   1      46.801  35.121  30.001  1.00  0.00     0.022 A 
BRANCH  92  96
ATOM     96  S   UNL A   1      46.690  36.268  27.462  1.00  0.00     0.124 S 
ATOM     97  O   UNL A   1      47.352  35.500  26.414  1.00  0.00    -0.237 OA
ATOM     98  O   UNL A   1      45.361  36.776  27.138  1.00  0.00    -0.237 OA
ATOM     99  O   UNL A   1      47.550  37.204  28.184  1.00  0.00    -0.744 OA
ENDBRANCH  92  96
ENDBRANCH  66  89
ENDBRANCH  40  41
ENDBRANCH  32  35
ENDBRANCH  30  31
ENDBRANCH  29  30
ENDBRANCH   1  29
TORSDOF 17
ENDMDL
MODEL 2
REMARK VINA RESULT:     -13.4      2.054      7.802
REMARK SMILES C[C@@H](NC(=O)[C@H]1CC=CC[C@@H]1C(=O)NCCCNC(=O)c1ccc(-c2c3nc(c(-c4cc(S(=O)(=O)[O-])ccc4F)c4ccc([nH]4)c(-c4cc(S(=O)(=O)[O-])ccc4F)c4nc(c(-c5cc(S(=O)(=O)[O-])ccc5F)c5ccc2[nH]5)C=C4)C=C3)cc1)c1ccc(-n2ccnc2)cc1
REMARK SMILES IDX 15 1 14 2 12 3 13 4 11 6 6 7 7 8 8 9 10 10 9 11 4 12 3 13
REMARK SMILES IDX 5 15 2 16 1 17 84 18 85 19 94 20 86 21 93 22 87 23 88 24
REMARK SMILES IDX 89 25 92 26 90 27 91 28 16 29 17 30 18 31 19 32 20 34 21 35
REMARK SMILES IDX 22 36 83 37 23 38 82 39 24 40 25 41 26 42 76 43 27 44 81 45
REMARK SMILES IDX 75 46 77 47 28 48 80 49 74 50 73 51 29 53 61 54 41 55 60 56
REMARK SMILES IDX 42 57 45 58 59 59 78 60 43 61 44 62 58 64 79 65 46 66 30 67
REMARK SMILES IDX 31 68 39 69 32 70 38 71 40 72 37 73 33 74 34 75 35 76 36 77
REMARK SMILES IDX 62 78 63 79 71 80 64 81 70 82 72 83 69 84 65 85 66 86 67 87
REMARK SMILES IDX 68 88 47 89 48 90 56 91 49 92 55 93 57 94 54 95 50 96 51 97
REMARK SMILES IDX 52 98 53 99
REMARK H PARENT 14 5 3 14 18 33 77 52 45 63
REMARK Flexibility Score: inf
ROOT
ATOM      1  C   UNL A   1      35.292  20.766  25.423  1.00  0.00     0.117 C 
ENDROOT
BRANCH   1   2
ATOM      2  N   UNL A   1      35.207  21.451  26.697  1.00  0.00    -0.356 N 
ATOM      3  C   UNL A   1      34.414  22.465  27.136  1.00  0.00     0.224 C 
ATOM      4  O   UNL A   1      34.670  22.873  28.275  1.00  0.00    -0.275 OA
ATOM      5  H   UNL A   1      35.844  21.121  27.371  1.00  0.00     0.163 HD
BRANCH   3   6
ATOM      6  C   UNL A   1      33.232  23.146  26.163  1.00  0.00     0.095 C 
ATOM      7  C   UNL A   1      34.534  24.360  25.358  1.00  0.00     0.095 C 
ATOM      8  C   UNL A   1      34.166  26.207  25.561  1.00  0.00     0.041 C 
ATOM      9  C   UNL A   1      32.511  26.866  26.056  1.00  0.00    -0.030 C 
ATOM     10  C   UNL A   1      31.301  24.169  26.569  1.00  0.00     0.041 C 
ATOM     11  C   UNL A   1      31.347  26.105  26.450  1.00  0.00    -0.030 C 
BRANCH   7  12
ATOM     12  C   UNL A   1      34.673  23.999  23.832  1.00  0.00     0.224 C 
ATOM     13  N   UNL A   1      33.629  23.672  22.992  1.00  0.00    -0.349 N 
ATOM     14  H   UNL A   1      33.902  23.689  22.045  1.00  0.00     0.164 HD
ATOM     15  O   UNL A   1      35.780  24.121  23.291  1.00  0.00    -0.275 OA
BRANCH  13  16
ATOM     16  C   UNL A   1      32.183  23.297  23.149  1.00  0.00     0.109 C 
ATOM     17  C   UNL A   1      31.895  21.958  22.485  1.00  0.00     0.036 C 
BRANCH  16  18
ATOM     18  C   UNL A   1      31.254  24.370  22.610  1.00  0.00    -0.026 A 
ATOM     19  C   UNL A   1      32.164  25.656  21.922  1.00  0.00     0.008 A 
ATOM     20  C   UNL A   1      29.774  24.795  23.397  1.00  0.00     0.008 A 
ATOM     21  C   UNL A   1      31.645  27.520  22.233  1.00  0.00     0.027 A 
ATOM     22  C   UNL A   1      29.231  26.433  23.600  1.00  0.00     0.027 A 
ATOM     23  C   UNL A   1      30.117  27.807  23.056  1.00  0.00     0.046 A 
BRANCH  23  24
ATOM     24  N   UNL A   1      29.560  29.086  23.166  1.00  0.00    -0.306 N 
ATOM     25  C   UNL A   1      28.702  29.688  22.285  1.00  0.00     0.113 A 
ATOM     26  C   UNL A   1      29.988  30.063  24.026  1.00  0.00     0.204 A 
ATOM     27  C   UNL A   1      28.592  30.992  22.709  1.00  0.00     0.131 A 
ATOM     28  N   UNL A   1      29.407  31.220  23.786  1.00  0.00    -0.245 NA
ENDBRANCH  23  24
ENDBRANCH  16  18
ENDBRANCH  13  16
ENDBRANCH   7  12
ENDBRANCH   3   6
ENDBRANCH   1   2
BRANCH   1  29
ATOM     29  C   UNL A   1      36.579  21.113  24.694  1.00  0.00     0.042 C 
BRANCH  29  30
ATOM     30  C   UNL A   1      37.675  21.638  25.611  1.00  0.00     0.118 C 
BRANCH  30  31
ATOM     31  N   UNL A   1      38.828  20.756  25.744  1.00  0.00    -0.352 N 
ATOM     32  C   UNL A   1      40.035  21.048  26.349  1.00  0.00     0.251 C 
ATOM     33  H   UNL A   1      38.736  19.854  25.361  1.00  0.00     0.163 HD
ATOM     34  O   UNL A   1      40.960  20.245  26.333  1.00  0.00    -0.269 OA
BRANCH  32  35
ATOM     35  C   UNL A   1      40.186  22.383  26.963  1.00  0.00     0.039 A 
ATOM     36  C   UNL A   1      41.041  22.537  28.054  1.00  0.00     0.014 A 
ATOM     37  C   UNL A   1      39.639  23.496  26.318  1.00  0.00     0.014 A 
ATOM     38  C   UNL A   1      41.421  23.822  28.443  1.00  0.00     0.010 A 
ATOM     39  C   UNL A   1      40.113  24.762  26.635  1.00  0.00     0.010 A 
ATOM     40  C   UNL A   1      41.004  24.944  27.706  1.00  0.00    -0.014 A 
BRANCH  40  41
ATOM     41  C   UNL A   1      41.469  26.314  28.059  1.00  0.00     0.031 A 
ATOM     42  C   UNL A   1      42.868  26.740  27.694  1.00  0.00     0.074 A 
ATOM     43  C   UNL A   1      40.663  27.154  28.741  1.00  0.00     0.049 A 
ATOM     44  N   UNL A   1      43.479  27.873  27.932  1.00  0.00    -0.248 NA
ATOM     45  C   UNL A   1      43.705  25.742  27.010  1.00  0.00     0.031 C 
ATOM     46  C   UNL A   1      39.309  26.840  29.207  1.00  0.00     0.029 A 
ATOM     47  N   UNL A   1      40.857  28.449  29.154  1.00  0.00    -0.354 N 
ATOM     48  C   UNL A   1      44.771  27.713  27.442  1.00  0.00     0.074 A 
ATOM     49  C   UNL A   1      44.881  26.346  26.985  1.00  0.00     0.031 C 
ATOM     50  C   UNL A   1      38.778  27.928  29.789  1.00  0.00     0.029 A 
ATOM     51  C   UNL A   1      39.764  29.005  29.782  1.00  0.00     0.049 A 
ATOM     52  H   UNL A   1      41.701  28.937  29.016  1.00  0.00     0.167 HD
ATOM     53  C   UNL A   1      45.765  28.630  27.341  1.00  0.00     0.034 A 
ATOM     54  C   UNL A   1      39.576  30.241  30.286  1.00  0.00     0.034 A 
ATOM     55  C   UNL A   1      45.630  29.997  27.779  1.00  0.00     0.049 A 
ATOM     56  C   UNL A   1      40.700  31.244  30.178  1.00  0.00     0.074 A 
ATOM     57  C   UNL A   1      46.543  31.030  27.673  1.00  0.00     0.029 A 
ATOM     58  N   UNL A   1      44.510  30.521  28.413  1.00  0.00    -0.354 N 
ATOM     59  N   UNL A   1      41.894  31.098  29.646  1.00  0.00    -0.248 NA
ATOM     60  C   UNL A   1      40.446  32.583  30.724  1.00  0.00     0.031 C 
ATOM     61  C   UNL A   1      46.007  32.155  28.309  1.00  0.00     0.029 A 
ATOM     62  C   UNL A   1      44.723  31.852  28.734  1.00  0.00     0.049 A 
ATOM     63  H   UNL A   1      43.686  30.019  28.607  1.00  0.00     0.167 HD
ATOM     64  C   UNL A   1      42.514  32.340  29.762  1.00  0.00     0.074 A 
ATOM     65  C   UNL A   1      41.558  33.223  30.396  1.00  0.00     0.031 C 
ATOM     66  C   UNL A   1      43.761  32.718  29.373  1.00  0.00     0.034 A 
BRANCH  53  67
ATOM     67  C   UNL A   1      47.077  28.167  26.752  1.00  0.00     0.023 A 
ATOM     68  C   UNL A   1      47.315  28.192  25.365  1.00  0.00     0.031 A 
ATOM     69  C   UNL A   1      48.083  27.637  27.578  1.00  0.00     0.131 A 
ATOM     70  C   UNL A   1      48.477  27.608  24.841  1.00  0.00     0.055 A 
ATOM     71  C   UNL A   1      49.282  27.146  27.057  1.00  0.00     0.041 A 
ATOM     72  F   UNL A   1      47.909  27.564  28.907  1.00  0.00    -0.206 F 
ATOM     73  C   UNL A   1      49.476  27.111  25.679  1.00  0.00     0.022 A 
BRANCH  70  74
ATOM     74  S   UNL A   1      48.578  27.347  23.048  1.00  0.00     0.124 S 
ATOM     75  O   UNL A   1      47.447  28.140  22.572  1.00  0.00    -0.237 OA
ATOM     76  O   UNL A   1      49.902  27.867  22.728  1.00  0.00    -0.237 OA
ATOM     77  O   UNL A   1      48.421  25.901  22.903  1.00  0.00    -0.744 OA
ENDBRANCH  70  74
ENDBRANCH  53  67
BRANCH  54  78
ATOM     78  C   UNL A   1      38.281  30.622  30.924  1.00  0.00     0.023 A 
ATOM     79  C   UNL A   1      37.306  31.339  30.210  1.00  0.00     0.031 A 
ATOM     80  C   UNL A   1      38.018  30.325  32.273  1.00  0.00     0.131 A 
ATOM     81  C   UNL A   1      36.142  31.781  30.858  1.00  0.00     0.055 A 
ATOM     82  C   UNL A   1      36.833  30.717  32.900  1.00  0.00     0.041 A 
ATOM     83  F   UNL A   1      38.911  29.638  33.004  1.00  0.00    -0.206 F 
ATOM     84  C   UNL A   1      35.892  31.463  32.196  1.00  0.00     0.022 A 
BRANCH  81  85
ATOM     85  S   UNL A   1      34.997  32.860  29.955  1.00  0.00     0.124 S 
ATOM     86  O   UNL A   1      34.144  33.354  31.029  1.00  0.00    -0.237 OA
ATOM     87  O   UNL A   1      35.907  33.833  29.358  1.00  0.00    -0.237 OA
ATOM     88  O   UNL A   1      34.350  31.954  29.009  1.00  0.00    -0.744 OA
ENDBRANCH  81  85
ENDBRANCH  54  78
BRANCH  66  89
ATOM     89  C   UNL A   1      44.132  34.168  29.578  1.00  0.00     0.023 A 
ATOM     90  C   UNL A   1      43.632  35.188  28.751  1.00  0.00     0.031 A 
ATOM     91  C   UNL A   1      45.015  34.530  30.612  1.00  0.00     0.131 A 
ATOM     92  C   UNL A   1      44.069  36.509  28.928  1.00  0.00     0.055 A 
ATOM     93  C   UNL A   1      45.391  35.855  30.829  1.00  0.00     0.041 A 
ATOM     94  F   UNL A   1      45.528  33.597  31.432  1.00  0.00    -0.206 F 
ATOM     95  C   UNL A   1      44.930  36.852  29.974  1.00  0.00     0.022 A 
BRANCH  92  96
ATOM     96  S   UNL A   1      43.589  37.755  27.701  1.00  0.00     0.124 S 
ATOM     97  O   UNL A   1      42.696  38.613  28.474  1.00  0.00    -0.237 OA
ATOM     98  O   UNL A   1      44.874  38.340  27.332  1.00  0.00    -0.237 OA
ATOM     99  O   UNL A   1      42.941  36.971  26.651  1.00  0.00    -0.744 OA
ENDBRANCH  92  96
ENDBRANCH  66  89
ENDBRANCH  40  41
ENDBRANCH  32  35
ENDBRANCH  30  31
ENDBRANCH  29  30
ENDBRANCH   1  29
TORSDOF 17
ENDMDL
MODEL 3
REMARK VINA RESULT:     -13.3      1.638      7.581
REMARK SMILES C[C@@H](NC(=O)[C@H]1CC=CC[C@@H]1C(=O)NCCCNC(=O)c1ccc(-c2c3nc(c(-c4cc(S(=O)(=O)[O-])ccc4F)c4ccc([nH]4)c(-c4cc(S(=O)(=O)[O-])ccc4F)c4nc(c(-c5cc(S(=O)(=O)[O-])ccc5F)c5ccc2[nH]5)C=C4)C=C3)cc1)c1ccc(-n2ccnc2)cc1
REMARK SMILES IDX 15 1 14 2 12 3 13 4 11 6 6 7 7 8 8 9 10 10 9 11 4 12 3 13
REMARK SMILES IDX 5 15 2 16 1 17 84 18 85 19 94 20 86 21 93 22 87 23 88 24
REMARK SMILES IDX 89 25 92 26 90 27 91 28 16 29 17 30 18 31 19 32 20 34 21 35
REMARK SMILES IDX 22 36 83 37 23 38 82 39 24 40 25 41 26 42 76 43 27 44 81 45
REMARK SMILES IDX 75 46 77 47 28 48 80 49 74 50 73 51 29 53 61 54 41 55 60 56
REMARK SMILES IDX 42 57 45 58 59 59 78 60 43 61 44 62 58 64 79 65 46 66 30 67
REMARK SMILES IDX 31 68 39 69 32 70 38 71 40 72 37 73 33 74 34 75 35 76 36 77
REMARK SMILES IDX 62 78 63 79 71 80 64 81 70 82 72 83 69 84 65 85 66 86 67 87
REMARK SMILES IDX 68 88 47 89 48 90 56 91 49 92 55 93 57 94 54 95 50 96 51 97
REMARK SMILES IDX 52 98 53 99
REMARK H PARENT 14 5 3 14 18 33 77 52 45 63
REMARK Flexibility Score: inf
ROOT
ATOM      1  C   UNL A   1      36.870  20.469  25.013  1.00  0.00     0.117 C 
ENDROOT
BRANCH   1   2
ATOM      2  N   UNL A   1      35.513  20.056  25.307  1.00  0.00    -0.356 N 
ATOM      3  C   UNL A   1      34.338  20.740  25.336  1.00  0.00     0.224 C 
ATOM      4  O   UNL A   1      33.361  20.086  25.719  1.00  0.00    -0.275 OA
ATOM      5  H   UNL A   1      35.425  19.101  25.530  1.00  0.00     0.163 HD
BRANCH   3   6
ATOM      6  C   UNL A   1      34.255  22.368  24.948  1.00  0.00     0.095 C 
ATOM      7  C   UNL A   1      32.342  22.409  25.348  1.00  0.00     0.095 C 
ATOM      8  C   UNL A   1      31.217  22.928  23.915  1.00  0.00     0.041 C 
ATOM      9  C   UNL A   1      31.834  23.780  22.394  1.00  0.00    -0.030 C 
ATOM     10  C   UNL A   1      34.735  23.547  23.126  1.00  0.00     0.041 C 
ATOM     11  C   UNL A   1      33.209  24.059  22.043  1.00  0.00    -0.030 C 
BRANCH   7  12
ATOM     12  C   UNL A   1      32.112  23.351  26.587  1.00  0.00     0.224 C 
ATOM     13  N   UNL A   1      32.024  24.727  26.537  1.00  0.00    -0.349 N 
ATOM     14  H   UNL A   1      31.673  25.102  27.377  1.00  0.00     0.164 HD
ATOM     15  O   UNL A   1      31.875  22.838  27.688  1.00  0.00    -0.275 OA
BRANCH  13  16
ATOM     16  C   UNL A   1      32.328  25.800  25.530  1.00  0.00     0.109 C 
ATOM     17  C   UNL A   1      33.714  26.384  25.761  1.00  0.00     0.036 C 
BRANCH  16  18
ATOM     18  C   UNL A   1      31.279  26.898  25.535  1.00  0.00    -0.026 A 
ATOM     19  C   UNL A   1      29.947  26.455  24.544  1.00  0.00     0.008 A 
ATOM     20  C   UNL A   1      31.695  28.576  25.582  1.00  0.00     0.008 A 
ATOM     21  C   UNL A   1      29.111  27.772  23.356  1.00  0.00     0.027 A 
ATOM     22  C   UNL A   1      30.905  29.788  24.618  1.00  0.00     0.027 A 
ATOM     23  C   UNL A   1      29.638  29.444  23.503  1.00  0.00     0.046 A 
BRANCH  23  24
ATOM     24  N   UNL A   1      28.985  30.490  22.842  1.00  0.00    -0.306 N 
ATOM     25  C   UNL A   1      29.062  30.797  21.510  1.00  0.00     0.113 A 
ATOM     26  C   UNL A   1      28.376  31.554  23.454  1.00  0.00     0.204 A 
ATOM     27  C   UNL A   1      28.419  32.004  21.371  1.00  0.00     0.131 A 
ATOM     28  N   UNL A   1      28.007  32.475  22.589  1.00  0.00    -0.245 NA
ENDBRANCH  23  24
ENDBRANCH  16  18
ENDBRANCH  13  16
ENDBRANCH   7  12
ENDBRANCH   3   6
ENDBRANCH   1   2
BRANCH   1  29
ATOM     29  C   UNL A   1      37.220  21.765  25.723  1.00  0.00     0.042 C 
BRANCH  29  30
ATOM     30  C   UNL A   1      38.718  21.989  25.878  1.00  0.00     0.118 C 
BRANCH  30  31
ATOM     31  N   UNL A   1      39.505  20.766  25.982  1.00  0.00    -0.352 N 
ATOM     32  C   UNL A   1      40.827  20.656  26.368  1.00  0.00     0.251 C 
ATOM     33  H   UNL A   1      39.044  19.927  25.754  1.00  0.00     0.163 HD
ATOM     34  O   UNL A   1      41.404  19.576  26.346  1.00  0.00    -0.269 OA
BRANCH  32  35
ATOM     35  C   UNL A   1      41.532  21.897  26.749  1.00  0.00     0.039 A 
ATOM     36  C   UNL A   1      41.855  22.827  25.760  1.00  0.00     0.014 A 
ATOM     37  C   UNL A   1      41.674  22.213  28.103  1.00  0.00     0.014 A 
ATOM     38  C   UNL A   1      42.239  24.114  26.137  1.00  0.00     0.010 A 
ATOM     39  C   UNL A   1      41.941  23.527  28.467  1.00  0.00     0.010 A 
ATOM     40  C   UNL A   1      42.233  24.494  27.491  1.00  0.00    -0.014 A 
BRANCH  40  41
ATOM     41  C   UNL A   1      42.559  25.887  27.902  1.00  0.00     0.031 A 
ATOM     42  C   UNL A   1      43.973  26.390  27.767  1.00  0.00     0.074 A 
ATOM     43  C   UNL A   1      41.606  26.682  28.433  1.00  0.00     0.049 A 
ATOM     44  N   UNL A   1      44.474  27.555  28.091  1.00  0.00    -0.248 NA
ATOM     45  C   UNL A   1      44.964  25.439  27.240  1.00  0.00     0.031 C 
ATOM     46  C   UNL A   1      40.213  26.294  28.674  1.00  0.00     0.029 A 
ATOM     47  N   UNL A   1      41.659  27.986  28.860  1.00  0.00    -0.354 N 
ATOM     48  C   UNL A   1      45.836  27.465  27.822  1.00  0.00     0.074 A 
ATOM     49  C   UNL A   1      46.093  26.106  27.403  1.00  0.00     0.031 C 
ATOM     50  C   UNL A   1      39.536  27.352  29.149  1.00  0.00     0.029 A 
ATOM     51  C   UNL A   1      40.449  28.482  29.294  1.00  0.00     0.049 A 
ATOM     52  H   UNL A   1      42.487  28.520  28.857  1.00  0.00     0.167 HD
ATOM     53  C   UNL A   1      46.781  28.437  27.876  1.00  0.00     0.034 A 
ATOM     54  C   UNL A   1      40.114  29.707  29.748  1.00  0.00     0.034 A 
ATOM     55  C   UNL A   1      46.502  29.794  28.272  1.00  0.00     0.049 A 
ATOM     56  C   UNL A   1      41.185  30.770  29.815  1.00  0.00     0.074 A 
ATOM     57  C   UNL A   1      47.363  30.876  28.307  1.00  0.00     0.029 A 
ATOM     58  N   UNL A   1      45.267  30.256  28.708  1.00  0.00    -0.354 N 
ATOM     59  N   UNL A   1      42.455  30.689  29.489  1.00  0.00    -0.248 NA
ATOM     60  C   UNL A   1      40.772  32.093  30.299  1.00  0.00     0.031 C 
ATOM     61  C   UNL A   1      46.669  31.970  28.834  1.00  0.00     0.029 A 
ATOM     62  C   UNL A   1      45.351  31.598  29.046  1.00  0.00     0.049 A 
ATOM     63  H   UNL A   1      44.450  29.709  28.768  1.00  0.00     0.167 HD
ATOM     64  C   UNL A   1      42.980  31.964  29.692  1.00  0.00     0.074 A 
ATOM     65  C   UNL A   1      41.886  32.793  30.151  1.00  0.00     0.031 C 
ATOM     66  C   UNL A   1      44.251  32.410  29.509  1.00  0.00     0.034 A 
BRANCH  53  67
ATOM     67  C   UNL A   1      48.196  28.046  27.515  1.00  0.00     0.023 A 
ATOM     68  C   UNL A   1      48.648  28.052  26.182  1.00  0.00     0.031 A 
ATOM     69  C   UNL A   1      49.089  27.603  28.506  1.00  0.00     0.131 A 
ATOM     70  C   UNL A   1      49.911  27.533  25.866  1.00  0.00     0.055 A 
ATOM     71  C   UNL A   1      50.383  27.179  28.195  1.00  0.00     0.041 A 
ATOM     72  F   UNL A   1      48.713  27.552  29.793  1.00  0.00    -0.206 F 
ATOM     73  C   UNL A   1      50.794  27.123  26.867  1.00  0.00     0.022 A 
BRANCH  70  74
ATOM     74  S   UNL A   1      50.309  27.235  24.121  1.00  0.00     0.124 S 
ATOM     75  O   UNL A   1      51.508  26.407  24.231  1.00  0.00    -0.237 OA
ATOM     76  O   UNL A   1      49.111  26.561  23.635  1.00  0.00    -0.237 OA
ATOM     77  O   UNL A   1      50.534  28.577  23.587  1.00  0.00    -0.744 OA
ENDBRANCH  70  74
ENDBRANCH  53  67
BRANCH  54  78
ATOM     78  C   UNL A   1      38.713  30.016  30.160  1.00  0.00     0.023 A 
ATOM     79  C   UNL A   1      37.804  30.595  29.259  1.00  0.00     0.031 A 
ATOM     80  C   UNL A   1      38.274  29.788  31.477  1.00  0.00     0.131 A 
ATOM     81  C   UNL A   1      36.526  30.978  29.696  1.00  0.00     0.055 A 
ATOM     82  C   UNL A   1      36.982  30.118  31.893  1.00  0.00     0.041 A 
ATOM     83  F   UNL A   1      39.097  29.233  32.381  1.00  0.00    -0.206 F 
ATOM     84  C   UNL A   1      36.104  30.730  31.004  1.00  0.00     0.022 A 
BRANCH  81  85
ATOM     85  S   UNL A   1      35.451  31.890  28.554  1.00  0.00     0.124 S 
ATOM     86  O   UNL A   1      34.414  32.383  29.452  1.00  0.00    -0.237 OA
ATOM     87  O   UNL A   1      36.365  32.893  28.016  1.00  0.00    -0.237 OA
ATOM     88  O   UNL A   1      35.021  30.869  27.602  1.00  0.00    -0.744 OA
ENDBRANCH  81  85
ENDBRANCH  54  78
BRANCH  66  89
ATOM     89  C   UNL A   1      44.505  33.878  29.758  1.00  0.00     0.023 A 
ATOM     90  C   UNL A   1      44.276  34.850  28.769  1.00  0.00     0.031 A 
ATOM     91  C   UNL A   1      44.998  34.307  31.003  1.00  0.00     0.131 A 
ATOM     92  C   UNL A   1      44.604  36.191  29.017  1.00  0.00     0.055 A 
ATOM     93  C   UNL A   1      45.254  35.652  31.270  1.00  0.00     0.041 A 
ATOM     94  F   UNL A   1      45.239  33.422  31.985  1.00  0.00    -0.206 F 
ATOM     95  C   UNL A   1      45.073  36.601  30.268  1.00  0.00     0.022 A 
BRANCH  92  96
ATOM     96  S   UNL A   1      44.518  37.375  27.647  1.00  0.00     0.124 S 
ATOM     97  O   UNL A   1      44.341  38.641  28.351  1.00  0.00    -0.237 OA
ATOM     98  O   UNL A   1      45.807  37.185  26.990  1.00  0.00    -0.237 OA
ATOM     99  O   UNL A   1      43.360  36.926  26.876  1.00  0.00    -0.744 OA
ENDBRANCH  92  96
ENDBRANCH  66  89
ENDBRANCH  40  41
ENDBRANCH  32  35
ENDBRANCH  30  31
ENDBRANCH  29  30
ENDBRANCH   1  29
TORSDOF 17
ENDMDL
