MODEL 1
REMARK VINA RESULT:     -12.3      0.000      0.000
REMARK SMILES O=C(NCCCNC(=O)c1ccc(C[NH2+]Cc2cc(F)ccc2F)nc1)c1ccc(-c2c3nc(c(-c4cc(S(=O)(=O)[O-])ccc4F)c4ccc([nH]4)c(-c4cc(S(=O)(=O)[O-])ccc4F)c4nc(c(-c5cc(S(=O)(=O)[O-])ccc5F)c5ccc2[nH]5)C=C4)C=C3)cc1
REMARK SMILES IDX 5 1 4 2 3 3 1 4 2 5 27 7 28 8 89 9 29 10 88 11 30 12 31 13
REMARK SMILES IDX 32 14 82 15 33 16 87 17 81 18 83 19 34 20 86 21 80 22 79 23
REMARK SMILES IDX 35 25 67 26 47 27 66 28 48 29 51 30 65 31 84 32 49 33 50 34
REMARK SMILES IDX 64 36 85 37 52 38 36 39 37 40 45 41 38 42 44 43 46 44 43 45
REMARK SMILES IDX 39 46 40 47 41 48 42 49 68 50 69 51 77 52 70 53 76 54 78 55
REMARK SMILES IDX 75 56 71 57 72 58 73 59 74 60 53 61 54 62 62 63 55 64 61 65
REMARK SMILES IDX 63 66 60 67 56 68 57 69 58 70 59 71 6 72 7 73 8 74 9 76
REMARK SMILES IDX 10 77 11 78 26 79 12 80 25 81 13 82 14 83 15 84 16 87 17 88
REMARK SMILES IDX 18 89 23 90 19 91 22 92 24 93 20 94 21 95
REMARK H PARENT 3 6 83 24 51 35 7 75 15 85 15 86
REMARK Flexibility Score: inf
ROOT
ATOM      1  C   UNL A   1      35.742  21.697  24.380  1.00  0.00     0.042 C 
ENDROOT
BRANCH   1   2
ATOM      2  C   UNL A   1      37.254  21.870  24.394  1.00  0.00     0.118 C 
BRANCH   2   3
ATOM      3  N   UNL A   1      37.932  20.813  25.133  1.00  0.00    -0.352 N 
ATOM      4  O   UNL A   1      39.575  19.835  26.314  1.00  0.00    -0.269 OA
ATOM      5  C   UNL A   1      39.047  20.876  25.933  1.00  0.00     0.251 C 
ATOM      6  H   UNL A   1      37.530  19.919  25.047  1.00  0.00     0.163 HD
BRANCH   5   7
ATOM      7  C   UNL A   1      39.612  22.186  26.327  1.00  0.00     0.039 A 
ATOM      8  C   UNL A   1      40.914  22.282  26.823  1.00  0.00     0.014 A 
ATOM      9  C   UNL A   1      38.843  23.343  26.152  1.00  0.00     0.014 A 
ATOM     10  C   UNL A   1      41.403  23.507  27.259  1.00  0.00     0.010 A 
ATOM     11  C   UNL A   1      39.372  24.588  26.506  1.00  0.00     0.010 A 
ATOM     12  C   UNL A   1      40.653  24.678  27.072  1.00  0.00    -0.014 A 
BRANCH  12  13
ATOM     13  C   UNL A   1      41.285  25.991  27.356  1.00  0.00     0.031 A 
ATOM     14  C   UNL A   1      42.635  26.345  26.804  1.00  0.00     0.074 A 
ATOM     15  C   UNL A   1      40.603  26.865  28.124  1.00  0.00     0.049 A 
ATOM     16  N   UNL A   1      43.325  27.444  26.971  1.00  0.00    -0.248 NA
ATOM     17  C   UNL A   1      43.302  25.339  25.963  1.00  0.00     0.031 C 
ATOM     18  C   UNL A   1      39.287  26.609  28.720  1.00  0.00     0.029 A 
ATOM     19  N   UNL A   1      40.905  28.137  28.533  1.00  0.00    -0.354 N 
ATOM     20  C   UNL A   1      44.516  27.260  26.276  1.00  0.00     0.074 A 
ATOM     21  C   UNL A   1      44.460  25.933  25.696  1.00  0.00     0.031 C 
ATOM     22  C   UNL A   1      38.884  27.698  29.387  1.00  0.00     0.029 A 
ATOM     23  C   UNL A   1      39.939  28.701  29.336  1.00  0.00     0.049 A 
ATOM     24  H   UNL A   1      41.733  28.603  28.277  1.00  0.00     0.167 HD
ATOM     25  C   UNL A   1      45.552  28.122  26.142  1.00  0.00     0.034 A 
ATOM     26  C   UNL A   1      39.921  29.875  29.994  1.00  0.00     0.034 A 
ATOM     27  C   UNL A   1      45.576  29.446  26.718  1.00  0.00     0.049 A 
ATOM     28  C   UNL A   1      41.107  30.790  29.855  1.00  0.00     0.074 A 
ATOM     29  C   UNL A   1      46.538  30.430  26.572  1.00  0.00     0.029 A 
ATOM     30  N   UNL A   1      44.604  29.965  27.564  1.00  0.00    -0.354 N 
ATOM     31  N   UNL A   1      42.199  30.620  29.146  1.00  0.00    -0.248 NA
ATOM     32  C   UNL A   1      41.063  32.050  30.605  1.00  0.00     0.031 C 
ATOM     33  C   UNL A   1      46.187  31.512  27.387  1.00  0.00     0.029 A 
ATOM     34  C   UNL A   1      44.970  31.234  27.988  1.00  0.00     0.049 A 
ATOM     35  H   UNL A   1      43.776  29.500  27.825  1.00  0.00     0.167 HD
ATOM     36  C   UNL A   1      42.969  31.756  29.363  1.00  0.00     0.074 A 
ATOM     37  C   UNL A   1      42.201  32.618  30.238  1.00  0.00     0.031 C 
ATOM     38  C   UNL A   1      44.202  32.061  28.886  1.00  0.00     0.034 A 
BRANCH  25  39
ATOM     39  C   UNL A   1      46.771  27.656  25.386  1.00  0.00     0.023 A 
ATOM     40  C   UNL A   1      46.976  27.965  24.031  1.00  0.00     0.031 A 
ATOM     41  C   UNL A   1      47.767  26.919  26.054  1.00  0.00     0.131 A 
ATOM     42  C   UNL A   1      48.134  27.511  23.379  1.00  0.00     0.055 A 
ATOM     43  C   UNL A   1      48.942  26.519  25.415  1.00  0.00     0.041 A 
ATOM     44  F   UNL A   1      47.614  26.580  27.344  1.00  0.00    -0.206 F 
ATOM     45  C   UNL A   1      49.127  26.810  24.067  1.00  0.00     0.022 A 
BRANCH  42  46
ATOM     46  S   UNL A   1      48.291  27.781  21.592  1.00  0.00     0.124 S 
ATOM     47  O   UNL A   1      48.634  26.442  21.119  1.00  0.00    -0.237 OA
ATOM     48  O   UNL A   1      46.965  28.266  21.227  1.00  0.00    -0.237 OA
ATOM     49  O   UNL A   1      49.367  28.766  21.486  1.00  0.00    -0.744 OA
ENDBRANCH  42  46
ENDBRANCH  25  39
BRANCH  26  50
ATOM     50  C   UNL A   1      38.782  30.222  30.891  1.00  0.00     0.023 A 
ATOM     51  C   UNL A   1      37.685  30.959  30.422  1.00  0.00     0.031 A 
ATOM     52  C   UNL A   1      38.801  29.860  32.251  1.00  0.00     0.131 A 
ATOM     53  C   UNL A   1      36.676  31.353  31.315  1.00  0.00     0.055 A 
ATOM     54  C   UNL A   1      37.766  30.200  33.121  1.00  0.00     0.041 A 
ATOM     55  F   UNL A   1      39.828  29.154  32.753  1.00  0.00    -0.206 F 
ATOM     56  C   UNL A   1      36.702  30.967  32.658  1.00  0.00     0.022 A 
BRANCH  53  57
ATOM     57  S   UNL A   1      35.383  32.476  30.721  1.00  0.00     0.124 S 
ATOM     58  O   UNL A   1      34.381  32.365  31.775  1.00  0.00    -0.237 OA
ATOM     59  O   UNL A   1      36.099  33.745  30.646  1.00  0.00    -0.237 OA
ATOM     60  O   UNL A   1      35.000  31.902  29.433  1.00  0.00    -0.744 OA
ENDBRANCH  53  57
ENDBRANCH  26  50
BRANCH  38  61
ATOM     61  C   UNL A   1      44.775  33.389  29.308  1.00  0.00     0.023 A 
ATOM     62  C   UNL A   1      44.538  34.556  28.560  1.00  0.00     0.031 A 
ATOM     63  C   UNL A   1      45.590  33.485  30.448  1.00  0.00     0.131 A 
ATOM     64  C   UNL A   1      45.157  35.758  28.929  1.00  0.00     0.055 A 
ATOM     65  C   UNL A   1      46.157  34.696  30.845  1.00  0.00     0.041 A 
ATOM     66  F   UNL A   1      45.851  32.399  31.195  1.00  0.00    -0.206 F 
ATOM     67  C   UNL A   1      45.952  35.840  30.075  1.00  0.00     0.022 A 
BRANCH  64  68
ATOM     68  S   UNL A   1      44.978  37.197  27.841  1.00  0.00     0.124 S 
ATOM     69  O   UNL A   1      43.690  36.938  27.206  1.00  0.00    -0.237 OA
ATOM     70  O   UNL A   1      45.011  38.311  28.784  1.00  0.00    -0.237 OA
ATOM     71  O   UNL A   1      46.137  37.103  26.955  1.00  0.00    -0.744 OA
ENDBRANCH  64  68
ENDBRANCH  38  61
ENDBRANCH  12  13
ENDBRANCH   5   7
ENDBRANCH   2   3
ENDBRANCH   1   2
BRANCH   1  72
ATOM     72  C   UNL A   1      35.139  21.407  25.748  1.00  0.00     0.118 C 
BRANCH  72  73
ATOM     73  N   UNL A   1      34.375  20.165  25.772  1.00  0.00    -0.352 N 
ATOM     74  C   UNL A   1      33.068  19.938  25.408  1.00  0.00     0.252 C 
ATOM     75  H   UNL A   1      34.865  19.375  26.096  1.00  0.00     0.163 HD
ATOM     76  O   UNL A   1      32.525  18.870  25.648  1.00  0.00    -0.269 OA
BRANCH  74  77
ATOM     77  C   UNL A   1      32.318  21.006  24.738  1.00  0.00     0.058 A 
ATOM     78  C   UNL A   1      32.373  21.186  23.357  1.00  0.00     0.017 A 
ATOM     79  C   UNL A   1      31.577  21.891  25.500  1.00  0.00     0.125 A 
ATOM     80  C   UNL A   1      31.790  22.322  22.807  1.00  0.00     0.030 A 
ATOM     81  N   UNL A   1      30.999  23.003  24.987  1.00  0.00    -0.255 NA
ATOM     82  C   UNL A   1      31.155  23.231  23.656  1.00  0.00     0.094 A 
BRANCH  82  83
ATOM     83  C   UNL A   1      30.759  24.595  23.126  1.00  0.00     0.318 C 
BRANCH  83  84
ATOM     84  N   UNL A   1      29.913  25.381  24.028  1.00  0.00    -0.337 N 
ATOM     85  H   UNL A   1      30.061  25.064  24.987  1.00  0.00     0.346 HD
ATOM     86  H   UNL A   1      28.938  25.252  23.757  1.00  0.00     0.346 HD
BRANCH  84  87
ATOM     87  C   UNL A   1      30.237  26.807  23.940  1.00  0.00     0.300 C 
BRANCH  87  88
ATOM     88  C   UNL A   1      31.326  27.232  24.895  1.00  0.00     0.045 A 
ATOM     89  C   UNL A   1      31.040  27.412  26.257  1.00  0.00     0.051 A 
ATOM     90  C   UNL A   1      32.636  27.468  24.461  1.00  0.00     0.132 A 
ATOM     91  C   UNL A   1      32.041  27.827  27.133  1.00  0.00     0.123 A 
ATOM     92  C   UNL A   1      33.628  27.914  25.333  1.00  0.00     0.043 A 
ATOM     93  F   UNL A   1      32.973  27.259  23.181  1.00  0.00    -0.206 F 
ATOM     94  F   UNL A   1      31.758  27.972  28.433  1.00  0.00    -0.207 F 
ATOM     95  C   UNL A   1      33.328  28.095  26.681  1.00  0.00     0.042 A 
ENDBRANCH  87  88
ENDBRANCH  84  87
ENDBRANCH  83  84
ENDBRANCH  82  83
ENDBRANCH  74  77
ENDBRANCH  72  73
ENDBRANCH   1  72
TORSDOF 17
ENDMDL
MODEL 2
REMARK VINA RESULT:     -12.3      5.554      8.795
REMARK SMILES O=C(NCCCNC(=O)c1ccc(C[NH2+]Cc2cc(F)ccc2F)nc1)c1ccc(-c2c3nc(c(-c4cc(S(=O)(=O)[O-])ccc4F)c4ccc([nH]4)c(-c4cc(S(=O)(=O)[O-])ccc4F)c4nc(c(-c5cc(S(=O)(=O)[O-])ccc5F)c5ccc2[nH]5)C=C4)C=C3)cc1
REMARK SMILES IDX 5 1 4 2 3 3 1 4 2 5 27 7 28 8 89 9 29 10 88 11 30 12 31 13
REMARK SMILES IDX 32 14 82 15 33 16 87 17 81 18 83 19 34 20 86 21 80 22 79 23
REMARK SMILES IDX 35 25 67 26 47 27 66 28 48 29 51 30 65 31 84 32 49 33 50 34
REMARK SMILES IDX 64 36 85 37 52 38 36 39 37 40 45 41 38 42 44 43 46 44 43 45
REMARK SMILES IDX 39 46 40 47 41 48 42 49 68 50 69 51 77 52 70 53 76 54 78 55
REMARK SMILES IDX 75 56 71 57 72 58 73 59 74 60 53 61 54 62 62 63 55 64 61 65
REMARK SMILES IDX 63 66 60 67 56 68 57 69 58 70 59 71 6 72 7 73 8 74 9 76
REMARK SMILES IDX 10 77 11 78 26 79 12 80 25 81 13 82 14 83 15 84 16 87 17 88
REMARK SMILES IDX 18 89 23 90 19 91 22 92 24 93 20 94 21 95
REMARK H PARENT 3 6 83 24 51 35 7 75 15 85 15 86
REMARK Flexibility Score: inf
ROOT
ATOM      1  C   UNL A   1      31.495  31.951  26.555  1.00  0.00     0.042 C 
ENDROOT
BRANCH   1   2
ATOM      2  C   UNL A   1      32.731  32.559  27.203  1.00  0.00     0.118 C 
BRANCH   2   3
ATOM      3  N   UNL A   1      32.520  33.936  27.630  1.00  0.00    -0.352 N 
ATOM      4  O   UNL A   1      32.669  35.737  28.965  1.00  0.00    -0.269 OA
ATOM      5  C   UNL A   1      33.125  34.645  28.640  1.00  0.00     0.251 C 
ATOM      6  H   UNL A   1      31.842  34.432  27.119  1.00  0.00     0.163 HD
BRANCH   5   7
ATOM      7  C   UNL A   1      34.311  34.095  29.333  1.00  0.00     0.039 A 
ATOM      8  C   UNL A   1      34.165  33.210  30.404  1.00  0.00     0.014 A 
ATOM      9  C   UNL A   1      35.590  34.431  28.873  1.00  0.00     0.014 A 
ATOM     10  C   UNL A   1      35.285  32.762  31.092  1.00  0.00     0.010 A 
ATOM     11  C   UNL A   1      36.718  33.904  29.510  1.00  0.00     0.010 A 
ATOM     12  C   UNL A   1      36.573  33.073  30.631  1.00  0.00    -0.014 A 
BRANCH  12  13
ATOM     13  C   UNL A   1      37.743  32.412  31.262  1.00  0.00     0.031 A 
ATOM     14  C   UNL A   1      38.461  31.281  30.584  1.00  0.00     0.074 A 
ATOM     15  C   UNL A   1      38.150  32.864  32.466  1.00  0.00     0.049 A 
ATOM     16  N   UNL A   1      39.490  30.593  31.010  1.00  0.00    -0.248 NA
ATOM     17  C   UNL A   1      37.962  30.861  29.266  1.00  0.00     0.031 C 
ATOM     18  C   UNL A   1      37.508  33.952  33.213  1.00  0.00     0.029 A 
ATOM     19  N   UNL A   1      39.190  32.483  33.271  1.00  0.00    -0.354 N 
ATOM     20  C   UNL A   1      39.752  29.645  30.026  1.00  0.00     0.074 A 
ATOM     21  C   UNL A   1      38.761  29.838  28.986  1.00  0.00     0.031 C 
ATOM     22  C   UNL A   1      38.187  34.170  34.347  1.00  0.00     0.029 A 
ATOM     23  C   UNL A   1      39.261  33.192  34.450  1.00  0.00     0.049 A 
ATOM     24  H   UNL A   1      39.825  31.771  33.030  1.00  0.00     0.167 HD
ATOM     25  C   UNL A   1      40.728  28.706  30.003  1.00  0.00     0.034 A 
ATOM     26  C   UNL A   1      40.073  33.045  35.513  1.00  0.00     0.034 A 
ATOM     27  C   UNL A   1      41.714  28.546  31.046  1.00  0.00     0.049 A 
ATOM     28  C   UNL A   1      41.119  31.965  35.470  1.00  0.00     0.074 A 
ATOM     29  C   UNL A   1      42.796  27.683  31.081  1.00  0.00     0.029 A 
ATOM     30  N   UNL A   1      41.727  29.247  32.245  1.00  0.00    -0.354 N 
ATOM     31  N   UNL A   1      41.387  31.116  34.504  1.00  0.00    -0.248 NA
ATOM     32  C   UNL A   1      41.970  31.819  36.657  1.00  0.00     0.031 C 
ATOM     33  C   UNL A   1      43.417  27.810  32.328  1.00  0.00     0.029 A 
ATOM     34  C   UNL A   1      42.767  28.800  33.046  1.00  0.00     0.049 A 
ATOM     35  H   UNL A   1      41.092  29.958  32.490  1.00  0.00     0.167 HD
ATOM     36  C   UNL A   1      42.440  30.339  34.968  1.00  0.00     0.074 A 
ATOM     37  C   UNL A   1      42.782  30.843  36.283  1.00  0.00     0.031 C 
ATOM     38  C   UNL A   1      43.069  29.297  34.367  1.00  0.00     0.034 A 
BRANCH  25  39
ATOM     39  C   UNL A   1      40.761  27.744  28.843  1.00  0.00     0.023 A 
ATOM     40  C   UNL A   1      41.719  27.835  27.820  1.00  0.00     0.031 A 
ATOM     41  C   UNL A   1      39.832  26.687  28.786  1.00  0.00     0.131 A 
ATOM     42  C   UNL A   1      41.707  26.906  26.767  1.00  0.00     0.055 A 
ATOM     43  C   UNL A   1      39.861  25.734  27.767  1.00  0.00     0.041 A 
ATOM     44  F   UNL A   1      38.883  26.563  29.727  1.00  0.00    -0.206 F 
ATOM     45  C   UNL A   1      40.799  25.844  26.746  1.00  0.00     0.022 A 
BRANCH  42  46
ATOM     46  S   UNL A   1      42.847  27.148  25.376  1.00  0.00     0.124 S 
ATOM     47  O   UNL A   1      42.210  28.248  24.658  1.00  0.00    -0.237 OA
ATOM     48  O   UNL A   1      44.102  27.466  26.048  1.00  0.00    -0.237 OA
ATOM     49  O   UNL A   1      42.820  25.861  24.682  1.00  0.00    -0.744 OA
ENDBRANCH  42  46
ENDBRANCH  25  39
BRANCH  26  50
ATOM     50  C   UNL A   1      39.888  33.889  36.728  1.00  0.00     0.023 A 
ATOM     51  C   UNL A   1      39.246  33.388  37.870  1.00  0.00     0.031 A 
ATOM     52  C   UNL A   1      40.310  35.232  36.744  1.00  0.00     0.131 A 
ATOM     53  C   UNL A   1      39.000  34.237  38.961  1.00  0.00     0.055 A 
ATOM     54  C   UNL A   1      40.118  36.054  37.854  1.00  0.00     0.041 A 
ATOM     55  F   UNL A   1      40.929  35.763  35.677  1.00  0.00    -0.206 F 
ATOM     56  C   UNL A   1      39.444  35.562  38.966  1.00  0.00     0.022 A 
BRANCH  53  57
ATOM     57  S   UNL A   1      37.988  33.615  40.331  1.00  0.00     0.124 S 
ATOM     58  O   UNL A   1      36.820  33.094  39.629  1.00  0.00    -0.237 OA
ATOM     59  O   UNL A   1      38.872  32.622  40.931  1.00  0.00    -0.237 OA
ATOM     60  O   UNL A   1      37.748  34.806  41.144  1.00  0.00    -0.744 OA
ENDBRANCH  53  57
ENDBRANCH  26  50
BRANCH  38  61
ATOM     61  C   UNL A   1      44.191  28.654  35.139  1.00  0.00     0.023 A 
ATOM     62  C   UNL A   1      43.948  27.598  36.035  1.00  0.00     0.031 A 
ATOM     63  C   UNL A   1      45.509  29.121  35.005  1.00  0.00     0.131 A 
ATOM     64  C   UNL A   1      44.999  27.080  36.804  1.00  0.00     0.055 A 
ATOM     65  C   UNL A   1      46.562  28.563  35.730  1.00  0.00     0.041 A 
ATOM     66  F   UNL A   1      45.794  30.131  34.166  1.00  0.00    -0.206 F 
ATOM     67  C   UNL A   1      46.307  27.545  36.646  1.00  0.00     0.022 A 
BRANCH  64  68
ATOM     68  S   UNL A   1      44.618  25.848  38.078  1.00  0.00     0.124 S 
ATOM     69  O   UNL A   1      44.061  24.756  37.286  1.00  0.00    -0.237 OA
ATOM     70  O   UNL A   1      45.926  25.599  38.676  1.00  0.00    -0.237 OA
ATOM     71  O   UNL A   1      43.663  26.535  38.945  1.00  0.00    -0.744 OA
ENDBRANCH  64  68
ENDBRANCH  38  61
ENDBRANCH  12  13
ENDBRANCH   5   7
ENDBRANCH   2   3
ENDBRANCH   1   2
BRANCH   1  72
ATOM     72  C   UNL A   1      31.720  30.561  25.977  1.00  0.00     0.118 C 
BRANCH  72  73
ATOM     73  N   UNL A   1      31.771  29.528  27.004  1.00  0.00    -0.352 N 
ATOM     74  C   UNL A   1      31.724  28.159  26.869  1.00  0.00     0.252 C 
ATOM     75  H   UNL A   1      31.851  29.856  27.929  1.00  0.00     0.163 HD
ATOM     76  O   UNL A   1      31.607  27.434  27.845  1.00  0.00    -0.269 OA
BRANCH  74  77
ATOM     77  C   UNL A   1      31.797  27.573  25.525  1.00  0.00     0.058 A 
ATOM     78  C   UNL A   1      30.652  27.223  24.813  1.00  0.00     0.017 A 
ATOM     79  C   UNL A   1      33.037  27.311  24.970  1.00  0.00     0.125 A 
ATOM     80  C   UNL A   1      30.792  26.507  23.630  1.00  0.00     0.030 A 
ATOM     81  N   UNL A   1      33.199  26.618  23.819  1.00  0.00    -0.255 NA
ATOM     82  C   UNL A   1      32.076  26.181  23.189  1.00  0.00     0.094 A 
BRANCH  82  83
ATOM     83  C   UNL A   1      32.247  25.177  22.066  1.00  0.00     0.318 C 
BRANCH  83  84
ATOM     84  N   UNL A   1      32.241  23.774  22.491  1.00  0.00    -0.337 N 
ATOM     85  H   UNL A   1      31.533  23.267  21.959  1.00  0.00     0.346 HD
ATOM     86  H   UNL A   1      32.032  23.736  23.488  1.00  0.00     0.346 HD
BRANCH  84  87
ATOM     87  C   UNL A   1      33.547  23.152  22.262  1.00  0.00     0.300 C 
BRANCH  87  88
ATOM     88  C   UNL A   1      34.284  22.824  23.538  1.00  0.00     0.045 A 
ATOM     89  C   UNL A   1      35.369  23.612  23.951  1.00  0.00     0.051 A 
ATOM     90  C   UNL A   1      33.922  21.733  24.338  1.00  0.00     0.132 A 
ATOM     91  C   UNL A   1      36.062  23.294  25.117  1.00  0.00     0.123 A 
ATOM     92  C   UNL A   1      34.637  21.397  25.486  1.00  0.00     0.043 A 
ATOM     93  F   UNL A   1      32.861  20.981  24.016  1.00  0.00    -0.206 F 
ATOM     94  F   UNL A   1      37.081  24.069  25.508  1.00  0.00    -0.207 F 
ATOM     95  C   UNL A   1      35.716  22.184  25.880  1.00  0.00     0.042 A 
ENDBRANCH  87  88
ENDBRANCH  84  87
ENDBRANCH  83  84
ENDBRANCH  82  83
ENDBRANCH  74  77
ENDBRANCH  72  73
ENDBRANCH   1  72
TORSDOF 17
ENDMDL
MODEL 3
REMARK VINA RESULT:     -12.3      2.788      8.606
REMARK SMILES O=C(NCCCNC(=O)c1ccc(C[NH2+]Cc2cc(F)ccc2F)nc1)c1ccc(-c2c3nc(c(-c4cc(S(=O)(=O)[O-])ccc4F)c4ccc([nH]4)c(-c4cc(S(=O)(=O)[O-])ccc4F)c4nc(c(-c5cc(S(=O)(=O)[O-])ccc5F)c5ccc2[nH]5)C=C4)C=C3)cc1
REMARK SMILES IDX 5 1 4 2 3 3 1 4 2 5 27 7 28 8 89 9 29 10 88 11 30 12 31 13
REMARK SMILES IDX 32 14 82 15 33 16 87 17 81 18 83 19 34 20 86 21 80 22 79 23
REMARK SMILES IDX 35 25 67 26 47 27 66 28 48 29 51 30 65 31 84 32 49 33 50 34
REMARK SMILES IDX 64 36 85 37 52 38 36 39 37 40 45 41 38 42 44 43 46 44 43 45
REMARK SMILES IDX 39 46 40 47 41 48 42 49 68 50 69 51 77 52 70 53 76 54 78 55
REMARK SMILES IDX 75 56 71 57 72 58 73 59 74 60 53 61 54 62 62 63 55 64 61 65
REMARK SMILES IDX 63 66 60 67 56 68 57 69 58 70 59 71 6 72 7 73 8 74 9 76
REMARK SMILES IDX 10 77 11 78 26 79 12 80 25 81 13 82 14 83 15 84 16 87 17 88
REMARK SMILES IDX 18 89 23 90 19 91 22 92 24 93 20 94 21 95
REMARK H PARENT 3 6 83 24 51 35 7 75 15 85 15 86
REMARK Flexibility Score: inf
ROOT
ATOM      1  C   UNL A   1      38.383  19.822  25.051  1.00  0.00     0.042 C 
ENDROOT
BRANCH   1   2
ATOM      2  C   UNL A   1      39.422  20.004  26.148  1.00  0.00     0.118 C 
BRANCH   2   3
ATOM      3  N   UNL A   1      40.523  19.056  26.040  1.00  0.00    -0.352 N 
ATOM      4  O   UNL A   1      42.636  18.361  25.722  1.00  0.00    -0.269 OA
ATOM      5  C   UNL A   1      41.878  19.282  26.012  1.00  0.00     0.251 C 
ATOM      6  H   UNL A   1      40.256  18.111  25.977  1.00  0.00     0.163 HD
BRANCH   5   7
ATOM      7  C   UNL A   1      42.418  20.624  26.323  1.00  0.00     0.039 A 
ATOM      8  C   UNL A   1      42.705  21.532  25.301  1.00  0.00     0.014 A 
ATOM      9  C   UNL A   1      42.593  20.999  27.660  1.00  0.00     0.014 A 
ATOM     10  C   UNL A   1      43.283  22.759  25.603  1.00  0.00     0.010 A 
ATOM     11  C   UNL A   1      43.088  22.271  27.966  1.00  0.00     0.010 A 
ATOM     12  C   UNL A   1      43.445  23.156  26.938  1.00  0.00    -0.014 A 
BRANCH  12  13
ATOM     13  C   UNL A   1      43.869  24.549  27.228  1.00  0.00     0.031 A 
ATOM     14  C   UNL A   1      42.899  25.569  27.750  1.00  0.00     0.074 A 
ATOM     15  C   UNL A   1      45.161  24.873  27.015  1.00  0.00     0.049 A 
ATOM     16  N   UNL A   1      43.112  26.828  28.041  1.00  0.00    -0.248 NA
ATOM     17  C   UNL A   1      41.513  25.129  27.970  1.00  0.00     0.031 C 
ATOM     18  C   UNL A   1      46.181  23.954  26.496  1.00  0.00     0.029 A 
ATOM     19  N   UNL A   1      45.845  26.044  27.208  1.00  0.00    -0.354 N 
ATOM     20  C   UNL A   1      41.887  27.338  28.457  1.00  0.00     0.074 A 
ATOM     21  C   UNL A   1      40.930  26.253  28.367  1.00  0.00     0.031 C 
ATOM     22  C   UNL A   1      47.361  24.586  26.444  1.00  0.00     0.029 A 
ATOM     23  C   UNL A   1      47.172  25.972  26.848  1.00  0.00     0.049 A 
ATOM     24  H   UNL A   1      45.427  26.858  27.569  1.00  0.00     0.167 HD
ATOM     25  C   UNL A   1      41.598  28.595  28.872  1.00  0.00     0.034 A 
ATOM     26  C   UNL A   1      48.122  26.925  26.807  1.00  0.00     0.034 A 
ATOM     27  C   UNL A   1      42.575  29.654  28.968  1.00  0.00     0.049 A 
ATOM     28  C   UNL A   1      47.755  28.319  27.235  1.00  0.00     0.074 A 
ATOM     29  C   UNL A   1      42.406  30.939  29.456  1.00  0.00     0.029 A 
ATOM     30  N   UNL A   1      43.896  29.560  28.550  1.00  0.00    -0.354 N 
ATOM     31  N   UNL A   1      46.604  28.767  27.681  1.00  0.00    -0.248 NA
ATOM     32  C   UNL A   1      48.809  29.336  27.154  1.00  0.00     0.031 C 
ATOM     33  C   UNL A   1      43.600  31.641  29.265  1.00  0.00     0.029 A 
ATOM     34  C   UNL A   1      44.538  30.778  28.722  1.00  0.00     0.049 A 
ATOM     35  H   UNL A   1      44.317  28.748  28.185  1.00  0.00     0.167 HD
ATOM     36  C   UNL A   1      46.800  30.119  27.936  1.00  0.00     0.074 A 
ATOM     37  C   UNL A   1      48.187  30.403  27.630  1.00  0.00     0.031 C 
ATOM     38  C   UNL A   1      45.914  31.046  28.380  1.00  0.00     0.034 A 
BRANCH  25  39
ATOM     39  C   UNL A   1      40.165  28.920  29.211  1.00  0.00     0.023 A 
ATOM     40  C   UNL A   1      39.706  28.993  30.536  1.00  0.00     0.031 A 
ATOM     41  C   UNL A   1      39.250  29.201  28.179  1.00  0.00     0.131 A 
ATOM     42  C   UNL A   1      38.362  29.307  30.795  1.00  0.00     0.055 A 
ATOM     43  C   UNL A   1      37.930  29.568  28.443  1.00  0.00     0.041 A 
ATOM     44  F   UNL A   1      39.630  29.127  26.893  1.00  0.00    -0.206 F 
ATOM     45  C   UNL A   1      37.478  29.617  29.758  1.00  0.00     0.022 A 
BRANCH  42  46
ATOM     46  S   UNL A   1      37.760  29.230  32.504  1.00  0.00     0.124 S 
ATOM     47  O   UNL A   1      38.779  30.000  33.213  1.00  0.00    -0.237 OA
ATOM     48  O   UNL A   1      36.445  29.854  32.404  1.00  0.00    -0.237 OA
ATOM     49  O   UNL A   1      37.750  27.799  32.801  1.00  0.00    -0.744 OA
ENDBRANCH  42  46
ENDBRANCH  25  39
BRANCH  26  50
ATOM     50  C   UNL A   1      49.482  26.614  26.281  1.00  0.00     0.023 A 
ATOM     51  C   UNL A   1      49.909  27.102  25.037  1.00  0.00     0.031 A 
ATOM     52  C   UNL A   1      50.358  25.779  26.999  1.00  0.00     0.131 A 
ATOM     53  C   UNL A   1      51.157  26.712  24.526  1.00  0.00     0.055 A 
ATOM     54  C   UNL A   1      51.623  25.444  26.514  1.00  0.00     0.041 A 
ATOM     55  F   UNL A   1      50.000  25.284  28.194  1.00  0.00    -0.206 F 
ATOM     56  C   UNL A   1      52.022  25.897  25.262  1.00  0.00     0.022 A 
BRANCH  53  57
ATOM     57  S   UNL A   1      51.588  27.191  22.832  1.00  0.00     0.124 S 
ATOM     58  O   UNL A   1      51.796  28.629  22.971  1.00  0.00    -0.237 OA
ATOM     59  O   UNL A   1      52.784  26.391  22.588  1.00  0.00    -0.237 OA
ATOM     60  O   UNL A   1      50.411  26.802  22.058  1.00  0.00    -0.744 OA
ENDBRANCH  53  57
ENDBRANCH  26  50
BRANCH  38  61
ATOM     61  C   UNL A   1      46.441  32.445  28.561  1.00  0.00     0.023 A 
ATOM     62  C   UNL A   1      46.478  33.354  27.489  1.00  0.00     0.031 A 
ATOM     63  C   UNL A   1      46.942  32.864  29.805  1.00  0.00     0.131 A 
ATOM     64  C   UNL A   1      47.056  34.619  27.667  1.00  0.00     0.055 A 
ATOM     65  C   UNL A   1      47.463  34.144  29.992  1.00  0.00     0.041 A 
ATOM     66  F   UNL A   1      46.933  32.032  30.860  1.00  0.00    -0.206 F 
ATOM     67  C   UNL A   1      47.535  35.025  28.915  1.00  0.00     0.022 A 
BRANCH  64  68
ATOM     68  S   UNL A   1      47.253  35.695  26.222  1.00  0.00     0.124 S 
ATOM     69  O   UNL A   1      45.904  36.227  26.054  1.00  0.00    -0.237 OA
ATOM     70  O   UNL A   1      48.261  36.648  26.674  1.00  0.00    -0.237 OA
ATOM     71  O   UNL A   1      47.695  34.781  25.171  1.00  0.00    -0.744 OA
ENDBRANCH  64  68
ENDBRANCH  38  61
ENDBRANCH  12  13
ENDBRANCH   5   7
ENDBRANCH   2   3
ENDBRANCH   1   2
BRANCH   1  72
ATOM     72  C   UNL A   1      37.391  20.972  24.942  1.00  0.00     0.118 C 
BRANCH  72  73
ATOM     73  N   UNL A   1      37.738  22.096  25.802  1.00  0.00    -0.352 N 
ATOM     74  C   UNL A   1      37.299  23.400  25.755  1.00  0.00     0.252 C 
ATOM     75  H   UNL A   1      38.380  21.895  26.521  1.00  0.00     0.163 HD
ATOM     76  O   UNL A   1      37.817  24.264  26.447  1.00  0.00    -0.269 OA
BRANCH  74  77
ATOM     77  C   UNL A   1      36.203  23.750  24.845  1.00  0.00     0.058 A 
ATOM     78  C   UNL A   1      35.125  24.529  25.259  1.00  0.00     0.017 A 
ATOM     79  C   UNL A   1      36.213  23.253  23.554  1.00  0.00     0.125 A 
ATOM     80  C   UNL A   1      34.036  24.672  24.408  1.00  0.00     0.030 A 
ATOM     81  N   UNL A   1      35.166  23.380  22.706  1.00  0.00    -0.255 NA
ATOM     82  C   UNL A   1      34.071  24.045  23.160  1.00  0.00     0.094 A 
BRANCH  82  83
ATOM     83  C   UNL A   1      32.802  23.954  22.336  1.00  0.00     0.318 C 
BRANCH  83  84
ATOM     84  N   UNL A   1      31.962  22.789  22.628  1.00  0.00    -0.337 N 
ATOM     85  H   UNL A   1      32.102  22.085  21.903  1.00  0.00     0.346 HD
ATOM     86  H   UNL A   1      30.987  23.087  22.651  1.00  0.00     0.346 HD
BRANCH  84  87
ATOM     87  C   UNL A   1      32.304  22.210  23.930  1.00  0.00     0.300 C 
BRANCH  87  88
ATOM     88  C   UNL A   1      32.725  20.763  23.848  1.00  0.00     0.045 A 
ATOM     89  C   UNL A   1      32.159  19.916  22.883  1.00  0.00     0.051 A 
ATOM     90  C   UNL A   1      33.673  20.221  24.724  1.00  0.00     0.132 A 
ATOM     91  C   UNL A   1      32.532  18.574  22.825  1.00  0.00     0.123 A 
ATOM     92  C   UNL A   1      34.021  18.872  24.685  1.00  0.00     0.043 A 
ATOM     93  F   UNL A   1      34.282  21.000  25.628  1.00  0.00    -0.206 F 
ATOM     94  F   UNL A   1      32.000  17.785  21.884  1.00  0.00    -0.207 F 
ATOM     95  C   UNL A   1      33.446  18.041  23.727  1.00  0.00     0.042 A 
ENDBRANCH  87  88
ENDBRANCH  84  87
ENDBRANCH  83  84
ENDBRANCH  82  83
ENDBRANCH  74  77
ENDBRANCH  72  73
ENDBRANCH   1  72
TORSDOF 17
ENDMDL
