MODEL 1
REMARK VINA RESULT:     -11.3      0.000      0.000
REMARK SMILES O=C(NCCCNC(=O)C1(O)CCC(F)(F)CC1)c1ccc(-c2c3nc(c(-c4cc(S(=O)(=O)[O-])ccc4F)c4ccc([nH]4)c(-c4cc(S(=O)(=O)[O-])ccc4F)c4nc(c(-c5cc(S(=O)(=O)[O-])ccc5F)c5ccc2[nH]5)C=C4)C=C3)cc1
REMARK SMILES IDX 4 1 3 2 1 3 2 4 19 6 20 7 81 8 21 9 80 10 22 11 23 12 24 13
REMARK SMILES IDX 74 14 25 15 79 16 73 17 75 18 26 19 78 20 72 21 71 22 27 24
REMARK SMILES IDX 59 25 39 26 58 27 40 28 43 29 57 30 76 31 41 32 42 33 56 35
REMARK SMILES IDX 77 36 44 37 28 38 29 39 37 40 30 41 36 42 38 43 35 44 31 45
REMARK SMILES IDX 32 46 33 47 34 48 60 49 61 50 69 51 62 52 68 53 70 54 67 55
REMARK SMILES IDX 63 56 64 57 65 58 66 59 45 60 46 61 54 62 47 63 53 64 55 65
REMARK SMILES IDX 52 66 48 67 49 68 50 69 51 70 5 71 6 72 7 73 8 74 9 76 10 77
REMARK SMILES IDX 12 78 18 79 13 80 17 81 14 82 15 83 16 84 11 85
REMARK H PARENT 3 5 75 23 43 34 7 75 11 86
REMARK Flexibility Score: inf
ROOT
ATOM      1  C   UNL A   1      33.272  29.057  24.875  1.00  0.00     0.118 C 
ENDROOT
BRANCH   1   2
ATOM      2  N   UNL A   1      32.671  30.272  25.398  1.00  0.00    -0.352 N 
ATOM      3  O   UNL A   1      32.117  31.859  26.877  1.00  0.00    -0.269 OA
ATOM      4  C   UNL A   1      32.904  30.970  26.561  1.00  0.00     0.251 C 
ATOM      5  H   UNL A   1      31.976  30.664  24.821  1.00  0.00     0.163 HD
BRANCH   4   6
ATOM      6  C   UNL A   1      34.064  30.668  27.436  1.00  0.00     0.039 A 
ATOM      7  C   UNL A   1      34.257  29.403  27.989  1.00  0.00     0.014 A 
ATOM      8  C   UNL A   1      35.034  31.658  27.640  1.00  0.00     0.014 A 
ATOM      9  C   UNL A   1      35.325  29.167  28.851  1.00  0.00     0.010 A 
ATOM     10  C   UNL A   1      36.167  31.387  28.420  1.00  0.00     0.010 A 
ATOM     11  C   UNL A   1      36.315  30.142  29.048  1.00  0.00    -0.014 A 
BRANCH  11  12
ATOM     12  C   UNL A   1      37.533  29.796  29.831  1.00  0.00     0.031 A 
ATOM     13  C   UNL A   1      38.617  28.931  29.251  1.00  0.00     0.074 A 
ATOM     14  C   UNL A   1      37.663  30.297  31.078  1.00  0.00     0.049 A 
ATOM     15  N   UNL A   1      39.736  28.530  29.800  1.00  0.00    -0.248 NA
ATOM     16  C   UNL A   1      38.415  28.444  27.879  1.00  0.00     0.031 C 
ATOM     17  C   UNL A   1      36.675  31.147  31.749  1.00  0.00     0.029 A 
ATOM     18  N   UNL A   1      38.678  30.189  31.995  1.00  0.00    -0.354 N 
ATOM     19  C   UNL A   1      40.367  27.735  28.849  1.00  0.00     0.074 A 
ATOM     20  C   UNL A   1      39.485  27.681  27.702  1.00  0.00     0.031 C 
ATOM     21  C   UNL A   1      37.157  31.528  32.941  1.00  0.00     0.029 A 
ATOM     22  C   UNL A   1      38.445  30.884  33.159  1.00  0.00     0.049 A 
ATOM     23  H   UNL A   1      39.495  29.662  31.835  1.00  0.00     0.167 HD
ATOM     24  C   UNL A   1      41.574  27.117  28.928  1.00  0.00     0.034 A 
ATOM     25  C   UNL A   1      39.172  30.978  34.289  1.00  0.00     0.034 A 
ATOM     26  C   UNL A   1      42.438  27.180  30.084  1.00  0.00     0.049 A 
ATOM     27  C   UNL A   1      40.477  30.235  34.371  1.00  0.00     0.074 A 
ATOM     28  C   UNL A   1      43.687  26.606  30.262  1.00  0.00     0.029 A 
ATOM     29  N   UNL A   1      42.144  27.849  31.266  1.00  0.00    -0.354 N 
ATOM     30  N   UNL A   1      41.059  29.488  33.460  1.00  0.00    -0.248 NA
ATOM     31  C   UNL A   1      41.222  30.344  35.630  1.00  0.00     0.031 C 
ATOM     32  C   UNL A   1      44.112  26.868  31.569  1.00  0.00     0.029 A 
ATOM     33  C   UNL A   1      43.169  27.675  32.184  1.00  0.00     0.049 A 
ATOM     34  H   UNL A   1      41.325  28.372  31.429  1.00  0.00     0.167 HD
ATOM     35  C   UNL A   1      42.252  29.057  34.032  1.00  0.00     0.074 A 
ATOM     36  C   UNL A   1      42.313  29.644  35.356  1.00  0.00     0.031 C 
ATOM     37  C   UNL A   1      43.210  28.251  33.509  1.00  0.00     0.034 A 
BRANCH  24  38
ATOM     38  C   UNL A   1      42.007  26.280  27.744  1.00  0.00     0.023 A 
ATOM     39  C   UNL A   1      41.620  24.936  27.604  1.00  0.00     0.031 A 
ATOM     40  C   UNL A   1      42.832  26.833  26.747  1.00  0.00     0.131 A 
ATOM     41  C   UNL A   1      42.112  24.172  26.533  1.00  0.00     0.055 A 
ATOM     42  C   UNL A   1      43.253  26.090  25.642  1.00  0.00     0.041 A 
ATOM     43  F   UNL A   1      43.253  28.104  26.835  1.00  0.00    -0.206 F 
ATOM     44  C   UNL A   1      42.904  24.747  25.537  1.00  0.00     0.022 A 
BRANCH  41  45
ATOM     45  S   UNL A   1      41.815  22.383  26.534  1.00  0.00     0.124 S 
ATOM     46  O   UNL A   1      42.661  21.943  25.426  1.00  0.00    -0.237 OA
ATOM     47  O   UNL A   1      42.254  21.991  27.868  1.00  0.00    -0.237 OA
ATOM     48  O   UNL A   1      40.379  22.273  26.290  1.00  0.00    -0.744 OA
ENDBRANCH  41  45
ENDBRANCH  24  38
BRANCH  25  49
ATOM     49  C   UNL A   1      38.667  31.773  35.445  1.00  0.00     0.023 A 
ATOM     50  C   UNL A   1      38.155  31.143  36.589  1.00  0.00     0.031 A 
ATOM     51  C   UNL A   1      38.663  33.180  35.409  1.00  0.00     0.131 A 
ATOM     52  C   UNL A   1      37.626  31.916  37.634  1.00  0.00     0.055 A 
ATOM     53  C   UNL A   1      38.189  33.945  36.475  1.00  0.00     0.041 A 
ATOM     54  F   UNL A   1      39.143  33.833  34.339  1.00  0.00    -0.206 F 
ATOM     55  C   UNL A   1      37.654  33.312  37.592  1.00  0.00     0.022 A 
BRANCH  52  56
ATOM     56  S   UNL A   1      36.819  31.068  39.019  1.00  0.00     0.124 S 
ATOM     57  O   UNL A   1      35.588  31.837  39.162  1.00  0.00    -0.237 OA
ATOM     58  O   UNL A   1      36.674  29.713  38.500  1.00  0.00    -0.237 OA
ATOM     59  O   UNL A   1      37.777  31.216  40.112  1.00  0.00    -0.744 OA
ENDBRANCH  52  56
ENDBRANCH  25  49
BRANCH  37  60
ATOM     60  C   UNL A   1      44.424  27.996  34.368  1.00  0.00     0.023 A 
ATOM     61  C   UNL A   1      44.492  26.901  35.249  1.00  0.00     0.031 A 
ATOM     62  C   UNL A   1      45.519  28.878  34.324  1.00  0.00     0.131 A 
ATOM     63  C   UNL A   1      45.602  26.752  36.093  1.00  0.00     0.055 A 
ATOM     64  C   UNL A   1      46.647  28.688  35.121  1.00  0.00     0.041 A 
ATOM     65  F   UNL A   1      45.505  29.942  33.505  1.00  0.00    -0.206 F 
ATOM     66  C   UNL A   1      46.688  27.627  36.023  1.00  0.00     0.022 A 
BRANCH  63  67
ATOM     67  S   UNL A   1      45.566  25.450  37.357  1.00  0.00     0.124 S 
ATOM     68  O   UNL A   1      44.227  24.896  37.182  1.00  0.00    -0.237 OA
ATOM     69  O   UNL A   1      46.670  24.588  36.950  1.00  0.00    -0.237 OA
ATOM     70  O   UNL A   1      45.778  26.179  38.606  1.00  0.00    -0.744 OA
ENDBRANCH  63  67
ENDBRANCH  37  60
ENDBRANCH  11  12
ENDBRANCH   4   6
ENDBRANCH   1   2
BRANCH   1  71
ATOM     71  C   UNL A   1      33.175  28.956  23.358  1.00  0.00     0.042 C 
BRANCH  71  72
ATOM     72  C   UNL A   1      32.164  27.931  22.859  1.00  0.00     0.117 C 
BRANCH  72  73
ATOM     73  N   UNL A   1      32.690  27.103  21.791  1.00  0.00    -0.354 N 
ATOM     74  C   UNL A   1      32.902  25.784  21.600  1.00  0.00     0.251 C 
ATOM     75  H   UNL A   1      32.962  27.638  21.010  1.00  0.00     0.163 HD
ATOM     76  O   UNL A   1      33.274  25.510  20.447  1.00  0.00    -0.272 OA
BRANCH  74  77
ATOM     77  C   UNL A   1      32.710  24.625  22.635  1.00  0.00     0.143 C 
ATOM     78  C   UNL A   1      34.054  24.423  23.360  1.00  0.00     0.051 C 
ATOM     79  C   UNL A   1      31.560  24.576  23.646  1.00  0.00     0.051 C 
ATOM     80  C   UNL A   1      34.251  25.448  24.466  1.00  0.00     0.080 C 
ATOM     81  C   UNL A   1      31.749  25.381  24.931  1.00  0.00     0.080 C 
ATOM     82  C   UNL A   1      33.155  25.317  25.507  1.00  0.00     0.248 C 
ATOM     83  F   UNL A   1      33.302  26.292  26.434  1.00  0.00    -0.207 F 
ATOM     84  F   UNL A   1      33.309  24.133  26.153  1.00  0.00    -0.207 F 
BRANCH  77  85
ATOM     85  O   UNL A   1      32.528  23.438  21.821  1.00  0.00    -0.380 OA
ATOM     86  H   UNL A   1      31.581  23.271  21.699  1.00  0.00     0.212 HD
ENDBRANCH  77  85
ENDBRANCH  74  77
ENDBRANCH  72  73
ENDBRANCH  71  72
ENDBRANCH   1  71
TORSDOF 14
ENDMDL
MODEL 2
REMARK VINA RESULT:     -11.2      2.598      3.466
REMARK SMILES O=C(NCCCNC(=O)C1(O)CCC(F)(F)CC1)c1ccc(-c2c3nc(c(-c4cc(S(=O)(=O)[O-])ccc4F)c4ccc([nH]4)c(-c4cc(S(=O)(=O)[O-])ccc4F)c4nc(c(-c5cc(S(=O)(=O)[O-])ccc5F)c5ccc2[nH]5)C=C4)C=C3)cc1
REMARK SMILES IDX 4 1 3 2 1 3 2 4 19 6 20 7 81 8 21 9 80 10 22 11 23 12 24 13
REMARK SMILES IDX 74 14 25 15 79 16 73 17 75 18 26 19 78 20 72 21 71 22 27 24
REMARK SMILES IDX 59 25 39 26 58 27 40 28 43 29 57 30 76 31 41 32 42 33 56 35
REMARK SMILES IDX 77 36 44 37 28 38 29 39 37 40 30 41 36 42 38 43 35 44 31 45
REMARK SMILES IDX 32 46 33 47 34 48 60 49 61 50 69 51 62 52 68 53 70 54 67 55
REMARK SMILES IDX 63 56 64 57 65 58 66 59 45 60 46 61 54 62 47 63 53 64 55 65
REMARK SMILES IDX 52 66 48 67 49 68 50 69 51 70 5 71 6 72 7 73 8 74 9 76 10 77
REMARK SMILES IDX 12 78 18 79 13 80 17 81 14 82 15 83 16 84 11 85
REMARK H PARENT 3 5 75 23 43 34 7 75 11 86
REMARK Flexibility Score: inf
ROOT
ATOM      1  C   UNL A   1      32.845  32.797  27.202  1.00  0.00     0.118 C 
ENDROOT
BRANCH   1   2
ATOM      2  N   UNL A   1      32.648  34.146  27.707  1.00  0.00    -0.352 N 
ATOM      3  O   UNL A   1      32.707  35.874  29.129  1.00  0.00    -0.269 OA
ATOM      4  C   UNL A   1      33.192  34.797  28.790  1.00  0.00     0.251 C 
ATOM      5  H   UNL A   1      32.015  34.688  27.182  1.00  0.00     0.163 HD
BRANCH   4   6
ATOM      6  C   UNL A   1      34.331  34.229  29.554  1.00  0.00     0.039 A 
ATOM      7  C   UNL A   1      34.133  33.369  30.633  1.00  0.00     0.014 A 
ATOM      8  C   UNL A   1      35.637  34.496  29.124  1.00  0.00     0.014 A 
ATOM      9  C   UNL A   1      35.220  32.897  31.366  1.00  0.00     0.010 A 
ATOM     10  C   UNL A   1      36.731  33.933  29.794  1.00  0.00     0.010 A 
ATOM     11  C   UNL A   1      36.533  33.140  30.934  1.00  0.00    -0.014 A 
BRANCH  11  12
ATOM     12  C   UNL A   1      37.666  32.474  31.634  1.00  0.00     0.031 A 
ATOM     13  C   UNL A   1      38.451  31.372  30.978  1.00  0.00     0.074 A 
ATOM     14  C   UNL A   1      37.997  32.895  32.873  1.00  0.00     0.049 A 
ATOM     15  N   UNL A   1      39.460  30.683  31.451  1.00  0.00    -0.248 NA
ATOM     16  C   UNL A   1      38.046  30.986  29.619  1.00  0.00     0.031 C 
ATOM     17  C   UNL A   1      37.306  33.955  33.613  1.00  0.00     0.029 A 
ATOM     18  N   UNL A   1      39.004  32.507  33.721  1.00  0.00    -0.354 N 
ATOM     19  C   UNL A   1      39.805  29.775  30.456  1.00  0.00     0.074 A 
ATOM     20  C   UNL A   1      38.870  29.977  29.369  1.00  0.00     0.031 C 
ATOM     21  C   UNL A   1      37.941  34.171  34.773  1.00  0.00     0.029 A 
ATOM     22  C   UNL A   1      39.030  33.212  34.902  1.00  0.00     0.049 A 
ATOM     23  H   UNL A   1      39.645  31.792  33.505  1.00  0.00     0.167 HD
ATOM     24  C   UNL A   1      40.812  28.864  30.452  1.00  0.00     0.034 A 
ATOM     25  C   UNL A   1      39.824  33.088  35.983  1.00  0.00     0.034 A 
ATOM     26  C   UNL A   1      41.733  28.676  31.550  1.00  0.00     0.049 A 
ATOM     27  C   UNL A   1      40.894  32.032  35.975  1.00  0.00     0.074 A 
ATOM     28  C   UNL A   1      42.798  27.796  31.642  1.00  0.00     0.029 A 
ATOM     29  N   UNL A   1      41.694  29.371  32.753  1.00  0.00    -0.354 N 
ATOM     30  N   UNL A   1      41.207  31.182  35.023  1.00  0.00    -0.248 NA
ATOM     31  C   UNL A   1      41.717  31.916  37.184  1.00  0.00     0.031 C 
ATOM     32  C   UNL A   1      43.356  27.908  32.921  1.00  0.00     0.029 A 
ATOM     33  C   UNL A   1      42.694  28.916  33.602  1.00  0.00     0.049 A 
ATOM     34  H   UNL A   1      41.050  30.082  32.972  1.00  0.00     0.167 HD
ATOM     35  C   UNL A   1      42.280  30.445  35.514  1.00  0.00     0.074 A 
ATOM     36  C   UNL A   1      42.571  30.965  36.835  1.00  0.00     0.031 C 
ATOM     37  C   UNL A   1      42.963  29.431  34.925  1.00  0.00     0.034 A 
BRANCH  24  38
ATOM     38  C   UNL A   1      40.941  27.973  29.237  1.00  0.00     0.023 A 
ATOM     39  C   UNL A   1      41.936  28.181  28.265  1.00  0.00     0.031 A 
ATOM     40  C   UNL A   1      40.046  26.905  29.040  1.00  0.00     0.131 A 
ATOM     41  C   UNL A   1      41.969  27.381  27.112  1.00  0.00     0.055 A 
ATOM     42  C   UNL A   1      40.135  26.062  27.930  1.00  0.00     0.041 A 
ATOM     43  F   UNL A   1      39.063  26.667  29.922  1.00  0.00    -0.206 F 
ATOM     44  C   UNL A   1      41.092  26.306  26.951  1.00  0.00     0.022 A 
BRANCH  41  45
ATOM     45  S   UNL A   1      43.086  27.850  25.761  1.00  0.00     0.124 S 
ATOM     46  O   UNL A   1      43.790  28.990  26.343  1.00  0.00    -0.237 OA
ATOM     47  O   UNL A   1      43.876  26.640  25.570  1.00  0.00    -0.237 OA
ATOM     48  O   UNL A   1      42.178  28.182  24.665  1.00  0.00    -0.744 OA
ENDBRANCH  41  45
ENDBRANCH  24  38
BRANCH  25  49
ATOM     49  C   UNL A   1      39.613  33.960  37.175  1.00  0.00     0.023 A 
ATOM     50  C   UNL A   1      38.984  33.470  38.330  1.00  0.00     0.031 A 
ATOM     51  C   UNL A   1      40.014  35.309  37.165  1.00  0.00     0.131 A 
ATOM     52  C   UNL A   1      38.740  34.330  39.411  1.00  0.00     0.055 A 
ATOM     53  C   UNL A   1      39.822  36.145  38.265  1.00  0.00     0.041 A 
ATOM     54  F   UNL A   1      40.623  35.828  36.087  1.00  0.00    -0.206 F 
ATOM     55  C   UNL A   1      39.168  35.659  39.393  1.00  0.00     0.022 A 
BRANCH  52  56
ATOM     56  S   UNL A   1      37.776  33.708  40.815  1.00  0.00     0.124 S 
ATOM     57  O   UNL A   1      38.739  32.828  41.470  1.00  0.00    -0.237 OA
ATOM     58  O   UNL A   1      37.445  34.939  41.524  1.00  0.00    -0.237 OA
ATOM     59  O   UNL A   1      36.647  33.032  40.179  1.00  0.00    -0.744 OA
ENDBRANCH  52  56
ENDBRANCH  25  49
BRANCH  37  60
ATOM     60  C   UNL A   1      44.119  28.852  35.701  1.00  0.00     0.023 A 
ATOM     61  C   UNL A   1      43.959  27.742  36.551  1.00  0.00     0.031 A 
ATOM     62  C   UNL A   1      45.395  29.436  35.610  1.00  0.00     0.131 A 
ATOM     63  C   UNL A   1      45.041  27.291  37.322  1.00  0.00     0.055 A 
ATOM     64  C   UNL A   1      46.482  28.943  36.332  1.00  0.00     0.041 A 
ATOM     65  F   UNL A   1      45.603  30.500  34.818  1.00  0.00    -0.206 F 
ATOM     66  C   UNL A   1      46.306  27.873  37.205  1.00  0.00     0.022 A 
BRANCH  63  67
ATOM     67  S   UNL A   1      44.750  25.992  38.555  1.00  0.00     0.124 S 
ATOM     68  O   UNL A   1      44.015  24.998  37.780  1.00  0.00    -0.237 OA
ATOM     69  O   UNL A   1      46.106  25.622  38.946  1.00  0.00    -0.237 OA
ATOM     70  O   UNL A   1      43.972  26.671  39.590  1.00  0.00    -0.744 OA
ENDBRANCH  63  67
ENDBRANCH  37  60
ENDBRANCH  11  12
ENDBRANCH   4   6
ENDBRANCH   1   2
BRANCH   1  71
ATOM     71  C   UNL A   1      31.542  32.120  26.800  1.00  0.00     0.042 C 
BRANCH  71  72
ATOM     72  C   UNL A   1      31.704  30.690  26.299  1.00  0.00     0.117 C 
BRANCH  72  73
ATOM     73  N   UNL A   1      31.072  30.475  25.012  1.00  0.00    -0.354 N 
ATOM     74  C   UNL A   1      30.834  29.415  24.213  1.00  0.00     0.251 C 
ATOM     75  H   UNL A   1      30.732  31.314  24.624  1.00  0.00     0.163 HD
ATOM     76  O   UNL A   1      30.135  29.693  23.225  1.00  0.00    -0.272 OA
BRANCH  74  77
ATOM     77  C   UNL A   1      31.312  27.938  24.415  1.00  0.00     0.143 C 
ATOM     78  C   UNL A   1      32.727  27.822  23.816  1.00  0.00     0.051 C 
ATOM     79  C   UNL A   1      31.255  27.208  25.761  1.00  0.00     0.051 C 
ATOM     80  C   UNL A   1      33.784  28.351  24.774  1.00  0.00     0.080 C 
ATOM     81  C   UNL A   1      32.410  27.470  26.727  1.00  0.00     0.080 C 
ATOM     82  C   UNL A   1      33.774  27.551  26.063  1.00  0.00     0.248 C 
ATOM     83  F   UNL A   1      34.662  28.091  26.930  1.00  0.00    -0.207 F 
ATOM     84  F   UNL A   1      34.205  26.291  25.794  1.00  0.00    -0.207 F 
BRANCH  77  85
ATOM     85  O   UNL A   1      30.458  27.156  23.542  1.00  0.00    -0.380 OA
ATOM     86  H   UNL A   1      29.934  27.752  22.984  1.00  0.00     0.212 HD
ENDBRANCH  77  85
ENDBRANCH  74  77
ENDBRANCH  72  73
ENDBRANCH  71  72
ENDBRANCH   1  71
TORSDOF 14
ENDMDL
MODEL 3
REMARK VINA RESULT:     -11.2      2.053      2.751
REMARK SMILES O=C(NCCCNC(=O)C1(O)CCC(F)(F)CC1)c1ccc(-c2c3nc(c(-c4cc(S(=O)(=O)[O-])ccc4F)c4ccc([nH]4)c(-c4cc(S(=O)(=O)[O-])ccc4F)c4nc(c(-c5cc(S(=O)(=O)[O-])ccc5F)c5ccc2[nH]5)C=C4)C=C3)cc1
REMARK SMILES IDX 4 1 3 2 1 3 2 4 19 6 20 7 81 8 21 9 80 10 22 11 23 12 24 13
REMARK SMILES IDX 74 14 25 15 79 16 73 17 75 18 26 19 78 20 72 21 71 22 27 24
REMARK SMILES IDX 59 25 39 26 58 27 40 28 43 29 57 30 76 31 41 32 42 33 56 35
REMARK SMILES IDX 77 36 44 37 28 38 29 39 37 40 30 41 36 42 38 43 35 44 31 45
REMARK SMILES IDX 32 46 33 47 34 48 60 49 61 50 69 51 62 52 68 53 70 54 67 55
REMARK SMILES IDX 63 56 64 57 65 58 66 59 45 60 46 61 54 62 47 63 53 64 55 65
REMARK SMILES IDX 52 66 48 67 49 68 50 69 51 70 5 71 6 72 7 73 8 74 9 76 10 77
REMARK SMILES IDX 12 78 18 79 13 80 17 81 14 82 15 83 16 84 11 85
REMARK H PARENT 3 5 75 23 43 34 7 75 11 86
REMARK Flexibility Score: inf
ROOT
ATOM      1  C   UNL A   1      33.552  29.159  24.758  1.00  0.00     0.118 C 
ENDROOT
BRANCH   1   2
ATOM      2  N   UNL A   1      32.860  30.280  25.371  1.00  0.00    -0.352 N 
ATOM      3  O   UNL A   1      32.186  31.700  26.965  1.00  0.00    -0.269 OA
ATOM      4  C   UNL A   1      33.039  30.900  26.587  1.00  0.00     0.251 C 
ATOM      5  H   UNL A   1      32.139  30.663  24.821  1.00  0.00     0.163 HD
BRANCH   4   6
ATOM      6  C   UNL A   1      34.217  30.618  27.444  1.00  0.00     0.039 A 
ATOM      7  C   UNL A   1      34.436  29.358  28.000  1.00  0.00     0.014 A 
ATOM      8  C   UNL A   1      35.178  31.621  27.626  1.00  0.00     0.014 A 
ATOM      9  C   UNL A   1      35.520  29.141  28.846  1.00  0.00     0.010 A 
ATOM     10  C   UNL A   1      36.327  31.369  28.387  1.00  0.00     0.010 A 
ATOM     11  C   UNL A   1      36.501  30.130  29.021  1.00  0.00    -0.014 A 
BRANCH  11  12
ATOM     12  C   UNL A   1      37.736  29.804  29.785  1.00  0.00     0.031 A 
ATOM     13  C   UNL A   1      38.805  28.920  29.205  1.00  0.00     0.074 A 
ATOM     14  C   UNL A   1      37.896  30.340  31.013  1.00  0.00     0.049 A 
ATOM     15  N   UNL A   1      39.936  28.533  29.740  1.00  0.00    -0.248 NA
ATOM     16  C   UNL A   1      38.571  28.394  27.852  1.00  0.00     0.031 C 
ATOM     17  C   UNL A   1      36.925  31.212  31.683  1.00  0.00     0.029 A 
ATOM     18  N   UNL A   1      38.932  30.256  31.909  1.00  0.00    -0.354 N 
ATOM     19  C   UNL A   1      40.544  27.709  28.798  1.00  0.00     0.074 A 
ATOM     20  C   UNL A   1      39.636  27.624  27.674  1.00  0.00     0.031 C 
ATOM     21  C   UNL A   1      37.434  31.625  32.851  1.00  0.00     0.029 A 
ATOM     22  C   UNL A   1      38.727  30.986  33.058  1.00  0.00     0.049 A 
ATOM     23  H   UNL A   1      39.744  29.724  31.747  1.00  0.00     0.167 HD
ATOM     24  C   UNL A   1      41.752  27.091  28.866  1.00  0.00     0.034 A 
ATOM     25  C   UNL A   1      39.480  31.110  34.168  1.00  0.00     0.034 A 
ATOM     26  C   UNL A   1      42.643  27.186  30.000  1.00  0.00     0.049 A 
ATOM     27  C   UNL A   1      40.785  30.367  34.241  1.00  0.00     0.074 A 
ATOM     28  C   UNL A   1      43.894  26.615  30.165  1.00  0.00     0.029 A 
ATOM     29  N   UNL A   1      42.376  27.890  31.169  1.00  0.00    -0.354 N 
ATOM     30  N   UNL A   1      41.345  29.593  33.339  1.00  0.00    -0.248 NA
ATOM     31  C   UNL A   1      41.559  30.510  35.479  1.00  0.00     0.031 C 
ATOM     32  C   UNL A   1      44.349  26.913  31.454  1.00  0.00     0.029 A 
ATOM     33  C   UNL A   1      43.423  27.740  32.068  1.00  0.00     0.049 A 
ATOM     34  H   UNL A   1      41.562  28.418  31.335  1.00  0.00     0.167 HD
ATOM     35  C   UNL A   1      42.550  29.176  33.895  1.00  0.00     0.074 A 
ATOM     36  C   UNL A   1      42.642  29.801  35.200  1.00  0.00     0.031 C 
ATOM     37  C   UNL A   1      43.495  28.353  33.374  1.00  0.00     0.034 A 
BRANCH  24  38
ATOM     38  C   UNL A   1      42.156  26.220  27.698  1.00  0.00     0.023 A 
ATOM     39  C   UNL A   1      41.750  24.878  27.596  1.00  0.00     0.031 A 
ATOM     40  C   UNL A   1      42.973  26.737  26.675  1.00  0.00     0.131 A 
ATOM     41  C   UNL A   1      42.215  24.082  26.538  1.00  0.00     0.055 A 
ATOM     42  C   UNL A   1      43.367  25.962  25.583  1.00  0.00     0.041 A 
ATOM     43  F   UNL A   1      43.411  28.004  26.726  1.00  0.00    -0.206 F 
ATOM     44  C   UNL A   1      43.000  24.622  25.516  1.00  0.00     0.022 A 
BRANCH  41  45
ATOM     45  S   UNL A   1      41.895  22.297  26.587  1.00  0.00     0.124 S 
ATOM     46  O   UNL A   1      42.551  21.915  27.837  1.00  0.00    -0.237 OA
ATOM     47  O   UNL A   1      40.439  22.237  26.586  1.00  0.00    -0.237 OA
ATOM     48  O   UNL A   1      42.543  21.798  25.376  1.00  0.00    -0.744 OA
ENDBRANCH  41  45
ENDBRANCH  24  38
BRANCH  25  49
ATOM     49  C   UNL A   1      39.003  31.939  35.312  1.00  0.00     0.023 A 
ATOM     50  C   UNL A   1      38.422  31.347  36.444  1.00  0.00     0.031 A 
ATOM     51  C   UNL A   1      39.095  33.343  35.276  1.00  0.00     0.131 A 
ATOM     52  C   UNL A   1      37.922  32.156  37.476  1.00  0.00     0.055 A 
ATOM     53  C   UNL A   1      38.649  34.140  36.331  1.00  0.00     0.041 A 
ATOM     54  F   UNL A   1      39.644  33.961  34.218  1.00  0.00    -0.206 F 
ATOM     55  C   UNL A   1      38.046  33.546  37.435  1.00  0.00     0.022 A 
BRANCH  52  56
ATOM     56  S   UNL A   1      37.028  31.366  38.842  1.00  0.00     0.124 S 
ATOM     57  O   UNL A   1      36.914  29.991  38.366  1.00  0.00    -0.237 OA
ATOM     58  O   UNL A   1      37.936  31.584  39.963  1.00  0.00    -0.237 OA
ATOM     59  O   UNL A   1      35.773  32.111  38.903  1.00  0.00    -0.744 OA
ENDBRANCH  52  56
ENDBRANCH  25  49
BRANCH  37  60
ATOM     60  C   UNL A   1      44.728  28.121  34.212  1.00  0.00     0.023 A 
ATOM     61  C   UNL A   1      44.811  27.056  35.129  1.00  0.00     0.031 A 
ATOM     62  C   UNL A   1      45.826  28.993  34.110  1.00  0.00     0.131 A 
ATOM     63  C   UNL A   1      45.940  26.929  35.951  1.00  0.00     0.055 A 
ATOM     64  C   UNL A   1      46.973  28.824  34.886  1.00  0.00     0.041 A 
ATOM     65  F   UNL A   1      45.799  30.028  33.255  1.00  0.00    -0.206 F 
ATOM     66  C   UNL A   1      47.029  27.795  35.823  1.00  0.00     0.022 A 
BRANCH  63  67
ATOM     67  S   UNL A   1      45.927  25.673  37.260  1.00  0.00     0.124 S 
ATOM     68  O   UNL A   1      44.816  26.117  38.094  1.00  0.00    -0.237 OA
ATOM     69  O   UNL A   1      45.709  24.441  36.509  1.00  0.00    -0.237 OA
ATOM     70  O   UNL A   1      47.250  25.800  37.869  1.00  0.00    -0.744 OA
ENDBRANCH  63  67
ENDBRANCH  37  60
ENDBRANCH  11  12
ENDBRANCH   4   6
ENDBRANCH   1   2
BRANCH   1  71
ATOM     71  C   UNL A   1      32.709  27.892  24.722  1.00  0.00     0.042 C 
BRANCH  71  72
ATOM     72  C   UNL A   1      31.407  27.979  25.511  1.00  0.00     0.117 C 
BRANCH  72  73
ATOM     73  N   UNL A   1      30.311  27.294  24.855  1.00  0.00    -0.354 N 
ATOM     74  C   UNL A   1      29.577  27.483  23.739  1.00  0.00     0.251 C 
ATOM     75  H   UNL A   1      30.033  26.487  25.347  1.00  0.00     0.163 HD
ATOM     76  O   UNL A   1      28.796  26.547  23.501  1.00  0.00    -0.272 OA
BRANCH  74  77
ATOM     77  C   UNL A   1      29.630  28.699  22.754  1.00  0.00     0.143 C 
ATOM     78  C   UNL A   1      28.231  28.851  22.128  1.00  0.00     0.051 C 
ATOM     79  C   UNL A   1      30.181  30.076  23.140  1.00  0.00     0.051 C 
ATOM     80  C   UNL A   1      27.278  29.583  23.062  1.00  0.00     0.080 C 
ATOM     81  C   UNL A   1      29.222  31.011  23.876  1.00  0.00     0.080 C 
ATOM     82  C   UNL A   1      27.794  30.979  23.354  1.00  0.00     0.248 C 
ATOM     83  F   UNL A   1      26.977  31.578  24.251  1.00  0.00    -0.207 F 
ATOM     84  F   UNL A   1      27.731  31.712  22.212  1.00  0.00    -0.207 F 
BRANCH  77  85
ATOM     85  O   UNL A   1      30.490  28.254  21.674  1.00  0.00    -0.380 OA
ATOM     86  H   UNL A   1      29.969  27.746  21.034  1.00  0.00     0.212 HD
ENDBRANCH  77  85
ENDBRANCH  74  77
ENDBRANCH  72  73
ENDBRANCH  71  72
ENDBRANCH   1  71
TORSDOF 14
ENDMDL
