MODEL 1
REMARK VINA RESULT:     -12.7      0.000      0.000
REMARK SMILES CC(=O)c1c[nH]c(C(=O)N[C@H]2C=C[C@H](C(=O)NCCCNC(=O)c3ccc(-c4c5nc(c(-c6cc(S(=O)(=O)[O-])ccc6F)c6ccc([nH]6)c(-c6cc(S(=O)(=O)[O-])ccc6F)c6nc(c(-c7cc(S(=O)(=O)[O-])ccc7F)c7ccc4[nH]7)C=C6)C=C5)cc3)C2)c1
REMARK SMILES IDX 19 1 18 2 17 3 15 4 16 5 14 7 11 8 12 9 87 10 13 11 10 12
REMARK SMILES IDX 8 13 9 14 7 16 4 17 5 18 88 19 6 20 2 22 1 23 3 24 20 25
REMARK SMILES IDX 21 26 22 27 23 29 24 30 25 31 86 32 26 33 85 34 27 35 28 36
REMARK SMILES IDX 29 37 79 38 30 39 84 40 78 41 80 42 31 43 83 44 77 45 76 46
REMARK SMILES IDX 32 48 64 49 44 50 63 51 45 52 48 53 62 54 81 55 46 56 47 57
REMARK SMILES IDX 61 59 82 60 49 61 33 62 34 63 42 64 35 65 41 66 43 67 40 68
REMARK SMILES IDX 36 69 37 70 38 71 39 72 65 73 66 74 74 75 67 76 73 77 75 78
REMARK SMILES IDX 72 79 68 80 69 81 70 82 71 83 50 84 51 85 59 86 52 87 58 88
REMARK SMILES IDX 60 89 57 90 53 91 54 92 55 93 56 94
REMARK H PARENT 17 6 10 15 6 21 21 28 80 47 48 58
REMARK Flexibility Score: inf
ROOT
ATOM      1  C   UNL A   1      34.630  29.255  26.233  1.00  0.00     0.042 C 
ENDROOT
BRANCH   1   2
ATOM      2  C   UNL A   1      33.259  29.746  25.753  1.00  0.00     0.117 C 
BRANCH   2   3
ATOM      3  N   UNL A   1      33.008  29.400  24.369  1.00  0.00    -0.356 N 
ATOM      4  C   UNL A   1      32.050  28.621  23.803  1.00  0.00     0.227 C 
ATOM      5  O   UNL A   1      32.060  28.525  22.571  1.00  0.00    -0.274 OA
ATOM      6  H   UNL A   1      33.640  29.798  23.728  1.00  0.00     0.163 HD
BRANCH   4   7
ATOM      7  C   UNL A   1      30.926  27.942  24.599  1.00  0.00     0.103 C 
ATOM      8  C   UNL A   1      30.597  25.545  25.055  1.00  0.00     0.106 C 
ATOM      9  C   UNL A   1      29.576  26.068  24.111  1.00  0.00    -0.006 C 
ATOM     10  C   UNL A   1      31.454  26.759  25.435  1.00  0.00     0.047 C 
ATOM     11  C   UNL A   1      29.755  27.371  23.861  1.00  0.00    -0.016 C 
BRANCH   8  12
ATOM     12  N   UNL A   1      29.972  24.784  26.123  1.00  0.00    -0.345 N 
ATOM     13  C   UNL A   1      30.267  23.636  26.813  1.00  0.00     0.268 C 
ATOM     14  O   UNL A   1      29.416  23.223  27.596  1.00  0.00    -0.268 OA
ATOM     15  H   UNL A   1      29.130  25.194  26.426  1.00  0.00     0.164 HD
BRANCH  13  16
ATOM     16  C   UNL A   1      31.466  22.881  26.546  1.00  0.00     0.105 A 
ATOM     17  C   UNL A   1      33.587  22.222  26.091  1.00  0.00     0.035 A 
ATOM     18  C   UNL A   1      32.718  21.391  25.413  1.00  0.00     0.094 A 
ATOM     19  C   UNL A   1      32.775  22.997  26.965  1.00  0.00     0.045 A 
ATOM     20  N   UNL A   1      31.441  21.736  25.775  1.00  0.00    -0.356 N 
ATOM     21  H   UNL A   1      30.627  21.240  25.523  1.00  0.00     0.166 HD
BRANCH  17  22
ATOM     22  C   UNL A   1      35.035  22.341  25.930  1.00  0.00     0.161 C 
ATOM     23  C   UNL A   1      35.735  21.324  25.064  1.00  0.00     0.093 C 
ATOM     24  O   UNL A   1      35.652  23.283  26.425  1.00  0.00    -0.294 OA
ENDBRANCH  17  22
ENDBRANCH  13  16
ENDBRANCH   8  12
ENDBRANCH   4   7
ENDBRANCH   2   3
ENDBRANCH   1   2
BRANCH   1  25
ATOM     25  C   UNL A   1      34.738  29.264  27.756  1.00  0.00     0.118 C 
BRANCH  25  26
ATOM     26  N   UNL A   1      35.285  30.536  28.205  1.00  0.00    -0.352 N 
ATOM     27  C   UNL A   1      36.446  30.850  28.852  1.00  0.00     0.251 C 
ATOM     28  H   UNL A   1      34.714  31.312  28.003  1.00  0.00     0.163 HD
ATOM     29  O   UNL A   1      36.544  31.971  29.347  1.00  0.00    -0.269 OA
BRANCH  27  30
ATOM     30  C   UNL A   1      37.554  29.887  29.003  1.00  0.00     0.039 A 
ATOM     31  C   UNL A   1      38.634  30.026  28.122  1.00  0.00     0.014 A 
ATOM     32  C   UNL A   1      37.523  28.828  29.917  1.00  0.00     0.014 A 
ATOM     33  C   UNL A   1      39.708  29.149  28.199  1.00  0.00     0.010 A 
ATOM     34  C   UNL A   1      38.608  27.959  30.014  1.00  0.00     0.010 A 
ATOM     35  C   UNL A   1      39.708  28.137  29.168  1.00  0.00    -0.014 A 
BRANCH  35  36
ATOM     36  C   UNL A   1      40.993  27.450  29.440  1.00  0.00     0.031 A 
ATOM     37  C   UNL A   1      41.179  26.287  28.424  1.00  0.00     0.074 A 
ATOM     38  C   UNL A   1      41.729  27.887  30.514  1.00  0.00     0.049 A 
ATOM     39  N   UNL A   1      41.654  25.091  28.587  1.00  0.00    -0.248 NA
ATOM     40  C   UNL A   1      40.619  26.435  27.045  1.00  0.00     0.031 C 
ATOM     41  C   UNL A   1      41.400  29.071  31.349  1.00  0.00     0.029 A 
ATOM     42  N   UNL A   1      42.888  27.455  31.131  1.00  0.00    -0.354 N 
ATOM     43  C   UNL A   1      41.722  24.479  27.306  1.00  0.00     0.074 A 
ATOM     44  C   UNL A   1      40.895  25.271  26.452  1.00  0.00     0.031 C 
ATOM     45  C   UNL A   1      42.267  29.206  32.382  1.00  0.00     0.029 A 
ATOM     46  C   UNL A   1      43.255  28.146  32.331  1.00  0.00     0.049 A 
ATOM     47  H   UNL A   1      43.427  26.717  30.767  1.00  0.00     0.167 HD
ATOM     48  C   UNL A   1      42.630  23.502  26.993  1.00  0.00     0.034 A 
ATOM     49  C   UNL A   1      44.258  27.852  33.229  1.00  0.00     0.034 A 
ATOM     50  C   UNL A   1      43.418  23.225  28.151  1.00  0.00     0.049 A 
ATOM     51  C   UNL A   1      44.999  26.767  32.573  1.00  0.00     0.074 A 
ATOM     52  C   UNL A   1      43.131  22.695  29.379  1.00  0.00     0.029 A 
ATOM     53  N   UNL A   1      44.635  23.872  28.214  1.00  0.00    -0.354 N 
ATOM     54  N   UNL A   1      45.805  26.924  31.569  1.00  0.00    -0.248 NA
ATOM     55  C   UNL A   1      44.776  25.387  33.027  1.00  0.00     0.031 C 
ATOM     56  C   UNL A   1      43.880  23.519  30.243  1.00  0.00     0.029 A 
ATOM     57  C   UNL A   1      44.786  24.293  29.503  1.00  0.00     0.049 A 
ATOM     58  H   UNL A   1      45.270  24.004  27.474  1.00  0.00     0.167 HD
ATOM     59  C   UNL A   1      45.906  25.650  31.076  1.00  0.00     0.074 A 
ATOM     60  C   UNL A   1      45.570  24.755  32.167  1.00  0.00     0.031 C 
ATOM     61  C   UNL A   1      45.641  25.431  29.763  1.00  0.00     0.034 A 
BRANCH  48  62
ATOM     62  C   UNL A   1      43.187  22.968  25.683  1.00  0.00     0.023 A 
ATOM     63  C   UNL A   1      43.282  21.552  25.601  1.00  0.00     0.031 A 
ATOM     64  C   UNL A   1      43.936  23.684  24.743  1.00  0.00     0.131 A 
ATOM     65  C   UNL A   1      44.264  20.928  24.825  1.00  0.00     0.055 A 
ATOM     66  C   UNL A   1      44.843  23.044  23.880  1.00  0.00     0.041 A 
ATOM     67  F   UNL A   1      43.888  25.018  24.665  1.00  0.00    -0.206 F 
ATOM     68  C   UNL A   1      45.057  21.668  23.960  1.00  0.00     0.022 A 
BRANCH  65  69
ATOM     69  S   UNL A   1      44.641  19.186  25.186  1.00  0.00     0.124 S 
ATOM     70  O   UNL A   1      43.573  18.840  26.118  1.00  0.00    -0.237 OA
ATOM     71  O   UNL A   1      44.559  18.575  23.864  1.00  0.00    -0.237 OA
ATOM     72  O   UNL A   1      45.982  19.243  25.763  1.00  0.00    -0.744 OA
ENDBRANCH  65  69
ENDBRANCH  48  62
BRANCH  49  73
ATOM     73  C   UNL A   1      44.786  28.220  34.622  1.00  0.00     0.023 A 
ATOM     74  C   UNL A   1      44.587  27.532  35.833  1.00  0.00     0.031 A 
ATOM     75  C   UNL A   1      45.648  29.366  34.742  1.00  0.00     0.131 A 
ATOM     76  C   UNL A   1      45.288  27.940  37.015  1.00  0.00     0.055 A 
ATOM     77  C   UNL A   1      46.404  29.692  35.865  1.00  0.00     0.041 A 
ATOM     78  F   UNL A   1      45.805  30.257  33.755  1.00  0.00    -0.206 F 
ATOM     79  C   UNL A   1      46.239  28.965  37.013  1.00  0.00     0.022 A 
BRANCH  76  80
ATOM     80  S   UNL A   1      45.001  27.153  38.632  1.00  0.00     0.124 S 
ATOM     81  O   UNL A   1      45.020  28.299  39.534  1.00  0.00    -0.237 OA
ATOM     82  O   UNL A   1      43.714  26.493  38.454  1.00  0.00    -0.237 OA
ATOM     83  O   UNL A   1      46.142  26.243  38.768  1.00  0.00    -0.744 OA
ENDBRANCH  76  80
ENDBRANCH  49  73
BRANCH  61  84
ATOM     84  C   UNL A   1      45.898  26.625  28.840  1.00  0.00     0.023 A 
ATOM     85  C   UNL A   1      44.845  27.498  28.497  1.00  0.00     0.031 A 
ATOM     86  C   UNL A   1      47.123  26.871  28.197  1.00  0.00     0.131 A 
ATOM     87  C   UNL A   1      45.023  28.519  27.540  1.00  0.00     0.055 A 
ATOM     88  C   UNL A   1      47.309  27.888  27.248  1.00  0.00     0.041 A 
ATOM     89  F   UNL A   1      48.193  26.118  28.453  1.00  0.00    -0.206 F 
ATOM     90  C   UNL A   1      46.251  28.717  26.911  1.00  0.00     0.022 A 
BRANCH  87  91
ATOM     91  S   UNL A   1      43.631  29.610  27.129  1.00  0.00     0.124 S 
ATOM     92  O   UNL A   1      43.133  30.004  28.441  1.00  0.00    -0.237 OA
ATOM     93  O   UNL A   1      44.271  30.660  26.345  1.00  0.00    -0.237 OA
ATOM     94  O   UNL A   1      42.730  28.743  26.366  1.00  0.00    -0.744 OA
ENDBRANCH  87  91
ENDBRANCH  61  84
ENDBRANCH  35  36
ENDBRANCH  27  30
ENDBRANCH  25  26
ENDBRANCH   1  25
TORSDOF 16
ENDMDL
MODEL 2
REMARK VINA RESULT:     -12.4      4.580     10.166
REMARK SMILES CC(=O)c1c[nH]c(C(=O)N[C@H]2C=C[C@H](C(=O)NCCCNC(=O)c3ccc(-c4c5nc(c(-c6cc(S(=O)(=O)[O-])ccc6F)c6ccc([nH]6)c(-c6cc(S(=O)(=O)[O-])ccc6F)c6nc(c(-c7cc(S(=O)(=O)[O-])ccc7F)c7ccc4[nH]7)C=C6)C=C5)cc3)C2)c1
REMARK SMILES IDX 19 1 18 2 17 3 15 4 16 5 14 7 11 8 12 9 87 10 13 11 10 12
REMARK SMILES IDX 8 13 9 14 7 16 4 17 5 18 88 19 6 20 2 22 1 23 3 24 20 25
REMARK SMILES IDX 21 26 22 27 23 29 24 30 25 31 86 32 26 33 85 34 27 35 28 36
REMARK SMILES IDX 29 37 79 38 30 39 84 40 78 41 80 42 31 43 83 44 77 45 76 46
REMARK SMILES IDX 32 48 64 49 44 50 63 51 45 52 48 53 62 54 81 55 46 56 47 57
REMARK SMILES IDX 61 59 82 60 49 61 33 62 34 63 42 64 35 65 41 66 43 67 40 68
REMARK SMILES IDX 36 69 37 70 38 71 39 72 65 73 66 74 74 75 67 76 73 77 75 78
REMARK SMILES IDX 72 79 68 80 69 81 70 82 71 83 50 84 51 85 59 86 52 87 58 88
REMARK SMILES IDX 60 89 57 90 53 91 54 92 55 93 56 94
REMARK H PARENT 17 6 10 15 6 21 21 28 80 47 48 58
REMARK Flexibility Score: inf
ROOT
ATOM      1  C   UNL A   1      36.881  22.833  25.974  1.00  0.00     0.042 C 
ENDROOT
BRANCH   1   2
ATOM      2  C   UNL A   1      35.465  23.259  26.382  1.00  0.00     0.117 C 
BRANCH   2   3
ATOM      3  N   UNL A   1      34.596  22.124  26.612  1.00  0.00    -0.356 N 
ATOM      4  C   UNL A   1      33.857  21.377  25.752  1.00  0.00     0.227 C 
ATOM      5  O   UNL A   1      33.220  20.434  26.232  1.00  0.00    -0.274 OA
ATOM      6  H   UNL A   1      34.530  21.846  27.554  1.00  0.00     0.163 HD
BRANCH   4   7
ATOM      7  C   UNL A   1      33.846  21.591  24.232  1.00  0.00     0.103 C 
ATOM      8  C   UNL A   1      32.618  23.280  22.925  1.00  0.00     0.106 C 
ATOM      9  C   UNL A   1      32.071  21.916  22.710  1.00  0.00    -0.006 C 
ATOM     10  C   UNL A   1      33.814  23.089  23.867  1.00  0.00     0.047 C 
ATOM     11  C   UNL A   1      32.736  20.998  23.421  1.00  0.00    -0.016 C 
BRANCH   8  12
ATOM     12  N   UNL A   1      32.844  23.953  21.657  1.00  0.00    -0.345 N 
ATOM     13  C   UNL A   1      32.832  25.253  21.221  1.00  0.00     0.268 C 
ATOM     14  O   UNL A   1      32.960  25.436  20.014  1.00  0.00    -0.268 OA
ATOM     15  H   UNL A   1      33.057  23.320  20.935  1.00  0.00     0.164 HD
BRANCH  13  16
ATOM     16  C   UNL A   1      32.559  26.349  22.117  1.00  0.00     0.105 A 
ATOM     17  C   UNL A   1      32.220  27.665  23.932  1.00  0.00     0.035 A 
ATOM     18  C   UNL A   1      31.312  28.026  22.956  1.00  0.00     0.094 A 
ATOM     19  C   UNL A   1      33.130  26.772  23.300  1.00  0.00     0.045 A 
ATOM     20  N   UNL A   1      31.594  27.293  21.831  1.00  0.00    -0.356 N 
ATOM     21  H   UNL A   1      31.171  27.421  20.950  1.00  0.00     0.166 HD
BRANCH  17  22
ATOM     22  C   UNL A   1      32.237  28.059  25.339  1.00  0.00     0.161 C 
ATOM     23  C   UNL A   1      31.469  27.210  26.321  1.00  0.00     0.093 C 
ATOM     24  O   UNL A   1      32.915  29.012  25.722  1.00  0.00    -0.294 OA
ENDBRANCH  17  22
ENDBRANCH  13  16
ENDBRANCH   8  12
ENDBRANCH   4   7
ENDBRANCH   2   3
ENDBRANCH   1   2
BRANCH   1  25
ATOM     25  C   UNL A   1      37.889  23.968  26.139  1.00  0.00     0.118 C 
BRANCH  25  26
ATOM     26  N   UNL A   1      39.087  23.472  26.798  1.00  0.00    -0.352 N 
ATOM     27  C   UNL A   1      40.111  24.116  27.433  1.00  0.00     0.251 C 
ATOM     28  H   UNL A   1      39.175  22.491  26.785  1.00  0.00     0.163 HD
ATOM     29  O   UNL A   1      41.132  23.476  27.674  1.00  0.00    -0.269 OA
BRANCH  27  30
ATOM     30  C   UNL A   1      40.041  25.544  27.799  1.00  0.00     0.039 A 
ATOM     31  C   UNL A   1      39.659  25.839  29.115  1.00  0.00     0.014 A 
ATOM     32  C   UNL A   1      40.262  26.577  26.882  1.00  0.00     0.014 A 
ATOM     33  C   UNL A   1      39.563  27.161  29.528  1.00  0.00     0.010 A 
ATOM     34  C   UNL A   1      40.189  27.905  27.297  1.00  0.00     0.010 A 
ATOM     35  C   UNL A   1      39.860  28.192  28.627  1.00  0.00    -0.014 A 
BRANCH  35  36
ATOM     36  C   UNL A   1      40.074  29.548  29.185  1.00  0.00     0.031 A 
ATOM     37  C   UNL A   1      38.696  30.199  29.496  1.00  0.00     0.074 A 
ATOM     38  C   UNL A   1      41.367  30.000  29.271  1.00  0.00     0.049 A 
ATOM     39  N   UNL A   1      38.282  31.418  29.337  1.00  0.00    -0.248 NA
ATOM     40  C   UNL A   1      37.561  29.322  29.919  1.00  0.00     0.031 C 
ATOM     41  C   UNL A   1      42.576  29.192  28.966  1.00  0.00     0.029 A 
ATOM     42  N   UNL A   1      41.949  31.201  29.629  1.00  0.00    -0.354 N 
ATOM     43  C   UNL A   1      36.982  31.507  29.904  1.00  0.00     0.074 A 
ATOM     44  C   UNL A   1      36.530  30.161  30.054  1.00  0.00     0.031 C 
ATOM     45  C   UNL A   1      43.707  29.932  29.067  1.00  0.00     0.029 A 
ATOM     46  C   UNL A   1      43.370  31.287  29.459  1.00  0.00     0.049 A 
ATOM     47  H   UNL A   1      41.420  31.953  29.979  1.00  0.00     0.167 HD
ATOM     48  C   UNL A   1      36.468  32.670  30.414  1.00  0.00     0.034 A 
ATOM     49  C   UNL A   1      44.194  32.383  29.588  1.00  0.00     0.034 A 
ATOM     50  C   UNL A   1      37.433  33.709  30.242  1.00  0.00     0.049 A 
ATOM     51  C   UNL A   1      43.307  33.418  30.133  1.00  0.00     0.074 A 
ATOM     52  C   UNL A   1      37.971  34.319  29.142  1.00  0.00     0.029 A 
ATOM     53  N   UNL A   1      38.231  33.969  31.337  1.00  0.00    -0.354 N 
ATOM     54  N   UNL A   1      42.888  33.462  31.359  1.00  0.00    -0.248 NA
ATOM     55  C   UNL A   1      42.791  34.452  29.225  1.00  0.00     0.031 C 
ATOM     56  C   UNL A   1      39.331  34.425  29.494  1.00  0.00     0.029 A 
ATOM     57  C   UNL A   1      39.497  34.154  30.860  1.00  0.00     0.049 A 
ATOM     58  H   UNL A   1      37.945  34.014  32.277  1.00  0.00     0.167 HD
ATOM     59  C   UNL A   1      41.817  34.310  31.270  1.00  0.00     0.074 A 
ATOM     60  C   UNL A   1      42.025  35.119  30.084  1.00  0.00     0.031 C 
ATOM     61  C   UNL A   1      40.613  33.900  31.745  1.00  0.00     0.034 A 
BRANCH  48  62
ATOM     62  C   UNL A   1      35.343  32.981  31.389  1.00  0.00     0.023 A 
ATOM     63  C   UNL A   1      34.480  34.040  30.995  1.00  0.00     0.031 A 
ATOM     64  C   UNL A   1      35.288  32.622  32.739  1.00  0.00     0.131 A 
ATOM     65  C   UNL A   1      33.833  34.846  31.936  1.00  0.00     0.055 A 
ATOM     66  C   UNL A   1      34.543  33.366  33.672  1.00  0.00     0.041 A 
ATOM     67  F   UNL A   1      35.999  31.601  33.232  1.00  0.00    -0.206 F 
ATOM     68  C   UNL A   1      33.862  34.519  33.284  1.00  0.00     0.022 A 
BRANCH  65  69
ATOM     69  S   UNL A   1      33.197  36.454  31.373  1.00  0.00     0.124 S 
ATOM     70  O   UNL A   1      34.114  37.380  32.029  1.00  0.00    -0.237 OA
ATOM     71  O   UNL A   1      33.329  36.344  29.924  1.00  0.00    -0.237 OA
ATOM     72  O   UNL A   1      31.825  36.468  31.873  1.00  0.00    -0.744 OA
ENDBRANCH  65  69
ENDBRANCH  48  62
BRANCH  49  73
ATOM     73  C   UNL A   1      45.626  32.863  29.314  1.00  0.00     0.023 A 
ATOM     74  C   UNL A   1      46.239  33.091  28.069  1.00  0.00     0.031 A 
ATOM     75  C   UNL A   1      46.459  33.195  30.439  1.00  0.00     0.131 A 
ATOM     76  C   UNL A   1      47.540  33.690  28.007  1.00  0.00     0.055 A 
ATOM     77  C   UNL A   1      47.675  33.871  30.370  1.00  0.00     0.041 A 
ATOM     78  F   UNL A   1      46.136  32.872  31.698  1.00  0.00    -0.206 F 
ATOM     79  C   UNL A   1      48.219  34.138  29.143  1.00  0.00     0.022 A 
BRANCH  76  80
ATOM     80  S   UNL A   1      48.426  33.922  26.432  1.00  0.00     0.124 S 
ATOM     81  O   UNL A   1      47.331  34.167  25.501  1.00  0.00    -0.237 OA
ATOM     82  O   UNL A   1      49.302  35.054  26.711  1.00  0.00    -0.237 OA
ATOM     83  O   UNL A   1      49.118  32.644  26.247  1.00  0.00    -0.744 OA
ENDBRANCH  76  80
ENDBRANCH  49  73
BRANCH  61  84
ATOM     84  C   UNL A   1      40.678  32.876  32.881  1.00  0.00     0.023 A 
ATOM     85  C   UNL A   1      40.602  31.496  32.600  1.00  0.00     0.031 A 
ATOM     86  C   UNL A   1      40.701  33.216  34.245  1.00  0.00     0.131 A 
ATOM     87  C   UNL A   1      40.518  30.541  33.634  1.00  0.00     0.055 A 
ATOM     88  C   UNL A   1      40.622  32.271  35.279  1.00  0.00     0.041 A 
ATOM     89  F   UNL A   1      40.784  34.488  34.631  1.00  0.00    -0.206 F 
ATOM     90  C   UNL A   1      40.525  30.922  34.976  1.00  0.00     0.022 A 
BRANCH  87  91
ATOM     91  S   UNL A   1      40.414  28.778  33.215  1.00  0.00     0.124 S 
ATOM     92  O   UNL A   1      39.033  28.633  32.770  1.00  0.00    -0.237 OA
ATOM     93  O   UNL A   1      41.437  28.635  32.186  1.00  0.00    -0.237 OA
ATOM     94  O   UNL A   1      40.724  28.106  34.479  1.00  0.00    -0.744 OA
ENDBRANCH  87  91
ENDBRANCH  61  84
ENDBRANCH  35  36
ENDBRANCH  27  30
ENDBRANCH  25  26
ENDBRANCH   1  25
TORSDOF 16
ENDMDL
MODEL 3
REMARK VINA RESULT:     -12.3      4.510      9.957
REMARK SMILES CC(=O)c1c[nH]c(C(=O)N[C@H]2C=C[C@H](C(=O)NCCCNC(=O)c3ccc(-c4c5nc(c(-c6cc(S(=O)(=O)[O-])ccc6F)c6ccc([nH]6)c(-c6cc(S(=O)(=O)[O-])ccc6F)c6nc(c(-c7cc(S(=O)(=O)[O-])ccc7F)c7ccc4[nH]7)C=C6)C=C5)cc3)C2)c1
REMARK SMILES IDX 19 1 18 2 17 3 15 4 16 5 14 7 11 8 12 9 87 10 13 11 10 12
REMARK SMILES IDX 8 13 9 14 7 16 4 17 5 18 88 19 6 20 2 22 1 23 3 24 20 25
REMARK SMILES IDX 21 26 22 27 23 29 24 30 25 31 86 32 26 33 85 34 27 35 28 36
REMARK SMILES IDX 29 37 79 38 30 39 84 40 78 41 80 42 31 43 83 44 77 45 76 46
REMARK SMILES IDX 32 48 64 49 44 50 63 51 45 52 48 53 62 54 81 55 46 56 47 57
REMARK SMILES IDX 61 59 82 60 49 61 33 62 34 63 42 64 35 65 41 66 43 67 40 68
REMARK SMILES IDX 36 69 37 70 38 71 39 72 65 73 66 74 74 75 67 76 73 77 75 78
REMARK SMILES IDX 72 79 68 80 69 81 70 82 71 83 50 84 51 85 59 86 52 87 58 88
REMARK SMILES IDX 60 89 57 90 53 91 54 92 55 93 56 94
REMARK H PARENT 17 6 10 15 6 21 21 28 80 47 48 58
REMARK Flexibility Score: inf
ROOT
ATOM      1  C   UNL A   1      37.328  22.842  25.217  1.00  0.00     0.042 C 
ENDROOT
BRANCH   1   2
ATOM      2  C   UNL A   1      35.796  22.788  25.178  1.00  0.00     0.117 C 
BRANCH   2   3
ATOM      3  N   UNL A   1      35.220  22.609  26.494  1.00  0.00    -0.356 N 
ATOM      4  C   UNL A   1      33.931  22.657  26.919  1.00  0.00     0.227 C 
ATOM      5  O   UNL A   1      33.725  22.435  28.116  1.00  0.00    -0.274 OA
ATOM      6  H   UNL A   1      35.876  22.420  27.204  1.00  0.00     0.163 HD
BRANCH   4   7
ATOM      7  C   UNL A   1      32.736  22.884  25.983  1.00  0.00     0.103 C 
ATOM      8  C   UNL A   1      30.947  24.569  26.152  1.00  0.00     0.106 C 
ATOM      9  C   UNL A   1      30.438  23.201  26.427  1.00  0.00    -0.006 C 
ATOM     10  C   UNL A   1      32.429  24.384  25.801  1.00  0.00     0.047 C 
ATOM     11  C   UNL A   1      31.410  22.284  26.338  1.00  0.00    -0.016 C 
BRANCH   8  12
ATOM     12  N   UNL A   1      30.095  25.254  25.195  1.00  0.00    -0.345 N 
ATOM     13  C   UNL A   1      30.058  26.506  24.635  1.00  0.00     0.268 C 
ATOM     14  O   UNL A   1      29.090  26.770  23.928  1.00  0.00    -0.268 OA
ATOM     15  H   UNL A   1      29.367  24.679  24.869  1.00  0.00     0.164 HD
BRANCH  13  16
ATOM     16  C   UNL A   1      31.043  27.508  24.957  1.00  0.00     0.105 A 
ATOM     17  C   UNL A   1      32.154  29.309  25.773  1.00  0.00     0.035 A 
ATOM     18  C   UNL A   1      32.552  29.106  24.466  1.00  0.00     0.094 A 
ATOM     19  C   UNL A   1      31.384  28.165  26.122  1.00  0.00     0.045 A 
ATOM     20  N   UNL A   1      31.951  27.957  24.019  1.00  0.00    -0.356 N 
ATOM     21  H   UNL A   1      32.138  27.518  23.157  1.00  0.00     0.166 HD
BRANCH  17  22
ATOM     22  C   UNL A   1      32.410  30.468  26.625  1.00  0.00     0.161 C 
ATOM     23  C   UNL A   1      33.736  30.543  27.338  1.00  0.00     0.093 C 
ATOM     24  O   UNL A   1      31.597  31.389  26.702  1.00  0.00    -0.294 OA
ENDBRANCH  17  22
ENDBRANCH  13  16
ENDBRANCH   8  12
ENDBRANCH   4   7
ENDBRANCH   2   3
ENDBRANCH   1   2
BRANCH   1  25
ATOM     25  C   UNL A   1      37.837  23.897  26.196  1.00  0.00     0.118 C 
BRANCH  25  26
ATOM     26  N   UNL A   1      39.036  23.413  26.864  1.00  0.00    -0.352 N 
ATOM     27  C   UNL A   1      40.060  24.070  27.485  1.00  0.00     0.251 C 
ATOM     28  H   UNL A   1      39.124  22.433  26.870  1.00  0.00     0.163 HD
ATOM     29  O   UNL A   1      41.082  23.434  27.738  1.00  0.00    -0.269 OA
BRANCH  27  30
ATOM     30  C   UNL A   1      39.991  25.504  27.824  1.00  0.00     0.039 A 
ATOM     31  C   UNL A   1      39.584  25.826  29.126  1.00  0.00     0.014 A 
ATOM     32  C   UNL A   1      40.236  26.519  26.893  1.00  0.00     0.014 A 
ATOM     33  C   UNL A   1      39.487  27.156  29.512  1.00  0.00     0.010 A 
ATOM     34  C   UNL A   1      40.162  27.855  27.282  1.00  0.00     0.010 A 
ATOM     35  C   UNL A   1      39.808  28.169  28.599  1.00  0.00    -0.014 A 
BRANCH  35  36
ATOM     36  C   UNL A   1      40.018  29.533  29.137  1.00  0.00     0.031 A 
ATOM     37  C   UNL A   1      38.638  30.189  29.429  1.00  0.00     0.074 A 
ATOM     38  C   UNL A   1      41.311  29.987  29.223  1.00  0.00     0.049 A 
ATOM     39  N   UNL A   1      38.225  31.404  29.248  1.00  0.00    -0.248 NA
ATOM     40  C   UNL A   1      37.501  29.318  29.859  1.00  0.00     0.031 C 
ATOM     41  C   UNL A   1      42.521  29.174  28.938  1.00  0.00     0.029 A 
ATOM     42  N   UNL A   1      41.890  31.194  29.565  1.00  0.00    -0.354 N 
ATOM     43  C   UNL A   1      36.921  31.503  29.806  1.00  0.00     0.074 A 
ATOM     44  C   UNL A   1      36.470  30.158  29.975  1.00  0.00     0.031 C 
ATOM     45  C   UNL A   1      43.652  29.917  29.033  1.00  0.00     0.029 A 
ATOM     46  C   UNL A   1      43.312  31.278  29.402  1.00  0.00     0.049 A 
ATOM     47  H   UNL A   1      41.358  31.951  29.900  1.00  0.00     0.167 HD
ATOM     48  C   UNL A   1      36.404  32.673  30.295  1.00  0.00     0.034 A 
ATOM     49  C   UNL A   1      44.135  32.376  29.519  1.00  0.00     0.034 A 
ATOM     50  C   UNL A   1      37.370  33.709  30.111  1.00  0.00     0.049 A 
ATOM     51  C   UNL A   1      43.245  33.419  30.042  1.00  0.00     0.074 A 
ATOM     52  C   UNL A   1      37.914  34.302  29.005  1.00  0.00     0.029 A 
ATOM     53  N   UNL A   1      38.162  33.988  31.206  1.00  0.00    -0.354 N 
ATOM     54  N   UNL A   1      42.818  33.483  31.264  1.00  0.00    -0.248 NA
ATOM     55  C   UNL A   1      42.733  34.438  29.114  1.00  0.00     0.031 C 
ATOM     56  C   UNL A   1      39.272  34.414  29.363  1.00  0.00     0.029 A 
ATOM     57  C   UNL A   1      39.430  34.166  30.734  1.00  0.00     0.049 A 
ATOM     58  H   UNL A   1      37.869  34.047  32.144  1.00  0.00     0.167 HD
ATOM     59  C   UNL A   1      41.747  34.329  31.155  1.00  0.00     0.074 A 
ATOM     60  C   UNL A   1      41.962  35.119  29.958  1.00  0.00     0.031 C 
ATOM     61  C   UNL A   1      40.541  33.926  31.630  1.00  0.00     0.034 A 
BRANCH  48  62
ATOM     62  C   UNL A   1      35.274  32.999  31.257  1.00  0.00     0.023 A 
ATOM     63  C   UNL A   1      34.428  34.069  30.854  1.00  0.00     0.031 A 
ATOM     64  C   UNL A   1      35.200  32.641  32.607  1.00  0.00     0.131 A 
ATOM     65  C   UNL A   1      33.782  34.883  31.788  1.00  0.00     0.055 A 
ATOM     66  C   UNL A   1      34.455  33.396  33.531  1.00  0.00     0.041 A 
ATOM     67  F   UNL A   1      35.892  31.611  33.107  1.00  0.00    -0.206 F 
ATOM     68  C   UNL A   1      33.793  34.557  33.136  1.00  0.00     0.022 A 
BRANCH  65  69
ATOM     69  S   UNL A   1      33.173  36.499  31.217  1.00  0.00     0.124 S 
ATOM     70  O   UNL A   1      33.988  37.417  32.007  1.00  0.00    -0.237 OA
ATOM     71  O   UNL A   1      33.468  36.450  29.790  1.00  0.00    -0.237 OA
ATOM     72  O   UNL A   1      31.754  36.466  31.561  1.00  0.00    -0.744 OA
ENDBRANCH  65  69
ENDBRANCH  48  62
BRANCH  49  73
ATOM     73  C   UNL A   1      45.568  32.852  29.245  1.00  0.00     0.023 A 
ATOM     74  C   UNL A   1      46.607  33.048  30.173  1.00  0.00     0.031 A 
ATOM     75  C   UNL A   1      45.962  33.075  27.880  1.00  0.00     0.131 A 
ATOM     76  C   UNL A   1      47.932  33.349  29.716  1.00  0.00     0.055 A 
ATOM     77  C   UNL A   1      47.270  33.264  27.438  1.00  0.00     0.041 A 
ATOM     78  F   UNL A   1      45.080  33.129  26.873  1.00  0.00    -0.206 F 
ATOM     79  C   UNL A   1      48.272  33.387  28.360  1.00  0.00     0.022 A 
BRANCH  76  80
ATOM     80  S   UNL A   1      49.297  33.709  30.868  1.00  0.00     0.124 S 
ATOM     81  O   UNL A   1      50.378  34.061  29.954  1.00  0.00    -0.237 OA
ATOM     82  O   UNL A   1      48.762  34.793  31.683  1.00  0.00    -0.237 OA
ATOM     83  O   UNL A   1      49.478  32.440  31.577  1.00  0.00    -0.744 OA
ENDBRANCH  76  80
ENDBRANCH  49  73
BRANCH  61  84
ATOM     84  C   UNL A   1      40.599  32.920  32.782  1.00  0.00     0.023 A 
ATOM     85  C   UNL A   1      40.558  31.535  32.520  1.00  0.00     0.031 A 
ATOM     86  C   UNL A   1      40.583  33.281  34.141  1.00  0.00     0.131 A 
ATOM     87  C   UNL A   1      40.468  30.594  33.567  1.00  0.00     0.055 A 
ATOM     88  C   UNL A   1      40.500  32.350  35.188  1.00  0.00     0.041 A 
ATOM     89  F   UNL A   1      40.633  34.560  34.509  1.00  0.00    -0.206 F 
ATOM     90  C   UNL A   1      40.436  30.995  34.902  1.00  0.00     0.022 A 
BRANCH  87  91
ATOM     91  S   UNL A   1      40.409  28.823  33.173  1.00  0.00     0.124 S 
ATOM     92  O   UNL A   1      40.648  28.197  34.468  1.00  0.00    -0.237 OA
ATOM     93  O   UNL A   1      39.067  28.664  32.623  1.00  0.00    -0.237 OA
ATOM     94  O   UNL A   1      41.490  28.652  32.200  1.00  0.00    -0.744 OA
ENDBRANCH  87  91
ENDBRANCH  61  84
ENDBRANCH  35  36
ENDBRANCH  27  30
ENDBRANCH  25  26
ENDBRANCH   1  25
TORSDOF 16
ENDMDL
