MODEL 1
REMARK VINA RESULT:     -11.0      0.000      0.000
REMARK SMILES CC1([C@@]2(C)C[C@@H]2C(=O)NCCCNC(=O)c2ccc(-c3c4nc(c(-c5cc(S(=O)(=O)[O-])ccc5F)c5ccc([nH]5)c(-c5cc(S(=O)(=O)[O-])ccc5F)c5nc(c(-c6cc(S(=O)(=O)[O-])ccc6F)c6ccc3[nH]6)C=C5)C=C4)cc2)CC1
REMARK SMILES IDX 12 1 11 2 10 3 9 4 7 5 8 6 6 8 3 9 4 10 5 11 2 12 1 13 79 14
REMARK SMILES IDX 80 15 13 16 14 17 15 19 16 20 17 21 78 22 18 23 77 24 19 25
REMARK SMILES IDX 20 26 21 27 71 28 22 29 76 30 70 31 72 32 23 33 75 34 69 35
REMARK SMILES IDX 68 36 24 38 56 39 36 40 55 41 37 42 40 43 54 44 73 45 38 46
REMARK SMILES IDX 39 47 53 49 74 50 41 51 25 52 26 53 34 54 27 55 33 56 35 57
REMARK SMILES IDX 32 58 28 59 29 60 30 61 31 62 57 63 58 64 66 65 59 66 65 67
REMARK SMILES IDX 67 68 64 69 60 70 61 71 62 72 63 73 42 74 43 75 51 76 44 77
REMARK SMILES IDX 50 78 52 79 49 80 45 81 46 82 47 83 48 84
REMARK H PARENT 9 7 13 18 72 37 40 48
REMARK Flexibility Score: inf
ROOT
ATOM      1  C   UNL A   1      32.499  32.362  27.316  1.00  0.00     0.118 C 
ENDROOT
BRANCH   1   2
ATOM      2  C   UNL A   1      31.368  32.024  26.353  1.00  0.00     0.042 C 
BRANCH   2   3
ATOM      3  C   UNL A   1      31.403  30.587  25.848  1.00  0.00     0.117 C 
BRANCH   3   4
ATOM      4  N   UNL A   1      30.778  30.448  24.550  1.00  0.00    -0.356 N 
ATOM      5  C   UNL A   1      30.656  29.317  23.789  1.00  0.00     0.223 C 
ATOM      6  O   UNL A   1      30.081  29.355  22.709  1.00  0.00    -0.275 OA
ATOM      7  H   UNL A   1      30.392  31.268  24.167  1.00  0.00     0.163 HD
BRANCH   5   8
ATOM      8  C   UNL A   1      31.199  28.042  24.325  1.00  0.00     0.085 C 
ATOM      9  C   UNL A   1      32.673  27.633  24.180  1.00  0.00    -0.015 C 
ATOM     10  C   UNL A   1      33.603  28.505  23.359  1.00  0.00     0.013 C 
ATOM     11  C   UNL A   1      31.590  26.944  23.369  1.00  0.00     0.022 C 
BRANCH   9  12
ATOM     12  C   UNL A   1      33.387  26.906  25.377  1.00  0.00    -0.026 C 
ATOM     13  C   UNL A   1      34.004  27.830  26.404  1.00  0.00     0.012 C 
ATOM     14  C   UNL A   1      34.142  25.613  25.106  1.00  0.00     0.008 C 
ATOM     15  C   UNL A   1      32.892  25.577  25.927  1.00  0.00     0.008 C 
ENDBRANCH   9  12
ENDBRANCH   5   8
ENDBRANCH   3   4
ENDBRANCH   2   3
ENDBRANCH   1   2
BRANCH   1  16
ATOM     16  N   UNL A   1      32.546  33.783  27.631  1.00  0.00    -0.352 N 
ATOM     17  C   UNL A   1      33.359  34.466  28.504  1.00  0.00     0.251 C 
ATOM     18  H   UNL A   1      31.896  34.340  27.145  1.00  0.00     0.163 HD
ATOM     19  O   UNL A   1      33.093  35.633  28.783  1.00  0.00    -0.269 OA
BRANCH  17  20
ATOM     20  C   UNL A   1      34.527  33.798  29.122  1.00  0.00     0.039 A 
ATOM     21  C   UNL A   1      35.811  34.237  28.786  1.00  0.00     0.014 A 
ATOM     22  C   UNL A   1      34.364  32.736  30.014  1.00  0.00     0.014 A 
ATOM     23  C   UNL A   1      36.925  33.657  29.399  1.00  0.00     0.010 A 
ATOM     24  C   UNL A   1      35.469  32.215  30.683  1.00  0.00     0.010 A 
ATOM     25  C   UNL A   1      36.762  32.669  30.384  1.00  0.00    -0.014 A 
BRANCH  25  26
ATOM     26  C   UNL A   1      37.927  32.104  31.116  1.00  0.00     0.031 A 
ATOM     27  C   UNL A   1      38.735  30.990  30.505  1.00  0.00     0.074 A 
ATOM     28  C   UNL A   1      38.212  32.544  32.359  1.00  0.00     0.049 A 
ATOM     29  N   UNL A   1      39.716  30.298  31.024  1.00  0.00    -0.248 NA
ATOM     30  C   UNL A   1      38.371  30.583  29.139  1.00  0.00     0.031 C 
ATOM     31  C   UNL A   1      37.481  33.596  33.070  1.00  0.00     0.029 A 
ATOM     32  N   UNL A   1      39.179  32.154  33.253  1.00  0.00    -0.354 N 
ATOM     33  C   UNL A   1      40.073  29.362  30.060  1.00  0.00     0.074 A 
ATOM     34  C   UNL A   1      39.168  29.543  28.945  1.00  0.00     0.031 C 
ATOM     35  C   UNL A   1      38.035  33.778  34.279  1.00  0.00     0.029 A 
ATOM     36  C   UNL A   1      39.122  32.820  34.457  1.00  0.00     0.049 A 
ATOM     37  H   UNL A   1      39.850  31.463  33.052  1.00  0.00     0.167 HD
ATOM     38  C   UNL A   1      41.074  28.448  30.096  1.00  0.00     0.034 A 
ATOM     39  C   UNL A   1      39.842  32.660  35.586  1.00  0.00     0.034 A 
ATOM     40  C   UNL A   1      41.975  28.291  31.212  1.00  0.00     0.049 A 
ATOM     41  C   UNL A   1      40.928  31.612  35.614  1.00  0.00     0.074 A 
ATOM     42  C   UNL A   1      43.065  27.444  31.325  1.00  0.00     0.029 A 
ATOM     43  N   UNL A   1      41.887  28.983  32.413  1.00  0.00    -0.354 N 
ATOM     44  N   UNL A   1      41.290  30.775  34.669  1.00  0.00    -0.248 NA
ATOM     45  C   UNL A   1      41.707  31.495  36.853  1.00  0.00     0.031 C 
ATOM     46  C   UNL A   1      43.579  27.560  32.620  1.00  0.00     0.029 A 
ATOM     47  C   UNL A   1      42.875  28.550  33.286  1.00  0.00     0.049 A 
ATOM     48  H   UNL A   1      41.220  29.680  32.616  1.00  0.00     0.167 HD
ATOM     49  C   UNL A   1      42.364  30.056  35.191  1.00  0.00     0.074 A 
ATOM     50  C   UNL A   1      42.596  30.569  36.526  1.00  0.00     0.031 C 
ATOM     51  C   UNL A   1      43.093  29.065  34.617  1.00  0.00     0.034 A 
BRANCH  38  52
ATOM     52  C   UNL A   1      41.227  27.524  28.911  1.00  0.00     0.023 A 
ATOM     53  C   UNL A   1      42.233  27.709  27.947  1.00  0.00     0.031 A 
ATOM     54  C   UNL A   1      40.346  26.440  28.740  1.00  0.00     0.131 A 
ATOM     55  C   UNL A   1      42.294  26.868  26.826  1.00  0.00     0.055 A 
ATOM     56  C   UNL A   1      40.465  25.556  27.665  1.00  0.00     0.041 A 
ATOM     57  F   UNL A   1      39.350  26.225  29.614  1.00  0.00    -0.206 F 
ATOM     58  C   UNL A   1      41.435  25.775  26.693  1.00  0.00     0.022 A 
BRANCH  55  59
ATOM     59  S   UNL A   1      43.423  27.303  25.475  1.00  0.00     0.124 S 
ATOM     60  O   UNL A   1      42.529  28.009  24.560  1.00  0.00    -0.237 OA
ATOM     61  O   UNL A   1      44.422  28.123  26.150  1.00  0.00    -0.237 OA
ATOM     62  O   UNL A   1      43.899  26.007  24.994  1.00  0.00    -0.744 OA
ENDBRANCH  55  59
ENDBRANCH  38  52
BRANCH  39  63
ATOM     63  C   UNL A   1      39.545  33.481  36.798  1.00  0.00     0.023 A 
ATOM     64  C   UNL A   1      40.253  34.664  37.065  1.00  0.00     0.031 A 
ATOM     65  C   UNL A   1      38.584  33.064  37.737  1.00  0.00     0.131 A 
ATOM     66  C   UNL A   1      40.030  35.356  38.266  1.00  0.00     0.055 A 
ATOM     67  C   UNL A   1      38.321  33.792  38.899  1.00  0.00     0.041 A 
ATOM     68  F   UNL A   1      37.877  31.941  37.534  1.00  0.00    -0.206 F 
ATOM     69  C   UNL A   1      39.059  34.937  39.177  1.00  0.00     0.022 A 
BRANCH  66  70
ATOM     70  S   UNL A   1      41.111  36.757  38.674  1.00  0.00     0.124 S 
ATOM     71  O   UNL A   1      40.139  37.806  38.959  1.00  0.00    -0.237 OA
ATOM     72  O   UNL A   1      41.854  36.241  39.818  1.00  0.00    -0.237 OA
ATOM     73  O   UNL A   1      41.896  36.946  37.456  1.00  0.00    -0.744 OA
ENDBRANCH  66  70
ENDBRANCH  39  63
BRANCH  51  74
ATOM     74  C   UNL A   1      44.251  28.509  35.413  1.00  0.00     0.023 A 
ATOM     75  C   UNL A   1      44.082  27.480  36.355  1.00  0.00     0.031 A 
ATOM     76  C   UNL A   1      45.548  29.018  35.217  1.00  0.00     0.131 A 
ATOM     77  C   UNL A   1      45.181  27.029  37.102  1.00  0.00     0.055 A 
ATOM     78  C   UNL A   1      46.648  28.520  35.914  1.00  0.00     0.041 A 
ATOM     79  F   UNL A   1      45.767  30.006  34.334  1.00  0.00    -0.206 F 
ATOM     80  C   UNL A   1      46.467  27.528  36.873  1.00  0.00     0.022 A 
BRANCH  77  81
ATOM     81  S   UNL A   1      44.896  25.845  38.446  1.00  0.00     0.124 S 
ATOM     82  O   UNL A   1      46.254  25.583  38.912  1.00  0.00    -0.237 OA
ATOM     83  O   UNL A   1      44.046  26.605  39.356  1.00  0.00    -0.237 OA
ATOM     84  O   UNL A   1      44.241  24.721  37.781  1.00  0.00    -0.744 OA
ENDBRANCH  77  81
ENDBRANCH  51  74
ENDBRANCH  25  26
ENDBRANCH  17  20
ENDBRANCH   1  16
TORSDOF 14
ENDMDL
MODEL 2
REMARK VINA RESULT:     -10.9      6.035      9.789
REMARK SMILES CC1([C@@]2(C)C[C@@H]2C(=O)NCCCNC(=O)c2ccc(-c3c4nc(c(-c5cc(S(=O)(=O)[O-])ccc5F)c5ccc([nH]5)c(-c5cc(S(=O)(=O)[O-])ccc5F)c5nc(c(-c6cc(S(=O)(=O)[O-])ccc6F)c6ccc3[nH]6)C=C5)C=C4)cc2)CC1
REMARK SMILES IDX 12 1 11 2 10 3 9 4 7 5 8 6 6 8 3 9 4 10 5 11 2 12 1 13 79 14
REMARK SMILES IDX 80 15 13 16 14 17 15 19 16 20 17 21 78 22 18 23 77 24 19 25
REMARK SMILES IDX 20 26 21 27 71 28 22 29 76 30 70 31 72 32 23 33 75 34 69 35
REMARK SMILES IDX 68 36 24 38 56 39 36 40 55 41 37 42 40 43 54 44 73 45 38 46
REMARK SMILES IDX 39 47 53 49 74 50 41 51 25 52 26 53 34 54 27 55 33 56 35 57
REMARK SMILES IDX 32 58 28 59 29 60 30 61 31 62 57 63 58 64 66 65 59 66 65 67
REMARK SMILES IDX 67 68 64 69 60 70 61 71 62 72 63 73 42 74 43 75 51 76 44 77
REMARK SMILES IDX 50 78 52 79 49 80 45 81 46 82 47 83 48 84
REMARK H PARENT 9 7 13 18 72 37 40 48
REMARK Flexibility Score: inf
ROOT
ATOM      1  C   UNL A   1      40.511  21.312  26.682  1.00  0.00     0.118 C 
ENDROOT
BRANCH   1   2
ATOM      2  C   UNL A   1      41.012  19.947  26.226  1.00  0.00     0.042 C 
BRANCH   2   3
ATOM      3  C   UNL A   1      42.516  19.764  26.383  1.00  0.00     0.117 C 
BRANCH   3   4
ATOM      4  N   UNL A   1      43.234  20.060  25.160  1.00  0.00    -0.356 N 
ATOM      5  C   UNL A   1      44.262  20.944  24.979  1.00  0.00     0.223 C 
ATOM      6  O   UNL A   1      44.782  21.073  23.878  1.00  0.00    -0.275 OA
ATOM      7  H   UNL A   1      42.947  19.563  24.361  1.00  0.00     0.163 HD
BRANCH   5   8
ATOM      8  C   UNL A   1      44.755  21.708  26.155  1.00  0.00     0.085 C 
ATOM      9  C   UNL A   1      44.194  23.082  26.555  1.00  0.00    -0.015 C 
ATOM     10  C   UNL A   1      43.173  23.752  25.658  1.00  0.00     0.013 C 
ATOM     11  C   UNL A   1      45.575  22.953  25.937  1.00  0.00     0.022 C 
BRANCH   9  12
ATOM     12  C   UNL A   1      44.008  23.417  28.080  1.00  0.00    -0.026 C 
ATOM     13  C   UNL A   1      45.212  24.050  28.743  1.00  0.00     0.012 C 
ATOM     14  C   UNL A   1      43.194  22.468  28.946  1.00  0.00     0.008 C 
ATOM     15  C   UNL A   1      42.665  23.838  28.657  1.00  0.00     0.008 C 
ENDBRANCH   9  12
ENDBRANCH   5   8
ENDBRANCH   3   4
ENDBRANCH   2   3
ENDBRANCH   1   2
BRANCH   1  16
ATOM     16  N   UNL A   1      39.201  21.629  26.129  1.00  0.00    -0.352 N 
ATOM     17  C   UNL A   1      38.466  22.787  26.211  1.00  0.00     0.251 C 
ATOM     18  H   UNL A   1      38.776  20.900  25.620  1.00  0.00     0.163 HD
ATOM     19  O   UNL A   1      37.289  22.777  25.858  1.00  0.00    -0.269 OA
BRANCH  17  20
ATOM     20  C   UNL A   1      39.076  24.027  26.741  1.00  0.00     0.039 A 
ATOM     21  C   UNL A   1      39.800  24.848  25.872  1.00  0.00     0.014 A 
ATOM     22  C   UNL A   1      38.952  24.375  28.088  1.00  0.00     0.014 A 
ATOM     23  C   UNL A   1      40.337  26.051  26.340  1.00  0.00     0.010 A 
ATOM     24  C   UNL A   1      39.418  25.610  28.533  1.00  0.00     0.010 A 
ATOM     25  C   UNL A   1      40.116  26.462  27.664  1.00  0.00    -0.014 A 
BRANCH  25  26
ATOM     26  C   UNL A   1      40.598  27.780  28.158  1.00  0.00     0.031 A 
ATOM     27  C   UNL A   1      42.075  28.066  28.228  1.00  0.00     0.074 A 
ATOM     28  C   UNL A   1      39.710  28.689  28.611  1.00  0.00     0.049 A 
ATOM     29  N   UNL A   1      42.694  29.108  28.721  1.00  0.00    -0.248 NA
ATOM     30  C   UNL A   1      42.974  27.031  27.695  1.00  0.00     0.031 C 
ATOM     31  C   UNL A   1      38.256  28.514  28.626  1.00  0.00     0.029 A 
ATOM     32  N   UNL A   1      39.896  29.934  29.162  1.00  0.00    -0.354 N 
ATOM     33  C   UNL A   1      44.052  28.845  28.579  1.00  0.00     0.074 A 
ATOM     34  C   UNL A   1      44.165  27.524  27.998  1.00  0.00     0.031 C 
ATOM     35  C   UNL A   1      37.684  29.613  29.141  1.00  0.00     0.029 A 
ATOM     36  C   UNL A   1      38.727  30.550  29.549  1.00  0.00     0.049 A 
ATOM     37  H   UNL A   1      40.783  30.347  29.269  1.00  0.00     0.167 HD
ATOM     38  C   UNL A   1      45.106  29.641  28.888  1.00  0.00     0.034 A 
ATOM     39  C   UNL A   1      38.518  31.721  30.184  1.00  0.00     0.034 A 
ATOM     40  C   UNL A   1      44.973  30.961  29.454  1.00  0.00     0.049 A 
ATOM     41  C   UNL A   1      39.709  32.573  30.549  1.00  0.00     0.074 A 
ATOM     42  C   UNL A   1      45.970  31.877  29.742  1.00  0.00     0.029 A 
ATOM     43  N   UNL A   1      43.773  31.552  29.831  1.00  0.00    -0.354 N 
ATOM     44  N   UNL A   1      40.985  32.334  30.353  1.00  0.00    -0.248 NA
ATOM     45  C   UNL A   1      39.432  33.854  31.211  1.00  0.00     0.031 C 
ATOM     46  C   UNL A   1      45.385  32.980  30.372  1.00  0.00     0.029 A 
ATOM     47  C   UNL A   1      44.011  32.799  30.389  1.00  0.00     0.049 A 
ATOM     48  H   UNL A   1      42.883  31.144  29.720  1.00  0.00     0.167 HD
ATOM     49  C   UNL A   1      41.659  33.454  30.836  1.00  0.00     0.074 A 
ATOM     50  C   UNL A   1      40.647  34.370  31.320  1.00  0.00     0.031 C 
ATOM     51  C   UNL A   1      42.993  33.702  30.874  1.00  0.00     0.034 A 
BRANCH  38  52
ATOM     52  C   UNL A   1      46.494  29.093  28.655  1.00  0.00     0.023 A 
ATOM     53  C   UNL A   1      47.016  28.914  27.362  1.00  0.00     0.031 A 
ATOM     54  C   UNL A   1      47.308  28.739  29.747  1.00  0.00     0.131 A 
ATOM     55  C   UNL A   1      48.284  28.337  27.192  1.00  0.00     0.055 A 
ATOM     56  C   UNL A   1      48.602  28.243  29.572  1.00  0.00     0.041 A 
ATOM     57  F   UNL A   1      46.857  28.864  31.005  1.00  0.00    -0.206 F 
ATOM     58  C   UNL A   1      49.092  28.027  28.288  1.00  0.00     0.022 A 
BRANCH  55  59
ATOM     59  S   UNL A   1      48.806  27.870  25.520  1.00  0.00     0.124 S 
ATOM     60  O   UNL A   1      50.066  28.598  25.390  1.00  0.00    -0.237 OA
ATOM     61  O   UNL A   1      48.914  26.419  25.616  1.00  0.00    -0.237 OA
ATOM     62  O   UNL A   1      47.722  28.361  24.671  1.00  0.00    -0.744 OA
ENDBRANCH  55  59
ENDBRANCH  38  52
BRANCH  39  63
ATOM     63  C   UNL A   1      37.135  32.149  30.550  1.00  0.00     0.023 A 
ATOM     64  C   UNL A   1      36.282  32.739  29.603  1.00  0.00     0.031 A 
ATOM     65  C   UNL A   1      36.664  32.023  31.869  1.00  0.00     0.131 A 
ATOM     66  C   UNL A   1      35.029  33.232  30.000  1.00  0.00     0.055 A 
ATOM     67  C   UNL A   1      35.391  32.456  32.245  1.00  0.00     0.041 A 
ATOM     68  F   UNL A   1      37.435  31.466  32.816  1.00  0.00    -0.206 F 
ATOM     69  C   UNL A   1      34.572  33.080  31.310  1.00  0.00     0.022 A 
BRANCH  66  70
ATOM     70  S   UNL A   1      34.047  34.177  28.801  1.00  0.00     0.124 S 
ATOM     71  O   UNL A   1      33.816  33.182  27.760  1.00  0.00    -0.237 OA
ATOM     72  O   UNL A   1      32.885  34.556  29.596  1.00  0.00    -0.237 OA
ATOM     73  O   UNL A   1      34.933  35.277  28.429  1.00  0.00    -0.744 OA
ENDBRANCH  66  70
ENDBRANCH  39  63
BRANCH  51  74
ATOM     74  C   UNL A   1      43.431  35.046  31.407  1.00  0.00     0.023 A 
ATOM     75  C   UNL A   1      43.571  36.170  30.574  1.00  0.00     0.031 A 
ATOM     76  C   UNL A   1      43.707  35.203  32.778  1.00  0.00     0.131 A 
ATOM     77  C   UNL A   1      44.025  37.385  31.109  1.00  0.00     0.055 A 
ATOM     78  C   UNL A   1      44.094  36.430  33.316  1.00  0.00     0.041 A 
ATOM     79  F   UNL A   1      43.597  34.163  33.620  1.00  0.00    -0.206 F 
ATOM     80  C   UNL A   1      44.268  37.528  32.478  1.00  0.00     0.022 A 
BRANCH  77  81
ATOM     81  S   UNL A   1      44.387  38.755  29.977  1.00  0.00     0.124 S 
ATOM     82  O   UNL A   1      43.578  39.833  30.538  1.00  0.00    -0.237 OA
ATOM     83  O   UNL A   1      45.831  38.904  30.117  1.00  0.00    -0.237 OA
ATOM     84  O   UNL A   1      43.939  38.256  28.679  1.00  0.00    -0.744 OA
ENDBRANCH  77  81
ENDBRANCH  51  74
ENDBRANCH  25  26
ENDBRANCH  17  20
ENDBRANCH   1  16
TORSDOF 14
ENDMDL
MODEL 3
REMARK VINA RESULT:     -10.9      6.182     11.969
REMARK SMILES CC1([C@@]2(C)C[C@@H]2C(=O)NCCCNC(=O)c2ccc(-c3c4nc(c(-c5cc(S(=O)(=O)[O-])ccc5F)c5ccc([nH]5)c(-c5cc(S(=O)(=O)[O-])ccc5F)c5nc(c(-c6cc(S(=O)(=O)[O-])ccc6F)c6ccc3[nH]6)C=C5)C=C4)cc2)CC1
REMARK SMILES IDX 12 1 11 2 10 3 9 4 7 5 8 6 6 8 3 9 4 10 5 11 2 12 1 13 79 14
REMARK SMILES IDX 80 15 13 16 14 17 15 19 16 20 17 21 78 22 18 23 77 24 19 25
REMARK SMILES IDX 20 26 21 27 71 28 22 29 76 30 70 31 72 32 23 33 75 34 69 35
REMARK SMILES IDX 68 36 24 38 56 39 36 40 55 41 37 42 40 43 54 44 73 45 38 46
REMARK SMILES IDX 39 47 53 49 74 50 41 51 25 52 26 53 34 54 27 55 33 56 35 57
REMARK SMILES IDX 32 58 28 59 29 60 30 61 31 62 57 63 58 64 66 65 59 66 65 67
REMARK SMILES IDX 67 68 64 69 60 70 61 71 62 72 63 73 42 74 43 75 51 76 44 77
REMARK SMILES IDX 50 78 52 79 49 80 45 81 46 82 47 83 48 84
REMARK H PARENT 9 7 13 18 72 37 40 48
REMARK Flexibility Score: inf
ROOT
ATOM      1  C   UNL A   1      39.244  20.137  25.973  1.00  0.00     0.118 C 
ENDROOT
BRANCH   1   2
ATOM      2  C   UNL A   1      38.173  19.569  25.050  1.00  0.00     0.042 C 
BRANCH   2   3
ATOM      3  C   UNL A   1      36.934  20.449  24.936  1.00  0.00     0.117 C 
BRANCH   3   4
ATOM      4  N   UNL A   1      35.709  19.682  25.019  1.00  0.00    -0.356 N 
ATOM      5  C   UNL A   1      34.426  20.119  24.831  1.00  0.00     0.223 C 
ATOM      6  O   UNL A   1      33.486  19.339  24.920  1.00  0.00    -0.275 OA
ATOM      7  H   UNL A   1      35.812  18.727  25.237  1.00  0.00     0.163 HD
BRANCH   5   8
ATOM      8  C   UNL A   1      34.209  21.546  24.477  1.00  0.00     0.085 C 
ATOM      9  C   UNL A   1      34.003  22.647  25.529  1.00  0.00    -0.015 C 
ATOM     10  C   UNL A   1      33.902  22.261  26.992  1.00  0.00     0.013 C 
ATOM     11  C   UNL A   1      32.847  22.158  24.675  1.00  0.00     0.022 C 
BRANCH   9  12
ATOM     12  C   UNL A   1      34.654  24.059  25.296  1.00  0.00    -0.026 C 
ATOM     13  C   UNL A   1      36.161  24.093  25.426  1.00  0.00     0.012 C 
ATOM     14  C   UNL A   1      33.915  25.297  25.782  1.00  0.00     0.008 C 
ATOM     15  C   UNL A   1      34.073  25.064  24.312  1.00  0.00     0.008 C 
ENDBRANCH   9  12
ENDBRANCH   5   8
ENDBRANCH   3   4
ENDBRANCH   2   3
ENDBRANCH   1   2
BRANCH   1  16
ATOM     16  N   UNL A   1      40.432  19.295  26.019  1.00  0.00    -0.352 N 
ATOM     17  C   UNL A   1      41.756  19.645  26.129  1.00  0.00     0.251 C 
ATOM     18  H   UNL A   1      40.260  18.327  25.963  1.00  0.00     0.163 HD
ATOM     19  O   UNL A   1      42.619  18.793  25.933  1.00  0.00    -0.269 OA
BRANCH  17  20
ATOM     20  C   UNL A   1      42.141  21.037  26.454  1.00  0.00     0.039 A 
ATOM     21  C   UNL A   1      42.433  21.365  27.781  1.00  0.00     0.014 A 
ATOM     22  C   UNL A   1      42.200  22.021  25.464  1.00  0.00     0.014 A 
ATOM     23  C   UNL A   1      42.851  22.659  28.100  1.00  0.00     0.010 A 
ATOM     24  C   UNL A   1      42.694  23.286  25.770  1.00  0.00     0.010 A 
ATOM     25  C   UNL A   1      43.025  23.621  27.091  1.00  0.00    -0.014 A 
BRANCH  25  26
ATOM     26  C   UNL A   1      43.558  24.976  27.395  1.00  0.00     0.031 A 
ATOM     27  C   UNL A   1      42.652  26.032  27.971  1.00  0.00     0.074 A 
ATOM     28  C   UNL A   1      44.836  25.276  27.085  1.00  0.00     0.049 A 
ATOM     29  N   UNL A   1      42.898  27.295  28.208  1.00  0.00    -0.248 NA
ATOM     30  C   UNL A   1      41.280  25.617  28.300  1.00  0.00     0.031 C 
ATOM     31  C   UNL A   1      45.801  24.348  26.492  1.00  0.00     0.029 A 
ATOM     32  N   UNL A   1      45.541  26.449  27.207  1.00  0.00    -0.354 N 
ATOM     33  C   UNL A   1      41.709  27.830  28.691  1.00  0.00     0.074 A 
ATOM     34  C   UNL A   1      40.730  26.764  28.667  1.00  0.00     0.031 C 
ATOM     35  C   UNL A   1      46.972  24.979  26.319  1.00  0.00     0.029 A 
ATOM     36  C   UNL A   1      46.831  26.372  26.732  1.00  0.00     0.049 A 
ATOM     37  H   UNL A   1      45.160  27.267  27.599  1.00  0.00     0.167 HD
ATOM     38  C   UNL A   1      41.464  29.089  29.131  1.00  0.00     0.034 A 
ATOM     39  C   UNL A   1      47.783  27.319  26.614  1.00  0.00     0.034 A 
ATOM     40  C   UNL A   1      42.458  30.135  29.161  1.00  0.00     0.049 A 
ATOM     41  C   UNL A   1      47.475  28.722  27.079  1.00  0.00     0.074 A 
ATOM     42  C   UNL A   1      42.334  31.424  29.649  1.00  0.00     0.029 A 
ATOM     43  N   UNL A   1      43.753  30.020  28.672  1.00  0.00    -0.354 N 
ATOM     44  N   UNL A   1      46.361  29.196  27.589  1.00  0.00    -0.248 NA
ATOM     45  C   UNL A   1      48.552  29.714  26.961  1.00  0.00     0.031 C 
ATOM     46  C   UNL A   1      43.520  32.112  29.376  1.00  0.00     0.029 A 
ATOM     47  C   UNL A   1      44.422  31.227  28.807  1.00  0.00     0.049 A 
ATOM     48  H   UNL A   1      44.140  29.200  28.285  1.00  0.00     0.167 HD
ATOM     49  C   UNL A   1      46.619  30.533  27.885  1.00  0.00     0.074 A 
ATOM     50  C   UNL A   1      47.995  30.783  27.509  1.00  0.00     0.031 C 
ATOM     51  C   UNL A   1      45.793  31.467  28.423  1.00  0.00     0.034 A 
BRANCH  38  52
ATOM     52  C   UNL A   1      40.060  29.416  29.582  1.00  0.00     0.023 A 
ATOM     53  C   UNL A   1      39.717  29.506  30.942  1.00  0.00     0.031 A 
ATOM     54  C   UNL A   1      39.045  29.637  28.633  1.00  0.00     0.131 A 
ATOM     55  C   UNL A   1      38.385  29.744  31.316  1.00  0.00     0.055 A 
ATOM     56  C   UNL A   1      37.738  29.956  29.011  1.00  0.00     0.041 A 
ATOM     57  F   UNL A   1      39.304  29.541  27.320  1.00  0.00    -0.206 F 
ATOM     58  C   UNL A   1      37.399  29.998  30.360  1.00  0.00     0.022 A 
BRANCH  55  59
ATOM     59  S   UNL A   1      37.933  29.580  33.064  1.00  0.00     0.124 S 
ATOM     60  O   UNL A   1      37.360  28.236  33.095  1.00  0.00    -0.237 OA
ATOM     61  O   UNL A   1      39.215  29.743  33.739  1.00  0.00    -0.237 OA
ATOM     62  O   UNL A   1      36.974  30.663  33.273  1.00  0.00    -0.744 OA
ENDBRANCH  55  59
ENDBRANCH  38  52
BRANCH  39  63
ATOM     63  C   UNL A   1      49.107  26.994  26.004  1.00  0.00     0.023 A 
ATOM     64  C   UNL A   1      49.422  27.396  24.696  1.00  0.00     0.031 A 
ATOM     65  C   UNL A   1      50.058  26.229  26.703  1.00  0.00     0.131 A 
ATOM     66  C   UNL A   1      50.628  26.982  24.108  1.00  0.00     0.055 A 
ATOM     67  C   UNL A   1      51.284  25.875  26.136  1.00  0.00     0.041 A 
ATOM     68  F   UNL A   1      49.811  25.818  27.957  1.00  0.00    -0.206 F 
ATOM     69  C   UNL A   1      51.568  26.239  24.825  1.00  0.00     0.022 A 
BRANCH  66  70
ATOM     70  S   UNL A   1      50.904  27.338  22.350  1.00  0.00     0.124 S 
ATOM     71  O   UNL A   1      50.735  28.786  22.311  1.00  0.00    -0.237 OA
ATOM     72  O   UNL A   1      52.263  26.846  22.152  1.00  0.00    -0.237 OA
ATOM     73  O   UNL A   1      49.860  26.568  21.679  1.00  0.00    -0.744 OA
ENDBRANCH  66  70
ENDBRANCH  39  63
BRANCH  51  74
ATOM     74  C   UNL A   1      46.377  32.834  28.689  1.00  0.00     0.023 A 
ATOM     75  C   UNL A   1      46.313  33.870  27.741  1.00  0.00     0.031 A 
ATOM     76  C   UNL A   1      47.004  33.104  29.920  1.00  0.00     0.131 A 
ATOM     77  C   UNL A   1      46.911  35.110  28.019  1.00  0.00     0.055 A 
ATOM     78  C   UNL A   1      47.538  34.358  30.216  1.00  0.00     0.041 A 
ATOM     79  F   UNL A   1      47.099  32.151  30.861  1.00  0.00    -0.206 F 
ATOM     80  C   UNL A   1      47.504  35.367  29.258  1.00  0.00     0.022 A 
BRANCH  77  81
ATOM     81  S   UNL A   1      46.987  36.355  26.703  1.00  0.00     0.124 S 
ATOM     82  O   UNL A   1      47.029  35.526  25.502  1.00  0.00    -0.237 OA
ATOM     83  O   UNL A   1      45.756  37.109  26.913  1.00  0.00    -0.237 OA
ATOM     84  O   UNL A   1      48.218  37.087  26.994  1.00  0.00    -0.744 OA
ENDBRANCH  77  81
ENDBRANCH  51  74
ENDBRANCH  25  26
ENDBRANCH  17  20
ENDBRANCH   1  16
TORSDOF 14
ENDMDL
