MODEL 1
REMARK VINA RESULT:     -13.3      0.000      0.000
REMARK SMILES Cc1c(CC(=O)NCCCNC(=O)c2ccc(-c3c4nc(c(-c5cc(S(=O)(=O)[O-])ccc5F)c5ccc([nH]5)c(-c5cc(S(=O)(=O)[O-])ccc5F)c5nc(c(-c6cc(S(=O)(=O)[O-])ccc6F)c6ccc3[nH]6)C=C5)C=C4)cc2)c2cc(O)ccc2n1C(=O)c1ccc(Cl)cc1
REMARK SMILES IDX 9 1 8 2 7 3 5 4 6 5 4 7 3 8 1 9 2 10 84 11 77 12 83 13 78 14
REMARK SMILES IDX 82 15 79 16 81 17 85 18 86 19 87 20 88 21 93 22 89 23 92 24
REMARK SMILES IDX 90 25 91 26 80 27 10 29 11 30 12 31 13 33 14 34 15 35 76 36
REMARK SMILES IDX 16 37 75 38 17 39 18 40 19 41 69 42 20 43 74 44 68 45 70 46
REMARK SMILES IDX 21 47 73 48 67 49 66 50 22 52 54 53 34 54 53 55 35 56 38 57
REMARK SMILES IDX 52 58 71 59 36 60 37 61 51 63 72 64 39 65 23 66 24 67 32 68
REMARK SMILES IDX 25 69 31 70 33 71 30 72 26 73 27 74 28 75 29 76 55 77 56 78
REMARK SMILES IDX 64 79 57 80 63 81 65 82 62 83 58 84 59 85 60 86 61 87 40 88
REMARK SMILES IDX 41 89 49 90 42 91 48 92 50 93 47 94 43 95 44 96 45 97 46 98
REMARK H PARENT 7 6 80 28 11 32 70 51 38 62
REMARK Flexibility Score: inf
ROOT
ATOM      1  C   UNL A   1      37.178  21.673  24.288  1.00  0.00     0.042 C 
ENDROOT
BRANCH   1   2
ATOM      2  C   UNL A   1      36.016  22.619  23.972  1.00  0.00     0.117 C 
BRANCH   2   3
ATOM      3  N   UNL A   1      35.120  22.812  25.101  1.00  0.00    -0.356 N 
ATOM      4  C   UNL A   1      34.313  23.872  25.396  1.00  0.00     0.224 C 
ATOM      5  O   UNL A   1      33.596  23.799  26.399  1.00  0.00    -0.275 OA
ATOM      6  H   UNL A   1      35.091  22.069  25.747  1.00  0.00     0.163 HD
BRANCH   4   7
ATOM      7  C   UNL A   1      34.255  25.079  24.473  1.00  0.00     0.138 C 
BRANCH   7   8
ATOM      8  C   UNL A   1      33.037  25.932  24.683  1.00  0.00    -0.009 A 
ATOM      9  C   UNL A   1      31.332  24.661  23.194  1.00  0.00     0.065 C 
ATOM     10  C   UNL A   1      31.785  25.758  24.110  1.00  0.00     0.028 A 
ATOM     11  N   UNL A   1      30.962  26.837  24.473  1.00  0.00    -0.280 N 
ATOM     12  C   UNL A   1      32.946  27.053  25.554  1.00  0.00     0.008 A 
ATOM     13  C   UNL A   1      31.640  27.557  25.474  1.00  0.00     0.057 A 
ATOM     14  C   UNL A   1      33.877  27.665  26.426  1.00  0.00     0.056 A 
ATOM     15  C   UNL A   1      31.248  28.620  26.317  1.00  0.00     0.031 A 
ATOM     16  C   UNL A   1      33.490  28.756  27.193  1.00  0.00     0.116 A 
ATOM     17  C   UNL A   1      32.192  29.228  27.153  1.00  0.00     0.048 A 
BRANCH  11  18
ATOM     18  C   UNL A   1      29.680  27.115  23.913  1.00  0.00     0.262 C 
ATOM     19  O   UNL A   1      28.770  26.308  24.115  1.00  0.00    -0.268 OA
BRANCH  18  20
ATOM     20  C   UNL A   1      29.313  28.300  23.119  1.00  0.00     0.040 A 
ATOM     21  C   UNL A   1      30.251  28.970  22.327  1.00  0.00     0.015 A 
ATOM     22  C   UNL A   1      27.982  28.734  23.168  1.00  0.00     0.015 A 
ATOM     23  C   UNL A   1      29.875  30.146  21.671  1.00  0.00     0.021 A 
ATOM     24  C   UNL A   1      27.609  29.898  22.498  1.00  0.00     0.021 A 
ATOM     25  C   UNL A   1      28.563  30.615  21.775  1.00  0.00     0.041 A 
ATOM     26  Cl  UNL A   1      28.130  32.107  21.038  1.00  0.00    -0.084 Cl
ENDBRANCH  18  20
ENDBRANCH  11  18
BRANCH  16  27
ATOM     27  O   UNL A   1      34.430  29.333  27.998  1.00  0.00    -0.508 OA
ATOM     28  H   UNL A   1      34.829  30.142  27.747  1.00  0.00     0.293 HD
ENDBRANCH  16  27
ENDBRANCH   7   8
ENDBRANCH   4   7
ENDBRANCH   2   3
ENDBRANCH   1   2
BRANCH   1  29
ATOM     29  C   UNL A   1      37.750  21.849  25.695  1.00  0.00     0.118 C 
BRANCH  29  30
ATOM     30  N   UNL A   1      39.183  21.643  25.770  1.00  0.00    -0.352 N 
ATOM     31  C   UNL A   1      40.245  22.290  26.332  1.00  0.00     0.251 C 
ATOM     32  H   UNL A   1      39.460  20.826  25.296  1.00  0.00     0.163 HD
ATOM     33  O   UNL A   1      41.326  21.702  26.222  1.00  0.00    -0.269 OA
BRANCH  31  34
ATOM     34  C   UNL A   1      40.220  23.628  26.986  1.00  0.00     0.039 A 
ATOM     35  C   UNL A   1      39.307  24.651  26.733  1.00  0.00     0.014 A 
ATOM     36  C   UNL A   1      41.266  23.873  27.899  1.00  0.00     0.014 A 
ATOM     37  C   UNL A   1      39.494  25.912  27.303  1.00  0.00     0.010 A 
ATOM     38  C   UNL A   1      41.451  25.125  28.476  1.00  0.00     0.010 A 
ATOM     39  C   UNL A   1      40.595  26.163  28.133  1.00  0.00    -0.014 A 
BRANCH  39  40
ATOM     40  C   UNL A   1      40.762  27.506  28.690  1.00  0.00     0.031 A 
ATOM     41  C   UNL A   1      41.944  28.251  28.169  1.00  0.00     0.074 A 
ATOM     42  C   UNL A   1      39.875  28.095  29.522  1.00  0.00     0.049 A 
ATOM     43  N   UNL A   1      43.007  28.615  28.809  1.00  0.00    -0.248 NA
ATOM     44  C   UNL A   1      42.009  28.493  26.719  1.00  0.00     0.031 C 
ATOM     45  C   UNL A   1      38.528  27.641  29.880  1.00  0.00     0.029 A 
ATOM     46  N   UNL A   1      39.967  29.295  30.163  1.00  0.00    -0.354 N 
ATOM     47  C   UNL A   1      43.795  29.310  27.889  1.00  0.00     0.074 A 
ATOM     48  C   UNL A   1      43.209  29.061  26.597  1.00  0.00     0.031 C 
ATOM     49  C   UNL A   1      37.854  28.656  30.472  1.00  0.00     0.029 A 
ATOM     50  C   UNL A   1      38.767  29.767  30.680  1.00  0.00     0.049 A 
ATOM     51  H   UNL A   1      40.815  29.787  30.252  1.00  0.00     0.167 HD
ATOM     52  C   UNL A   1      44.756  30.196  28.283  1.00  0.00     0.034 A 
ATOM     53  C   UNL A   1      38.522  31.001  31.192  1.00  0.00     0.034 A 
ATOM     54  C   UNL A   1      45.074  30.032  29.675  1.00  0.00     0.049 A 
ATOM     55  C   UNL A   1      39.822  31.624  31.534  1.00  0.00     0.074 A 
ATOM     56  C   UNL A   1      45.630  29.025  30.436  1.00  0.00     0.029 A 
ATOM     57  N   UNL A   1      44.482  30.893  30.565  1.00  0.00    -0.354 N 
ATOM     58  N   UNL A   1      40.589  31.225  32.506  1.00  0.00    -0.248 NA
ATOM     59  C   UNL A   1      40.472  32.417  30.503  1.00  0.00     0.031 C 
ATOM     60  C   UNL A   1      44.939  29.080  31.678  1.00  0.00     0.029 A 
ATOM     61  C   UNL A   1      44.048  30.154  31.633  1.00  0.00     0.049 A 
ATOM     62  H   UNL A   1      44.387  31.868  30.455  1.00  0.00     0.167 HD
ATOM     63  C   UNL A   1      41.871  31.302  31.984  1.00  0.00     0.074 A 
ATOM     64  C   UNL A   1      41.743  32.134  30.787  1.00  0.00     0.031 C 
ATOM     65  C   UNL A   1      42.858  30.459  32.402  1.00  0.00     0.034 A 
BRANCH  52  66
ATOM     66  C   UNL A   1      45.161  31.427  27.502  1.00  0.00     0.023 A 
ATOM     67  C   UNL A   1      44.339  32.562  27.379  1.00  0.00     0.031 A 
ATOM     68  C   UNL A   1      46.492  31.586  27.057  1.00  0.00     0.131 A 
ATOM     69  C   UNL A   1      44.820  33.768  26.849  1.00  0.00     0.055 A 
ATOM     70  C   UNL A   1      46.992  32.809  26.590  1.00  0.00     0.041 A 
ATOM     71  F   UNL A   1      47.369  30.572  27.120  1.00  0.00    -0.206 F 
ATOM     72  C   UNL A   1      46.155  33.911  26.488  1.00  0.00     0.022 A 
BRANCH  69  73
ATOM     73  S   UNL A   1      43.707  35.185  26.642  1.00  0.00     0.124 S 
ATOM     74  O   UNL A   1      43.060  34.876  25.372  1.00  0.00    -0.237 OA
ATOM     75  O   UNL A   1      42.862  35.070  27.828  1.00  0.00    -0.237 OA
ATOM     76  O   UNL A   1      44.611  36.331  26.636  1.00  0.00    -0.744 OA
ENDBRANCH  69  73
ENDBRANCH  52  66
BRANCH  53  77
ATOM     77  C   UNL A   1      37.326  31.843  30.934  1.00  0.00     0.023 A 
ATOM     78  C   UNL A   1      36.691  32.485  32.012  1.00  0.00     0.031 A 
ATOM     79  C   UNL A   1      36.608  31.742  29.728  1.00  0.00     0.131 A 
ATOM     80  C   UNL A   1      35.372  32.941  31.892  1.00  0.00     0.055 A 
ATOM     81  C   UNL A   1      35.296  32.220  29.602  1.00  0.00     0.041 A 
ATOM     82  F   UNL A   1      37.136  31.104  28.671  1.00  0.00    -0.206 F 
ATOM     83  C   UNL A   1      34.666  32.808  30.695  1.00  0.00     0.022 A 
BRANCH  80  84
ATOM     84  S   UNL A   1      34.506  33.621  33.333  1.00  0.00     0.124 S 
ATOM     85  O   UNL A   1      33.168  33.052  33.186  1.00  0.00    -0.237 OA
ATOM     86  O   UNL A   1      35.300  33.086  34.434  1.00  0.00    -0.237 OA
ATOM     87  O   UNL A   1      34.589  35.065  33.132  1.00  0.00    -0.744 OA
ENDBRANCH  80  84
ENDBRANCH  53  77
BRANCH  65  88
ATOM     88  C   UNL A   1      42.618  29.591  33.618  1.00  0.00     0.023 A 
ATOM     89  C   UNL A   1      43.257  29.978  34.809  1.00  0.00     0.031 A 
ATOM     90  C   UNL A   1      42.010  28.321  33.592  1.00  0.00     0.131 A 
ATOM     91  C   UNL A   1      43.332  29.097  35.893  1.00  0.00     0.055 A 
ATOM     92  C   UNL A   1      42.020  27.473  34.705  1.00  0.00     0.041 A 
ATOM     93  F   UNL A   1      41.471  27.823  32.470  1.00  0.00    -0.206 F 
ATOM     94  C   UNL A   1      42.701  27.851  35.857  1.00  0.00     0.022 A 
BRANCH  91  95
ATOM     95  S   UNL A   1      44.400  29.484  37.304  1.00  0.00     0.124 S 
ATOM     96  O   UNL A   1      44.483  28.197  37.990  1.00  0.00    -0.237 OA
ATOM     97  O   UNL A   1      45.631  29.925  36.652  1.00  0.00    -0.237 OA
ATOM     98  O   UNL A   1      43.675  30.529  38.021  1.00  0.00    -0.744 OA
ENDBRANCH  91  95
ENDBRANCH  65  88
ENDBRANCH  39  40
ENDBRANCH  31  34
ENDBRANCH  29  30
ENDBRANCH   1  29
TORSDOF 17
ENDMDL
MODEL 2
REMARK VINA RESULT:     -13.1      3.940      9.133
REMARK SMILES Cc1c(CC(=O)NCCCNC(=O)c2ccc(-c3c4nc(c(-c5cc(S(=O)(=O)[O-])ccc5F)c5ccc([nH]5)c(-c5cc(S(=O)(=O)[O-])ccc5F)c5nc(c(-c6cc(S(=O)(=O)[O-])ccc6F)c6ccc3[nH]6)C=C5)C=C4)cc2)c2cc(O)ccc2n1C(=O)c1ccc(Cl)cc1
REMARK SMILES IDX 9 1 8 2 7 3 5 4 6 5 4 7 3 8 1 9 2 10 84 11 77 12 83 13 78 14
REMARK SMILES IDX 82 15 79 16 81 17 85 18 86 19 87 20 88 21 93 22 89 23 92 24
REMARK SMILES IDX 90 25 91 26 80 27 10 29 11 30 12 31 13 33 14 34 15 35 76 36
REMARK SMILES IDX 16 37 75 38 17 39 18 40 19 41 69 42 20 43 74 44 68 45 70 46
REMARK SMILES IDX 21 47 73 48 67 49 66 50 22 52 54 53 34 54 53 55 35 56 38 57
REMARK SMILES IDX 52 58 71 59 36 60 37 61 51 63 72 64 39 65 23 66 24 67 32 68
REMARK SMILES IDX 25 69 31 70 33 71 30 72 26 73 27 74 28 75 29 76 55 77 56 78
REMARK SMILES IDX 64 79 57 80 63 81 65 82 62 83 58 84 59 85 60 86 61 87 40 88
REMARK SMILES IDX 41 89 49 90 42 91 48 92 50 93 47 94 43 95 44 96 45 97 46 98
REMARK H PARENT 7 6 80 28 11 32 70 51 38 62
REMARK Flexibility Score: inf
ROOT
ATOM      1  C   UNL A   1      32.439  29.813  27.260  1.00  0.00     0.042 C 
ENDROOT
BRANCH   1   2
ATOM      2  C   UNL A   1      33.162  28.469  27.124  1.00  0.00     0.117 C 
BRANCH   2   3
ATOM      3  N   UNL A   1      33.461  28.125  25.743  1.00  0.00    -0.356 N 
ATOM      4  C   UNL A   1      33.499  26.899  25.144  1.00  0.00     0.224 C 
ATOM      5  O   UNL A   1      33.736  26.848  23.934  1.00  0.00    -0.275 OA
ATOM      6  H   UNL A   1      33.667  28.887  25.154  1.00  0.00     0.163 HD
BRANCH   4   7
ATOM      7  C   UNL A   1      33.190  25.641  25.940  1.00  0.00     0.138 C 
BRANCH   7   8
ATOM      8  C   UNL A   1      33.506  24.374  25.199  1.00  0.00    -0.009 A 
ATOM      9  C   UNL A   1      31.181  23.862  24.163  1.00  0.00     0.065 C 
ATOM     10  C   UNL A   1      32.628  23.600  24.453  1.00  0.00     0.028 A 
ATOM     11  N   UNL A   1      33.293  22.440  24.023  1.00  0.00    -0.280 N 
ATOM     12  C   UNL A   1      34.789  23.768  25.096  1.00  0.00     0.008 A 
ATOM     13  C   UNL A   1      34.660  22.617  24.306  1.00  0.00     0.057 A 
ATOM     14  C   UNL A   1      36.060  24.128  25.601  1.00  0.00     0.056 A 
ATOM     15  C   UNL A   1      35.810  21.873  23.962  1.00  0.00     0.031 A 
ATOM     16  C   UNL A   1      37.167  23.341  25.311  1.00  0.00     0.116 A 
ATOM     17  C   UNL A   1      37.054  22.232  24.494  1.00  0.00     0.048 A 
BRANCH  11  18
ATOM     18  C   UNL A   1      32.666  21.313  23.413  1.00  0.00     0.262 C 
ATOM     19  O   UNL A   1      32.102  21.479  22.329  1.00  0.00    -0.268 OA
BRANCH  18  20
ATOM     20  C   UNL A   1      32.637  19.939  23.940  1.00  0.00     0.040 A 
ATOM     21  C   UNL A   1      32.701  19.680  25.313  1.00  0.00     0.015 A 
ATOM     22  C   UNL A   1      32.527  18.888  23.021  1.00  0.00     0.015 A 
ATOM     23  C   UNL A   1      32.769  18.355  25.755  1.00  0.00     0.021 A 
ATOM     24  C   UNL A   1      32.578  17.568  23.470  1.00  0.00     0.021 A 
ATOM     25  C   UNL A   1      32.727  17.307  24.832  1.00  0.00     0.041 A 
ATOM     26  Cl  UNL A   1      32.899  15.684  25.375  1.00  0.00    -0.084 Cl
ENDBRANCH  18  20
ENDBRANCH  11  18
BRANCH  16  27
ATOM     27  O   UNL A   1      38.368  23.710  25.844  1.00  0.00    -0.508 OA
ATOM     28  H   UNL A   1      38.526  24.606  26.067  1.00  0.00     0.293 HD
ENDBRANCH  16  27
ENDBRANCH   7   8
ENDBRANCH   4   7
ENDBRANCH   2   3
ENDBRANCH   1   2
BRANCH   1  29
ATOM     29  C   UNL A   1      33.322  31.022  26.947  1.00  0.00     0.118 C 
BRANCH  29  30
ATOM     30  N   UNL A   1      33.655  31.815  28.114  1.00  0.00    -0.352 N 
ATOM     31  C   UNL A   1      34.749  31.985  28.912  1.00  0.00     0.251 C 
ATOM     32  H   UNL A   1      32.898  32.374  28.405  1.00  0.00     0.163 HD
ATOM     33  O   UNL A   1      34.626  32.856  29.780  1.00  0.00    -0.269 OA
BRANCH  31  34
ATOM     34  C   UNL A   1      36.009  31.194  28.865  1.00  0.00     0.039 A 
ATOM     35  C   UNL A   1      36.118  29.835  28.574  1.00  0.00     0.014 A 
ATOM     36  C   UNL A   1      37.180  31.902  29.209  1.00  0.00     0.014 A 
ATOM     37  C   UNL A   1      37.345  29.184  28.719  1.00  0.00     0.010 A 
ATOM     38  C   UNL A   1      38.406  31.260  29.346  1.00  0.00     0.010 A 
ATOM     39  C   UNL A   1      38.477  29.886  29.156  1.00  0.00    -0.014 A 
BRANCH  39  40
ATOM     40  C   UNL A   1      39.736  29.157  29.314  1.00  0.00     0.031 A 
ATOM     41  C   UNL A   1      40.083  28.820  30.725  1.00  0.00     0.074 A 
ATOM     42  C   UNL A   1      40.487  28.712  28.284  1.00  0.00     0.049 A 
ATOM     43  N   UNL A   1      41.067  29.269  31.436  1.00  0.00    -0.248 NA
ATOM     44  C   UNL A   1      39.133  27.988  31.478  1.00  0.00     0.031 C 
ATOM     45  C   UNL A   1      40.142  28.678  26.859  1.00  0.00     0.029 A 
ATOM     46  N   UNL A   1      41.707  28.103  28.311  1.00  0.00    -0.354 N 
ATOM     47  C   UNL A   1      40.976  28.624  32.672  1.00  0.00     0.074 A 
ATOM     48  C   UNL A   1      39.687  27.981  32.691  1.00  0.00     0.031 C 
ATOM     49  C   UNL A   1      41.015  27.875  26.204  1.00  0.00     0.029 A 
ATOM     50  C   UNL A   1      42.066  27.475  27.125  1.00  0.00     0.049 A 
ATOM     51  H   UNL A   1      42.287  28.109  29.107  1.00  0.00     0.167 HD
ATOM     52  C   UNL A   1      42.050  28.507  33.507  1.00  0.00     0.034 A 
ATOM     53  C   UNL A   1      43.119  26.641  26.923  1.00  0.00     0.034 A 
ATOM     54  C   UNL A   1      43.102  29.409  33.128  1.00  0.00     0.049 A 
ATOM     55  C   UNL A   1      44.087  26.847  28.026  1.00  0.00     0.074 A 
ATOM     56  C   UNL A   1      43.239  30.781  33.076  1.00  0.00     0.029 A 
ATOM     57  N   UNL A   1      44.135  28.899  32.382  1.00  0.00    -0.354 N 
ATOM     58  N   UNL A   1      44.798  27.926  28.181  1.00  0.00    -0.248 NA
ATOM     59  C   UNL A   1      43.934  26.017  29.210  1.00  0.00     0.031 C 
ATOM     60  C   UNL A   1      44.042  31.025  31.927  1.00  0.00     0.029 A 
ATOM     61  C   UNL A   1      44.405  29.793  31.380  1.00  0.00     0.049 A 
ATOM     62  H   UNL A   1      44.598  28.044  32.539  1.00  0.00     0.167 HD
ATOM     63  C   UNL A   1      44.779  28.153  29.548  1.00  0.00     0.074 A 
ATOM     64  C   UNL A   1      44.317  26.896  30.136  1.00  0.00     0.031 C 
ATOM     65  C   UNL A   1      44.862  29.417  30.058  1.00  0.00     0.034 A 
BRANCH  52  66
ATOM     66  C   UNL A   1      42.281  27.348  34.451  1.00  0.00     0.023 A 
ATOM     67  C   UNL A   1      43.070  26.232  34.117  1.00  0.00     0.031 A 
ATOM     68  C   UNL A   1      41.906  27.446  35.809  1.00  0.00     0.131 A 
ATOM     69  C   UNL A   1      43.455  25.286  35.078  1.00  0.00     0.055 A 
ATOM     70  C   UNL A   1      42.346  26.538  36.782  1.00  0.00     0.041 A 
ATOM     71  F   UNL A   1      41.150  28.464  36.247  1.00  0.00    -0.206 F 
ATOM     72  C   UNL A   1      43.129  25.452  36.419  1.00  0.00     0.022 A 
BRANCH  69  73
ATOM     73  S   UNL A   1      44.412  23.824  34.590  1.00  0.00     0.124 S 
ATOM     74  O   UNL A   1      44.589  23.140  35.865  1.00  0.00    -0.237 OA
ATOM     75  O   UNL A   1      43.503  23.180  33.646  1.00  0.00    -0.237 OA
ATOM     76  O   UNL A   1      45.620  24.390  33.996  1.00  0.00    -0.744 OA
ENDBRANCH  69  73
ENDBRANCH  52  66
BRANCH  53  77
ATOM     77  C   UNL A   1      43.103  25.367  26.160  1.00  0.00     0.023 A 
ATOM     78  C   UNL A   1      42.230  24.339  26.558  1.00  0.00     0.031 A 
ATOM     79  C   UNL A   1      44.155  25.023  25.292  1.00  0.00     0.131 A 
ATOM     80  C   UNL A   1      42.453  23.018  26.148  1.00  0.00     0.055 A 
ATOM     81  C   UNL A   1      44.363  23.705  24.863  1.00  0.00     0.041 A 
ATOM     82  F   UNL A   1      45.050  25.945  24.906  1.00  0.00    -0.206 F 
ATOM     83  C   UNL A   1      43.518  22.691  25.307  1.00  0.00     0.022 A 
BRANCH  80  84
ATOM     84  S   UNL A   1      41.420  21.674  26.794  1.00  0.00     0.124 S 
ATOM     85  O   UNL A   1      40.978  22.215  28.078  1.00  0.00    -0.237 OA
ATOM     86  O   UNL A   1      40.390  21.574  25.766  1.00  0.00    -0.237 OA
ATOM     87  O   UNL A   1      42.343  20.547  26.884  1.00  0.00    -0.744 OA
ENDBRANCH  80  84
ENDBRANCH  53  77
BRANCH  65  88
ATOM     88  C   UNL A   1      45.220  30.560  29.133  1.00  0.00     0.023 A 
ATOM     89  C   UNL A   1      46.541  31.037  29.197  1.00  0.00     0.031 A 
ATOM     90  C   UNL A   1      44.290  31.324  28.402  1.00  0.00     0.131 A 
ATOM     91  C   UNL A   1      46.886  32.257  28.606  1.00  0.00     0.055 A 
ATOM     92  C   UNL A   1      44.657  32.504  27.745  1.00  0.00     0.041 A 
ATOM     93  F   UNL A   1      42.989  31.007  28.373  1.00  0.00    -0.206 F 
ATOM     94  C   UNL A   1      45.956  32.987  27.863  1.00  0.00     0.022 A 
BRANCH  91  95
ATOM     95  S   UNL A   1      48.502  33.002  28.940  1.00  0.00     0.124 S 
ATOM     96  O   UNL A   1      48.138  34.208  29.680  1.00  0.00    -0.237 OA
ATOM     97  O   UNL A   1      49.169  31.965  29.723  1.00  0.00    -0.237 OA
ATOM     98  O   UNL A   1      49.067  33.231  27.614  1.00  0.00    -0.744 OA
ENDBRANCH  91  95
ENDBRANCH  65  88
ENDBRANCH  39  40
ENDBRANCH  31  34
ENDBRANCH  29  30
ENDBRANCH   1  29
TORSDOF 17
ENDMDL
MODEL 3
REMARK VINA RESULT:     -12.9      1.814      2.232
REMARK SMILES Cc1c(CC(=O)NCCCNC(=O)c2ccc(-c3c4nc(c(-c5cc(S(=O)(=O)[O-])ccc5F)c5ccc([nH]5)c(-c5cc(S(=O)(=O)[O-])ccc5F)c5nc(c(-c6cc(S(=O)(=O)[O-])ccc6F)c6ccc3[nH]6)C=C5)C=C4)cc2)c2cc(O)ccc2n1C(=O)c1ccc(Cl)cc1
REMARK SMILES IDX 9 1 8 2 7 3 5 4 6 5 4 7 3 8 1 9 2 10 84 11 77 12 83 13 78 14
REMARK SMILES IDX 82 15 79 16 81 17 85 18 86 19 87 20 88 21 93 22 89 23 92 24
REMARK SMILES IDX 90 25 91 26 80 27 10 29 11 30 12 31 13 33 14 34 15 35 76 36
REMARK SMILES IDX 16 37 75 38 17 39 18 40 19 41 69 42 20 43 74 44 68 45 70 46
REMARK SMILES IDX 21 47 73 48 67 49 66 50 22 52 54 53 34 54 53 55 35 56 38 57
REMARK SMILES IDX 52 58 71 59 36 60 37 61 51 63 72 64 39 65 23 66 24 67 32 68
REMARK SMILES IDX 25 69 31 70 33 71 30 72 26 73 27 74 28 75 29 76 55 77 56 78
REMARK SMILES IDX 64 79 57 80 63 81 65 82 62 83 58 84 59 85 60 86 61 87 40 88
REMARK SMILES IDX 41 89 49 90 42 91 48 92 50 93 47 94 43 95 44 96 45 97 46 98
REMARK H PARENT 7 6 80 28 11 32 70 51 38 62
REMARK Flexibility Score: inf
ROOT
ATOM      1  C   UNL A   1      37.716  22.011  25.021  1.00  0.00     0.042 C 
ENDROOT
BRANCH   1   2
ATOM      2  C   UNL A   1      36.553  22.831  24.454  1.00  0.00     0.117 C 
BRANCH   2   3
ATOM      3  N   UNL A   1      35.378  22.813  25.312  1.00  0.00    -0.356 N 
ATOM      4  C   UNL A   1      34.362  23.719  25.409  1.00  0.00     0.224 C 
ATOM      5  O   UNL A   1      33.434  23.474  26.185  1.00  0.00    -0.275 OA
ATOM      6  H   UNL A   1      35.305  22.034  25.909  1.00  0.00     0.163 HD
BRANCH   4   7
ATOM      7  C   UNL A   1      34.349  24.962  24.533  1.00  0.00     0.138 C 
BRANCH   7   8
ATOM      8  C   UNL A   1      33.137  25.824  24.740  1.00  0.00    -0.009 A 
ATOM      9  C   UNL A   1      31.418  24.552  23.269  1.00  0.00     0.065 C 
ATOM     10  C   UNL A   1      31.882  25.653  24.173  1.00  0.00     0.028 A 
ATOM     11  N   UNL A   1      31.067  26.741  24.531  1.00  0.00    -0.280 N 
ATOM     12  C   UNL A   1      33.057  26.953  25.602  1.00  0.00     0.008 A 
ATOM     13  C   UNL A   1      31.754  27.465  25.523  1.00  0.00     0.057 A 
ATOM     14  C   UNL A   1      33.995  27.566  26.465  1.00  0.00     0.056 A 
ATOM     15  C   UNL A   1      31.372  28.537  26.358  1.00  0.00     0.031 A 
ATOM     16  C   UNL A   1      33.619  28.667  27.225  1.00  0.00     0.116 A 
ATOM     17  C   UNL A   1      32.323  29.146  27.185  1.00  0.00     0.048 A 
BRANCH  11  18
ATOM     18  C   UNL A   1      29.785  27.023  23.973  1.00  0.00     0.262 C 
ATOM     19  O   UNL A   1      28.860  26.245  24.220  1.00  0.00    -0.268 OA
BRANCH  18  20
ATOM     20  C   UNL A   1      29.434  28.179  23.133  1.00  0.00     0.040 A 
ATOM     21  C   UNL A   1      30.410  28.909  22.446  1.00  0.00     0.015 A 
ATOM     22  C   UNL A   1      28.081  28.525  23.027  1.00  0.00     0.015 A 
ATOM     23  C   UNL A   1      30.035  30.057  21.742  1.00  0.00     0.021 A 
ATOM     24  C   UNL A   1      27.711  29.662  22.309  1.00  0.00     0.021 A 
ATOM     25  C   UNL A   1      28.692  30.439  21.692  1.00  0.00     0.041 A 
ATOM     26  Cl  UNL A   1      28.249  31.899  20.899  1.00  0.00    -0.084 Cl
ENDBRANCH  18  20
ENDBRANCH  11  18
BRANCH  16  27
ATOM     27  O   UNL A   1      34.565  29.244  28.020  1.00  0.00    -0.508 OA
ATOM     28  H   UNL A   1      34.431  30.108  28.357  1.00  0.00     0.293 HD
ENDBRANCH  16  27
ENDBRANCH   7   8
ENDBRANCH   4   7
ENDBRANCH   2   3
ENDBRANCH   1   2
BRANCH   1  29
ATOM     29  C   UNL A   1      38.231  22.522  26.367  1.00  0.00     0.118 C 
BRANCH  29  30
ATOM     30  N   UNL A   1      39.548  22.022  26.713  1.00  0.00    -0.352 N 
ATOM     31  C   UNL A   1      40.651  22.508  27.354  1.00  0.00     0.251 C 
ATOM     32  H   UNL A   1      39.679  21.096  26.408  1.00  0.00     0.163 HD
ATOM     33  O   UNL A   1      41.560  21.687  27.511  1.00  0.00    -0.269 OA
BRANCH  31  34
ATOM     34  C   UNL A   1      40.864  23.910  27.806  1.00  0.00     0.039 A 
ATOM     35  C   UNL A   1      41.998  24.405  28.449  1.00  0.00     0.014 A 
ATOM     36  C   UNL A   1      39.775  24.783  27.602  1.00  0.00     0.014 A 
ATOM     37  C   UNL A   1      42.001  25.705  28.960  1.00  0.00     0.010 A 
ATOM     38  C   UNL A   1      39.777  26.081  28.101  1.00  0.00     0.010 A 
ATOM     39  C   UNL A   1      40.872  26.524  28.831  1.00  0.00    -0.014 A 
BRANCH  39  40
ATOM     40  C   UNL A   1      40.914  27.871  29.402  1.00  0.00     0.031 A 
ATOM     41  C   UNL A   1      41.806  28.823  28.678  1.00  0.00     0.074 A 
ATOM     42  C   UNL A   1      40.138  28.283  30.428  1.00  0.00     0.049 A 
ATOM     43  N   UNL A   1      42.900  29.371  29.097  1.00  0.00    -0.248 NA
ATOM     44  C   UNL A   1      41.513  29.083  27.261  1.00  0.00     0.031 C 
ATOM     45  C   UNL A   1      39.001  27.588  31.040  1.00  0.00     0.029 A 
ATOM     46  N   UNL A   1      40.152  29.475  31.090  1.00  0.00    -0.354 N 
ATOM     47  C   UNL A   1      43.336  30.205  28.065  1.00  0.00     0.074 A 
ATOM     48  C   UNL A   1      42.539  29.862  26.914  1.00  0.00     0.031 C 
ATOM     49  C   UNL A   1      38.302  28.458  31.806  1.00  0.00     0.029 A 
ATOM     50  C   UNL A   1      39.027  29.717  31.869  1.00  0.00     0.049 A 
ATOM     51  H   UNL A   1      40.899  30.113  31.021  1.00  0.00     0.167 HD
ATOM     52  C   UNL A   1      44.188  31.248  28.288  1.00  0.00     0.034 A 
ATOM     53  C   UNL A   1      38.683  30.881  32.477  1.00  0.00     0.034 A 
ATOM     54  C   UNL A   1      44.821  31.135  29.573  1.00  0.00     0.049 A 
ATOM     55  C   UNL A   1      39.895  31.729  32.566  1.00  0.00     0.074 A 
ATOM     56  C   UNL A   1      45.697  30.241  30.152  1.00  0.00     0.029 A 
ATOM     57  N   UNL A   1      44.292  31.868  30.606  1.00  0.00    -0.354 N 
ATOM     58  N   UNL A   1      40.913  31.470  33.336  1.00  0.00    -0.248 NA
ATOM     59  C   UNL A   1      40.158  32.634  31.459  1.00  0.00     0.031 C 
ATOM     60  C   UNL A   1      45.291  30.160  31.514  1.00  0.00     0.029 A 
ATOM     61  C   UNL A   1      44.236  31.054  31.706  1.00  0.00     0.049 A 
ATOM     62  H   UNL A   1      44.004  32.809  30.564  1.00  0.00     0.167 HD
ATOM     63  C   UNL A   1      42.017  31.783  32.560  1.00  0.00     0.074 A 
ATOM     64  C   UNL A   1      41.490  32.586  31.456  1.00  0.00     0.031 C 
ATOM     65  C   UNL A   1      43.205  31.132  32.721  1.00  0.00     0.034 A 
BRANCH  52  66
ATOM     66  C   UNL A   1      44.191  32.538  27.497  1.00  0.00     0.023 A 
ATOM     67  C   UNL A   1      43.448  33.671  27.874  1.00  0.00     0.031 A 
ATOM     68  C   UNL A   1      45.134  32.741  26.466  1.00  0.00     0.131 A 
ATOM     69  C   UNL A   1      43.641  34.918  27.262  1.00  0.00     0.055 A 
ATOM     70  C   UNL A   1      45.374  34.001  25.899  1.00  0.00     0.041 A 
ATOM     71  F   UNL A   1      45.899  31.734  26.018  1.00  0.00    -0.206 F 
ATOM     72  C   UNL A   1      44.628  35.099  26.300  1.00  0.00     0.022 A 
BRANCH  69  73
ATOM     73  S   UNL A   1      42.611  36.336  27.729  1.00  0.00     0.124 S 
ATOM     74  O   UNL A   1      43.370  36.909  28.834  1.00  0.00    -0.237 OA
ATOM     75  O   UNL A   1      42.605  37.114  26.493  1.00  0.00    -0.237 OA
ATOM     76  O   UNL A   1      41.332  35.727  28.081  1.00  0.00    -0.744 OA
ENDBRANCH  69  73
ENDBRANCH  52  66
BRANCH  53  77
ATOM     77  C   UNL A   1      37.331  31.493  32.515  1.00  0.00     0.023 A 
ATOM     78  C   UNL A   1      36.669  31.775  31.306  1.00  0.00     0.031 A 
ATOM     79  C   UNL A   1      36.842  32.113  33.679  1.00  0.00     0.131 A 
ATOM     80  C   UNL A   1      35.609  32.691  31.272  1.00  0.00     0.055 A 
ATOM     81  C   UNL A   1      35.766  33.010  33.647  1.00  0.00     0.041 A 
ATOM     82  F   UNL A   1      37.450  31.922  34.861  1.00  0.00    -0.206 F 
ATOM     83  C   UNL A   1      35.155  33.316  32.434  1.00  0.00     0.022 A 
BRANCH  80  84
ATOM     84  S   UNL A   1      34.868  33.171  29.687  1.00  0.00     0.124 S 
ATOM     85  O   UNL A   1      35.971  33.871  29.032  1.00  0.00    -0.237 OA
ATOM     86  O   UNL A   1      34.521  31.873  29.119  1.00  0.00    -0.237 OA
ATOM     87  O   UNL A   1      33.745  34.017  30.079  1.00  0.00    -0.744 OA
ENDBRANCH  80  84
ENDBRANCH  53  77
BRANCH  65  88
ATOM     88  C   UNL A   1      43.389  30.226  33.919  1.00  0.00     0.023 A 
ATOM     89  C   UNL A   1      42.773  28.963  33.860  1.00  0.00     0.031 A 
ATOM     90  C   UNL A   1      43.917  30.631  35.160  1.00  0.00     0.131 A 
ATOM     91  C   UNL A   1      42.641  28.182  35.013  1.00  0.00     0.055 A 
ATOM     92  C   UNL A   1      43.853  29.813  36.294  1.00  0.00     0.041 A 
ATOM     93  F   UNL A   1      44.427  31.857  35.340  1.00  0.00    -0.206 F 
ATOM     94  C   UNL A   1      43.194  28.590  36.229  1.00  0.00     0.022 A 
BRANCH  91  95
ATOM     95  S   UNL A   1      41.596  26.703  34.992  1.00  0.00     0.124 S 
ATOM     96  O   UNL A   1      41.244  26.555  36.402  1.00  0.00    -0.237 OA
ATOM     97  O   UNL A   1      40.501  27.107  34.113  1.00  0.00    -0.237 OA
ATOM     98  O   UNL A   1      42.466  25.662  34.453  1.00  0.00    -0.744 OA
ENDBRANCH  91  95
ENDBRANCH  65  88
ENDBRANCH  39  40
ENDBRANCH  31  34
ENDBRANCH  29  30
ENDBRANCH   1  29
TORSDOF 17
ENDMDL
