MODEL 1
REMARK VINA RESULT:     -12.2      0.000      0.000
REMARK SMILES CC[C@](C)(NC(=O)CNC(=O)c1cccc(Cl)c1)C(=O)NCCCNC(=O)c1ccc(-c2c3nc(c(-c4cc(S(=O)(=O)[O-])ccc4F)c4ccc([nH]4)c(-c4cc(S(=O)(=O)[O-])ccc4F)c4nc(c(-c5cc(S(=O)(=O)[O-])ccc5F)c5ccc2[nH]5)C=C4)C=C3)cc1
REMARK SMILES IDX 22 1 21 2 19 3 20 4 3 6 4 7 2 8 1 9 5 10 6 11 7 13 8 14 9 15
REMARK SMILES IDX 10 16 11 18 12 19 13 20 18 21 14 22 16 23 15 24 17 25 23 26
REMARK SMILES IDX 24 27 25 28 26 29 27 31 28 32 29 33 90 34 30 35 89 36 31 37
REMARK SMILES IDX 32 38 33 39 83 40 34 41 88 42 82 43 84 44 35 45 87 46 81 47
REMARK SMILES IDX 80 48 36 50 68 51 48 52 67 53 49 54 52 55 66 56 85 57 50 58
REMARK SMILES IDX 51 59 65 61 86 62 53 63 37 64 38 65 46 66 39 67 45 68 47 69
REMARK SMILES IDX 44 70 40 71 41 72 42 73 43 74 69 75 70 76 78 77 71 78 77 79
REMARK SMILES IDX 79 80 76 81 72 82 73 83 74 84 75 85 54 86 55 87 63 88 56 89
REMARK SMILES IDX 62 90 64 91 61 92 57 93 58 94 59 95 60 96
REMARK H PARENT 21 5 5 12 9 17 25 30 84 49 52 60
REMARK Flexibility Score: inf
ROOT
ATOM      1  C   UNL A   1      31.746  30.543  26.079  1.00  0.00     0.117 C 
ENDROOT
BRANCH   1   2
ATOM      2  N   UNL A   1      31.157  30.178  24.796  1.00  0.00    -0.354 N 
ATOM      3  C   UNL A   1      31.221  29.019  24.059  1.00  0.00     0.245 C 
ATOM      4  O   UNL A   1      30.269  28.768  23.318  1.00  0.00    -0.272 OA
ATOM      5  H   UNL A   1      30.615  30.888  24.383  1.00  0.00     0.163 HD
BRANCH   3   6
ATOM      6  C   UNL A   1      32.331  27.968  24.252  1.00  0.00     0.116 C 
ATOM      7  C   UNL A   1      33.743  28.503  23.937  1.00  0.00     0.045 C 
BRANCH   6   8
ATOM      8  C   UNL A   1      32.002  26.829  23.232  1.00  0.00     0.035 C 
ATOM      9  C   UNL A   1      33.139  25.823  23.005  1.00  0.00     0.007 C 
ENDBRANCH   6   8
BRANCH   6  10
ATOM     10  N   UNL A   1      32.348  27.478  25.642  1.00  0.00    -0.340 N 
ATOM     11  C   UNL A   1      31.311  26.938  26.364  1.00  0.00     0.240 C 
ATOM     12  H   UNL A   1      33.211  27.544  26.111  1.00  0.00     0.164 HD
ATOM     13  O   UNL A   1      31.355  27.085  27.589  1.00  0.00    -0.273 OA
BRANCH  11  14
ATOM     14  C   UNL A   1      30.201  26.060  25.719  1.00  0.00     0.216 C 
BRANCH  14  15
ATOM     15  N   UNL A   1      29.631  24.931  26.431  1.00  0.00    -0.343 N 
ATOM     16  C   UNL A   1      30.172  23.717  26.801  1.00  0.00     0.251 C 
ATOM     17  H   UNL A   1      28.691  25.052  26.697  1.00  0.00     0.164 HD
ATOM     18  O   UNL A   1      29.543  23.000  27.576  1.00  0.00    -0.269 OA
BRANCH  16  19
ATOM     19  C   UNL A   1      31.435  23.184  26.223  1.00  0.00     0.041 A 
ATOM     20  C   UNL A   1      32.652  23.135  26.904  1.00  0.00     0.014 A 
ATOM     21  C   UNL A   1      31.370  22.719  24.900  1.00  0.00     0.034 A 
ATOM     22  C   UNL A   1      33.818  22.745  26.227  1.00  0.00     0.002 A 
ATOM     23  C   UNL A   1      32.536  22.371  24.220  1.00  0.00     0.041 A 
ATOM     24  C   UNL A   1      33.765  22.399  24.873  1.00  0.00     0.020 A 
ATOM     25  Cl  UNL A   1      32.467  21.983  22.544  1.00  0.00    -0.084 Cl
ENDBRANCH  16  19
ENDBRANCH  14  15
ENDBRANCH  11  14
ENDBRANCH   6  10
ENDBRANCH   3   6
ENDBRANCH   1   2
BRANCH   1  26
ATOM     26  C   UNL A   1      31.559  31.974  26.582  1.00  0.00     0.042 C 
BRANCH  26  27
ATOM     27  C   UNL A   1      32.726  32.658  27.281  1.00  0.00     0.118 C 
BRANCH  27  28
ATOM     28  N   UNL A   1      32.469  34.027  27.678  1.00  0.00    -0.352 N 
ATOM     29  C   UNL A   1      33.128  34.807  28.598  1.00  0.00     0.251 C 
ATOM     30  H   UNL A   1      31.713  34.461  27.223  1.00  0.00     0.163 HD
ATOM     31  O   UNL A   1      32.706  35.939  28.825  1.00  0.00    -0.269 OA
BRANCH  29  32
ATOM     32  C   UNL A   1      34.302  34.288  29.338  1.00  0.00     0.039 A 
ATOM     33  C   UNL A   1      34.080  33.624  30.548  1.00  0.00     0.014 A 
ATOM     34  C   UNL A   1      35.609  34.455  28.869  1.00  0.00     0.014 A 
ATOM     35  C   UNL A   1      35.154  33.075  31.254  1.00  0.00     0.010 A 
ATOM     36  C   UNL A   1      36.676  33.854  29.544  1.00  0.00     0.010 A 
ATOM     37  C   UNL A   1      36.460  33.154  30.743  1.00  0.00    -0.014 A 
BRANCH  37  38
ATOM     38  C   UNL A   1      37.597  32.508  31.459  1.00  0.00     0.031 A 
ATOM     39  C   UNL A   1      38.335  31.352  30.837  1.00  0.00     0.074 A 
ATOM     40  C   UNL A   1      37.950  32.943  32.687  1.00  0.00     0.049 A 
ATOM     41  N   UNL A   1      39.328  30.646  31.319  1.00  0.00    -0.248 NA
ATOM     42  C   UNL A   1      37.882  30.920  29.508  1.00  0.00     0.031 C 
ATOM     43  C   UNL A   1      37.299  34.036  33.412  1.00  0.00     0.029 A 
ATOM     44  N   UNL A   1      38.940  32.524  33.542  1.00  0.00    -0.354 N 
ATOM     45  C   UNL A   1      39.616  29.685  30.356  1.00  0.00     0.074 A 
ATOM     46  C   UNL A   1      38.651  29.864  29.291  1.00  0.00     0.031 C 
ATOM     47  C   UNL A   1      37.922  34.217  34.588  1.00  0.00     0.029 A 
ATOM     48  C   UNL A   1      38.985  33.226  34.725  1.00  0.00     0.049 A 
ATOM     49  H   UNL A   1      39.559  31.789  33.329  1.00  0.00     0.167 HD
ATOM     50  C   UNL A   1      40.606  28.758  30.348  1.00  0.00     0.034 A 
ATOM     51  C   UNL A   1      39.782  33.084  35.805  1.00  0.00     0.034 A 
ATOM     52  C   UNL A   1      41.565  28.592  31.416  1.00  0.00     0.049 A 
ATOM     53  C   UNL A   1      40.846  32.013  35.794  1.00  0.00     0.074 A 
ATOM     54  C   UNL A   1      42.633  27.713  31.485  1.00  0.00     0.029 A 
ATOM     55  N   UNL A   1      41.565  29.307  32.607  1.00  0.00    -0.354 N 
ATOM     56  N   UNL A   1      41.137  31.147  34.850  1.00  0.00    -0.248 NA
ATOM     57  C   UNL A   1      41.696  31.910  36.986  1.00  0.00     0.031 C 
ATOM     58  C   UNL A   1      43.230  27.844  32.744  1.00  0.00     0.029 A 
ATOM     59  C   UNL A   1      42.591  28.864  33.429  1.00  0.00     0.049 A 
ATOM     60  H   UNL A   1      40.930  30.024  32.834  1.00  0.00     0.167 HD
ATOM     61  C   UNL A   1      42.225  30.420  35.327  1.00  0.00     0.074 A 
ATOM     62  C   UNL A   1      42.547  30.959  36.630  1.00  0.00     0.031 C 
ATOM     63  C   UNL A   1      42.900  29.400  34.735  1.00  0.00     0.034 A 
BRANCH  50  64
ATOM     64  C   UNL A   1      40.682  27.831  29.156  1.00  0.00     0.023 A 
ATOM     65  C   UNL A   1      41.629  28.017  28.133  1.00  0.00     0.031 A 
ATOM     66  C   UNL A   1      39.782  26.757  29.029  1.00  0.00     0.131 A 
ATOM     67  C   UNL A   1      41.602  27.198  26.995  1.00  0.00     0.055 A 
ATOM     68  C   UNL A   1      39.818  25.891  27.933  1.00  0.00     0.041 A 
ATOM     69  F   UNL A   1      38.843  26.537  29.961  1.00  0.00    -0.206 F 
ATOM     70  C   UNL A   1      40.721  26.119  26.900  1.00  0.00     0.022 A 
BRANCH  67  71
ATOM     71  S   UNL A   1      42.631  27.660  25.574  1.00  0.00     0.124 S 
ATOM     72  O   UNL A   1      42.562  26.451  24.756  1.00  0.00    -0.237 OA
ATOM     73  O   UNL A   1      41.936  28.828  25.047  1.00  0.00    -0.237 OA
ATOM     74  O   UNL A   1      43.938  27.925  26.169  1.00  0.00    -0.744 OA
ENDBRANCH  67  71
ENDBRANCH  50  64
BRANCH  51  75
ATOM     75  C   UNL A   1      39.602  33.960  37.000  1.00  0.00     0.023 A 
ATOM     76  C   UNL A   1      39.005  33.473  38.175  1.00  0.00     0.031 A 
ATOM     77  C   UNL A   1      39.976  35.314  36.967  1.00  0.00     0.131 A 
ATOM     78  C   UNL A   1      38.754  34.344  39.246  1.00  0.00     0.055 A 
ATOM     79  C   UNL A   1      39.778  36.164  38.056  1.00  0.00     0.041 A 
ATOM     80  F   UNL A   1      40.552  35.834  35.870  1.00  0.00    -0.206 F 
ATOM     81  C   UNL A   1      39.150  35.682  39.201  1.00  0.00     0.022 A 
BRANCH  78  82
ATOM     82  S   UNL A   1      37.816  33.724  40.670  1.00  0.00     0.124 S 
ATOM     83  O   UNL A   1      38.808  32.890  41.337  1.00  0.00    -0.237 OA
ATOM     84  O   UNL A   1      37.452  34.961  41.354  1.00  0.00    -0.237 OA
ATOM     85  O   UNL A   1      36.703  33.003  40.056  1.00  0.00    -0.744 OA
ENDBRANCH  78  82
ENDBRANCH  51  75
BRANCH  63  86
ATOM     86  C   UNL A   1      44.089  28.836  35.479  1.00  0.00     0.023 A 
ATOM     87  C   UNL A   1      43.960  27.776  36.392  1.00  0.00     0.031 A 
ATOM     88  C   UNL A   1      45.371  29.378  35.273  1.00  0.00     0.131 A 
ATOM     89  C   UNL A   1      45.081  27.329  37.108  1.00  0.00     0.055 A 
ATOM     90  C   UNL A   1      46.494  28.884  35.939  1.00  0.00     0.041 A 
ATOM     91  F   UNL A   1      45.554  30.394  34.415  1.00  0.00    -0.206 F 
ATOM     92  C   UNL A   1      46.351  27.864  36.873  1.00  0.00     0.022 A 
BRANCH  89  93
ATOM     93  S   UNL A   1      44.845  26.102  38.424  1.00  0.00     0.124 S 
ATOM     94  O   UNL A   1      46.187  25.548  38.566  1.00  0.00    -0.237 OA
ATOM     95  O   UNL A   1      44.373  26.922  39.535  1.00  0.00    -0.237 OA
ATOM     96  O   UNL A   1      43.851  25.187  37.866  1.00  0.00    -0.744 OA
ENDBRANCH  89  93
ENDBRANCH  63  86
ENDBRANCH  37  38
ENDBRANCH  29  32
ENDBRANCH  27  28
ENDBRANCH  26  27
ENDBRANCH   1  26
TORSDOF 18
ENDMDL
MODEL 2
REMARK VINA RESULT:     -11.6      5.795     10.871
REMARK SMILES CC[C@](C)(NC(=O)CNC(=O)c1cccc(Cl)c1)C(=O)NCCCNC(=O)c1ccc(-c2c3nc(c(-c4cc(S(=O)(=O)[O-])ccc4F)c4ccc([nH]4)c(-c4cc(S(=O)(=O)[O-])ccc4F)c4nc(c(-c5cc(S(=O)(=O)[O-])ccc5F)c5ccc2[nH]5)C=C4)C=C3)cc1
REMARK SMILES IDX 22 1 21 2 19 3 20 4 3 6 4 7 2 8 1 9 5 10 6 11 7 13 8 14 9 15
REMARK SMILES IDX 10 16 11 18 12 19 13 20 18 21 14 22 16 23 15 24 17 25 23 26
REMARK SMILES IDX 24 27 25 28 26 29 27 31 28 32 29 33 90 34 30 35 89 36 31 37
REMARK SMILES IDX 32 38 33 39 83 40 34 41 88 42 82 43 84 44 35 45 87 46 81 47
REMARK SMILES IDX 80 48 36 50 68 51 48 52 67 53 49 54 52 55 66 56 85 57 50 58
REMARK SMILES IDX 51 59 65 61 86 62 53 63 37 64 38 65 46 66 39 67 45 68 47 69
REMARK SMILES IDX 44 70 40 71 41 72 42 73 43 74 69 75 70 76 78 77 71 78 77 79
REMARK SMILES IDX 79 80 76 81 72 82 73 83 74 84 75 85 54 86 55 87 63 88 56 89
REMARK SMILES IDX 62 90 64 91 61 92 57 93 58 94 59 95 60 96
REMARK H PARENT 21 5 5 12 9 17 25 30 84 49 52 60
REMARK Flexibility Score: inf
ROOT
ATOM      1  C   UNL A   1      35.012  23.061  24.124  1.00  0.00     0.117 C 
ENDROOT
BRANCH   1   2
ATOM      2  N   UNL A   1      33.673  22.777  23.618  1.00  0.00    -0.354 N 
ATOM      3  C   UNL A   1      32.487  22.532  24.267  1.00  0.00     0.245 C 
ATOM      4  O   UNL A   1      31.448  22.832  23.675  1.00  0.00    -0.272 OA
ATOM      5  H   UNL A   1      33.608  22.757  22.636  1.00  0.00     0.163 HD
BRANCH   3   6
ATOM      6  C   UNL A   1      32.418  22.069  25.734  1.00  0.00     0.116 C 
ATOM      7  C   UNL A   1      33.282  22.919  26.687  1.00  0.00     0.045 C 
BRANCH   6   8
ATOM      8  C   UNL A   1      32.983  20.611  25.733  1.00  0.00     0.035 C 
ATOM      9  C   UNL A   1      32.521  19.743  24.553  1.00  0.00     0.007 C 
ENDBRANCH   6   8
BRANCH   6  10
ATOM     10  N   UNL A   1      31.032  22.124  26.233  1.00  0.00    -0.340 N 
ATOM     11  C   UNL A   1      30.378  23.189  26.804  1.00  0.00     0.240 C 
ATOM     12  H   UNL A   1      30.509  21.294  26.146  1.00  0.00     0.164 HD
ATOM     13  O   UNL A   1      29.479  22.921  27.606  1.00  0.00    -0.273 OA
BRANCH  11  14
ATOM     14  C   UNL A   1      30.633  24.663  26.377  1.00  0.00     0.216 C 
BRANCH  14  15
ATOM     15  N   UNL A   1      29.952  25.239  25.232  1.00  0.00    -0.343 N 
ATOM     16  C   UNL A   1      30.343  26.207  24.330  1.00  0.00     0.251 C 
ATOM     17  H   UNL A   1      29.051  24.876  25.070  1.00  0.00     0.164 HD
ATOM     18  O   UNL A   1      29.663  26.386  23.321  1.00  0.00    -0.269 OA
BRANCH  16  19
ATOM     19  C   UNL A   1      31.491  27.121  24.570  1.00  0.00     0.041 A 
ATOM     20  C   UNL A   1      32.828  26.777  24.360  1.00  0.00     0.014 A 
ATOM     21  C   UNL A   1      31.181  28.403  25.051  1.00  0.00     0.034 A 
ATOM     22  C   UNL A   1      33.847  27.659  24.750  1.00  0.00     0.002 A 
ATOM     23  C   UNL A   1      32.196  29.259  25.473  1.00  0.00     0.041 A 
ATOM     24  C   UNL A   1      33.531  28.886  25.340  1.00  0.00     0.020 A 
ATOM     25  Cl  UNL A   1      31.798  30.751  26.234  1.00  0.00    -0.084 Cl
ENDBRANCH  16  19
ENDBRANCH  14  15
ENDBRANCH  11  14
ENDBRANCH   6  10
ENDBRANCH   3   6
ENDBRANCH   1   2
BRANCH   1  26
ATOM     26  C   UNL A   1      36.000  21.902  24.255  1.00  0.00     0.042 C 
BRANCH  26  27
ATOM     27  C   UNL A   1      36.545  21.563  25.636  1.00  0.00     0.118 C 
BRANCH  27  28
ATOM     28  N   UNL A   1      37.599  20.570  25.637  1.00  0.00    -0.352 N 
ATOM     29  C   UNL A   1      38.935  20.716  25.923  1.00  0.00     0.251 C 
ATOM     30  H   UNL A   1      37.317  19.658  25.398  1.00  0.00     0.163 HD
ATOM     31  O   UNL A   1      39.676  19.742  25.810  1.00  0.00    -0.269 OA
BRANCH  29  32
ATOM     32  C   UNL A   1      39.491  22.031  26.323  1.00  0.00     0.039 A 
ATOM     33  C   UNL A   1      40.539  22.053  27.247  1.00  0.00     0.014 A 
ATOM     34  C   UNL A   1      38.989  23.233  25.814  1.00  0.00     0.014 A 
ATOM     35  C   UNL A   1      41.125  23.268  27.613  1.00  0.00     0.010 A 
ATOM     36  C   UNL A   1      39.615  24.443  26.135  1.00  0.00     0.010 A 
ATOM     37  C   UNL A   1      40.692  24.473  27.036  1.00  0.00    -0.014 A 
BRANCH  37  38
ATOM     38  C   UNL A   1      41.364  25.761  27.373  1.00  0.00     0.031 A 
ATOM     39  C   UNL A   1      40.648  26.807  28.185  1.00  0.00     0.074 A 
ATOM     40  C   UNL A   1      42.614  26.002  26.924  1.00  0.00     0.049 A 
ATOM     41  N   UNL A   1      41.059  27.996  28.552  1.00  0.00    -0.248 NA
ATOM     42  C   UNL A   1      39.284  26.482  28.622  1.00  0.00     0.031 C 
ATOM     43  C   UNL A   1      43.406  25.082  26.105  1.00  0.00     0.029 A 
ATOM     44  N   UNL A   1      43.437  27.089  27.090  1.00  0.00    -0.354 N 
ATOM     45  C   UNL A   1      40.004  28.562  29.260  1.00  0.00     0.074 A 
ATOM     46  C   UNL A   1      38.915  27.608  29.215  1.00  0.00     0.031 C 
ATOM     47  C   UNL A   1      44.607  25.632  25.864  1.00  0.00     0.029 A 
ATOM     48  C   UNL A   1      44.658  26.961  26.467  1.00  0.00     0.049 A 
ATOM     49  H   UNL A   1      43.178  27.886  27.605  1.00  0.00     0.167 HD
ATOM     50  C   UNL A   1      39.955  29.754  29.907  1.00  0.00     0.034 A 
ATOM     51  C   UNL A   1      45.696  27.817  26.377  1.00  0.00     0.034 A 
ATOM     52  C   UNL A   1      41.049  30.696  29.946  1.00  0.00     0.049 A 
ATOM     53  C   UNL A   1      45.601  29.158  27.065  1.00  0.00     0.074 A 
ATOM     54  C   UNL A   1      41.117  31.910  30.610  1.00  0.00     0.029 A 
ATOM     55  N   UNL A   1      42.261  30.541  29.285  1.00  0.00    -0.354 N 
ATOM     56  N   UNL A   1      44.613  29.654  27.774  1.00  0.00    -0.248 NA
ATOM     57  C   UNL A   1      46.764  30.046  26.950  1.00  0.00     0.031 C 
ATOM     58  C   UNL A   1      42.335  32.520  30.290  1.00  0.00     0.029 A 
ATOM     59  C   UNL A   1      43.065  31.651  29.496  1.00  0.00     0.049 A 
ATOM     60  H   UNL A   1      42.512  29.756  28.746  1.00  0.00     0.167 HD
ATOM     61  C   UNL A   1      45.052  30.900  28.215  1.00  0.00     0.074 A 
ATOM     62  C   UNL A   1      46.397  31.070  27.707  1.00  0.00     0.031 C 
ATOM     63  C   UNL A   1      44.403  31.818  28.977  1.00  0.00     0.034 A 
BRANCH  50  64
ATOM     64  C   UNL A   1      38.661  30.117  30.599  1.00  0.00     0.023 A 
ATOM     65  C   UNL A   1      37.629  30.797  29.929  1.00  0.00     0.031 A 
ATOM     66  C   UNL A   1      38.462  29.796  31.954  1.00  0.00     0.131 A 
ATOM     67  C   UNL A   1      36.485  31.205  30.632  1.00  0.00     0.055 A 
ATOM     68  C   UNL A   1      37.283  30.129  32.626  1.00  0.00     0.041 A 
ATOM     69  F   UNL A   1      39.416  29.164  32.655  1.00  0.00    -0.206 F 
ATOM     70  C   UNL A   1      36.293  30.852  31.969  1.00  0.00     0.022 A 
BRANCH  67  71
ATOM     71  S   UNL A   1      35.326  32.336  29.814  1.00  0.00     0.124 S 
ATOM     72  O   UNL A   1      34.398  32.643  30.900  1.00  0.00    -0.237 OA
ATOM     73  O   UNL A   1      36.196  33.427  29.390  1.00  0.00    -0.237 OA
ATOM     74  O   UNL A   1      34.764  31.529  28.735  1.00  0.00    -0.744 OA
ENDBRANCH  67  71
ENDBRANCH  50  64
BRANCH  51  75
ATOM     75  C   UNL A   1      46.915  27.453  25.596  1.00  0.00     0.023 A 
ATOM     76  C   UNL A   1      47.065  27.850  24.257  1.00  0.00     0.031 A 
ATOM     77  C   UNL A   1      47.923  26.653  26.161  1.00  0.00     0.131 A 
ATOM     78  C   UNL A   1      48.171  27.407  23.515  1.00  0.00     0.055 A 
ATOM     79  C   UNL A   1      49.051  26.263  25.437  1.00  0.00     0.041 A 
ATOM     80  F   UNL A   1      47.832  26.244  27.437  1.00  0.00    -0.206 F 
ATOM     81  C   UNL A   1      49.172  26.629  24.100  1.00  0.00     0.022 A 
BRANCH  78  82
ATOM     82  S   UNL A   1      48.237  27.786  21.743  1.00  0.00     0.124 S 
ATOM     83  O   UNL A   1      48.472  26.467  21.166  1.00  0.00    -0.237 OA
ATOM     84  O   UNL A   1      46.919  28.365  21.508  1.00  0.00    -0.237 OA
ATOM     85  O   UNL A   1      49.354  28.723  21.636  1.00  0.00    -0.744 OA
ENDBRANCH  78  82
ENDBRANCH  51  75
BRANCH  63  86
ATOM     86  C   UNL A   1      45.165  33.071  29.347  1.00  0.00     0.023 A 
ATOM     87  C   UNL A   1      45.102  34.237  28.567  1.00  0.00     0.031 A 
ATOM     88  C   UNL A   1      45.973  33.090  30.499  1.00  0.00     0.131 A 
ATOM     89  C   UNL A   1      45.877  35.355  28.914  1.00  0.00     0.055 A 
ATOM     90  C   UNL A   1      46.691  34.226  30.875  1.00  0.00     0.041 A 
ATOM     91  F   UNL A   1      46.076  32.003  31.280  1.00  0.00    -0.206 F 
ATOM     92  C   UNL A   1      46.657  35.363  30.074  1.00  0.00     0.022 A 
BRANCH  89  93
ATOM     93  S   UNL A   1      45.930  36.768  27.777  1.00  0.00     0.124 S 
ATOM     94  O   UNL A   1      46.960  37.606  28.384  1.00  0.00    -0.237 OA
ATOM     95  O   UNL A   1      46.286  36.137  26.511  1.00  0.00    -0.237 OA
ATOM     96  O   UNL A   1      44.574  37.309  27.839  1.00  0.00    -0.744 OA
ENDBRANCH  89  93
ENDBRANCH  63  86
ENDBRANCH  37  38
ENDBRANCH  29  32
ENDBRANCH  27  28
ENDBRANCH  26  27
ENDBRANCH   1  26
TORSDOF 18
ENDMDL
MODEL 3
REMARK VINA RESULT:     -11.5      5.772     11.062
REMARK SMILES CC[C@](C)(NC(=O)CNC(=O)c1cccc(Cl)c1)C(=O)NCCCNC(=O)c1ccc(-c2c3nc(c(-c4cc(S(=O)(=O)[O-])ccc4F)c4ccc([nH]4)c(-c4cc(S(=O)(=O)[O-])ccc4F)c4nc(c(-c5cc(S(=O)(=O)[O-])ccc5F)c5ccc2[nH]5)C=C4)C=C3)cc1
REMARK SMILES IDX 22 1 21 2 19 3 20 4 3 6 4 7 2 8 1 9 5 10 6 11 7 13 8 14 9 15
REMARK SMILES IDX 10 16 11 18 12 19 13 20 18 21 14 22 16 23 15 24 17 25 23 26
REMARK SMILES IDX 24 27 25 28 26 29 27 31 28 32 29 33 90 34 30 35 89 36 31 37
REMARK SMILES IDX 32 38 33 39 83 40 34 41 88 42 82 43 84 44 35 45 87 46 81 47
REMARK SMILES IDX 80 48 36 50 68 51 48 52 67 53 49 54 52 55 66 56 85 57 50 58
REMARK SMILES IDX 51 59 65 61 86 62 53 63 37 64 38 65 46 66 39 67 45 68 47 69
REMARK SMILES IDX 44 70 40 71 41 72 42 73 43 74 69 75 70 76 78 77 71 78 77 79
REMARK SMILES IDX 79 80 76 81 72 82 73 83 74 84 75 85 54 86 55 87 63 88 56 89
REMARK SMILES IDX 62 90 64 91 61 92 57 93 58 94 59 95 60 96
REMARK H PARENT 21 5 5 12 9 17 25 30 84 49 52 60
REMARK Flexibility Score: inf
ROOT
ATOM      1  C   UNL A   1      35.719  20.958  25.087  1.00  0.00     0.117 C 
ENDROOT
BRANCH   1   2
ATOM      2  N   UNL A   1      34.527  20.204  25.456  1.00  0.00    -0.354 N 
ATOM      3  C   UNL A   1      33.205  20.570  25.538  1.00  0.00     0.245 C 
ATOM      4  O   UNL A   1      32.364  19.687  25.360  1.00  0.00    -0.272 OA
ATOM      5  H   UNL A   1      34.700  19.263  25.689  1.00  0.00     0.163 HD
BRANCH   3   6
ATOM      6  C   UNL A   1      32.751  22.036  25.668  1.00  0.00     0.116 C 
ATOM      7  C   UNL A   1      32.822  22.820  24.341  1.00  0.00     0.045 C 
BRANCH   6   8
ATOM      8  C   UNL A   1      33.754  22.689  26.675  1.00  0.00     0.035 C 
ATOM      9  C   UNL A   1      34.365  24.017  26.202  1.00  0.00     0.007 C 
ENDBRANCH   6   8
BRANCH   6  10
ATOM     10  N   UNL A   1      31.359  22.109  26.147  1.00  0.00    -0.340 N 
ATOM     11  C   UNL A   1      30.673  23.213  26.593  1.00  0.00     0.240 C 
ATOM     12  H   UNL A   1      30.858  21.262  26.147  1.00  0.00     0.164 HD
ATOM     13  O   UNL A   1      29.773  23.011  27.413  1.00  0.00    -0.273 OA
BRANCH  11  14
ATOM     14  C   UNL A   1      30.896  24.637  26.010  1.00  0.00     0.216 C 
BRANCH  14  15
ATOM     15  N   UNL A   1      31.110  25.779  26.881  1.00  0.00    -0.343 N 
ATOM     16  C   UNL A   1      31.462  27.084  26.606  1.00  0.00     0.251 C 
ATOM     17  H   UNL A   1      30.982  25.588  27.838  1.00  0.00     0.164 HD
ATOM     18  O   UNL A   1      31.388  27.920  27.505  1.00  0.00    -0.269 OA
BRANCH  16  19
ATOM     19  C   UNL A   1      32.029  27.511  25.299  1.00  0.00     0.041 A 
ATOM     20  C   UNL A   1      33.380  27.419  24.960  1.00  0.00     0.014 A 
ATOM     21  C   UNL A   1      31.125  28.050  24.371  1.00  0.00     0.034 A 
ATOM     22  C   UNL A   1      33.840  27.979  23.758  1.00  0.00     0.002 A 
ATOM     23  C   UNL A   1      31.591  28.639  23.197  1.00  0.00     0.041 A 
ATOM     24  C   UNL A   1      32.949  28.622  22.893  1.00  0.00     0.020 A 
ATOM     25  Cl  UNL A   1      30.493  29.462  22.157  1.00  0.00    -0.084 Cl
ENDBRANCH  16  19
ENDBRANCH  14  15
ENDBRANCH  11  14
ENDBRANCH   6  10
ENDBRANCH   3   6
ENDBRANCH   1   2
BRANCH   1  26
ATOM     26  C   UNL A   1      37.012  20.188  24.820  1.00  0.00     0.042 C 
BRANCH  26  27
ATOM     27  C   UNL A   1      38.297  20.673  25.477  1.00  0.00     0.118 C 
BRANCH  27  28
ATOM     28  N   UNL A   1      39.296  19.643  25.675  1.00  0.00    -0.352 N 
ATOM     29  C   UNL A   1      40.595  19.759  26.110  1.00  0.00     0.251 C 
ATOM     30  H   UNL A   1      39.002  18.728  25.468  1.00  0.00     0.163 HD
ATOM     31  O   UNL A   1      41.297  18.751  26.155  1.00  0.00    -0.269 OA
BRANCH  29  32
ATOM     32  C   UNL A   1      41.161  21.077  26.481  1.00  0.00     0.039 A 
ATOM     33  C   UNL A   1      41.856  21.797  25.505  1.00  0.00     0.014 A 
ATOM     34  C   UNL A   1      41.029  21.605  27.770  1.00  0.00     0.014 A 
ATOM     35  C   UNL A   1      42.363  23.066  25.799  1.00  0.00     0.010 A 
ATOM     36  C   UNL A   1      41.484  22.899  28.045  1.00  0.00     0.010 A 
ATOM     37  C   UNL A   1      42.153  23.645  27.061  1.00  0.00    -0.014 A 
BRANCH  37  38
ATOM     38  C   UNL A   1      42.632  25.027  27.352  1.00  0.00     0.031 A 
ATOM     39  C   UNL A   1      41.726  26.025  28.024  1.00  0.00     0.074 A 
ATOM     40  C   UNL A   1      43.878  25.396  26.985  1.00  0.00     0.049 A 
ATOM     41  N   UNL A   1      41.956  27.277  28.332  1.00  0.00    -0.248 NA
ATOM     42  C   UNL A   1      40.379  25.558  28.377  1.00  0.00     0.031 C 
ATOM     43  C   UNL A   1      44.844  24.533  26.303  1.00  0.00     0.029 A 
ATOM     44  N   UNL A   1      44.545  26.587  27.133  1.00  0.00    -0.354 N 
ATOM     45  C   UNL A   1      40.783  27.749  28.911  1.00  0.00     0.074 A 
ATOM     46  C   UNL A   1      39.826  26.663  28.853  1.00  0.00     0.031 C 
ATOM     47  C   UNL A   1      45.986  25.215  26.115  1.00  0.00     0.029 A 
ATOM     48  C   UNL A   1      45.822  26.575  26.618  1.00  0.00     0.049 A 
ATOM     49  H   UNL A   1      44.148  27.377  27.565  1.00  0.00     0.167 HD
ATOM     50  C   UNL A   1      40.533  28.965  29.460  1.00  0.00     0.034 A 
ATOM     51  C   UNL A   1      46.753  27.549  26.546  1.00  0.00     0.034 A 
ATOM     52  C   UNL A   1      41.498  30.039  29.514  1.00  0.00     0.049 A 
ATOM     53  C   UNL A   1      46.436  28.908  27.121  1.00  0.00     0.074 A 
ATOM     54  C   UNL A   1      41.360  31.292  30.088  1.00  0.00     0.029 A 
ATOM     55  N   UNL A   1      42.772  29.997  28.963  1.00  0.00    -0.354 N 
ATOM     56  N   UNL A   1      45.337  29.320  27.712  1.00  0.00    -0.248 NA
ATOM     57  C   UNL A   1      47.488  29.928  27.031  1.00  0.00     0.031 C 
ATOM     58  C   UNL A   1      42.518  32.030  29.819  1.00  0.00     0.029 A 
ATOM     59  C   UNL A   1      43.415  31.211  29.153  1.00  0.00     0.049 A 
ATOM     60  H   UNL A   1      43.163  29.217  28.506  1.00  0.00     0.167 HD
ATOM     61  C   UNL A   1      45.582  30.638  28.090  1.00  0.00     0.074 A 
ATOM     62  C   UNL A   1      46.935  30.944  27.678  1.00  0.00     0.031 C 
ATOM     63  C   UNL A   1      44.763  31.513  28.728  1.00  0.00     0.034 A 
BRANCH  50  64
ATOM     64  C   UNL A   1      39.150  29.204  30.020  1.00  0.00     0.023 A 
ATOM     65  C   UNL A   1      38.163  29.887  29.287  1.00  0.00     0.031 A 
ATOM     66  C   UNL A   1      38.816  28.761  31.313  1.00  0.00     0.131 A 
ATOM     67  C   UNL A   1      36.925  30.178  29.878  1.00  0.00     0.055 A 
ATOM     68  C   UNL A   1      37.550  28.978  31.863  1.00  0.00     0.041 A 
ATOM     69  F   UNL A   1      39.719  28.120  32.071  1.00  0.00    -0.206 F 
ATOM     70  C   UNL A   1      36.602  29.705  31.151  1.00  0.00     0.022 A 
BRANCH  67  71
ATOM     71  S   UNL A   1      35.803  31.316  29.020  1.00  0.00     0.124 S 
ATOM     72  O   UNL A   1      35.017  31.848  30.130  1.00  0.00    -0.237 OA
ATOM     73  O   UNL A   1      36.726  32.250  28.385  1.00  0.00    -0.237 OA
ATOM     74  O   UNL A   1      35.067  30.447  28.106  1.00  0.00    -0.744 OA
ENDBRANCH  67  71
ENDBRANCH  50  64
BRANCH  51  75
ATOM     75  C   UNL A   1      48.070  27.292  25.892  1.00  0.00     0.023 A 
ATOM     76  C   UNL A   1      48.243  27.479  24.511  1.00  0.00     0.031 A 
ATOM     77  C   UNL A   1      49.161  26.803  26.631  1.00  0.00     0.131 A 
ATOM     78  C   UNL A   1      49.462  27.132  23.905  1.00  0.00     0.055 A 
ATOM     79  C   UNL A   1      50.389  26.515  26.035  1.00  0.00     0.041 A 
ATOM     80  F   UNL A   1      49.051  26.607  27.955  1.00  0.00    -0.206 F 
ATOM     81  C   UNL A   1      50.540  26.665  24.659  1.00  0.00     0.022 A 
BRANCH  78  82
ATOM     82  S   UNL A   1      49.587  27.211  22.097  1.00  0.00     0.124 S 
ATOM     83  O   UNL A   1      49.083  28.552  21.824  1.00  0.00    -0.237 OA
ATOM     84  O   UNL A   1      51.016  27.006  21.884  1.00  0.00    -0.237 OA
ATOM     85  O   UNL A   1      48.729  26.117  21.649  1.00  0.00    -0.744 OA
ENDBRANCH  78  82
ENDBRANCH  51  75
BRANCH  63  86
ATOM     86  C   UNL A   1      45.331  32.874  29.061  1.00  0.00     0.023 A 
ATOM     87  C   UNL A   1      45.939  33.143  30.300  1.00  0.00     0.031 A 
ATOM     88  C   UNL A   1      45.255  33.919  28.123  1.00  0.00     0.131 A 
ATOM     89  C   UNL A   1      46.393  34.439  30.589  1.00  0.00     0.055 A 
ATOM     90  C   UNL A   1      45.769  35.189  28.392  1.00  0.00     0.041 A 
ATOM     91  F   UNL A   1      44.682  33.722  26.925  1.00  0.00    -0.206 F 
ATOM     92  C   UNL A   1      46.329  35.458  29.636  1.00  0.00     0.022 A 
BRANCH  89  93
ATOM     93  S   UNL A   1      46.984  34.802  32.266  1.00  0.00     0.124 S 
ATOM     94  O   UNL A   1      47.994  35.826  32.016  1.00  0.00    -0.237 OA
ATOM     95  O   UNL A   1      45.769  35.255  32.935  1.00  0.00    -0.237 OA
ATOM     96  O   UNL A   1      47.505  33.518  32.732  1.00  0.00    -0.744 OA
ENDBRANCH  89  93
ENDBRANCH  63  86
ENDBRANCH  37  38
ENDBRANCH  29  32
ENDBRANCH  27  28
ENDBRANCH  26  27
ENDBRANCH   1  26
TORSDOF 18
ENDMDL
