MODEL 1
REMARK VINA RESULT:     -11.9      0.000      0.000
REMARK SMILES CC(=O)N/N=C/c1ccc(O[C@H](C)C(=O)NCCCNC(=O)c2ccc(-c3c4nc(c(-c5cc(S(=O)(=O)[O-])ccc5F)c5ccc([nH]5)c(-c5cc(S(=O)(=O)[O-])ccc5F)c5nc(c(-c6cc(S(=O)(=O)[O-])ccc6F)c6ccc3[nH]6)C=C5)C=C4)cc2)cc1
REMARK SMILES IDX 17 1 16 2 14 3 15 4 12 6 13 7 11 8 10 9 7 10 8 11 87 12 9 13
REMARK SMILES IDX 86 14 6 15 5 16 4 17 1 18 2 19 3 20 18 22 19 23 20 24 21 25
REMARK SMILES IDX 22 27 23 28 24 29 85 30 25 31 84 32 26 33 27 34 28 35 78 36
REMARK SMILES IDX 29 37 83 38 77 39 79 40 30 41 82 42 76 43 75 44 31 46 63 47
REMARK SMILES IDX 43 48 62 49 44 50 47 51 61 52 80 53 45 54 46 55 60 57 81 58
REMARK SMILES IDX 48 59 32 60 33 61 41 62 34 63 40 64 42 65 39 66 35 67 36 68
REMARK SMILES IDX 37 69 38 70 64 71 65 72 73 73 66 74 72 75 74 76 71 77 67 78
REMARK SMILES IDX 68 79 69 80 70 81 49 82 50 83 58 84 51 85 57 86 59 87 56 88
REMARK SMILES IDX 52 89 53 90 54 91 55 92
REMARK H PARENT 16 5 4 21 20 26 79 45 47 56
REMARK Flexibility Score: inf
ROOT
ATOM      1  C   UNL A   1      32.542  27.088  26.580  1.00  0.00     0.118 C 
ENDROOT
BRANCH   1   2
ATOM      2  N   UNL A   1      33.596  26.355  25.913  1.00  0.00    -0.353 N 
ATOM      3  C   UNL A   1      33.556  25.184  25.218  1.00  0.00     0.260 C 
ATOM      4  O   UNL A   1      34.599  24.843  24.646  1.00  0.00    -0.271 OA
ATOM      5  H   UNL A   1      34.486  26.771  25.970  1.00  0.00     0.163 HD
BRANCH   3   6
ATOM      6  C   UNL A   1      32.324  24.246  25.216  1.00  0.00     0.258 C 
ATOM      7  C   UNL A   1      31.910  23.970  26.656  1.00  0.00     0.064 C 
BRANCH   6   8
ATOM      8  O   UNL A   1      31.350  24.459  24.198  1.00  0.00    -0.481 OA
BRANCH   8   9
ATOM      9  C   UNL A   1      30.898  25.637  23.696  1.00  0.00     0.120 A 
ATOM     10  C   UNL A   1      29.636  27.984  22.785  1.00  0.00    -0.005 A 
ATOM     11  C   UNL A   1      30.861  27.587  22.255  1.00  0.00     0.013 A 
ATOM     12  C   UNL A   1      29.036  27.223  23.786  1.00  0.00     0.013 A 
ATOM     13  C   UNL A   1      31.490  26.426  22.718  1.00  0.00     0.047 A 
ATOM     14  C   UNL A   1      29.673  26.059  24.239  1.00  0.00     0.047 A 
BRANCH  10  15
ATOM     15  C   UNL A   1      29.057  29.240  22.275  1.00  0.00     0.141 C 
ATOM     16  N   UNL A   1      29.730  30.098  21.580  1.00  0.00    -0.181 NA
BRANCH  16  17
ATOM     17  N   UNL A   1      29.063  31.211  21.144  1.00  0.00    -0.247 N 
ATOM     18  C   UNL A   1      28.307  32.112  23.346  1.00  0.00     0.116 C 
ATOM     19  C   UNL A   1      28.355  32.160  21.842  1.00  0.00     0.236 C 
ATOM     20  O   UNL A   1      27.771  33.051  21.219  1.00  0.00    -0.274 OA
ATOM     21  H   UNL A   1      29.096  31.356  20.172  1.00  0.00     0.193 HD
ENDBRANCH  16  17
ENDBRANCH  10  15
ENDBRANCH   8   9
ENDBRANCH   6   8
ENDBRANCH   3   6
ENDBRANCH   1   2
BRANCH   1  22
ATOM     22  C   UNL A   1      32.036  28.278  25.780  1.00  0.00     0.042 C 
BRANCH  22  23
ATOM     23  C   UNL A   1      33.082  29.368  25.587  1.00  0.00     0.118 C 
BRANCH  23  24
ATOM     24  N   UNL A   1      32.625  30.669  26.061  1.00  0.00    -0.352 N 
ATOM     25  C   UNL A   1      33.133  31.480  27.051  1.00  0.00     0.251 C 
ATOM     26  H   UNL A   1      31.830  31.023  25.601  1.00  0.00     0.163 HD
ATOM     27  O   UNL A   1      32.478  32.439  27.439  1.00  0.00    -0.269 OA
BRANCH  25  28
ATOM     28  C   UNL A   1      34.449  31.175  27.651  1.00  0.00     0.039 A 
ATOM     29  C   UNL A   1      35.405  32.190  27.758  1.00  0.00     0.014 A 
ATOM     30  C   UNL A   1      34.738  29.889  28.110  1.00  0.00     0.014 A 
ATOM     31  C   UNL A   1      36.619  31.932  28.399  1.00  0.00     0.010 A 
ATOM     32  C   UNL A   1      35.907  29.659  28.826  1.00  0.00     0.010 A 
ATOM     33  C   UNL A   1      36.862  30.676  28.977  1.00  0.00    -0.014 A 
BRANCH  33  34
ATOM     34  C   UNL A   1      38.109  30.376  29.728  1.00  0.00     0.031 A 
ATOM     35  C   UNL A   1      39.101  29.404  29.149  1.00  0.00     0.074 A 
ATOM     36  C   UNL A   1      38.298  30.888  30.959  1.00  0.00     0.049 A 
ATOM     37  N   UNL A   1      40.148  28.855  29.708  1.00  0.00    -0.248 NA
ATOM     38  C   UNL A   1      38.855  28.965  27.767  1.00  0.00     0.031 C 
ATOM     39  C   UNL A   1      37.400  31.829  31.633  1.00  0.00     0.029 A 
ATOM     40  N   UNL A   1      39.298  30.673  31.876  1.00  0.00    -0.354 N 
ATOM     41  C   UNL A   1      40.672  27.987  28.755  1.00  0.00     0.074 A 
ATOM     42  C   UNL A   1      39.789  28.039  27.610  1.00  0.00     0.031 C 
ATOM     43  C   UNL A   1      37.898  32.119  32.846  1.00  0.00     0.029 A 
ATOM     44  C   UNL A   1      39.114  31.341  33.065  1.00  0.00     0.049 A 
ATOM     45  H   UNL A   1      40.075  30.094  31.699  1.00  0.00     0.167 HD
ATOM     46  C   UNL A   1      41.797  27.232  28.823  1.00  0.00     0.034 A 
ATOM     47  C   UNL A   1      39.826  31.308  34.209  1.00  0.00     0.034 A 
ATOM     48  C   UNL A   1      42.671  27.207  29.969  1.00  0.00     0.049 A 
ATOM     49  C   UNL A   1      41.048  30.425  34.282  1.00  0.00     0.074 A 
ATOM     50  C   UNL A   1      43.858  26.515  30.132  1.00  0.00     0.029 A 
ATOM     51  N   UNL A   1      42.453  27.903  31.152  1.00  0.00    -0.354 N 
ATOM     52  N   UNL A   1      41.542  29.623  33.367  1.00  0.00    -0.248 NA
ATOM     53  C   UNL A   1      41.809  30.442  35.539  1.00  0.00     0.031 C 
ATOM     54  C   UNL A   1      44.318  26.732  31.435  1.00  0.00     0.029 A 
ATOM     55  C   UNL A   1      43.466  27.632  32.056  1.00  0.00     0.049 A 
ATOM     56  H   UNL A   1      41.690  28.501  31.322  1.00  0.00     0.167 HD
ATOM     57  C   UNL A   1      42.698  29.080  33.922  1.00  0.00     0.074 A 
ATOM     58  C   UNL A   1      42.824  29.640  35.251  1.00  0.00     0.031 C 
ATOM     59  C   UNL A   1      43.582  28.206  33.377  1.00  0.00     0.034 A 
BRANCH  46  60
ATOM     60  C   UNL A   1      42.120  26.356  27.636  1.00  0.00     0.023 A 
ATOM     61  C   UNL A   1      41.642  25.038  27.539  1.00  0.00     0.031 A 
ATOM     62  C   UNL A   1      42.945  26.833  26.603  1.00  0.00     0.131 A 
ATOM     63  C   UNL A   1      42.060  24.216  26.482  1.00  0.00     0.055 A 
ATOM     64  C   UNL A   1      43.284  26.039  25.504  1.00  0.00     0.041 A 
ATOM     65  F   UNL A   1      43.451  28.075  26.648  1.00  0.00    -0.206 F 
ATOM     66  C   UNL A   1      42.856  24.716  25.449  1.00  0.00     0.022 A 
BRANCH  63  67
ATOM     67  S   UNL A   1      41.686  22.444  26.567  1.00  0.00     0.124 S 
ATOM     68  O   UNL A   1      42.304  22.074  27.838  1.00  0.00    -0.237 OA
ATOM     69  O   UNL A   1      40.228  22.428  26.537  1.00  0.00    -0.237 OA
ATOM     70  O   UNL A   1      42.342  21.898  25.380  1.00  0.00    -0.744 OA
ENDBRANCH  63  67
ENDBRANCH  46  60
BRANCH  47  71
ATOM     71  C   UNL A   1      39.403  32.119  35.388  1.00  0.00     0.023 A 
ATOM     72  C   UNL A   1      38.689  31.533  36.445  1.00  0.00     0.031 A 
ATOM     73  C   UNL A   1      39.668  33.498  35.458  1.00  0.00     0.131 A 
ATOM     74  C   UNL A   1      38.221  32.331  37.501  1.00  0.00     0.055 A 
ATOM     75  C   UNL A   1      39.251  34.277  36.539  1.00  0.00     0.041 A 
ATOM     76  F   UNL A   1      40.350  34.110  34.476  1.00  0.00    -0.206 F 
ATOM     77  C   UNL A   1      38.509  33.696  37.562  1.00  0.00     0.022 A 
BRANCH  74  78
ATOM     78  S   UNL A   1      37.145  31.573  38.748  1.00  0.00     0.124 S 
ATOM     79  O   UNL A   1      36.995  30.220  38.225  1.00  0.00    -0.237 OA
ATOM     80  O   UNL A   1      37.944  31.709  39.961  1.00  0.00    -0.237 OA
ATOM     81  O   UNL A   1      35.939  32.398  38.701  1.00  0.00    -0.744 OA
ENDBRANCH  74  78
ENDBRANCH  47  71
BRANCH  59  82
ATOM     82  C   UNL A   1      44.808  27.860  34.185  1.00  0.00     0.023 A 
ATOM     83  C   UNL A   1      44.861  26.729  35.018  1.00  0.00     0.031 A 
ATOM     84  C   UNL A   1      45.956  28.667  34.087  1.00  0.00     0.131 A 
ATOM     85  C   UNL A   1      46.029  26.455  35.746  1.00  0.00     0.055 A 
ATOM     86  C   UNL A   1      47.133  28.358  34.771  1.00  0.00     0.041 A 
ATOM     87  F   UNL A   1      45.958  29.760  33.308  1.00  0.00    -0.206 F 
ATOM     88  C   UNL A   1      47.170  27.251  35.613  1.00  0.00     0.022 A 
BRANCH  85  89
ATOM     89  S   UNL A   1      46.022  25.075  36.924  1.00  0.00     0.124 S 
ATOM     90  O   UNL A   1      44.724  25.235  37.572  1.00  0.00    -0.237 OA
ATOM     91  O   UNL A   1      46.157  23.915  36.047  1.00  0.00    -0.237 OA
ATOM     92  O   UNL A   1      47.179  25.344  37.776  1.00  0.00    -0.744 OA
ENDBRANCH  85  89
ENDBRANCH  59  82
ENDBRANCH  33  34
ENDBRANCH  25  28
ENDBRANCH  23  24
ENDBRANCH  22  23
ENDBRANCH   1  22
TORSDOF 17
ENDMDL
MODEL 2
REMARK VINA RESULT:     -11.8      5.118      9.577
REMARK SMILES CC(=O)N/N=C/c1ccc(O[C@H](C)C(=O)NCCCNC(=O)c2ccc(-c3c4nc(c(-c5cc(S(=O)(=O)[O-])ccc5F)c5ccc([nH]5)c(-c5cc(S(=O)(=O)[O-])ccc5F)c5nc(c(-c6cc(S(=O)(=O)[O-])ccc6F)c6ccc3[nH]6)C=C5)C=C4)cc2)cc1
REMARK SMILES IDX 17 1 16 2 14 3 15 4 12 6 13 7 11 8 10 9 7 10 8 11 87 12 9 13
REMARK SMILES IDX 86 14 6 15 5 16 4 17 1 18 2 19 3 20 18 22 19 23 20 24 21 25
REMARK SMILES IDX 22 27 23 28 24 29 85 30 25 31 84 32 26 33 27 34 28 35 78 36
REMARK SMILES IDX 29 37 83 38 77 39 79 40 30 41 82 42 76 43 75 44 31 46 63 47
REMARK SMILES IDX 43 48 62 49 44 50 47 51 61 52 80 53 45 54 46 55 60 57 81 58
REMARK SMILES IDX 48 59 32 60 33 61 41 62 34 63 40 64 42 65 39 66 35 67 36 68
REMARK SMILES IDX 37 69 38 70 64 71 65 72 73 73 66 74 72 75 74 76 71 77 67 78
REMARK SMILES IDX 68 79 69 80 70 81 49 82 50 83 58 84 51 85 57 86 59 87 56 88
REMARK SMILES IDX 52 89 53 90 54 91 55 92
REMARK H PARENT 16 5 4 21 20 26 79 45 47 56
REMARK Flexibility Score: inf
ROOT
ATOM      1  C   UNL A   1      33.772  23.336  26.684  1.00  0.00     0.118 C 
ENDROOT
BRANCH   1   2
ATOM      2  N   UNL A   1      32.384  22.936  26.753  1.00  0.00    -0.353 N 
ATOM      3  C   UNL A   1      31.512  22.591  25.765  1.00  0.00     0.260 C 
ATOM      4  O   UNL A   1      30.404  22.174  26.125  1.00  0.00    -0.271 OA
ATOM      5  H   UNL A   1      32.009  22.909  27.662  1.00  0.00     0.163 HD
BRANCH   3   6
ATOM      6  C   UNL A   1      31.814  22.804  24.262  1.00  0.00     0.258 C 
ATOM      7  C   UNL A   1      32.453  21.539  23.701  1.00  0.00     0.064 C 
BRANCH   6   8
ATOM      8  O   UNL A   1      30.855  23.541  23.507  1.00  0.00    -0.481 OA
BRANCH   8   9
ATOM      9  C   UNL A   1      30.833  24.872  23.243  1.00  0.00     0.120 A 
ATOM     10  C   UNL A   1      30.449  27.631  22.827  1.00  0.00    -0.005 A 
ATOM     11  C   UNL A   1      31.459  26.947  22.155  1.00  0.00     0.013 A 
ATOM     12  C   UNL A   1      29.630  26.949  23.723  1.00  0.00     0.013 A 
ATOM     13  C   UNL A   1      31.654  25.579  22.373  1.00  0.00     0.047 A 
ATOM     14  C   UNL A   1      29.831  25.577  23.931  1.00  0.00     0.047 A 
BRANCH  10  15
ATOM     15  C   UNL A   1      30.334  29.079  22.576  1.00  0.00     0.141 C 
ATOM     16  N   UNL A   1      29.421  29.596  21.821  1.00  0.00    -0.181 NA
BRANCH  16  17
ATOM     17  N   UNL A   1      29.410  30.958  21.694  1.00  0.00    -0.247 N 
ATOM     18  C   UNL A   1      27.654  31.503  23.383  1.00  0.00     0.116 C 
ATOM     19  C   UNL A   1      28.633  31.908  22.313  1.00  0.00     0.236 C 
ATOM     20  O   UNL A   1      28.755  33.091  21.984  1.00  0.00    -0.274 OA
ATOM     21  H   UNL A   1      30.067  31.317  21.056  1.00  0.00     0.193 HD
ENDBRANCH  16  17
ENDBRANCH  10  15
ENDBRANCH   8   9
ENDBRANCH   6   8
ENDBRANCH   3   6
ENDBRANCH   1   2
BRANCH   1  22
ATOM     22  C   UNL A   1      34.730  22.165  26.532  1.00  0.00     0.042 C 
BRANCH  22  23
ATOM     23  C   UNL A   1      35.962  22.493  25.699  1.00  0.00     0.118 C 
BRANCH  23  24
ATOM     24  N   UNL A   1      36.878  21.363  25.590  1.00  0.00    -0.352 N 
ATOM     25  C   UNL A   1      38.243  21.309  25.755  1.00  0.00     0.251 C 
ATOM     26  H   UNL A   1      36.452  20.505  25.362  1.00  0.00     0.163 HD
ATOM     27  O   UNL A   1      38.852  20.304  25.412  1.00  0.00    -0.269 OA
BRANCH  25  28
ATOM     28  C   UNL A   1      38.964  22.469  26.321  1.00  0.00     0.039 A 
ATOM     29  C   UNL A   1      40.038  22.251  27.189  1.00  0.00     0.014 A 
ATOM     30  C   UNL A   1      38.581  23.770  25.994  1.00  0.00     0.014 A 
ATOM     31  C   UNL A   1      40.777  23.338  27.663  1.00  0.00     0.010 A 
ATOM     32  C   UNL A   1      39.370  24.843  26.393  1.00  0.00     0.010 A 
ATOM     33  C   UNL A   1      40.476  24.640  27.233  1.00  0.00    -0.014 A 
BRANCH  33  34
ATOM     34  C   UNL A   1      41.275  25.819  27.654  1.00  0.00     0.031 A 
ATOM     35  C   UNL A   1      40.606  26.924  28.428  1.00  0.00     0.074 A 
ATOM     36  C   UNL A   1      42.556  25.946  27.260  1.00  0.00     0.049 A 
ATOM     37  N   UNL A   1      41.053  28.115  28.728  1.00  0.00    -0.248 NA
ATOM     38  C   UNL A   1      39.235  26.660  28.889  1.00  0.00     0.031 C 
ATOM     39  C   UNL A   1      43.310  24.950  26.494  1.00  0.00     0.029 A 
ATOM     40  N   UNL A   1      43.449  26.977  27.427  1.00  0.00    -0.354 N 
ATOM     41  C   UNL A   1      40.010  28.753  29.392  1.00  0.00     0.074 A 
ATOM     42  C   UNL A   1      38.891  27.836  29.391  1.00  0.00     0.031 C 
ATOM     43  C   UNL A   1      44.551  25.413  26.273  1.00  0.00     0.029 A 
ATOM     44  C   UNL A   1      44.666  26.760  26.822  1.00  0.00     0.049 A 
ATOM     45  H   UNL A   1      43.238  27.794  27.932  1.00  0.00     0.167 HD
ATOM     46  C   UNL A   1      39.996  29.982  29.966  1.00  0.00     0.034 A 
ATOM     47  C   UNL A   1      45.740  27.565  26.700  1.00  0.00     0.034 A 
ATOM     48  C   UNL A   1      41.129  30.873  29.968  1.00  0.00     0.049 A 
ATOM     49  C   UNL A   1      45.688  28.948  27.304  1.00  0.00     0.074 A 
ATOM     50  C   UNL A   1      41.242  32.121  30.554  1.00  0.00     0.029 A 
ATOM     51  N   UNL A   1      42.346  30.614  29.350  1.00  0.00    -0.354 N 
ATOM     52  N   UNL A   1      44.701  29.531  27.945  1.00  0.00    -0.248 NA
ATOM     53  C   UNL A   1      46.891  29.780  27.170  1.00  0.00     0.031 C 
ATOM     54  C   UNL A   1      42.496  32.647  30.230  1.00  0.00     0.029 A 
ATOM     55  C   UNL A   1      43.202  31.691  29.516  1.00  0.00     0.049 A 
ATOM     56  H   UNL A   1      42.568  29.787  28.865  1.00  0.00     0.167 HD
ATOM     57  C   UNL A   1      45.184  30.778  28.331  1.00  0.00     0.074 A 
ATOM     58  C   UNL A   1      46.546  30.865  27.848  1.00  0.00     0.031 C 
ATOM     59  C   UNL A   1      44.562  31.758  29.034  1.00  0.00     0.034 A 
BRANCH  46  60
ATOM     60  C   UNL A   1      38.706  30.434  30.608  1.00  0.00     0.023 A 
ATOM     61  C   UNL A   1      37.787  31.248  29.925  1.00  0.00     0.031 A 
ATOM     62  C   UNL A   1      38.407  30.077  31.934  1.00  0.00     0.131 A 
ATOM     63  C   UNL A   1      36.659  31.747  30.594  1.00  0.00     0.055 A 
ATOM     64  C   UNL A   1      37.235  30.501  32.565  1.00  0.00     0.041 A 
ATOM     65  F   UNL A   1      39.256  29.319  32.648  1.00  0.00    -0.206 F 
ATOM     66  C   UNL A   1      36.362  31.357  31.902  1.00  0.00     0.022 A 
BRANCH  63  67
ATOM     67  S   UNL A   1      35.679  33.041  29.786  1.00  0.00     0.124 S 
ATOM     68  O   UNL A   1      35.495  33.995  30.878  1.00  0.00    -0.237 OA
ATOM     69  O   UNL A   1      36.556  33.472  28.703  1.00  0.00    -0.237 OA
ATOM     70  O   UNL A   1      34.466  32.342  29.367  1.00  0.00    -0.744 OA
ENDBRANCH  63  67
ENDBRANCH  46  60
BRANCH  47  71
ATOM     71  C   UNL A   1      46.954  27.102  25.965  1.00  0.00     0.023 A 
ATOM     72  C   UNL A   1      48.024  26.504  26.649  1.00  0.00     0.031 A 
ATOM     73  C   UNL A   1      47.081  27.287  24.577  1.00  0.00     0.131 A 
ATOM     74  C   UNL A   1      49.193  26.159  25.953  1.00  0.00     0.055 A 
ATOM     75  C   UNL A   1      48.223  26.889  23.880  1.00  0.00     0.041 A 
ATOM     76  F   UNL A   1      46.086  27.850  23.872  1.00  0.00    -0.206 F 
ATOM     77  C   UNL A   1      49.295  26.334  24.571  1.00  0.00     0.022 A 
BRANCH  74  78
ATOM     78  S   UNL A   1      50.621  25.565  26.901  1.00  0.00     0.124 S 
ATOM     79  O   UNL A   1      50.044  24.442  27.630  1.00  0.00    -0.237 OA
ATOM     80  O   UNL A   1      51.567  25.228  25.842  1.00  0.00    -0.237 OA
ATOM     81  O   UNL A   1      50.988  26.719  27.719  1.00  0.00    -0.744 OA
ENDBRANCH  74  78
ENDBRANCH  47  71
BRANCH  59  82
ATOM     82  C   UNL A   1      45.371  32.980  29.393  1.00  0.00     0.023 A 
ATOM     83  C   UNL A   1      45.403  34.124  28.577  1.00  0.00     0.031 A 
ATOM     84  C   UNL A   1      46.098  33.004  30.597  1.00  0.00     0.131 A 
ATOM     85  C   UNL A   1      46.172  35.232  28.961  1.00  0.00     0.055 A 
ATOM     86  C   UNL A   1      46.817  34.130  31.001  1.00  0.00     0.041 A 
ATOM     87  F   UNL A   1      46.104  31.937  31.412  1.00  0.00    -0.206 F 
ATOM     88  C   UNL A   1      46.863  35.250  30.176  1.00  0.00     0.022 A 
BRANCH  85  89
ATOM     89  S   UNL A   1      46.312  36.637  27.822  1.00  0.00     0.124 S 
ATOM     90  O   UNL A   1      47.344  36.178  26.898  1.00  0.00    -0.237 OA
ATOM     91  O   UNL A   1      44.962  36.731  27.274  1.00  0.00    -0.237 OA
ATOM     92  O   UNL A   1      46.704  37.746  28.690  1.00  0.00    -0.744 OA
ENDBRANCH  85  89
ENDBRANCH  59  82
ENDBRANCH  33  34
ENDBRANCH  25  28
ENDBRANCH  23  24
ENDBRANCH  22  23
ENDBRANCH   1  22
TORSDOF 17
ENDMDL
MODEL 3
REMARK VINA RESULT:     -11.8      0.704      7.591
REMARK SMILES CC(=O)N/N=C/c1ccc(O[C@H](C)C(=O)NCCCNC(=O)c2ccc(-c3c4nc(c(-c5cc(S(=O)(=O)[O-])ccc5F)c5ccc([nH]5)c(-c5cc(S(=O)(=O)[O-])ccc5F)c5nc(c(-c6cc(S(=O)(=O)[O-])ccc6F)c6ccc3[nH]6)C=C5)C=C4)cc2)cc1
REMARK SMILES IDX 17 1 16 2 14 3 15 4 12 6 13 7 11 8 10 9 7 10 8 11 87 12 9 13
REMARK SMILES IDX 86 14 6 15 5 16 4 17 1 18 2 19 3 20 18 22 19 23 20 24 21 25
REMARK SMILES IDX 22 27 23 28 24 29 85 30 25 31 84 32 26 33 27 34 28 35 78 36
REMARK SMILES IDX 29 37 83 38 77 39 79 40 30 41 82 42 76 43 75 44 31 46 63 47
REMARK SMILES IDX 43 48 62 49 44 50 47 51 61 52 80 53 45 54 46 55 60 57 81 58
REMARK SMILES IDX 48 59 32 60 33 61 41 62 34 63 40 64 42 65 39 66 35 67 36 68
REMARK SMILES IDX 37 69 38 70 64 71 65 72 73 73 66 74 72 75 74 76 71 77 67 78
REMARK SMILES IDX 68 79 69 80 70 81 49 82 50 83 58 84 51 85 57 86 59 87 56 88
REMARK SMILES IDX 52 89 53 90 54 91 55 92
REMARK H PARENT 16 5 4 21 20 26 79 45 47 56
REMARK Flexibility Score: inf
ROOT
ATOM      1  C   UNL A   1      31.928  27.472  26.756  1.00  0.00     0.118 C 
ENDROOT
BRANCH   1   2
ATOM      2  N   UNL A   1      33.156  26.814  26.366  1.00  0.00    -0.353 N 
ATOM      3  C   UNL A   1      33.359  25.665  25.664  1.00  0.00     0.260 C 
ATOM      4  O   UNL A   1      34.531  25.395  25.371  1.00  0.00    -0.271 OA
ATOM      5  H   UNL A   1      33.977  27.271  26.656  1.00  0.00     0.163 HD
BRANCH   3   6
ATOM      6  C   UNL A   1      32.224  24.667  25.331  1.00  0.00     0.258 C 
ATOM      7  C   UNL A   1      31.489  24.307  26.617  1.00  0.00     0.064 C 
BRANCH   6   8
ATOM      8  O   UNL A   1      31.515  24.876  24.112  1.00  0.00    -0.481 OA
BRANCH   8   9
ATOM      9  C   UNL A   1      30.973  26.027  23.638  1.00  0.00     0.120 A 
ATOM     10  C   UNL A   1      29.526  28.261  22.720  1.00  0.00    -0.005 A 
ATOM     11  C   UNL A   1      30.864  28.091  22.371  1.00  0.00     0.013 A 
ATOM     12  C   UNL A   1      28.901  27.327  23.542  1.00  0.00     0.013 A 
ATOM     13  C   UNL A   1      31.582  26.986  22.838  1.00  0.00     0.047 A 
ATOM     14  C   UNL A   1      29.630  26.220  24.001  1.00  0.00     0.047 A 
BRANCH  10  15
ATOM     15  C   UNL A   1      28.850  29.473  22.222  1.00  0.00     0.141 C 
ATOM     16  N   UNL A   1      29.422  30.335  21.446  1.00  0.00    -0.181 NA
BRANCH  16  17
ATOM     17  N   UNL A   1      28.671  31.402  21.035  1.00  0.00    -0.247 N 
ATOM     18  C   UNL A   1      28.890  32.849  23.058  1.00  0.00     0.116 C 
ATOM     19  C   UNL A   1      28.332  32.562  21.689  1.00  0.00     0.236 C 
ATOM     20  O   UNL A   1      27.574  33.364  21.136  1.00  0.00    -0.274 OA
ATOM     21  H   UNL A   1      28.315  31.327  20.121  1.00  0.00     0.193 HD
ENDBRANCH  16  17
ENDBRANCH  10  15
ENDBRANCH   8   9
ENDBRANCH   6   8
ENDBRANCH   3   6
ENDBRANCH   1   2
BRANCH   1  22
ATOM     22  C   UNL A   1      31.736  28.829  26.097  1.00  0.00     0.042 C 
BRANCH  22  23
ATOM     23  C   UNL A   1      33.026  29.627  25.965  1.00  0.00     0.118 C 
BRANCH  23  24
ATOM     24  N   UNL A   1      32.869  31.014  26.389  1.00  0.00    -0.352 N 
ATOM     25  C   UNL A   1      33.580  31.744  27.313  1.00  0.00     0.251 C 
ATOM     26  H   UNL A   1      32.140  31.504  25.945  1.00  0.00     0.163 HD
ATOM     27  O   UNL A   1      33.156  32.833  27.678  1.00  0.00    -0.269 OA
BRANCH  25  28
ATOM     28  C   UNL A   1      34.835  31.200  27.875  1.00  0.00     0.039 A 
ATOM     29  C   UNL A   1      35.955  32.031  27.980  1.00  0.00     0.014 A 
ATOM     30  C   UNL A   1      34.906  29.872  28.298  1.00  0.00     0.014 A 
ATOM     31  C   UNL A   1      37.119  31.550  28.586  1.00  0.00     0.010 A 
ATOM     32  C   UNL A   1      36.031  29.424  28.979  1.00  0.00     0.010 A 
ATOM     33  C   UNL A   1      37.152  30.257  29.130  1.00  0.00    -0.014 A 
BRANCH  33  34
ATOM     34  C   UNL A   1      38.342  29.725  29.843  1.00  0.00     0.031 A 
ATOM     35  C   UNL A   1      38.691  30.271  31.201  1.00  0.00     0.074 A 
ATOM     36  C   UNL A   1      39.155  28.839  29.237  1.00  0.00     0.049 A 
ATOM     37  N   UNL A   1      39.774  30.096  31.912  1.00  0.00    -0.248 NA
ATOM     38  C   UNL A   1      37.702  31.166  31.820  1.00  0.00     0.031 C 
ATOM     39  C   UNL A   1      38.930  28.248  27.916  1.00  0.00     0.029 A 
ATOM     40  N   UNL A   1      40.350  28.297  29.641  1.00  0.00    -0.354 N 
ATOM     41  C   UNL A   1      39.609  30.877  33.052  1.00  0.00     0.074 A 
ATOM     42  C   UNL A   1      38.348  31.574  32.901  1.00  0.00     0.031 C 
ATOM     43  C   UNL A   1      39.945  27.416  27.628  1.00  0.00     0.029 A 
ATOM     44  C   UNL A   1      40.923  27.460  28.711  1.00  0.00     0.049 A 
ATOM     45  H   UNL A   1      40.760  28.488  30.516  1.00  0.00     0.167 HD
ATOM     46  C   UNL A   1      40.422  30.987  34.131  1.00  0.00     0.034 A 
ATOM     47  C   UNL A   1      42.112  26.824  28.716  1.00  0.00     0.034 A 
ATOM     48  C   UNL A   1      41.666  30.272  34.266  1.00  0.00     0.049 A 
ATOM     49  C   UNL A   1      43.026  26.997  29.905  1.00  0.00     0.074 A 
ATOM     50  C   UNL A   1      42.549  30.273  35.331  1.00  0.00     0.029 A 
ATOM     51  N   UNL A   1      42.208  29.429  33.303  1.00  0.00    -0.354 N 
ATOM     52  N   UNL A   1      42.847  27.725  30.983  1.00  0.00    -0.248 NA
ATOM     53  C   UNL A   1      44.299  26.264  29.880  1.00  0.00     0.031 C 
ATOM     54  C   UNL A   1      43.657  29.492  34.985  1.00  0.00     0.029 A 
ATOM     55  C   UNL A   1      43.425  28.931  33.739  1.00  0.00     0.049 A 
ATOM     56  H   UNL A   1      41.789  29.217  32.438  1.00  0.00     0.167 HD
ATOM     57  C   UNL A   1      43.963  27.497  31.784  1.00  0.00     0.074 A 
ATOM     58  C   UNL A   1      44.810  26.570  31.063  1.00  0.00     0.031 C 
ATOM     59  C   UNL A   1      44.255  27.999  33.011  1.00  0.00     0.034 A 
BRANCH  46  60
ATOM     60  C   UNL A   1      39.999  31.936  35.227  1.00  0.00     0.023 A 
ATOM     61  C   UNL A   1      39.221  31.506  36.316  1.00  0.00     0.031 A 
ATOM     62  C   UNL A   1      40.347  33.296  35.166  1.00  0.00     0.131 A 
ATOM     63  C   UNL A   1      38.747  32.438  37.250  1.00  0.00     0.055 A 
ATOM     64  C   UNL A   1      39.949  34.204  36.150  1.00  0.00     0.041 A 
ATOM     65  F   UNL A   1      41.070  33.773  34.140  1.00  0.00    -0.206 F 
ATOM     66  C   UNL A   1      39.128  33.781  37.190  1.00  0.00     0.022 A 
BRANCH  63  67
ATOM     67  S   UNL A   1      37.493  31.901  38.444  1.00  0.00     0.124 S 
ATOM     68  O   UNL A   1      38.222  32.011  39.706  1.00  0.00    -0.237 OA
ATOM     69  O   UNL A   1      36.424  32.872  38.238  1.00  0.00    -0.237 OA
ATOM     70  O   UNL A   1      37.184  30.535  38.027  1.00  0.00    -0.744 OA
ENDBRANCH  63  67
ENDBRANCH  46  60
BRANCH  47  71
ATOM     71  C   UNL A   1      42.523  25.978  27.558  1.00  0.00     0.023 A 
ATOM     72  C   UNL A   1      42.058  24.660  27.429  1.00  0.00     0.031 A 
ATOM     73  C   UNL A   1      43.419  26.458  26.585  1.00  0.00     0.131 A 
ATOM     74  C   UNL A   1      42.528  23.851  26.383  1.00  0.00     0.055 A 
ATOM     75  C   UNL A   1      43.838  25.668  25.514  1.00  0.00     0.041 A 
ATOM     76  F   UNL A   1      43.892  27.712  26.657  1.00  0.00    -0.206 F 
ATOM     77  C   UNL A   1      43.404  24.350  25.416  1.00  0.00     0.022 A 
BRANCH  74  78
ATOM     78  S   UNL A   1      42.052  22.101  26.360  1.00  0.00     0.124 S 
ATOM     79  O   UNL A   1      42.868  21.587  25.267  1.00  0.00    -0.237 OA
ATOM     80  O   UNL A   1      42.427  21.668  27.702  1.00  0.00    -0.237 OA
ATOM     81  O   UNL A   1      40.614  22.145  26.100  1.00  0.00    -0.744 OA
ENDBRANCH  74  78
ENDBRANCH  47  71
BRANCH  59  82
ATOM     82  C   UNL A   1      45.506  27.498  33.689  1.00  0.00     0.023 A 
ATOM     83  C   UNL A   1      45.511  26.348  34.497  1.00  0.00     0.031 A 
ATOM     84  C   UNL A   1      46.724  28.175  33.490  1.00  0.00     0.131 A 
ATOM     85  C   UNL A   1      46.705  25.928  35.102  1.00  0.00     0.055 A 
ATOM     86  C   UNL A   1      47.918  27.720  34.050  1.00  0.00     0.041 A 
ATOM     87  F   UNL A   1      46.774  29.281  32.730  1.00  0.00    -0.206 F 
ATOM     88  C   UNL A   1      47.911  26.594  34.868  1.00  0.00     0.022 A 
BRANCH  85  89
ATOM     89  S   UNL A   1      46.655  24.527  36.254  1.00  0.00     0.124 S 
ATOM     90  O   UNL A   1      47.999  23.976  36.121  1.00  0.00    -0.237 OA
ATOM     91  O   UNL A   1      46.357  25.180  37.526  1.00  0.00    -0.237 OA
ATOM     92  O   UNL A   1      45.583  23.685  35.726  1.00  0.00    -0.744 OA
ENDBRANCH  85  89
ENDBRANCH  59  82
ENDBRANCH  33  34
ENDBRANCH  25  28
ENDBRANCH  23  24
ENDBRANCH  22  23
ENDBRANCH   1  22
TORSDOF 17
ENDMDL
