MODEL 1
REMARK VINA RESULT:     -11.5      0.000      0.000
REMARK SMILES CSCC[C@@H](NS(=O)(=O)c1ccc(F)c(C)c1)C(=O)NCCCNC(=O)c1ccc(-c2c3nc(c(-c4cc(S(=O)(=O)[O-])ccc4F)c4ccc([nH]4)c(-c4cc(S(=O)(=O)[O-])ccc4F)c4nc(c(-c5cc(S(=O)(=O)[O-])ccc5F)c5ccc2[nH]5)C=C4)C=C3)cc1
REMARK SMILES IDX 22 1 21 2 20 3 18 4 19 5 5 7 4 8 3 9 2 10 1 11 6 12 7 14
REMARK SMILES IDX 8 15 9 16 10 17 11 18 17 19 12 20 15 21 13 22 16 23 14 24
REMARK SMILES IDX 23 25 24 26 25 27 26 29 27 30 28 31 89 32 29 33 88 34 30 35
REMARK SMILES IDX 31 36 32 37 82 38 33 39 87 40 81 41 83 42 34 43 86 44 80 45
REMARK SMILES IDX 79 46 35 48 67 49 47 50 66 51 48 52 51 53 65 54 84 55 49 56
REMARK SMILES IDX 50 57 64 59 85 60 52 61 36 62 37 63 45 64 38 65 44 66 46 67
REMARK SMILES IDX 43 68 39 69 40 70 41 71 42 72 68 73 69 74 77 75 70 76 76 77
REMARK SMILES IDX 78 78 75 79 71 80 72 81 73 82 74 83 53 84 54 85 62 86 55 87
REMARK SMILES IDX 61 88 63 89 60 90 56 91 57 92 58 93 59 94
REMARK H PARENT 20 6 6 13 24 28 83 47 51 58
REMARK Flexibility Score: inf
ROOT
ATOM      1  C   UNL A   1      33.026  29.074  27.164  1.00  0.00     0.042 C 
ENDROOT
BRANCH   1   2
ATOM      2  C   UNL A   1      32.427  29.295  25.791  1.00  0.00     0.117 C 
BRANCH   2   3
ATOM      3  N   UNL A   1      33.044  28.426  24.793  1.00  0.00    -0.355 N 
ATOM      4  C   UNL A   1      32.493  27.383  24.102  1.00  0.00     0.238 C 
ATOM      5  O   UNL A   1      33.175  26.765  23.287  1.00  0.00    -0.273 OA
ATOM      6  H   UNL A   1      33.988  28.619  24.588  1.00  0.00     0.163 HD
BRANCH   4   7
ATOM      7  C   UNL A   1      31.029  27.042  24.356  1.00  0.00     0.159 C 
BRANCH   7   8
ATOM      8  C   UNL A   1      30.240  27.409  23.076  1.00  0.00     0.041 C 
BRANCH   8   9
ATOM      9  C   UNL A   1      30.179  28.855  22.615  1.00  0.00     0.071 C 
BRANCH   9  10
ATOM     10  S   UNL A   1      28.515  29.569  22.585  1.00  0.00    -0.165 SA
ATOM     11  C   UNL A   1      28.803  31.055  23.564  1.00  0.00     0.085 C 
ENDBRANCH   9  10
ENDBRANCH   8   9
ENDBRANCH   7   8
BRANCH   7  12
ATOM     12  N   UNL A   1      30.961  25.617  24.750  1.00  0.00    -0.199 NA
ATOM     13  H   UNL A   1      31.693  25.145  24.218  1.00  0.00     0.142 HD
BRANCH  12  14
ATOM     14  S   UNL A   1      31.131  25.093  26.334  1.00  0.00     0.241 S 
ATOM     15  O   UNL A   1      31.414  26.274  27.118  1.00  0.00    -0.207 OA
ATOM     16  O   UNL A   1      29.948  24.296  26.586  1.00  0.00    -0.207 OA
BRANCH  14  17
ATOM     17  C   UNL A   1      32.520  23.981  26.472  1.00  0.00     0.082 A 
ATOM     18  C   UNL A   1      32.439  22.792  27.196  1.00  0.00     0.025 A 
ATOM     19  C   UNL A   1      33.741  24.343  25.886  1.00  0.00     0.028 A 
ATOM     20  C   UNL A   1      33.493  21.871  27.162  1.00  0.00     0.041 A 
ATOM     21  C   UNL A   1      34.847  23.481  25.963  1.00  0.00    -0.014 A 
ATOM     22  C   UNL A   1      34.681  22.218  26.532  1.00  0.00     0.126 A 
ATOM     23  C   UNL A   1      36.200  23.893  25.467  1.00  0.00     0.047 C 
ATOM     24  F   UNL A   1      35.693  21.339  26.520  1.00  0.00    -0.207 F 
ENDBRANCH  14  17
ENDBRANCH  12  14
ENDBRANCH   7  12
ENDBRANCH   4   7
ENDBRANCH   2   3
ENDBRANCH   1   2
BRANCH   1  25
ATOM     25  C   UNL A   1      34.483  29.369  27.063  1.00  0.00     0.118 C 
BRANCH  25  26
ATOM     26  N   UNL A   1      34.724  30.764  27.429  1.00  0.00    -0.352 N 
ATOM     27  C   UNL A   1      35.581  31.176  28.414  1.00  0.00     0.251 C 
ATOM     28  H   UNL A   1      34.234  31.457  26.932  1.00  0.00     0.163 HD
ATOM     29  O   UNL A   1      35.391  32.256  28.970  1.00  0.00    -0.269 OA
BRANCH  27  30
ATOM     30  C   UNL A   1      36.715  30.286  28.654  1.00  0.00     0.039 A 
ATOM     31  C   UNL A   1      36.830  29.433  29.742  1.00  0.00     0.014 A 
ATOM     32  C   UNL A   1      37.692  30.324  27.659  1.00  0.00     0.014 A 
ATOM     33  C   UNL A   1      38.012  28.719  29.865  1.00  0.00     0.010 A 
ATOM     34  C   UNL A   1      38.596  29.334  27.581  1.00  0.00     0.010 A 
ATOM     35  C   UNL A   1      38.903  28.743  28.789  1.00  0.00    -0.014 A 
BRANCH  35  36
ATOM     36  C   UNL A   1      40.269  28.282  28.795  1.00  0.00     0.031 A 
ATOM     37  C   UNL A   1      40.480  26.856  28.612  1.00  0.00     0.074 A 
ATOM     38  C   UNL A   1      41.213  29.259  28.750  1.00  0.00     0.049 A 
ATOM     39  N   UNL A   1      41.461  26.203  29.115  1.00  0.00    -0.248 NA
ATOM     40  C   UNL A   1      39.519  26.017  27.893  1.00  0.00     0.031 C 
ATOM     41  C   UNL A   1      42.599  29.202  28.336  1.00  0.00     0.029 A 
ATOM     42  N   UNL A   1      41.059  30.621  29.062  1.00  0.00    -0.354 N 
ATOM     43  C   UNL A   1      41.495  25.025  28.406  1.00  0.00     0.074 A 
ATOM     44  C   UNL A   1      40.152  24.841  27.911  1.00  0.00     0.031 C 
ATOM     45  C   UNL A   1      43.211  30.345  28.719  1.00  0.00     0.029 A 
ATOM     46  C   UNL A   1      42.275  31.092  29.546  1.00  0.00     0.049 A 
ATOM     47  H   UNL A   1      40.235  31.148  28.958  1.00  0.00     0.167 HD
ATOM     48  C   UNL A   1      42.714  24.533  28.036  1.00  0.00     0.034 A 
ATOM     49  C   UNL A   1      42.424  31.408  30.872  1.00  0.00     0.034 A 
ATOM     50  C   UNL A   1      43.791  25.410  28.556  1.00  0.00     0.049 A 
ATOM     51  C   UNL A   1      43.279  30.365  31.588  1.00  0.00     0.074 A 
ATOM     52  C   UNL A   1      44.630  26.346  27.970  1.00  0.00     0.029 A 
ATOM     53  N   UNL A   1      43.842  25.687  29.919  1.00  0.00    -0.354 N 
ATOM     54  N   UNL A   1      43.857  29.350  31.003  1.00  0.00    -0.248 NA
ATOM     55  C   UNL A   1      43.425  30.320  33.040  1.00  0.00     0.031 C 
ATOM     56  C   UNL A   1      45.152  27.199  28.998  1.00  0.00     0.029 A 
ATOM     57  C   UNL A   1      44.657  26.776  30.218  1.00  0.00     0.049 A 
ATOM     58  H   UNL A   1      43.355  25.168  30.599  1.00  0.00     0.167 HD
ATOM     59  C   UNL A   1      44.283  28.451  31.942  1.00  0.00     0.074 A 
ATOM     60  C   UNL A   1      43.998  29.117  33.206  1.00  0.00     0.031 C 
ATOM     61  C   UNL A   1      44.772  27.208  31.621  1.00  0.00     0.034 A 
BRANCH  48  62
ATOM     62  C   UNL A   1      42.896  23.473  26.957  1.00  0.00     0.023 A 
ATOM     63  C   UNL A   1      42.579  22.100  27.108  1.00  0.00     0.031 A 
ATOM     64  C   UNL A   1      43.393  23.823  25.688  1.00  0.00     0.131 A 
ATOM     65  C   UNL A   1      42.686  21.177  26.049  1.00  0.00     0.055 A 
ATOM     66  C   UNL A   1      43.534  22.900  24.640  1.00  0.00     0.041 A 
ATOM     67  F   UNL A   1      43.752  25.082  25.397  1.00  0.00    -0.206 F 
ATOM     68  C   UNL A   1      43.167  21.573  24.810  1.00  0.00     0.022 A 
BRANCH  65  69
ATOM     69  S   UNL A   1      42.152  19.446  26.245  1.00  0.00     0.124 S 
ATOM     70  O   UNL A   1      40.753  19.501  25.822  1.00  0.00    -0.237 OA
ATOM     71  O   UNL A   1      43.048  18.737  25.336  1.00  0.00    -0.237 OA
ATOM     72  O   UNL A   1      42.352  19.172  27.665  1.00  0.00    -0.744 OA
ENDBRANCH  65  69
ENDBRANCH  48  62
BRANCH  49  73
ATOM     73  C   UNL A   1      41.174  32.008  31.461  1.00  0.00     0.023 A 
ATOM     74  C   UNL A   1      40.377  31.257  32.338  1.00  0.00     0.031 A 
ATOM     75  C   UNL A   1      40.564  33.079  30.770  1.00  0.00     0.131 A 
ATOM     76  C   UNL A   1      38.986  31.450  32.351  1.00  0.00     0.055 A 
ATOM     77  C   UNL A   1      39.175  33.231  30.745  1.00  0.00     0.041 A 
ATOM     78  F   UNL A   1      41.295  33.879  29.978  1.00  0.00    -0.206 F 
ATOM     79  C   UNL A   1      38.375  32.376  31.499  1.00  0.00     0.022 A 
BRANCH  76  80
ATOM     80  S   UNL A   1      37.972  30.375  33.406  1.00  0.00     0.124 S 
ATOM     81  O   UNL A   1      38.651  29.094  33.244  1.00  0.00    -0.237 OA
ATOM     82  O   UNL A   1      38.098  30.978  34.727  1.00  0.00    -0.237 OA
ATOM     83  O   UNL A   1      36.651  30.479  32.800  1.00  0.00    -0.744 OA
ENDBRANCH  76  80
ENDBRANCH  49  73
BRANCH  61  84
ATOM     84  C   UNL A   1      45.344  26.234  32.635  1.00  0.00     0.023 A 
ATOM     85  C   UNL A   1      44.474  25.525  33.495  1.00  0.00     0.031 A 
ATOM     86  C   UNL A   1      46.696  25.869  32.728  1.00  0.00     0.131 A 
ATOM     87  C   UNL A   1      44.942  24.624  34.454  1.00  0.00     0.055 A 
ATOM     88  C   UNL A   1      47.180  25.017  33.730  1.00  0.00     0.041 A 
ATOM     89  F   UNL A   1      47.591  26.240  31.801  1.00  0.00    -0.206 F 
ATOM     90  C   UNL A   1      46.303  24.404  34.613  1.00  0.00     0.022 A 
BRANCH  87  91
ATOM     91  S   UNL A   1      43.781  23.654  35.451  1.00  0.00     0.124 S 
ATOM     92  O   UNL A   1      42.967  23.020  34.417  1.00  0.00    -0.237 OA
ATOM     93  O   UNL A   1      44.678  22.759  36.178  1.00  0.00    -0.237 OA
ATOM     94  O   UNL A   1      43.095  24.649  36.266  1.00  0.00    -0.744 OA
ENDBRANCH  87  91
ENDBRANCH  61  84
ENDBRANCH  35  36
ENDBRANCH  27  30
ENDBRANCH  25  26
ENDBRANCH   1  25
TORSDOF 19
ENDMDL
MODEL 2
REMARK VINA RESULT:     -11.2      3.893      9.337
REMARK SMILES CSCC[C@@H](NS(=O)(=O)c1ccc(F)c(C)c1)C(=O)NCCCNC(=O)c1ccc(-c2c3nc(c(-c4cc(S(=O)(=O)[O-])ccc4F)c4ccc([nH]4)c(-c4cc(S(=O)(=O)[O-])ccc4F)c4nc(c(-c5cc(S(=O)(=O)[O-])ccc5F)c5ccc2[nH]5)C=C4)C=C3)cc1
REMARK SMILES IDX 22 1 21 2 20 3 18 4 19 5 5 7 4 8 3 9 2 10 1 11 6 12 7 14
REMARK SMILES IDX 8 15 9 16 10 17 11 18 17 19 12 20 15 21 13 22 16 23 14 24
REMARK SMILES IDX 23 25 24 26 25 27 26 29 27 30 28 31 89 32 29 33 88 34 30 35
REMARK SMILES IDX 31 36 32 37 82 38 33 39 87 40 81 41 83 42 34 43 86 44 80 45
REMARK SMILES IDX 79 46 35 48 67 49 47 50 66 51 48 52 51 53 65 54 84 55 49 56
REMARK SMILES IDX 50 57 64 59 85 60 52 61 36 62 37 63 45 64 38 65 44 66 46 67
REMARK SMILES IDX 43 68 39 69 40 70 41 71 42 72 68 73 69 74 77 75 70 76 76 77
REMARK SMILES IDX 78 78 75 79 71 80 72 81 73 82 74 83 53 84 54 85 62 86 55 87
REMARK SMILES IDX 61 88 63 89 60 90 56 91 57 92 58 93 59 94
REMARK H PARENT 20 6 6 13 24 28 83 47 51 58
REMARK Flexibility Score: inf
ROOT
ATOM      1  C   UNL A   1      36.570  23.757  26.805  1.00  0.00     0.042 C 
ENDROOT
BRANCH   1   2
ATOM      2  C   UNL A   1      35.313  23.257  26.124  1.00  0.00     0.117 C 
BRANCH   2   3
ATOM      3  N   UNL A   1      34.341  22.760  27.093  1.00  0.00    -0.355 N 
ATOM      4  C   UNL A   1      32.998  23.005  27.167  1.00  0.00     0.238 C 
ATOM      5  O   UNL A   1      32.333  22.486  28.061  1.00  0.00    -0.273 OA
ATOM      6  H   UNL A   1      34.702  22.164  27.789  1.00  0.00     0.163 HD
BRANCH   4   7
ATOM      7  C   UNL A   1      32.368  23.903  26.108  1.00  0.00     0.159 C 
BRANCH   7   8
ATOM      8  C   UNL A   1      31.396  23.030  25.279  1.00  0.00     0.041 C 
BRANCH   8   9
ATOM      9  C   UNL A   1      31.676  22.777  23.808  1.00  0.00     0.071 C 
BRANCH   9  10
ATOM     10  S   UNL A   1      32.878  21.462  23.483  1.00  0.00    -0.165 SA
ATOM     11  C   UNL A   1      32.349  20.254  24.712  1.00  0.00     0.085 C 
ENDBRANCH   9  10
ENDBRANCH   8   9
ENDBRANCH   7   8
BRANCH   7  12
ATOM     12  N   UNL A   1      31.745  25.051  26.805  1.00  0.00    -0.199 NA
ATOM     13  H   UNL A   1      32.092  25.017  27.764  1.00  0.00     0.142 HD
BRANCH  12  14
ATOM     14  S   UNL A   1      31.927  26.640  26.302  1.00  0.00     0.241 S 
ATOM     15  O   UNL A   1      31.697  27.459  27.470  1.00  0.00    -0.207 OA
ATOM     16  O   UNL A   1      33.202  26.663  25.614  1.00  0.00    -0.207 OA
BRANCH  14  17
ATOM     17  C   UNL A   1      30.693  27.047  25.079  1.00  0.00     0.082 A 
ATOM     18  C   UNL A   1      29.609  26.207  24.823  1.00  0.00     0.025 A 
ATOM     19  C   UNL A   1      30.852  28.211  24.314  1.00  0.00     0.028 A 
ATOM     20  C   UNL A   1      28.582  26.622  23.967  1.00  0.00     0.041 A 
ATOM     21  C   UNL A   1      29.888  28.566  23.355  1.00  0.00    -0.014 A 
ATOM     22  C   UNL A   1      28.723  27.805  23.255  1.00  0.00     0.126 A 
ATOM     23  C   UNL A   1      30.093  29.727  22.430  1.00  0.00     0.047 C 
ATOM     24  F   UNL A   1      27.744  28.187  22.422  1.00  0.00    -0.207 F 
ENDBRANCH  14  17
ENDBRANCH  12  14
ENDBRANCH   7  12
ENDBRANCH   4   7
ENDBRANCH   2   3
ENDBRANCH   1   2
BRANCH   1  25
ATOM     25  C   UNL A   1      37.660  23.735  25.789  1.00  0.00     0.118 C 
BRANCH  25  26
ATOM     26  N   UNL A   1      38.768  22.916  26.282  1.00  0.00    -0.352 N 
ATOM     27  C   UNL A   1      40.007  23.395  26.609  1.00  0.00     0.251 C 
ATOM     28  H   UNL A   1      38.610  21.950  26.385  1.00  0.00     0.163 HD
ATOM     29  O   UNL A   1      40.980  22.646  26.555  1.00  0.00    -0.269 OA
BRANCH  27  30
ATOM     30  C   UNL A   1      40.027  24.780  27.075  1.00  0.00     0.039 A 
ATOM     31  C   UNL A   1      40.412  25.866  26.302  1.00  0.00     0.014 A 
ATOM     32  C   UNL A   1      39.582  24.948  28.387  1.00  0.00     0.014 A 
ATOM     33  C   UNL A   1      40.457  27.103  26.926  1.00  0.00     0.010 A 
ATOM     34  C   UNL A   1      39.233  26.172  28.815  1.00  0.00     0.010 A 
ATOM     35  C   UNL A   1      39.916  27.206  28.210  1.00  0.00    -0.014 A 
BRANCH  35  36
ATOM     36  C   UNL A   1      40.070  28.313  29.121  1.00  0.00     0.031 A 
ATOM     37  C   UNL A   1      39.165  29.437  28.945  1.00  0.00     0.074 A 
ATOM     38  C   UNL A   1      40.895  28.087  30.176  1.00  0.00     0.049 A 
ATOM     39  N   UNL A   1      39.464  30.652  29.224  1.00  0.00    -0.248 NA
ATOM     40  C   UNL A   1      37.840  29.278  28.342  1.00  0.00     0.031 C 
ATOM     41  C   UNL A   1      40.976  28.751  31.461  1.00  0.00     0.029 A 
ATOM     42  N   UNL A   1      41.877  27.089  30.304  1.00  0.00    -0.354 N 
ATOM     43  C   UNL A   1      38.254  31.303  29.281  1.00  0.00     0.074 A 
ATOM     44  C   UNL A   1      37.362  30.520  28.460  1.00  0.00     0.031 C 
ATOM     45  C   UNL A   1      42.118  28.368  32.073  1.00  0.00     0.029 A 
ATOM     46  C   UNL A   1      42.889  27.582  31.121  1.00  0.00     0.049 A 
ATOM     47  H   UNL A   1      41.853  26.197  29.887  1.00  0.00     0.167 HD
ATOM     48  C   UNL A   1      38.063  32.217  30.277  1.00  0.00     0.034 A 
ATOM     49  C   UNL A   1      44.117  27.899  30.599  1.00  0.00     0.034 A 
ATOM     50  C   UNL A   1      39.296  32.341  31.092  1.00  0.00     0.049 A 
ATOM     51  C   UNL A   1      44.309  29.413  30.542  1.00  0.00     0.074 A 
ATOM     52  C   UNL A   1      39.658  31.894  32.353  1.00  0.00     0.029 A 
ATOM     53  N   UNL A   1      40.499  32.647  30.461  1.00  0.00    -0.354 N 
ATOM     54  N   UNL A   1      43.455  30.288  31.001  1.00  0.00    -0.248 NA
ATOM     55  C   UNL A   1      45.420  30.045  29.837  1.00  0.00     0.031 C 
ATOM     56  C   UNL A   1      41.089  31.909  32.450  1.00  0.00     0.029 A 
ATOM     57  C   UNL A   1      41.609  32.387  31.261  1.00  0.00     0.049 A 
ATOM     58  H   UNL A   1      40.558  33.010  29.548  1.00  0.00     0.167 HD
ATOM     59  C   UNL A   1      43.767  31.535  30.532  1.00  0.00     0.074 A 
ATOM     60  C   UNL A   1      45.019  31.327  29.817  1.00  0.00     0.031 C 
ATOM     61  C   UNL A   1      42.951  32.626  30.705  1.00  0.00     0.034 A 
BRANCH  48  62
ATOM     62  C   UNL A   1      36.689  32.730  30.688  1.00  0.00     0.023 A 
ATOM     63  C   UNL A   1      35.942  33.706  29.981  1.00  0.00     0.031 A 
ATOM     64  C   UNL A   1      36.052  32.224  31.836  1.00  0.00     0.131 A 
ATOM     65  C   UNL A   1      34.638  34.082  30.359  1.00  0.00     0.055 A 
ATOM     66  C   UNL A   1      34.767  32.622  32.236  1.00  0.00     0.041 A 
ATOM     67  F   UNL A   1      36.638  31.307  32.618  1.00  0.00    -0.206 F 
ATOM     68  C   UNL A   1      34.045  33.543  31.491  1.00  0.00     0.022 A 
BRANCH  65  69
ATOM     69  S   UNL A   1      33.661  35.247  29.355  1.00  0.00     0.124 S 
ATOM     70  O   UNL A   1      34.592  35.590  28.281  1.00  0.00    -0.237 OA
ATOM     71  O   UNL A   1      32.520  34.433  28.951  1.00  0.00    -0.237 OA
ATOM     72  O   UNL A   1      33.359  36.341  30.275  1.00  0.00    -0.744 OA
ENDBRANCH  65  69
ENDBRANCH  48  62
BRANCH  49  73
ATOM     73  C   UNL A   1      44.526  26.965  29.491  1.00  0.00     0.023 A 
ATOM     74  C   UNL A   1      44.490  27.395  28.156  1.00  0.00     0.031 A 
ATOM     75  C   UNL A   1      44.456  25.575  29.737  1.00  0.00     0.131 A 
ATOM     76  C   UNL A   1      44.187  26.477  27.138  1.00  0.00     0.055 A 
ATOM     77  C   UNL A   1      44.100  24.675  28.728  1.00  0.00     0.041 A 
ATOM     78  F   UNL A   1      44.563  25.102  30.989  1.00  0.00    -0.206 F 
ATOM     79  C   UNL A   1      43.911  25.137  27.429  1.00  0.00     0.022 A 
BRANCH  76  80
ATOM     80  S   UNL A   1      44.025  27.092  25.437  1.00  0.00     0.124 S 
ATOM     81  O   UNL A   1      43.385  28.384  25.661  1.00  0.00    -0.237 OA
ATOM     82  O   UNL A   1      45.403  27.158  24.967  1.00  0.00    -0.237 OA
ATOM     83  O   UNL A   1      43.201  26.073  24.801  1.00  0.00    -0.744 OA
ENDBRANCH  76  80
ENDBRANCH  49  73
BRANCH  61  84
ATOM     84  C   UNL A   1      43.321  34.037  30.286  1.00  0.00     0.023 A 
ATOM     85  C   UNL A   1      43.396  34.364  28.912  1.00  0.00     0.031 A 
ATOM     86  C   UNL A   1      43.490  35.120  31.162  1.00  0.00     0.131 A 
ATOM     87  C   UNL A   1      43.742  35.641  28.466  1.00  0.00     0.055 A 
ATOM     88  C   UNL A   1      43.902  36.386  30.725  1.00  0.00     0.041 A 
ATOM     89  F   UNL A   1      43.175  35.030  32.462  1.00  0.00    -0.206 F 
ATOM     90  C   UNL A   1      44.049  36.648  29.371  1.00  0.00     0.022 A 
BRANCH  87  91
ATOM     91  S   UNL A   1      43.709  36.040  26.699  1.00  0.00     0.124 S 
ATOM     92  O   UNL A   1      45.130  36.235  26.417  1.00  0.00    -0.237 OA
ATOM     93  O   UNL A   1      43.118  34.833  26.126  1.00  0.00    -0.237 OA
ATOM     94  O   UNL A   1      42.885  37.239  26.620  1.00  0.00    -0.744 OA
ENDBRANCH  87  91
ENDBRANCH  61  84
ENDBRANCH  35  36
ENDBRANCH  27  30
ENDBRANCH  25  26
ENDBRANCH   1  25
TORSDOF 19
ENDMDL
MODEL 3
REMARK VINA RESULT:     -11.1      1.981      2.363
REMARK SMILES CSCC[C@@H](NS(=O)(=O)c1ccc(F)c(C)c1)C(=O)NCCCNC(=O)c1ccc(-c2c3nc(c(-c4cc(S(=O)(=O)[O-])ccc4F)c4ccc([nH]4)c(-c4cc(S(=O)(=O)[O-])ccc4F)c4nc(c(-c5cc(S(=O)(=O)[O-])ccc5F)c5ccc2[nH]5)C=C4)C=C3)cc1
REMARK SMILES IDX 22 1 21 2 20 3 18 4 19 5 5 7 4 8 3 9 2 10 1 11 6 12 7 14
REMARK SMILES IDX 8 15 9 16 10 17 11 18 17 19 12 20 15 21 13 22 16 23 14 24
REMARK SMILES IDX 23 25 24 26 25 27 26 29 27 30 28 31 89 32 29 33 88 34 30 35
REMARK SMILES IDX 31 36 32 37 82 38 33 39 87 40 81 41 83 42 34 43 86 44 80 45
REMARK SMILES IDX 79 46 35 48 67 49 47 50 66 51 48 52 51 53 65 54 84 55 49 56
REMARK SMILES IDX 50 57 64 59 85 60 52 61 36 62 37 63 45 64 38 65 44 66 46 67
REMARK SMILES IDX 43 68 39 69 40 70 41 71 42 72 68 73 69 74 77 75 70 76 76 77
REMARK SMILES IDX 78 78 75 79 71 80 72 81 73 82 74 83 53 84 54 85 62 86 55 87
REMARK SMILES IDX 61 88 63 89 60 90 56 91 57 92 58 93 59 94
REMARK H PARENT 20 6 6 13 24 28 83 47 51 58
REMARK Flexibility Score: inf
ROOT
ATOM      1  C   UNL A   1      33.842  29.307  27.268  1.00  0.00     0.042 C 
ENDROOT
BRANCH   1   2
ATOM      2  C   UNL A   1      33.302  28.481  26.119  1.00  0.00     0.117 C 
BRANCH   2   3
ATOM      3  N   UNL A   1      33.838  28.932  24.838  1.00  0.00    -0.355 N 
ATOM      4  C   UNL A   1      33.658  28.396  23.593  1.00  0.00     0.238 C 
ATOM      5  O   UNL A   1      34.190  28.925  22.619  1.00  0.00    -0.273 OA
ATOM      6  H   UNL A   1      34.407  29.736  24.875  1.00  0.00     0.163 HD
BRANCH   4   7
ATOM      7  C   UNL A   1      32.772  27.162  23.460  1.00  0.00     0.159 C 
BRANCH   7   8
ATOM      8  C   UNL A   1      31.722  27.463  22.364  1.00  0.00     0.041 C 
BRANCH   8   9
ATOM      9  C   UNL A   1      30.340  27.958  22.758  1.00  0.00     0.071 C 
BRANCH   9  10
ATOM     10  S   UNL A   1      29.865  29.541  22.016  1.00  0.00    -0.165 SA
ATOM     11  C   UNL A   1      29.283  30.403  23.489  1.00  0.00     0.085 C 
ENDBRANCH   9  10
ENDBRANCH   8   9
ENDBRANCH   7   8
BRANCH   7  12
ATOM     12  N   UNL A   1      33.653  26.004  23.187  1.00  0.00    -0.199 NA
ATOM     13  H   UNL A   1      34.200  25.863  24.036  1.00  0.00     0.142 HD
BRANCH  12  14
ATOM     14  S   UNL A   1      33.072  24.491  22.753  1.00  0.00     0.241 S 
ATOM     15  O   UNL A   1      31.752  24.388  23.332  1.00  0.00    -0.207 OA
ATOM     16  O   UNL A   1      33.265  24.422  21.319  1.00  0.00    -0.207 OA
BRANCH  14  17
ATOM     17  C   UNL A   1      34.097  23.211  23.456  1.00  0.00     0.082 A 
ATOM     18  C   UNL A   1      35.488  23.309  23.470  1.00  0.00     0.025 A 
ATOM     19  C   UNL A   1      33.488  22.050  23.954  1.00  0.00     0.028 A 
ATOM     20  C   UNL A   1      36.256  22.364  24.160  1.00  0.00     0.041 A 
ATOM     21  C   UNL A   1      34.267  21.032  24.530  1.00  0.00    -0.014 A 
ATOM     22  C   UNL A   1      35.636  21.243  24.697  1.00  0.00     0.126 A 
ATOM     23  C   UNL A   1      33.665  19.725  24.947  1.00  0.00     0.047 C 
ATOM     24  F   UNL A   1      36.380  20.331  25.339  1.00  0.00    -0.207 F 
ENDBRANCH  14  17
ENDBRANCH  12  14
ENDBRANCH   7  12
ENDBRANCH   4   7
ENDBRANCH   2   3
ENDBRANCH   1   2
BRANCH   1  25
ATOM     25  C   UNL A   1      35.330  29.270  27.176  1.00  0.00     0.118 C 
BRANCH  25  26
ATOM     26  N   UNL A   1      35.858  30.629  27.298  1.00  0.00    -0.352 N 
ATOM     27  C   UNL A   1      36.860  31.003  28.152  1.00  0.00     0.251 C 
ATOM     28  H   UNL A   1      35.463  31.325  26.725  1.00  0.00     0.163 HD
ATOM     29  O   UNL A   1      36.924  32.169  28.537  1.00  0.00    -0.269 OA
BRANCH  27  30
ATOM     30  C   UNL A   1      37.825  29.951  28.466  1.00  0.00     0.039 A 
ATOM     31  C   UNL A   1      37.617  28.946  29.399  1.00  0.00     0.014 A 
ATOM     32  C   UNL A   1      38.996  30.005  27.710  1.00  0.00     0.014 A 
ATOM     33  C   UNL A   1      38.671  28.077  29.639  1.00  0.00     0.010 A 
ATOM     34  C   UNL A   1      39.797  28.929  27.654  1.00  0.00     0.010 A 
ATOM     35  C   UNL A   1      39.775  28.140  28.785  1.00  0.00    -0.014 A 
BRANCH  35  36
ATOM     36  C   UNL A   1      41.057  27.513  28.990  1.00  0.00     0.031 A 
ATOM     37  C   UNL A   1      41.152  26.097  28.674  1.00  0.00     0.074 A 
ATOM     38  C   UNL A   1      42.086  28.362  29.246  1.00  0.00     0.049 A 
ATOM     39  N   UNL A   1      41.939  25.278  29.268  1.00  0.00    -0.248 NA
ATOM     40  C   UNL A   1      40.275  25.463  27.687  1.00  0.00     0.031 C 
ATOM     41  C   UNL A   1      43.514  28.175  29.098  1.00  0.00     0.029 A 
ATOM     42  N   UNL A   1      42.013  29.694  29.692  1.00  0.00    -0.354 N 
ATOM     43  C   UNL A   1      41.994  24.184  28.436  1.00  0.00     0.074 A 
ATOM     44  C   UNL A   1      40.767  24.222  27.677  1.00  0.00     0.031 C 
ATOM     45  C   UNL A   1      44.150  29.187  29.729  1.00  0.00     0.029 A 
ATOM     46  C   UNL A   1      43.148  29.957  30.451  1.00  0.00     0.049 A 
ATOM     47  H   UNL A   1      41.285  30.329  29.501  1.00  0.00     0.167 HD
ATOM     48  C   UNL A   1      43.205  23.584  28.244  1.00  0.00     0.034 A 
ATOM     49  C   UNL A   1      43.058  30.115  31.811  1.00  0.00     0.034 A 
ATOM     50  C   UNL A   1      44.240  24.261  29.063  1.00  0.00     0.049 A 
ATOM     51  C   UNL A   1      43.639  28.905  32.539  1.00  0.00     0.074 A 
ATOM     52  C   UNL A   1      45.271  25.139  28.768  1.00  0.00     0.029 A 
ATOM     53  N   UNL A   1      44.043  24.388  30.436  1.00  0.00    -0.354 N 
ATOM     54  N   UNL A   1      44.216  27.890  31.952  1.00  0.00    -0.248 NA
ATOM     55  C   UNL A   1      43.484  28.694  33.975  1.00  0.00     0.031 C 
ATOM     56  C   UNL A   1      45.660  25.810  29.974  1.00  0.00     0.029 A 
ATOM     57  C   UNL A   1      44.888  25.330  31.017  1.00  0.00     0.049 A 
ATOM     58  H   UNL A   1      43.378  23.868  30.941  1.00  0.00     0.167 HD
ATOM     59  C   UNL A   1      44.349  26.854  32.834  1.00  0.00     0.074 A 
ATOM     60  C   UNL A   1      43.885  27.418  34.095  1.00  0.00     0.031 C 
ATOM     61  C   UNL A   1      44.761  25.599  32.459  1.00  0.00     0.034 A 
BRANCH  48  62
ATOM     62  C   UNL A   1      43.491  22.625  27.095  1.00  0.00     0.023 A 
ATOM     63  C   UNL A   1      43.120  21.257  27.069  1.00  0.00     0.031 A 
ATOM     64  C   UNL A   1      44.151  23.075  25.937  1.00  0.00     0.131 A 
ATOM     65  C   UNL A   1      43.333  20.436  25.944  1.00  0.00     0.055 A 
ATOM     66  C   UNL A   1      44.396  22.251  24.827  1.00  0.00     0.041 A 
ATOM     67  F   UNL A   1      44.578  24.340  25.818  1.00  0.00    -0.206 F 
ATOM     68  C   UNL A   1      43.976  20.929  24.818  1.00  0.00     0.022 A 
BRANCH  65  69
ATOM     69  S   UNL A   1      42.732  18.717  25.901  1.00  0.00     0.124 S 
ATOM     70  O   UNL A   1      41.297  18.893  25.682  1.00  0.00    -0.237 OA
ATOM     71  O   UNL A   1      43.468  18.156  24.772  1.00  0.00    -0.237 OA
ATOM     72  O   UNL A   1      43.090  18.183  27.212  1.00  0.00    -0.744 OA
ENDBRANCH  65  69
ENDBRANCH  48  62
BRANCH  49  73
ATOM     73  C   UNL A   1      41.784  30.803  32.223  1.00  0.00     0.023 A 
ATOM     74  C   UNL A   1      40.743  30.067  32.810  1.00  0.00     0.031 A 
ATOM     75  C   UNL A   1      41.452  32.020  31.587  1.00  0.00     0.131 A 
ATOM     76  C   UNL A   1      39.410  30.443  32.579  1.00  0.00     0.055 A 
ATOM     77  C   UNL A   1      40.124  32.360  31.313  1.00  0.00     0.041 A 
ATOM     78  F   UNL A   1      42.416  32.803  31.076  1.00  0.00    -0.206 F 
ATOM     79  C   UNL A   1      39.096  31.537  31.765  1.00  0.00     0.022 A 
BRANCH  76  80
ATOM     80  S   UNL A   1      38.086  29.397  33.250  1.00  0.00     0.124 S 
ATOM     81  O   UNL A   1      38.588  28.065  32.932  1.00  0.00    -0.237 OA
ATOM     82  O   UNL A   1      38.074  29.732  34.668  1.00  0.00    -0.237 OA
ATOM     83  O   UNL A   1      36.916  29.835  32.500  1.00  0.00    -0.744 OA
ENDBRANCH  76  80
ENDBRANCH  49  73
BRANCH  61  84
ATOM     84  C   UNL A   1      45.014  24.462  33.432  1.00  0.00     0.023 A 
ATOM     85  C   UNL A   1      46.332  24.188  33.865  1.00  0.00     0.031 A 
ATOM     86  C   UNL A   1      44.015  23.701  34.059  1.00  0.00     0.131 A 
ATOM     87  C   UNL A   1      46.627  23.150  34.751  1.00  0.00     0.055 A 
ATOM     88  C   UNL A   1      44.308  22.616  34.897  1.00  0.00     0.041 A 
ATOM     89  F   UNL A   1      42.718  24.029  33.968  1.00  0.00    -0.206 F 
ATOM     90  C   UNL A   1      45.621  22.323  35.231  1.00  0.00     0.022 A 
BRANCH  87  91
ATOM     91  S   UNL A   1      48.316  22.914  35.364  1.00  0.00     0.124 S 
ATOM     92  O   UNL A   1      48.255  21.542  35.865  1.00  0.00    -0.237 OA
ATOM     93  O   UNL A   1      49.109  23.103  34.152  1.00  0.00    -0.237 OA
ATOM     94  O   UNL A   1      48.471  23.946  36.382  1.00  0.00    -0.744 OA
ENDBRANCH  87  91
ENDBRANCH  61  84
ENDBRANCH  35  36
ENDBRANCH  27  30
ENDBRANCH  25  26
ENDBRANCH   1  25
TORSDOF 19
ENDMDL
