MODEL 1
REMARK VINA RESULT:     -12.3      0.000      0.000
REMARK SMILES C[NH+]1CCC(NC(=O)N[C@H]2C=C[C@H](C(=O)NCCCNC(=O)c3ccc(-c4c5nc(c(-c6cc(S(=O)(=O)[O-])ccc6F)c6ccc([nH]6)c(-c6cc(S(=O)(=O)[O-])ccc6F)c6nc(c(-c7cc(S(=O)(=O)[O-])ccc7F)c7ccc4[nH]7)C=C6)C=C5)cc3)C2)CC1
REMARK SMILES IDX 18 1 17 2 16 3 14 4 15 5 13 7 10 8 11 9 86 10 12 11 9 12
REMARK SMILES IDX 6 13 7 14 8 16 5 18 1 19 2 20 3 21 88 22 4 24 87 25 19 26
REMARK SMILES IDX 20 27 21 28 22 30 23 31 24 32 85 33 25 34 84 35 26 36 27 37
REMARK SMILES IDX 28 38 78 39 29 40 83 41 77 42 79 43 30 44 82 45 76 46 75 47
REMARK SMILES IDX 31 49 63 50 43 51 62 52 44 53 47 54 61 55 80 56 45 57 46 58
REMARK SMILES IDX 60 60 81 61 48 62 32 63 33 64 41 65 34 66 40 67 42 68 39 69
REMARK SMILES IDX 35 70 36 71 37 72 38 73 64 74 65 75 73 76 66 77 72 78 74 79
REMARK SMILES IDX 71 80 67 81 68 82 69 83 70 84 49 85 50 86 58 87 51 88 57 89
REMARK SMILES IDX 59 90 56 91 52 92 53 93 54 94 55 95
REMARK H PARENT 16 6 6 15 9 17 2 23 20 29 79 48 47 59
REMARK Flexibility Score: inf
ROOT
ATOM      1  C   UNL A   1      31.048  31.888  26.479  1.00  0.00     0.042 C 
ENDROOT
BRANCH   1   2
ATOM      2  C   UNL A   1      31.067  30.846  25.358  1.00  0.00     0.117 C 
BRANCH   2   3
ATOM      3  N   UNL A   1      32.331  30.132  25.257  1.00  0.00    -0.356 N 
ATOM      4  C   UNL A   1      32.564  28.780  25.309  1.00  0.00     0.227 C 
ATOM      5  O   UNL A   1      33.693  28.359  25.057  1.00  0.00    -0.274 OA
ATOM      6  H   UNL A   1      33.129  30.696  25.136  1.00  0.00     0.163 HD
BRANCH   4   7
ATOM      7  C   UNL A   1      31.398  27.857  25.653  1.00  0.00     0.103 C 
ATOM      8  C   UNL A   1      31.371  25.415  25.944  1.00  0.00     0.107 C 
ATOM      9  C   UNL A   1      30.806  25.809  24.628  1.00  0.00    -0.006 C 
ATOM     10  C   UNL A   1      31.754  26.726  26.639  1.00  0.00     0.047 C 
ATOM     11  C   UNL A   1      30.876  27.134  24.439  1.00  0.00    -0.016 C 
BRANCH   8  12
ATOM     12  N   UNL A   1      30.533  24.473  26.670  1.00  0.00    -0.332 N 
ATOM     13  N   UNL A   1      31.337  22.232  26.761  1.00  0.00    -0.335 N 
ATOM     14  C   UNL A   1      30.444  23.189  27.011  1.00  0.00     0.315 C 
ATOM     15  H   UNL A   1      31.025  21.337  27.026  1.00  0.00     0.165 HD
ATOM     16  O   UNL A   1      29.423  22.853  27.622  1.00  0.00    -0.249 OA
ATOM     17  H   UNL A   1      29.759  24.955  27.039  1.00  0.00     0.165 HD
BRANCH  13  18
ATOM     18  C   UNL A   1      32.662  22.219  26.187  1.00  0.00     0.095 C 
ATOM     19  C   UNL A   1      36.756  21.660  25.218  1.00  0.00     0.332 C 
ATOM     20  N   UNL A   1      35.488  21.557  25.948  1.00  0.00    -0.337 N 
ATOM     21  C   UNL A   1      34.480  20.866  25.133  1.00  0.00     0.264 C 
ATOM     22  C   UNL A   1      35.055  22.888  26.396  1.00  0.00     0.264 C 
ATOM     23  H   UNL A   1      35.617  20.991  26.785  1.00  0.00     0.347 HD
ATOM     24  C   UNL A   1      33.108  20.810  25.805  1.00  0.00     0.086 C 
ATOM     25  C   UNL A   1      33.703  22.846  27.108  1.00  0.00     0.086 C 
ENDBRANCH  13  18
ENDBRANCH   8  12
ENDBRANCH   4   7
ENDBRANCH   2   3
ENDBRANCH   1   2
BRANCH   1  26
ATOM     26  C   UNL A   1      32.434  32.388  26.879  1.00  0.00     0.118 C 
BRANCH  26  27
ATOM     27  N   UNL A   1      32.400  33.726  27.457  1.00  0.00    -0.352 N 
ATOM     28  C   UNL A   1      33.213  34.321  28.393  1.00  0.00     0.251 C 
ATOM     29  H   UNL A   1      31.672  34.299  27.123  1.00  0.00     0.163 HD
ATOM     30  O   UNL A   1      32.907  35.441  28.798  1.00  0.00    -0.269 OA
BRANCH  28  31
ATOM     31  C   UNL A   1      34.403  33.629  28.946  1.00  0.00     0.039 A 
ATOM     32  C   UNL A   1      35.665  34.204  28.742  1.00  0.00     0.014 A 
ATOM     33  C   UNL A   1      34.307  32.421  29.639  1.00  0.00     0.014 A 
ATOM     34  C   UNL A   1      36.806  33.611  29.290  1.00  0.00     0.010 A 
ATOM     35  C   UNL A   1      35.432  31.876  30.255  1.00  0.00     0.010 A 
ATOM     36  C   UNL A   1      36.695  32.462  30.087  1.00  0.00    -0.014 A 
BRANCH  36  37
ATOM     37  C   UNL A   1      37.877  31.853  30.753  1.00  0.00     0.031 A 
ATOM     38  C   UNL A   1      38.690  30.806  30.038  1.00  0.00     0.074 A 
ATOM     39  C   UNL A   1      38.166  32.175  32.030  1.00  0.00     0.049 A 
ATOM     40  N   UNL A   1      39.670  30.064  30.488  1.00  0.00    -0.248 NA
ATOM     41  C   UNL A   1      38.318  30.533  28.644  1.00  0.00     0.031 C 
ATOM     42  C   UNL A   1      37.430  33.144  32.844  1.00  0.00     0.029 A 
ATOM     43  N   UNL A   1      39.147  31.713  32.871  1.00  0.00    -0.354 N 
ATOM     44  C   UNL A   1      40.015  29.217  29.439  1.00  0.00     0.074 A 
ATOM     45  C   UNL A   1      39.092  29.497  28.359  1.00  0.00     0.031 C 
ATOM     46  C   UNL A   1      38.001  33.223  34.057  1.00  0.00     0.029 A 
ATOM     47  C   UNL A   1      39.110  32.278  34.125  1.00  0.00     0.049 A 
ATOM     48  H   UNL A   1      39.814  31.041  32.603  1.00  0.00     0.167 HD
ATOM     49  C   UNL A   1      41.022  28.309  29.373  1.00  0.00     0.034 A 
ATOM     50  C   UNL A   1      39.876  32.052  35.210  1.00  0.00     0.034 A 
ATOM     51  C   UNL A   1      41.944  28.058  30.455  1.00  0.00     0.049 A 
ATOM     52  C   UNL A   1      40.981  31.032  35.123  1.00  0.00     0.074 A 
ATOM     53  C   UNL A   1      43.035  27.205  30.483  1.00  0.00     0.029 A 
ATOM     54  N   UNL A   1      41.883  28.659  31.708  1.00  0.00    -0.354 N 
ATOM     55  N   UNL A   1      41.320  30.265  34.113  1.00  0.00    -0.248 NA
ATOM     56  C   UNL A   1      41.810  30.855  36.322  1.00  0.00     0.031 C 
ATOM     57  C   UNL A   1      43.593  27.245  31.766  1.00  0.00     0.029 A 
ATOM     58  C   UNL A   1      42.897  28.175  32.521  1.00  0.00     0.049 A 
ATOM     59  H   UNL A   1      41.215  29.330  31.978  1.00  0.00     0.167 HD
ATOM     60  C   UNL A   1      42.422  29.534  34.546  1.00  0.00     0.074 A 
ATOM     61  C   UNL A   1      42.696  29.961  35.904  1.00  0.00     0.031 C 
ATOM     62  C   UNL A   1      43.148  28.600  33.879  1.00  0.00     0.034 A 
BRANCH  49  63
ATOM     63  C   UNL A   1      41.148  27.511  28.095  1.00  0.00     0.023 A 
ATOM     64  C   UNL A   1      40.776  26.156  28.032  1.00  0.00     0.031 A 
ATOM     65  C   UNL A   1      41.703  28.091  26.939  1.00  0.00     0.131 A 
ATOM     66  C   UNL A   1      41.063  25.401  26.885  1.00  0.00     0.055 A 
ATOM     67  C   UNL A   1      41.896  27.357  25.766  1.00  0.00     0.041 A 
ATOM     68  F   UNL A   1      42.093  29.375  26.938  1.00  0.00    -0.206 F 
ATOM     69  C   UNL A   1      41.597  25.997  25.742  1.00  0.00     0.022 A 
BRANCH  66  70
ATOM     70  S   UNL A   1      40.904  23.596  26.980  1.00  0.00     0.124 S 
ATOM     71  O   UNL A   1      41.373  23.331  28.339  1.00  0.00    -0.237 OA
ATOM     72  O   UNL A   1      39.479  23.392  26.745  1.00  0.00    -0.237 OA
ATOM     73  O   UNL A   1      41.789  23.118  25.921  1.00  0.00    -0.744 OA
ENDBRANCH  66  70
ENDBRANCH  49  63
BRANCH  50  74
ATOM     74  C   UNL A   1      39.631  32.805  36.471  1.00  0.00     0.023 A 
ATOM     75  C   UNL A   1      38.696  32.346  37.411  1.00  0.00     0.031 A 
ATOM     76  C   UNL A   1      40.315  34.002  36.748  1.00  0.00     0.131 A 
ATOM     77  C   UNL A   1      38.443  33.096  38.570  1.00  0.00     0.055 A 
ATOM     78  C   UNL A   1      40.092  34.723  37.922  1.00  0.00     0.041 A 
ATOM     79  F   UNL A   1      41.227  34.479  35.884  1.00  0.00    -0.206 F 
ATOM     80  C   UNL A   1      39.143  34.275  38.837  1.00  0.00     0.022 A 
BRANCH  77  81
ATOM     81  S   UNL A   1      37.139  32.536  39.699  1.00  0.00     0.124 S 
ATOM     82  O   UNL A   1      35.948  32.673  38.869  1.00  0.00    -0.237 OA
ATOM     83  O   UNL A   1      37.563  31.171  39.996  1.00  0.00    -0.237 OA
ATOM     84  O   UNL A   1      37.234  33.472  40.817  1.00  0.00    -0.744 OA
ENDBRANCH  77  81
ENDBRANCH  50  74
BRANCH  62  85
ATOM     85  C   UNL A   1      44.334  28.014  34.604  1.00  0.00     0.023 A 
ATOM     86  C   UNL A   1      44.235  26.824  35.346  1.00  0.00     0.031 A 
ATOM     87  C   UNL A   1      45.578  28.667  34.562  1.00  0.00     0.131 A 
ATOM     88  C   UNL A   1      45.347  26.352  36.059  1.00  0.00     0.055 A 
ATOM     89  C   UNL A   1      46.696  28.162  35.228  1.00  0.00     0.041 A 
ATOM     90  F   UNL A   1      45.729  29.807  33.871  1.00  0.00    -0.206 F 
ATOM     91  C   UNL A   1      46.581  27.005  35.993  1.00  0.00     0.022 A 
BRANCH  88  92
ATOM     92  S   UNL A   1      45.137  24.917  37.150  1.00  0.00     0.124 S 
ATOM     93  O   UNL A   1      44.211  25.431  38.153  1.00  0.00    -0.237 OA
ATOM     94  O   UNL A   1      44.599  23.910  36.241  1.00  0.00    -0.237 OA
ATOM     95  O   UNL A   1      46.491  24.654  37.635  1.00  0.00    -0.744 OA
ENDBRANCH  88  92
ENDBRANCH  62  85
ENDBRANCH  36  37
ENDBRANCH  28  31
ENDBRANCH  26  27
ENDBRANCH   1  26
TORSDOF 15
ENDMDL
MODEL 2
REMARK VINA RESULT:     -12.3      1.634      1.994
REMARK SMILES C[NH+]1CCC(NC(=O)N[C@H]2C=C[C@H](C(=O)NCCCNC(=O)c3ccc(-c4c5nc(c(-c6cc(S(=O)(=O)[O-])ccc6F)c6ccc([nH]6)c(-c6cc(S(=O)(=O)[O-])ccc6F)c6nc(c(-c7cc(S(=O)(=O)[O-])ccc7F)c7ccc4[nH]7)C=C6)C=C5)cc3)C2)CC1
REMARK SMILES IDX 18 1 17 2 16 3 14 4 15 5 13 7 10 8 11 9 86 10 12 11 9 12
REMARK SMILES IDX 6 13 7 14 8 16 5 18 1 19 2 20 3 21 88 22 4 24 87 25 19 26
REMARK SMILES IDX 20 27 21 28 22 30 23 31 24 32 85 33 25 34 84 35 26 36 27 37
REMARK SMILES IDX 28 38 78 39 29 40 83 41 77 42 79 43 30 44 82 45 76 46 75 47
REMARK SMILES IDX 31 49 63 50 43 51 62 52 44 53 47 54 61 55 80 56 45 57 46 58
REMARK SMILES IDX 60 60 81 61 48 62 32 63 33 64 41 65 34 66 40 67 42 68 39 69
REMARK SMILES IDX 35 70 36 71 37 72 38 73 64 74 65 75 73 76 66 77 72 78 74 79
REMARK SMILES IDX 71 80 67 81 68 82 69 83 70 84 49 85 50 86 58 87 51 88 57 89
REMARK SMILES IDX 59 90 56 91 52 92 53 93 54 94 55 95
REMARK H PARENT 16 6 6 15 9 17 2 23 20 29 79 48 47 59
REMARK Flexibility Score: inf
ROOT
ATOM      1  C   UNL A   1      31.625  31.812  26.508  1.00  0.00     0.042 C 
ENDROOT
BRANCH   1   2
ATOM      2  C   UNL A   1      31.719  30.288  26.402  1.00  0.00     0.117 C 
BRANCH   2   3
ATOM      3  N   UNL A   1      32.192  29.831  25.103  1.00  0.00    -0.356 N 
ATOM      4  C   UNL A   1      31.744  28.777  24.344  1.00  0.00     0.227 C 
ATOM      5  O   UNL A   1      32.178  28.639  23.201  1.00  0.00    -0.274 OA
ATOM      6  H   UNL A   1      32.935  30.347  24.716  1.00  0.00     0.163 HD
BRANCH   4   7
ATOM      7  C   UNL A   1      30.705  27.839  24.952  1.00  0.00     0.103 C 
ATOM      8  C   UNL A   1      30.852  25.424  25.398  1.00  0.00     0.107 C 
ATOM      9  C   UNL A   1      30.043  25.702  24.183  1.00  0.00    -0.006 C 
ATOM     10  C   UNL A   1      31.286  26.795  25.927  1.00  0.00     0.047 C 
ATOM     11  C   UNL A   1      30.012  27.011  23.901  1.00  0.00    -0.016 C 
BRANCH   8  12
ATOM     12  N   UNL A   1      30.204  24.506  26.322  1.00  0.00    -0.332 N 
ATOM     13  N   UNL A   1      31.390  22.491  26.778  1.00  0.00    -0.335 N 
ATOM     14  C   UNL A   1      30.347  23.312  26.893  1.00  0.00     0.315 C 
ATOM     15  H   UNL A   1      31.244  21.621  27.215  1.00  0.00     0.165 HD
ATOM     16  O   UNL A   1      29.411  22.927  27.603  1.00  0.00    -0.249 OA
ATOM     17  H   UNL A   1      29.363  24.910  26.634  1.00  0.00     0.165 HD
BRANCH  13  18
ATOM     18  C   UNL A   1      32.688  22.595  26.152  1.00  0.00     0.095 C 
ATOM     19  C   UNL A   1      36.412  22.004  24.203  1.00  0.00     0.332 C 
ATOM     20  N   UNL A   1      35.105  21.700  24.798  1.00  0.00    -0.337 N 
ATOM     21  C   UNL A   1      34.033  22.377  24.058  1.00  0.00     0.264 C 
ATOM     22  C   UNL A   1      35.115  22.029  26.230  1.00  0.00     0.264 C 
ATOM     23  H   UNL A   1      34.918  20.701  24.725  1.00  0.00     0.347 HD
ATOM     24  C   UNL A   1      32.654  22.173  24.686  1.00  0.00     0.086 C 
ATOM     25  C   UNL A   1      33.755  21.790  26.887  1.00  0.00     0.086 C 
ENDBRANCH  13  18
ENDBRANCH   8  12
ENDBRANCH   4   7
ENDBRANCH   2   3
ENDBRANCH   1   2
BRANCH   1  26
ATOM     26  C   UNL A   1      32.799  32.452  27.245  1.00  0.00     0.118 C 
BRANCH  26  27
ATOM     27  N   UNL A   1      32.529  33.830  27.636  1.00  0.00    -0.352 N 
ATOM     28  C   UNL A   1      33.140  34.636  28.568  1.00  0.00     0.251 C 
ATOM     29  H   UNL A   1      31.784  34.256  27.152  1.00  0.00     0.163 HD
ATOM     30  O   UNL A   1      32.651  35.743  28.786  1.00  0.00    -0.269 OA
BRANCH  28  31
ATOM     31  C   UNL A   1      34.328  34.183  29.332  1.00  0.00     0.039 A 
ATOM     32  C   UNL A   1      34.126  33.454  30.511  1.00  0.00     0.014 A 
ATOM     33  C   UNL A   1      35.631  34.478  28.926  1.00  0.00     0.014 A 
ATOM     34  C   UNL A   1      35.219  32.965  31.234  1.00  0.00     0.010 A 
ATOM     35  C   UNL A   1      36.716  33.920  29.599  1.00  0.00     0.010 A 
ATOM     36  C   UNL A   1      36.525  33.159  30.761  1.00  0.00    -0.014 A 
BRANCH  36  37
ATOM     37  C   UNL A   1      37.704  32.582  31.460  1.00  0.00     0.031 A 
ATOM     38  C   UNL A   1      38.462  31.437  30.841  1.00  0.00     0.074 A 
ATOM     39  C   UNL A   1      38.040  33.027  32.687  1.00  0.00     0.049 A 
ATOM     40  N   UNL A   1      39.429  30.712  31.344  1.00  0.00    -0.248 NA
ATOM     41  C   UNL A   1      38.043  31.030  29.493  1.00  0.00     0.031 C 
ATOM     42  C   UNL A   1      37.359  34.103  33.410  1.00  0.00     0.029 A 
ATOM     43  N   UNL A   1      39.027  32.623  33.548  1.00  0.00    -0.354 N 
ATOM     44  C   UNL A   1      39.717  29.746  30.384  1.00  0.00     0.074 A 
ATOM     45  C   UNL A   1      38.774  29.943  29.303  1.00  0.00     0.031 C 
ATOM     46  C   UNL A   1      37.965  34.290  34.594  1.00  0.00     0.029 A 
ATOM     47  C   UNL A   1      39.045  33.319  34.735  1.00  0.00     0.049 A 
ATOM     48  H   UNL A   1      39.664  31.902  33.338  1.00  0.00     0.167 HD
ATOM     49  C   UNL A   1      40.691  28.801  30.392  1.00  0.00     0.034 A 
ATOM     50  C   UNL A   1      39.832  33.182  35.819  1.00  0.00     0.034 A 
ATOM     51  C   UNL A   1      41.634  28.634  31.471  1.00  0.00     0.049 A 
ATOM     52  C   UNL A   1      40.900  32.119  35.816  1.00  0.00     0.074 A 
ATOM     53  C   UNL A   1      42.697  27.750  31.564  1.00  0.00     0.029 A 
ATOM     54  N   UNL A   1      41.628  29.366  32.654  1.00  0.00    -0.354 N 
ATOM     55  N   UNL A   1      41.185  31.238  34.886  1.00  0.00    -0.248 NA
ATOM     56  C   UNL A   1      41.757  32.041  37.006  1.00  0.00     0.031 C 
ATOM     57  C   UNL A   1      43.291  27.906  32.822  1.00  0.00     0.029 A 
ATOM     58  C   UNL A   1      42.648  28.936  33.489  1.00  0.00     0.049 A 
ATOM     59  H   UNL A   1      40.991  30.085  32.867  1.00  0.00     0.167 HD
ATOM     60  C   UNL A   1      42.275  30.518  35.367  1.00  0.00     0.074 A 
ATOM     61  C   UNL A   1      42.600  31.077  36.665  1.00  0.00     0.031 C 
ATOM     62  C   UNL A   1      42.951  29.493  34.787  1.00  0.00     0.034 A 
BRANCH  49  63
ATOM     63  C   UNL A   1      40.755  27.868  29.203  1.00  0.00     0.023 A 
ATOM     64  C   UNL A   1      41.704  28.042  28.179  1.00  0.00     0.031 A 
ATOM     65  C   UNL A   1      39.819  26.828  29.057  1.00  0.00     0.131 A 
ATOM     66  C   UNL A   1      41.628  27.268  27.012  1.00  0.00     0.055 A 
ATOM     67  C   UNL A   1      39.811  25.996  27.934  1.00  0.00     0.041 A 
ATOM     68  F   UNL A   1      38.878  26.619  29.990  1.00  0.00    -0.206 F 
ATOM     69  C   UNL A   1      40.706  26.229  26.893  1.00  0.00     0.022 A 
BRANCH  66  70
ATOM     70  S   UNL A   1      42.628  27.766  25.582  1.00  0.00     0.124 S 
ATOM     71  O   UNL A   1      41.867  28.906  25.075  1.00  0.00    -0.237 OA
ATOM     72  O   UNL A   1      43.917  28.078  26.191  1.00  0.00    -0.237 OA
ATOM     73  O   UNL A   1      42.611  26.585  24.723  1.00  0.00    -0.744 OA
ENDBRANCH  66  70
ENDBRANCH  49  63
BRANCH  50  74
ATOM     74  C   UNL A   1      39.647  34.073  36.998  1.00  0.00     0.023 A 
ATOM     75  C   UNL A   1      39.032  33.600  38.167  1.00  0.00     0.031 A 
ATOM     76  C   UNL A   1      40.069  35.415  36.969  1.00  0.00     0.131 A 
ATOM     77  C   UNL A   1      38.821  34.469  39.248  1.00  0.00     0.055 A 
ATOM     78  C   UNL A   1      39.897  36.264  38.063  1.00  0.00     0.041 A 
ATOM     79  F   UNL A   1      40.672  35.913  35.877  1.00  0.00    -0.206 F 
ATOM     80  C   UNL A   1      39.261  35.794  39.209  1.00  0.00     0.022 A 
BRANCH  77  81
ATOM     81  S   UNL A   1      37.911  33.854  40.691  1.00  0.00     0.124 S 
ATOM     82  O   UNL A   1      38.890  32.961  41.301  1.00  0.00    -0.237 OA
ATOM     83  O   UNL A   1      37.628  35.088  41.418  1.00  0.00    -0.237 OA
ATOM     84  O   UNL A   1      36.746  33.198  40.104  1.00  0.00    -0.744 OA
ENDBRANCH  77  81
ENDBRANCH  50  74
BRANCH  62  85
ATOM     85  C   UNL A   1      44.136  28.945  35.542  1.00  0.00     0.023 A 
ATOM     86  C   UNL A   1      44.005  27.894  36.466  1.00  0.00     0.031 A 
ATOM     87  C   UNL A   1      45.414  29.496  35.342  1.00  0.00     0.131 A 
ATOM     88  C   UNL A   1      45.123  27.462  37.194  1.00  0.00     0.055 A 
ATOM     89  C   UNL A   1      46.533  29.024  36.029  1.00  0.00     0.041 A 
ATOM     90  F   UNL A   1      45.596  30.503  34.473  1.00  0.00    -0.206 F 
ATOM     91  C   UNL A   1      46.390  28.010  36.971  1.00  0.00     0.022 A 
BRANCH  88  92
ATOM     92  S   UNL A   1      44.886  26.231  38.507  1.00  0.00     0.124 S 
ATOM     93  O   UNL A   1      43.515  26.497  38.928  1.00  0.00    -0.237 OA
ATOM     94  O   UNL A   1      45.102  24.973  37.797  1.00  0.00    -0.237 OA
ATOM     95  O   UNL A   1      45.914  26.573  39.488  1.00  0.00    -0.744 OA
ENDBRANCH  88  92
ENDBRANCH  62  85
ENDBRANCH  36  37
ENDBRANCH  28  31
ENDBRANCH  26  27
ENDBRANCH   1  26
TORSDOF 15
ENDMDL
MODEL 3
REMARK VINA RESULT:     -12.2      5.358     10.887
REMARK SMILES C[NH+]1CCC(NC(=O)N[C@H]2C=C[C@H](C(=O)NCCCNC(=O)c3ccc(-c4c5nc(c(-c6cc(S(=O)(=O)[O-])ccc6F)c6ccc([nH]6)c(-c6cc(S(=O)(=O)[O-])ccc6F)c6nc(c(-c7cc(S(=O)(=O)[O-])ccc7F)c7ccc4[nH]7)C=C6)C=C5)cc3)C2)CC1
REMARK SMILES IDX 18 1 17 2 16 3 14 4 15 5 13 7 10 8 11 9 86 10 12 11 9 12
REMARK SMILES IDX 6 13 7 14 8 16 5 18 1 19 2 20 3 21 88 22 4 24 87 25 19 26
REMARK SMILES IDX 20 27 21 28 22 30 23 31 24 32 85 33 25 34 84 35 26 36 27 37
REMARK SMILES IDX 28 38 78 39 29 40 83 41 77 42 79 43 30 44 82 45 76 46 75 47
REMARK SMILES IDX 31 49 63 50 43 51 62 52 44 53 47 54 61 55 80 56 45 57 46 58
REMARK SMILES IDX 60 60 81 61 48 62 32 63 33 64 41 65 34 66 40 67 42 68 39 69
REMARK SMILES IDX 35 70 36 71 37 72 38 73 64 74 65 75 73 76 66 77 72 78 74 79
REMARK SMILES IDX 71 80 67 81 68 82 69 83 70 84 49 85 50 86 58 87 51 88 57 89
REMARK SMILES IDX 59 90 56 91 52 92 53 93 54 94 55 95
REMARK H PARENT 16 6 6 15 9 17 2 23 20 29 79 48 47 59
REMARK Flexibility Score: inf
ROOT
ATOM      1  C   UNL A   1      35.495  21.437  26.168  1.00  0.00     0.042 C 
ENDROOT
BRANCH   1   2
ATOM      2  C   UNL A   1      35.153  22.731  26.911  1.00  0.00     0.117 C 
BRANCH   2   3
ATOM      3  N   UNL A   1      33.737  22.855  27.228  1.00  0.00    -0.356 N 
ATOM      4  C   UNL A   1      32.659  22.830  26.379  1.00  0.00     0.227 C 
ATOM      5  O   UNL A   1      31.524  22.804  26.856  1.00  0.00    -0.274 OA
ATOM      6  H   UNL A   1      33.525  22.972  28.182  1.00  0.00     0.163 HD
BRANCH   4   7
ATOM      7  C   UNL A   1      32.922  22.811  24.875  1.00  0.00     0.103 C 
ATOM      8  C   UNL A   1      31.991  24.246  23.108  1.00  0.00     0.107 C 
ATOM      9  C   UNL A   1      31.343  22.909  23.116  1.00  0.00    -0.006 C 
ATOM     10  C   UNL A   1      33.031  24.209  24.232  1.00  0.00     0.047 C 
ATOM     11  C   UNL A   1      31.803  22.146  24.116  1.00  0.00    -0.016 C 
BRANCH   8  12
ATOM     12  N   UNL A   1      32.426  24.665  21.784  1.00  0.00    -0.332 N 
ATOM     13  N   UNL A   1      32.601  27.016  21.450  1.00  0.00    -0.335 N 
ATOM     14  C   UNL A   1      32.664  25.748  21.047  1.00  0.00     0.315 C 
ATOM     15  H   UNL A   1      32.729  27.659  20.715  1.00  0.00     0.165 HD
ATOM     16  O   UNL A   1      32.974  25.552  19.867  1.00  0.00    -0.249 OA
ATOM     17  H   UNL A   1      32.609  23.864  21.242  1.00  0.00     0.165 HD
BRANCH  13  18
ATOM     18  C   UNL A   1      32.386  27.658  22.726  1.00  0.00     0.095 C 
ATOM     19  C   UNL A   1      31.906  30.306  26.008  1.00  0.00     0.332 C 
ATOM     20  N   UNL A   1      32.153  29.841  24.639  1.00  0.00    -0.337 N 
ATOM     21  C   UNL A   1      30.958  29.184  24.095  1.00  0.00     0.264 C 
ATOM     22  C   UNL A   1      33.349  28.987  24.604  1.00  0.00     0.264 C 
ATOM     23  H   UNL A   1      32.342  30.639  24.033  1.00  0.00     0.347 HD
ATOM     24  C   UNL A   1      31.183  28.596  22.702  1.00  0.00     0.086 C 
ATOM     25  C   UNL A   1      33.614  28.423  23.208  1.00  0.00     0.086 C 
ENDBRANCH  13  18
ENDBRANCH   8  12
ENDBRANCH   4   7
ENDBRANCH   2   3
ENDBRANCH   1   2
BRANCH   1  26
ATOM     26  C   UNL A   1      36.674  21.572  25.207  1.00  0.00     0.118 C 
BRANCH  26  27
ATOM     27  N   UNL A   1      37.682  20.539  25.413  1.00  0.00    -0.352 N 
ATOM     28  C   UNL A   1      38.977  20.626  25.867  1.00  0.00     0.251 C 
ATOM     29  H   UNL A   1      37.387  19.627  25.188  1.00  0.00     0.163 HD
ATOM     30  O   UNL A   1      39.666  19.607  25.851  1.00  0.00    -0.269 OA
BRANCH  28  31
ATOM     31  C   UNL A   1      39.560  21.911  26.324  1.00  0.00     0.039 A 
ATOM     32  C   UNL A   1      40.680  21.876  27.164  1.00  0.00     0.014 A 
ATOM     33  C   UNL A   1      39.016  23.145  25.962  1.00  0.00     0.014 A 
ATOM     34  C   UNL A   1      41.290  23.064  27.576  1.00  0.00     0.010 A 
ATOM     35  C   UNL A   1      39.672  24.326  26.304  1.00  0.00     0.010 A 
ATOM     36  C   UNL A   1      40.816  24.301  27.115  1.00  0.00    -0.014 A 
BRANCH  36  37
ATOM     37  C   UNL A   1      41.490  25.579  27.466  1.00  0.00     0.031 A 
ATOM     38  C   UNL A   1      40.764  26.616  28.284  1.00  0.00     0.074 A 
ATOM     39  C   UNL A   1      42.718  25.845  26.977  1.00  0.00     0.049 A 
ATOM     40  N   UNL A   1      41.123  27.839  28.583  1.00  0.00    -0.248 NA
ATOM     41  C   UNL A   1      39.441  26.234  28.794  1.00  0.00     0.031 C 
ATOM     42  C   UNL A   1      43.507  24.940  26.140  1.00  0.00     0.029 A 
ATOM     43  N   UNL A   1      43.511  26.957  27.102  1.00  0.00    -0.354 N 
ATOM     44  C   UNL A   1      40.057  28.381  29.296  1.00  0.00     0.074 A 
ATOM     45  C   UNL A   1      39.019  27.373  29.320  1.00  0.00     0.031 C 
ATOM     46  C   UNL A   1      44.681  25.523  25.848  1.00  0.00     0.029 A 
ATOM     47  C   UNL A   1      44.710  26.859  26.434  1.00  0.00     0.049 A 
ATOM     48  H   UNL A   1      43.247  27.752  27.620  1.00  0.00     0.167 HD
ATOM     49  C   UNL A   1      39.964  29.596  29.895  1.00  0.00     0.034 A 
ATOM     50  C   UNL A   1      45.713  27.748  26.300  1.00  0.00     0.034 A 
ATOM     51  C   UNL A   1      41.020  30.581  29.875  1.00  0.00     0.049 A 
ATOM     52  C   UNL A   1      45.587  29.095  26.960  1.00  0.00     0.074 A 
ATOM     53  C   UNL A   1      41.059  31.820  30.492  1.00  0.00     0.029 A 
ATOM     54  N   UNL A   1      42.226  30.440  29.197  1.00  0.00    -0.354 N 
ATOM     55  N   UNL A   1      44.590  29.582  27.662  1.00  0.00    -0.248 NA
ATOM     56  C   UNL A   1      46.727  30.010  26.816  1.00  0.00     0.031 C 
ATOM     57  C   UNL A   1      42.259  32.450  30.138  1.00  0.00     0.029 A 
ATOM     58  C   UNL A   1      43.002  31.578  29.360  1.00  0.00     0.049 A 
ATOM     59  H   UNL A   1      42.490  29.647  28.678  1.00  0.00     0.167 HD
ATOM     60  C   UNL A   1      44.995  30.850  28.067  1.00  0.00     0.074 A 
ATOM     61  C   UNL A   1      46.331  31.047  27.540  1.00  0.00     0.031 C 
ATOM     62  C   UNL A   1      44.327  31.766  28.815  1.00  0.00     0.034 A 
BRANCH  49  63
ATOM     63  C   UNL A   1      38.663  29.922  30.592  1.00  0.00     0.023 A 
ATOM     64  C   UNL A   1      37.628  30.614  29.936  1.00  0.00     0.031 A 
ATOM     65  C   UNL A   1      38.473  29.593  31.947  1.00  0.00     0.131 A 
ATOM     66  C   UNL A   1      36.507  31.049  30.658  1.00  0.00     0.055 A 
ATOM     67  C   UNL A   1      37.308  29.944  32.635  1.00  0.00     0.041 A 
ATOM     68  F   UNL A   1      39.427  28.947  32.633  1.00  0.00    -0.206 F 
ATOM     69  C   UNL A   1      36.327  30.697  31.996  1.00  0.00     0.022 A 
BRANCH  66  70
ATOM     70  S   UNL A   1      35.386  32.239  29.871  1.00  0.00     0.124 S 
ATOM     71  O   UNL A   1      34.431  32.498  30.946  1.00  0.00    -0.237 OA
ATOM     72  O   UNL A   1      36.281  33.340  29.532  1.00  0.00    -0.237 OA
ATOM     73  O   UNL A   1      34.844  31.499  28.733  1.00  0.00    -0.744 OA
ENDBRANCH  66  70
ENDBRANCH  49  63
BRANCH  50  74
ATOM     74  C   UNL A   1      46.927  27.395  25.512  1.00  0.00     0.023 A 
ATOM     75  C   UNL A   1      47.052  27.787  24.171  1.00  0.00     0.031 A 
ATOM     76  C   UNL A   1      47.973  26.647  26.083  1.00  0.00     0.131 A 
ATOM     77  C   UNL A   1      48.180  27.402  23.432  1.00  0.00     0.055 A 
ATOM     78  C   UNL A   1      49.114  26.304  25.357  1.00  0.00     0.041 A 
ATOM     79  F   UNL A   1      47.905  26.256  27.367  1.00  0.00    -0.206 F 
ATOM     80  C   UNL A   1      49.218  26.673  24.019  1.00  0.00     0.022 A 
BRANCH  77  81
ATOM     81  S   UNL A   1      48.248  27.821  21.669  1.00  0.00     0.124 S 
ATOM     82  O   UNL A   1      48.540  26.525  21.066  1.00  0.00    -0.237 OA
ATOM     83  O   UNL A   1      46.909  28.352  21.433  1.00  0.00    -0.237 OA
ATOM     84  O   UNL A   1      49.327  28.803  21.594  1.00  0.00    -0.744 OA
ENDBRANCH  77  81
ENDBRANCH  50  74
BRANCH  62  85
ATOM     85  C   UNL A   1      45.058  33.045  29.138  1.00  0.00     0.023 A 
ATOM     86  C   UNL A   1      44.939  34.190  28.332  1.00  0.00     0.031 A 
ATOM     87  C   UNL A   1      45.899  33.111  30.263  1.00  0.00     0.131 A 
ATOM     88  C   UNL A   1      45.690  35.337  28.633  1.00  0.00     0.055 A 
ATOM     89  C   UNL A   1      46.600  34.272  30.588  1.00  0.00     0.041 A 
ATOM     90  F   UNL A   1      46.052  32.046  31.065  1.00  0.00    -0.206 F 
ATOM     91  C   UNL A   1      46.508  35.391  29.764  1.00  0.00     0.022 A 
BRANCH  88  92
ATOM     92  S   UNL A   1      45.652  36.733  27.473  1.00  0.00     0.124 S 
ATOM     93  O   UNL A   1      44.257  36.734  27.046  1.00  0.00    -0.237 OA
ATOM     94  O   UNL A   1      46.061  37.850  28.318  1.00  0.00    -0.237 OA
ATOM     95  O   UNL A   1      46.615  36.349  26.443  1.00  0.00    -0.744 OA
ENDBRANCH  88  92
ENDBRANCH  62  85
ENDBRANCH  36  37
ENDBRANCH  28  31
ENDBRANCH  26  27
ENDBRANCH   1  26
TORSDOF 15
ENDMDL
