MODEL 1
REMARK VINA RESULT:     -12.7      0.000      0.000
REMARK SMILES CS(=O)(=O)c1ccc(/C=C(/C(=O)NCCCNC(=O)c2ccc(-c3c4nc(c(-c5cc(S(=O)(=O)[O-])ccc5F)c5ccc([nH]5)c(-c5cc(S(=O)(=O)[O-])ccc5F)c5nc(c(-c6cc(S(=O)(=O)[O-])ccc6F)c6ccc3[nH]6)C=C5)C=C4)cc2)c2ccc(-c3ccc(S(C)(=O)=O)cc3)cc2)cc1
REMARK SMILES IDX 15 1 14 2 13 3 11 4 12 5 10 7 9 8 8 9 5 10 6 11 100 12 7 13
REMARK SMILES IDX 99 14 2 15 1 16 3 17 4 18 83 19 84 20 98 21 85 22 97 23
REMARK SMILES IDX 86 24 87 25 88 26 96 27 89 28 95 29 90 30 91 31 92 32 93 33
REMARK SMILES IDX 94 34 16 35 17 36 18 37 19 39 20 40 21 41 82 42 22 43 81 44
REMARK SMILES IDX 23 45 24 46 25 47 75 48 26 49 80 50 74 51 76 52 27 53 79 54
REMARK SMILES IDX 73 55 72 56 28 58 60 59 40 60 59 61 41 62 44 63 58 64 77 65
REMARK SMILES IDX 42 66 43 67 57 69 78 70 45 71 29 72 30 73 38 74 31 75 37 76
REMARK SMILES IDX 39 77 36 78 32 79 33 80 34 81 35 82 61 83 62 84 70 85 63 86
REMARK SMILES IDX 69 87 71 88 68 89 64 90 65 91 66 92 67 93 46 94 47 95 55 96
REMARK SMILES IDX 48 97 54 98 56 99 53 100 49 101 50 102 51 103 52 104
REMARK H PARENT 13 6 17 38 76 57 44 68
REMARK Flexibility Score: inf
ROOT
ATOM      1  C   UNL A   1      33.488  27.964  25.467  1.00  0.00     0.042 C 
ENDROOT
BRANCH   1   2
ATOM      2  C   UNL A   1      32.402  26.909  25.248  1.00  0.00     0.118 C 
BRANCH   2   3
ATOM      3  N   UNL A   1      32.139  26.732  23.832  1.00  0.00    -0.352 N 
ATOM      4  C   UNL A   1      32.276  25.695  22.967  1.00  0.00     0.251 C 
ATOM      5  O   UNL A   1      31.976  25.929  21.794  1.00  0.00    -0.269 OA
ATOM      6  H   UNL A   1      31.783  27.543  23.404  1.00  0.00     0.163 HD
BRANCH   4   7
ATOM      7  C   UNL A   1      32.676  24.299  23.394  1.00  0.00     0.047 C 
ATOM      8  C   UNL A   1      31.776  23.292  23.480  1.00  0.00     0.022 C 
BRANCH   8   9
ATOM      9  C   UNL A   1      31.997  21.855  23.755  1.00  0.00    -0.025 A 
ATOM     10  C   UNL A   1      32.616  19.137  24.091  1.00  0.00     0.067 A 
ATOM     11  C   UNL A   1      32.464  19.957  25.208  1.00  0.00     0.021 A 
ATOM     12  C   UNL A   1      32.426  19.646  22.807  1.00  0.00     0.021 A 
ATOM     13  C   UNL A   1      32.124  21.303  25.036  1.00  0.00     0.009 A 
ATOM     14  C   UNL A   1      32.112  20.998  22.645  1.00  0.00     0.009 A 
BRANCH  10  15
ATOM     15  S   UNL A   1      33.119  17.444  24.286  1.00  0.00     0.175 S 
ATOM     16  C   UNL A   1      34.876  17.551  24.479  1.00  0.00     0.163 C 
ATOM     17  O   UNL A   1      32.851  16.756  23.033  1.00  0.00    -0.224 OA
ATOM     18  O   UNL A   1      32.549  16.965  25.528  1.00  0.00    -0.224 OA
ENDBRANCH  10  15
ENDBRANCH   8   9
BRANCH   7  19
ATOM     19  C   UNL A   1      34.060  24.131  23.901  1.00  0.00    -0.013 A 
ATOM     20  C   UNL A   1      34.288  24.306  25.274  1.00  0.00     0.009 A 
ATOM     21  C   UNL A   1      35.123  23.717  23.094  1.00  0.00     0.009 A 
ATOM     22  C   UNL A   1      35.533  24.025  25.835  1.00  0.00     0.009 A 
ATOM     23  C   UNL A   1      36.366  23.409  23.667  1.00  0.00     0.009 A 
ATOM     24  C   UNL A   1      36.587  23.536  25.050  1.00  0.00    -0.018 A 
BRANCH  24  25
ATOM     25  C   UNL A   1      37.862  23.141  25.679  1.00  0.00    -0.018 A 
ATOM     26  C   UNL A   1      38.360  21.831  25.527  1.00  0.00     0.010 A 
ATOM     27  C   UNL A   1      38.620  24.046  26.441  1.00  0.00     0.010 A 
ATOM     28  C   UNL A   1      39.558  21.432  26.123  1.00  0.00     0.021 A 
ATOM     29  C   UNL A   1      39.820  23.658  27.044  1.00  0.00     0.021 A 
ATOM     30  C   UNL A   1      40.274  22.348  26.891  1.00  0.00     0.067 A 
BRANCH  30  31
ATOM     31  S   UNL A   1      41.784  21.828  27.665  1.00  0.00     0.175 S 
ATOM     32  C   UNL A   1      43.019  22.167  26.437  1.00  0.00     0.163 C 
ATOM     33  O   UNL A   1      42.014  22.708  28.796  1.00  0.00    -0.224 OA
ATOM     34  O   UNL A   1      41.726  20.390  27.840  1.00  0.00    -0.224 OA
ENDBRANCH  30  31
ENDBRANCH  24  25
ENDBRANCH   7  19
ENDBRANCH   4   7
ENDBRANCH   2   3
ENDBRANCH   1   2
BRANCH   1  35
ATOM     35  C   UNL A   1      33.427  28.624  26.845  1.00  0.00     0.118 C 
BRANCH  35  36
ATOM     36  N   UNL A   1      33.206  30.060  26.752  1.00  0.00    -0.352 N 
ATOM     37  C   UNL A   1      33.863  31.094  27.370  1.00  0.00     0.251 C 
ATOM     38  H   UNL A   1      32.472  30.331  26.155  1.00  0.00     0.163 HD
ATOM     39  O   UNL A   1      33.359  32.213  27.357  1.00  0.00    -0.269 OA
BRANCH  37  40
ATOM     40  C   UNL A   1      35.156  30.866  28.054  1.00  0.00     0.039 A 
ATOM     41  C   UNL A   1      36.074  31.919  28.130  1.00  0.00     0.014 A 
ATOM     42  C   UNL A   1      35.489  29.612  28.574  1.00  0.00     0.014 A 
ATOM     43  C   UNL A   1      37.300  31.728  28.772  1.00  0.00     0.010 A 
ATOM     44  C   UNL A   1      36.684  29.443  29.275  1.00  0.00     0.010 A 
ATOM     45  C   UNL A   1      37.605  30.497  29.374  1.00  0.00    -0.014 A 
BRANCH  45  46
ATOM     46  C   UNL A   1      38.886  30.290  30.100  1.00  0.00     0.031 A 
ATOM     47  C   UNL A   1      39.062  30.840  31.491  1.00  0.00     0.074 A 
ATOM     48  C   UNL A   1      39.908  29.661  29.487  1.00  0.00     0.049 A 
ATOM     49  N   UNL A   1      40.126  30.844  32.254  1.00  0.00    -0.248 NA
ATOM     50  C   UNL A   1      37.893  31.502  32.089  1.00  0.00     0.031 C 
ATOM     51  C   UNL A   1      39.867  29.113  28.130  1.00  0.00     0.029 A 
ATOM     52  N   UNL A   1      41.181  29.385  29.917  1.00  0.00    -0.354 N 
ATOM     53  C   UNL A   1      39.761  31.519  33.413  1.00  0.00     0.074 A 
ATOM     54  C   UNL A   1      38.395  31.961  33.226  1.00  0.00     0.031 C 
ATOM     55  C   UNL A   1      41.053  28.550  27.847  1.00  0.00     0.029 A 
ATOM     56  C   UNL A   1      41.953  28.736  28.981  1.00  0.00     0.049 A 
ATOM     57  H   UNL A   1      41.511  29.626  30.812  1.00  0.00     0.167 HD
ATOM     58  C   UNL A   1      40.489  31.731  34.539  1.00  0.00     0.034 A 
ATOM     59  C   UNL A   1      43.244  28.349  29.024  1.00  0.00     0.034 A 
ATOM     60  C   UNL A   1      41.845  31.270  34.713  1.00  0.00     0.049 A 
ATOM     61  C   UNL A   1      44.040  28.615  30.276  1.00  0.00     0.074 A 
ATOM     62  C   UNL A   1      42.660  31.384  35.827  1.00  0.00     0.029 A 
ATOM     63  N   UNL A   1      42.593  30.613  33.743  1.00  0.00    -0.354 N 
ATOM     64  N   UNL A   1      43.666  29.217  31.382  1.00  0.00    -0.248 NA
ATOM     65  C   UNL A   1      45.430  28.139  30.290  1.00  0.00     0.031 C 
ATOM     66  C   UNL A   1      43.916  30.858  35.509  1.00  0.00     0.029 A 
ATOM     67  C   UNL A   1      43.866  30.342  34.225  1.00  0.00     0.049 A 
ATOM     68  H   UNL A   1      42.266  30.373  32.846  1.00  0.00     0.167 HD
ATOM     69  C   UNL A   1      44.766  29.162  32.234  1.00  0.00     0.074 A 
ATOM     70  C   UNL A   1      45.810  28.455  31.519  1.00  0.00     0.031 C 
ATOM     71  C   UNL A   1      44.900  29.645  33.495  1.00  0.00     0.034 A 
BRANCH  58  72
ATOM     72  C   UNL A   1      39.836  32.518  35.651  1.00  0.00     0.023 A 
ATOM     73  C   UNL A   1      39.118  31.886  36.682  1.00  0.00     0.031 A 
ATOM     74  C   UNL A   1      39.909  33.923  35.670  1.00  0.00     0.131 A 
ATOM     75  C   UNL A   1      38.435  32.655  37.636  1.00  0.00     0.055 A 
ATOM     76  C   UNL A   1      39.298  34.680  36.673  1.00  0.00     0.041 A 
ATOM     77  F   UNL A   1      40.562  34.587  34.704  1.00  0.00    -0.206 F 
ATOM     78  C   UNL A   1      38.541  34.047  37.654  1.00  0.00     0.022 A 
BRANCH  75  79
ATOM     79  S   UNL A   1      37.283  31.816  38.759  1.00  0.00     0.124 S 
ATOM     80  O   UNL A   1      36.129  32.713  38.718  1.00  0.00    -0.237 OA
ATOM     81  O   UNL A   1      37.106  30.518  38.119  1.00  0.00    -0.237 OA
ATOM     82  O   UNL A   1      38.000  31.794  40.032  1.00  0.00    -0.744 OA
ENDBRANCH  75  79
ENDBRANCH  58  72
BRANCH  59  83
ATOM     83  C   UNL A   1      43.871  27.680  27.849  1.00  0.00     0.023 A 
ATOM     84  C   UNL A   1      44.897  28.305  27.124  1.00  0.00     0.031 A 
ATOM     85  C   UNL A   1      43.425  26.422  27.407  1.00  0.00     0.131 A 
ATOM     86  C   UNL A   1      45.412  27.695  25.969  1.00  0.00     0.055 A 
ATOM     87  C   UNL A   1      43.977  25.794  26.289  1.00  0.00     0.041 A 
ATOM     88  F   UNL A   1      42.451  25.775  28.067  1.00  0.00    -0.206 F 
ATOM     89  C   UNL A   1      44.968  26.437  25.554  1.00  0.00     0.022 A 
BRANCH  86  90
ATOM     90  S   UNL A   1      46.615  28.609  24.966  1.00  0.00     0.124 S 
ATOM     91  O   UNL A   1      47.875  28.225  25.591  1.00  0.00    -0.237 OA
ATOM     92  O   UNL A   1      46.369  28.069  23.633  1.00  0.00    -0.237 OA
ATOM     93  O   UNL A   1      46.224  30.004  25.153  1.00  0.00    -0.744 OA
ENDBRANCH  86  90
ENDBRANCH  59  83
BRANCH  71  94
ATOM     94  C   UNL A   1      46.210  29.378  34.197  1.00  0.00     0.023 A 
ATOM     95  C   UNL A   1      46.416  28.222  34.969  1.00  0.00     0.031 A 
ATOM     96  C   UNL A   1      47.265  30.304  34.097  1.00  0.00     0.131 A 
ATOM     97  C   UNL A   1      47.625  28.048  35.659  1.00  0.00     0.055 A 
ATOM     98  C   UNL A   1      48.488  30.094  34.735  1.00  0.00     0.041 A 
ATOM     99  F   UNL A   1      47.123  31.426  33.375  1.00  0.00    -0.206 F 
ATOM    100  C   UNL A   1      48.669  28.968  35.533  1.00  0.00     0.022 A 
BRANCH  97 101
ATOM    101  S   UNL A   1      47.783  26.648  36.800  1.00  0.00     0.124 S 
ATOM    102  O   UNL A   1      48.984  27.001  37.551  1.00  0.00    -0.237 OA
ATOM    103  O   UNL A   1      46.527  26.706  37.542  1.00  0.00    -0.237 OA
ATOM    104  O   UNL A   1      47.924  25.495  35.913  1.00  0.00    -0.744 OA
ENDBRANCH  97 101
ENDBRANCH  71  94
ENDBRANCH  45  46
ENDBRANCH  37  40
ENDBRANCH  35  36
ENDBRANCH   1  35
TORSDOF 18
ENDMDL
MODEL 2
REMARK VINA RESULT:     -11.9      7.426     13.654
REMARK SMILES CS(=O)(=O)c1ccc(/C=C(/C(=O)NCCCNC(=O)c2ccc(-c3c4nc(c(-c5cc(S(=O)(=O)[O-])ccc5F)c5ccc([nH]5)c(-c5cc(S(=O)(=O)[O-])ccc5F)c5nc(c(-c6cc(S(=O)(=O)[O-])ccc6F)c6ccc3[nH]6)C=C5)C=C4)cc2)c2ccc(-c3ccc(S(C)(=O)=O)cc3)cc2)cc1
REMARK SMILES IDX 15 1 14 2 13 3 11 4 12 5 10 7 9 8 8 9 5 10 6 11 100 12 7 13
REMARK SMILES IDX 99 14 2 15 1 16 3 17 4 18 83 19 84 20 98 21 85 22 97 23
REMARK SMILES IDX 86 24 87 25 88 26 96 27 89 28 95 29 90 30 91 31 92 32 93 33
REMARK SMILES IDX 94 34 16 35 17 36 18 37 19 39 20 40 21 41 82 42 22 43 81 44
REMARK SMILES IDX 23 45 24 46 25 47 75 48 26 49 80 50 74 51 76 52 27 53 79 54
REMARK SMILES IDX 73 55 72 56 28 58 60 59 40 60 59 61 41 62 44 63 58 64 77 65
REMARK SMILES IDX 42 66 43 67 57 69 78 70 45 71 29 72 30 73 38 74 31 75 37 76
REMARK SMILES IDX 39 77 36 78 32 79 33 80 34 81 35 82 61 83 62 84 70 85 63 86
REMARK SMILES IDX 69 87 71 88 68 89 64 90 65 91 66 92 67 93 46 94 47 95 55 96
REMARK SMILES IDX 48 97 54 98 56 99 53 100 49 101 50 102 51 103 52 104
REMARK H PARENT 13 6 17 38 76 57 44 68
REMARK Flexibility Score: inf
ROOT
ATOM      1  C   UNL A   1      43.618  41.977  31.932  1.00  0.00     0.042 C 
ENDROOT
BRANCH   1   2
ATOM      2  C   UNL A   1      43.296  42.124  30.444  1.00  0.00     0.118 C 
BRANCH   2   3
ATOM      3  N   UNL A   1      41.884  41.903  30.200  1.00  0.00    -0.352 N 
ATOM      4  C   UNL A   1      41.184  41.122  29.338  1.00  0.00     0.251 C 
ATOM      5  O   UNL A   1      39.955  41.223  29.395  1.00  0.00    -0.269 OA
ATOM      6  H   UNL A   1      41.305  42.436  30.791  1.00  0.00     0.163 HD
BRANCH   4   7
ATOM      7  C   UNL A   1      41.829  40.110  28.417  1.00  0.00     0.047 C 
ATOM      8  C   UNL A   1      42.245  38.901  28.862  1.00  0.00     0.022 C 
BRANCH   8   9
ATOM      9  C   UNL A   1      42.776  37.750  28.098  1.00  0.00    -0.025 A 
ATOM     10  C   UNL A   1      43.890  35.476  26.884  1.00  0.00     0.067 A 
ATOM     11  C   UNL A   1      42.560  35.814  26.636  1.00  0.00     0.021 A 
ATOM     12  C   UNL A   1      44.685  36.280  27.701  1.00  0.00     0.021 A 
ATOM     13  C   UNL A   1      42.019  36.966  27.218  1.00  0.00     0.009 A 
ATOM     14  C   UNL A   1      44.127  37.413  28.298  1.00  0.00     0.009 A 
BRANCH  10  15
ATOM     15  S   UNL A   1      44.573  33.980  26.214  1.00  0.00     0.175 S 
ATOM     16  C   UNL A   1      46.289  34.364  25.998  1.00  0.00     0.163 C 
ATOM     17  O   UNL A   1      43.994  33.780  24.895  1.00  0.00    -0.224 OA
ATOM     18  O   UNL A   1      44.457  32.958  27.234  1.00  0.00    -0.224 OA
ENDBRANCH  10  15
ENDBRANCH   8   9
BRANCH   7  19
ATOM     19  C   UNL A   1      42.162  40.575  27.048  1.00  0.00    -0.013 A 
ATOM     20  C   UNL A   1      41.119  40.697  26.118  1.00  0.00     0.009 A 
ATOM     21  C   UNL A   1      43.444  40.986  26.673  1.00  0.00     0.009 A 
ATOM     22  C   UNL A   1      41.340  41.262  24.863  1.00  0.00     0.009 A 
ATOM     23  C   UNL A   1      43.656  41.579  25.419  1.00  0.00     0.009 A 
ATOM     24  C   UNL A   1      42.605  41.748  24.500  1.00  0.00    -0.018 A 
BRANCH  24  25
ATOM     25  C   UNL A   1      42.794  42.440  23.211  1.00  0.00    -0.018 A 
ATOM     26  C   UNL A   1      41.794  42.394  22.219  1.00  0.00     0.010 A 
ATOM     27  C   UNL A   1      43.964  43.166  22.930  1.00  0.00     0.010 A 
ATOM     28  C   UNL A   1      41.958  43.032  20.988  1.00  0.00     0.021 A 
ATOM     29  C   UNL A   1      44.140  43.808  21.700  1.00  0.00     0.021 A 
ATOM     30  C   UNL A   1      43.139  43.725  20.732  1.00  0.00     0.067 A 
BRANCH  30  31
ATOM     31  S   UNL A   1      43.351  44.515  19.157  1.00  0.00     0.175 S 
ATOM     32  C   UNL A   1      41.693  44.908  18.663  1.00  0.00     0.163 C 
ATOM     33  O   UNL A   1      44.063  45.757  19.390  1.00  0.00    -0.224 OA
ATOM     34  O   UNL A   1      43.861  43.527  18.226  1.00  0.00    -0.224 OA
ENDBRANCH  30  31
ENDBRANCH  24  25
ENDBRANCH   7  19
ENDBRANCH   4   7
ENDBRANCH   2   3
ENDBRANCH   1   2
BRANCH   1  35
ATOM     35  C   UNL A   1      43.038  40.708  32.559  1.00  0.00     0.118 C 
BRANCH  35  36
ATOM     36  N   UNL A   1      43.641  40.414  33.850  1.00  0.00    -0.352 N 
ATOM     37  C   UNL A   1      43.886  39.205  34.452  1.00  0.00     0.251 C 
ATOM     38  H   UNL A   1      43.914  41.202  34.372  1.00  0.00     0.163 HD
ATOM     39  O   UNL A   1      44.166  39.181  35.648  1.00  0.00    -0.269 OA
BRANCH  37  40
ATOM     40  C   UNL A   1      43.805  37.945  33.680  1.00  0.00     0.039 A 
ATOM     41  C   UNL A   1      43.546  36.752  34.362  1.00  0.00     0.014 A 
ATOM     42  C   UNL A   1      44.032  37.925  32.301  1.00  0.00     0.014 A 
ATOM     43  C   UNL A   1      43.463  35.550  33.654  1.00  0.00     0.010 A 
ATOM     44  C   UNL A   1      43.880  36.736  31.587  1.00  0.00     0.010 A 
ATOM     45  C   UNL A   1      43.602  35.535  32.257  1.00  0.00    -0.014 A 
BRANCH  45  46
ATOM     46  C   UNL A   1      43.472  34.272  31.482  1.00  0.00     0.031 A 
ATOM     47  C   UNL A   1      42.113  33.669  31.246  1.00  0.00     0.074 A 
ATOM     48  C   UNL A   1      44.579  33.640  31.045  1.00  0.00     0.049 A 
ATOM     49  N   UNL A   1      41.797  32.534  30.676  1.00  0.00    -0.248 NA
ATOM     50  C   UNL A   1      40.960  34.430  31.748  1.00  0.00     0.031 C 
ATOM     51  C   UNL A   1      45.951  34.111  31.240  1.00  0.00     0.029 A 
ATOM     52  N   UNL A   1      44.728  32.463  30.355  1.00  0.00    -0.354 N 
ATOM     53  C   UNL A   1      40.412  32.437  30.763  1.00  0.00     0.074 A 
ATOM     54  C   UNL A   1      39.958  33.601  31.494  1.00  0.00     0.031 C 
ATOM     55  C   UNL A   1      46.800  33.242  30.666  1.00  0.00     0.029 A 
ATOM     56  C   UNL A   1      46.040  32.131  30.104  1.00  0.00     0.049 A 
ATOM     57  H   UNL A   1      43.968  31.909  30.065  1.00  0.00     0.167 HD
ATOM     58  C   UNL A   1      39.593  31.479  30.260  1.00  0.00     0.034 A 
ATOM     59  C   UNL A   1      46.570  31.047  29.504  1.00  0.00     0.034 A 
ATOM     60  C   UNL A   1      40.064  30.332  29.520  1.00  0.00     0.049 A 
ATOM     61  C   UNL A   1      45.643  29.983  28.973  1.00  0.00     0.074 A 
ATOM     62  C   UNL A   1      39.323  29.327  28.923  1.00  0.00     0.029 A 
ATOM     63  N   UNL A   1      41.400  30.031  29.283  1.00  0.00    -0.354 N 
ATOM     64  N   UNL A   1      44.332  29.928  29.025  1.00  0.00    -0.248 NA
ATOM     65  C   UNL A   1      46.268  28.841  28.292  1.00  0.00     0.031 C 
ATOM     66  C   UNL A   1      40.209  28.387  28.385  1.00  0.00     0.029 A 
ATOM     67  C   UNL A   1      41.503  28.843  28.574  1.00  0.00     0.049 A 
ATOM     68  H   UNL A   1      42.162  30.582  29.575  1.00  0.00     0.167 HD
ATOM     69  C   UNL A   1      43.974  28.762  28.354  1.00  0.00     0.074 A 
ATOM     70  C   UNL A   1      45.207  28.153  27.896  1.00  0.00     0.031 C 
ATOM     71  C   UNL A   1      42.740  28.243  28.132  1.00  0.00     0.034 A 
BRANCH  58  72
ATOM     72  C   UNL A   1      38.112  31.622  30.521  1.00  0.00     0.023 A 
ATOM     73  C   UNL A   1      37.255  32.243  29.594  1.00  0.00     0.031 A 
ATOM     74  C   UNL A   1      37.550  31.156  31.722  1.00  0.00     0.131 A 
ATOM     75  C   UNL A   1      35.907  32.456  29.918  1.00  0.00     0.055 A 
ATOM     76  C   UNL A   1      36.188  31.294  32.002  1.00  0.00     0.041 A 
ATOM     77  F   UNL A   1      38.318  30.572  32.655  1.00  0.00    -0.206 F 
ATOM     78  C   UNL A   1      35.361  31.962  31.105  1.00  0.00     0.022 A 
BRANCH  75  79
ATOM     79  S   UNL A   1      34.913  33.520  28.835  1.00  0.00     0.124 S 
ATOM     80  O   UNL A   1      35.747  34.719  28.758  1.00  0.00    -0.237 OA
ATOM     81  O   UNL A   1      34.819  32.728  27.614  1.00  0.00    -0.237 OA
ATOM     82  O   UNL A   1      33.662  33.687  29.571  1.00  0.00    -0.744 OA
ENDBRANCH  75  79
ENDBRANCH  58  72
BRANCH  59  83
ATOM     83  C   UNL A   1      48.049  30.901  29.380  1.00  0.00     0.023 A 
ATOM     84  C   UNL A   1      48.754  31.538  28.346  1.00  0.00     0.031 A 
ATOM     85  C   UNL A   1      48.776  30.090  30.270  1.00  0.00     0.131 A 
ATOM     86  C   UNL A   1      50.132  31.316  28.198  1.00  0.00     0.055 A 
ATOM     87  C   UNL A   1      50.155  29.915  30.150  1.00  0.00     0.041 A 
ATOM     88  F   UNL A   1      48.153  29.463  31.281  1.00  0.00    -0.206 F 
ATOM     89  C   UNL A   1      50.840  30.520  29.101  1.00  0.00     0.022 A 
BRANCH  86  90
ATOM     90  S   UNL A   1      50.974  32.018  26.753  1.00  0.00     0.124 S 
ATOM     91  O   UNL A   1      51.832  33.023  27.370  1.00  0.00    -0.237 OA
ATOM     92  O   UNL A   1      51.649  30.849  26.200  1.00  0.00    -0.237 OA
ATOM     93  O   UNL A   1      49.878  32.545  25.943  1.00  0.00    -0.744 OA
ENDBRANCH  86  90
ENDBRANCH  59  83
BRANCH  71  94
ATOM     94  C   UNL A   1      42.666  26.977  27.312  1.00  0.00     0.023 A 
ATOM     95  C   UNL A   1      42.807  25.706  27.895  1.00  0.00     0.031 A 
ATOM     96  C   UNL A   1      42.461  27.049  25.922  1.00  0.00     0.131 A 
ATOM     97  C   UNL A   1      42.800  24.561  27.085  1.00  0.00     0.055 A 
ATOM     98  C   UNL A   1      42.392  25.902  25.130  1.00  0.00     0.041 A 
ATOM     99  F   UNL A   1      42.322  28.236  25.312  1.00  0.00    -0.206 F 
ATOM    100  C   UNL A   1      42.576  24.650  25.709  1.00  0.00     0.022 A 
BRANCH  97 101
ATOM    101  S   UNL A   1      43.181  22.957  27.840  1.00  0.00     0.124 S 
ATOM    102  O   UNL A   1      42.390  23.003  29.066  1.00  0.00    -0.237 OA
ATOM    103  O   UNL A   1      42.726  22.016  26.822  1.00  0.00    -0.237 OA
ATOM    104  O   UNL A   1      44.629  23.005  28.035  1.00  0.00    -0.744 OA
ENDBRANCH  97 101
ENDBRANCH  71  94
ENDBRANCH  45  46
ENDBRANCH  37  40
ENDBRANCH  35  36
ENDBRANCH   1  35
TORSDOF 18
ENDMDL
MODEL 3
REMARK VINA RESULT:     -11.9      1.449      7.226
REMARK SMILES CS(=O)(=O)c1ccc(/C=C(/C(=O)NCCCNC(=O)c2ccc(-c3c4nc(c(-c5cc(S(=O)(=O)[O-])ccc5F)c5ccc([nH]5)c(-c5cc(S(=O)(=O)[O-])ccc5F)c5nc(c(-c6cc(S(=O)(=O)[O-])ccc6F)c6ccc3[nH]6)C=C5)C=C4)cc2)c2ccc(-c3ccc(S(C)(=O)=O)cc3)cc2)cc1
REMARK SMILES IDX 15 1 14 2 13 3 11 4 12 5 10 7 9 8 8 9 5 10 6 11 100 12 7 13
REMARK SMILES IDX 99 14 2 15 1 16 3 17 4 18 83 19 84 20 98 21 85 22 97 23
REMARK SMILES IDX 86 24 87 25 88 26 96 27 89 28 95 29 90 30 91 31 92 32 93 33
REMARK SMILES IDX 94 34 16 35 17 36 18 37 19 39 20 40 21 41 82 42 22 43 81 44
REMARK SMILES IDX 23 45 24 46 25 47 75 48 26 49 80 50 74 51 76 52 27 53 79 54
REMARK SMILES IDX 73 55 72 56 28 58 60 59 40 60 59 61 41 62 44 63 58 64 77 65
REMARK SMILES IDX 42 66 43 67 57 69 78 70 45 71 29 72 30 73 38 74 31 75 37 76
REMARK SMILES IDX 39 77 36 78 32 79 33 80 34 81 35 82 61 83 62 84 70 85 63 86
REMARK SMILES IDX 69 87 71 88 68 89 64 90 65 91 66 92 67 93 46 94 47 95 55 96
REMARK SMILES IDX 48 97 54 98 56 99 53 100 49 101 50 102 51 103 52 104
REMARK H PARENT 13 6 17 38 76 57 44 68
REMARK Flexibility Score: inf
ROOT
ATOM      1  C   UNL A   1      33.856  27.789  25.304  1.00  0.00     0.042 C 
ENDROOT
BRANCH   1   2
ATOM      2  C   UNL A   1      32.826  26.658  25.276  1.00  0.00     0.118 C 
BRANCH   2   3
ATOM      3  N   UNL A   1      32.397  26.389  23.917  1.00  0.00    -0.352 N 
ATOM      4  C   UNL A   1      32.417  25.291  23.118  1.00  0.00     0.251 C 
ATOM      5  O   UNL A   1      31.986  25.450  21.973  1.00  0.00    -0.269 OA
ATOM      6  H   UNL A   1      32.006  27.177  23.475  1.00  0.00     0.163 HD
BRANCH   4   7
ATOM      7  C   UNL A   1      32.841  23.920  23.596  1.00  0.00     0.047 C 
ATOM      8  C   UNL A   1      31.954  22.908  23.745  1.00  0.00     0.022 C 
BRANCH   8   9
ATOM      9  C   UNL A   1      32.197  21.486  24.077  1.00  0.00    -0.025 A 
ATOM     10  C   UNL A   1      32.836  18.785  24.500  1.00  0.00     0.067 A 
ATOM     11  C   UNL A   1      32.811  19.669  25.578  1.00  0.00     0.021 A 
ATOM     12  C   UNL A   1      32.510  19.222  23.216  1.00  0.00     0.021 A 
ATOM     13  C   UNL A   1      32.461  21.007  25.366  1.00  0.00     0.009 A 
ATOM     14  C   UNL A   1      32.187  20.566  23.012  1.00  0.00     0.009 A 
BRANCH  10  15
ATOM     15  S   UNL A   1      33.350  17.101  24.736  1.00  0.00     0.175 S 
ATOM     16  C   UNL A   1      33.906  16.605  23.129  1.00  0.00     0.163 C 
ATOM     17  O   UNL A   1      32.167  16.318  25.057  1.00  0.00    -0.224 OA
ATOM     18  O   UNL A   1      34.489  17.118  25.631  1.00  0.00    -0.224 OA
ENDBRANCH  10  15
ENDBRANCH   8   9
BRANCH   7  19
ATOM     19  C   UNL A   1      34.237  23.788  24.079  1.00  0.00    -0.013 A 
ATOM     20  C   UNL A   1      34.475  23.896  25.457  1.00  0.00     0.009 A 
ATOM     21  C   UNL A   1      35.308  23.468  23.239  1.00  0.00     0.009 A 
ATOM     22  C   UNL A   1      35.738  23.643  25.989  1.00  0.00     0.009 A 
ATOM     23  C   UNL A   1      36.571  23.187  23.782  1.00  0.00     0.009 A 
ATOM     24  C   UNL A   1      36.803  23.247  25.168  1.00  0.00    -0.018 A 
BRANCH  24  25
ATOM     25  C   UNL A   1      38.103  22.877  25.761  1.00  0.00    -0.018 A 
ATOM     26  C   UNL A   1      38.595  21.561  25.643  1.00  0.00     0.010 A 
ATOM     27  C   UNL A   1      38.890  23.812  26.454  1.00  0.00     0.010 A 
ATOM     28  C   UNL A   1      39.816  21.186  26.207  1.00  0.00     0.021 A 
ATOM     29  C   UNL A   1      40.114  23.448  27.023  1.00  0.00     0.021 A 
ATOM     30  C   UNL A   1      40.562  22.132  26.907  1.00  0.00     0.067 A 
BRANCH  30  31
ATOM     31  S   UNL A   1      42.102  21.644  27.640  1.00  0.00     0.175 S 
ATOM     32  C   UNL A   1      43.288  21.940  26.354  1.00  0.00     0.163 C 
ATOM     33  O   UNL A   1      42.373  22.564  28.728  1.00  0.00    -0.224 OA
ATOM     34  O   UNL A   1      42.055  20.212  27.870  1.00  0.00    -0.224 OA
ENDBRANCH  30  31
ENDBRANCH  24  25
ENDBRANCH   7  19
ENDBRANCH   4   7
ENDBRANCH   2   3
ENDBRANCH   1   2
BRANCH   1  35
ATOM     35  C   UNL A   1      33.992  28.456  26.673  1.00  0.00     0.118 C 
BRANCH  35  36
ATOM     36  N   UNL A   1      33.615  29.861  26.634  1.00  0.00    -0.352 N 
ATOM     37  C   UNL A   1      34.080  30.918  27.375  1.00  0.00     0.251 C 
ATOM     38  H   UNL A   1      32.918  30.088  25.976  1.00  0.00     0.163 HD
ATOM     39  O   UNL A   1      33.452  31.973  27.368  1.00  0.00    -0.269 OA
BRANCH  37  40
ATOM     40  C   UNL A   1      35.314  30.791  28.182  1.00  0.00     0.039 A 
ATOM     41  C   UNL A   1      36.251  31.829  28.151  1.00  0.00     0.014 A 
ATOM     42  C   UNL A   1      35.577  29.637  28.927  1.00  0.00     0.014 A 
ATOM     43  C   UNL A   1      37.423  31.731  28.905  1.00  0.00     0.010 A 
ATOM     44  C   UNL A   1      36.713  29.572  29.733  1.00  0.00     0.010 A 
ATOM     45  C   UNL A   1      37.652  30.615  29.724  1.00  0.00    -0.014 A 
BRANCH  45  46
ATOM     46  C   UNL A   1      38.872  30.514  30.569  1.00  0.00     0.031 A 
ATOM     47  C   UNL A   1      40.079  29.769  30.065  1.00  0.00     0.074 A 
ATOM     48  C   UNL A   1      38.871  31.040  31.810  1.00  0.00     0.049 A 
ATOM     49  N   UNL A   1      41.201  29.494  30.680  1.00  0.00    -0.248 NA
ATOM     50  C   UNL A   1      39.999  29.238  28.696  1.00  0.00     0.031 C 
ATOM     51  C   UNL A   1      37.749  31.756  32.421  1.00  0.00     0.029 A 
ATOM     52  N   UNL A   1      39.837  31.046  32.784  1.00  0.00    -0.354 N 
ATOM     53  C   UNL A   1      41.954  28.745  29.781  1.00  0.00     0.074 A 
ATOM     54  C   UNL A   1      41.134  28.561  28.603  1.00  0.00     0.031 C 
ATOM     55  C   UNL A   1      38.099  32.148  33.657  1.00  0.00     0.029 A 
ATOM     56  C   UNL A   1      39.448  31.674  33.946  1.00  0.00     0.049 A 
ATOM     57  H   UNL A   1      40.726  30.641  32.664  1.00  0.00     0.167 HD
ATOM     58  C   UNL A   1      43.220  28.274  29.917  1.00  0.00     0.034 A 
ATOM     59  C   UNL A   1      40.098  31.834  35.115  1.00  0.00     0.034 A 
ATOM     60  C   UNL A   1      44.027  28.480  31.096  1.00  0.00     0.049 A 
ATOM     61  C   UNL A   1      41.495  31.283  35.253  1.00  0.00     0.074 A 
ATOM     62  C   UNL A   1      45.336  28.092  31.323  1.00  0.00     0.029 A 
ATOM     63  N   UNL A   1      43.600  29.124  32.251  1.00  0.00    -0.354 N 
ATOM     64  N   UNL A   1      42.209  30.614  34.377  1.00  0.00    -0.248 NA
ATOM     65  C   UNL A   1      42.176  31.518  36.533  1.00  0.00     0.031 C 
ATOM     66  C   UNL A   1      45.677  28.440  32.635  1.00  0.00     0.029 A 
ATOM     67  C   UNL A   1      44.610  29.118  33.202  1.00  0.00     0.049 A 
ATOM     68  H   UNL A   1      42.710  29.527  32.375  1.00  0.00     0.167 HD
ATOM     69  C   UNL A   1      43.437  30.379  34.990  1.00  0.00     0.074 A 
ATOM     70  C   UNL A   1      43.369  30.990  36.302  1.00  0.00     0.031 C 
ATOM     71  C   UNL A   1      44.524  29.723  34.511  1.00  0.00     0.034 A 
BRANCH  58  72
ATOM     72  C   UNL A   1      43.789  27.469  28.772  1.00  0.00     0.023 A 
ATOM     73  C   UNL A   1      44.777  27.993  27.920  1.00  0.00     0.031 A 
ATOM     74  C   UNL A   1      43.321  26.169  28.512  1.00  0.00     0.131 A 
ATOM     75  C   UNL A   1      45.203  27.258  26.803  1.00  0.00     0.055 A 
ATOM     76  C   UNL A   1      43.812  25.407  27.448  1.00  0.00     0.041 A 
ATOM     77  F   UNL A   1      42.365  25.619  29.277  1.00  0.00    -0.206 F 
ATOM     78  C   UNL A   1      44.746  25.958  26.576  1.00  0.00     0.022 A 
BRANCH  75  79
ATOM     79  S   UNL A   1      46.245  28.084  25.569  1.00  0.00     0.124 S 
ATOM     80  O   UNL A   1      47.564  27.998  26.195  1.00  0.00    -0.237 OA
ATOM     81  O   UNL A   1      46.046  27.259  24.384  1.00  0.00    -0.237 OA
ATOM     82  O   UNL A   1      45.686  29.432  25.495  1.00  0.00    -0.744 OA
ENDBRANCH  75  79
ENDBRANCH  58  72
BRANCH  59  83
ATOM     83  C   UNL A   1      39.440  32.536  36.254  1.00  0.00     0.023 A 
ATOM     84  C   UNL A   1      39.810  33.843  36.610  1.00  0.00     0.031 A 
ATOM     85  C   UNL A   1      38.458  31.896  37.031  1.00  0.00     0.131 A 
ATOM     86  C   UNL A   1      39.239  34.450  37.739  1.00  0.00     0.055 A 
ATOM     87  C   UNL A   1      37.853  32.523  38.121  1.00  0.00     0.041 A 
ATOM     88  F   UNL A   1      38.061  30.648  36.731  1.00  0.00    -0.206 F 
ATOM     89  C   UNL A   1      38.252  33.805  38.489  1.00  0.00     0.022 A 
BRANCH  86  90
ATOM     90  S   UNL A   1      39.865  36.069  38.265  1.00  0.00     0.124 S 
ATOM     91  O   UNL A   1      41.109  35.703  38.932  1.00  0.00    -0.237 OA
ATOM     92  O   UNL A   1      40.001  36.768  36.991  1.00  0.00    -0.237 OA
ATOM     93  O   UNL A   1      38.810  36.573  39.142  1.00  0.00    -0.744 OA
ENDBRANCH  86  90
ENDBRANCH  59  83
BRANCH  71  94
ATOM     94  C   UNL A   1      45.745  29.679  35.398  1.00  0.00     0.023 A 
ATOM     95  C   UNL A   1      45.983  28.612  36.281  1.00  0.00     0.031 A 
ATOM     96  C   UNL A   1      46.678  30.732  35.365  1.00  0.00     0.131 A 
ATOM     97  C   UNL A   1      47.095  28.648  37.136  1.00  0.00     0.055 A 
ATOM     98  C   UNL A   1      47.815  30.731  36.173  1.00  0.00     0.041 A 
ATOM     99  F   UNL A   1      46.500  31.778  34.543  1.00  0.00    -0.206 F 
ATOM    100  C   UNL A   1      48.022  29.691  37.075  1.00  0.00     0.022 A 
BRANCH  97 101
ATOM    101  S   UNL A   1      47.265  27.355  38.397  1.00  0.00     0.124 S 
ATOM    102  O   UNL A   1      47.594  28.134  39.587  1.00  0.00    -0.237 OA
ATOM    103  O   UNL A   1      45.945  26.733  38.386  1.00  0.00    -0.237 OA
ATOM    104  O   UNL A   1      48.349  26.517  37.886  1.00  0.00    -0.744 OA
ENDBRANCH  97 101
ENDBRANCH  71  94
ENDBRANCH  45  46
ENDBRANCH  37  40
ENDBRANCH  35  36
ENDBRANCH   1  35
TORSDOF 18
ENDMDL
