MODEL 1
REMARK VINA RESULT:     -11.7      0.000      0.000
REMARK SMILES COc1ccc(/C=C/c2cc(OC)cc(OC)c2/C=C/C(=O)NCCCNC(=O)c2ccc(-c3c4nc(c(-c5cc(S(=O)(=O)[O-])ccc5F)c5ccc([nH]5)c(-c5cc(S(=O)(=O)[O-])ccc5F)c5nc(c(-c6cc(S(=O)(=O)[O-])ccc6F)c6ccc3[nH]6)C=C5)C=C4)cc2)cc1
REMARK SMILES IDX 24 1 23 2 21 3 22 4 20 6 19 7 18 8 9 9 10 10 11 11 15 12
REMARK SMILES IDX 14 13 8 14 7 15 6 16 3 17 4 18 94 19 5 20 93 21 2 22 1 23
REMARK SMILES IDX 12 24 13 25 16 26 17 27 25 28 26 29 27 30 28 31 29 33 30 34
REMARK SMILES IDX 31 35 92 36 32 37 91 38 33 39 34 40 35 41 85 42 36 43 90 44
REMARK SMILES IDX 84 45 86 46 37 47 89 48 83 49 82 50 38 52 70 53 50 54 69 55
REMARK SMILES IDX 51 56 54 57 68 58 87 59 52 60 53 61 67 63 88 64 55 65 39 66
REMARK SMILES IDX 40 67 48 68 41 69 47 70 49 71 46 72 42 73 43 74 44 75 45 76
REMARK SMILES IDX 71 77 72 78 80 79 73 80 79 81 81 82 78 83 74 84 75 85 76 86
REMARK SMILES IDX 77 87 56 88 57 89 65 90 58 91 64 92 66 93 63 94 59 95 60 96
REMARK SMILES IDX 61 97 62 98
REMARK H PARENT 23 5 27 32 86 51 54 62
REMARK Flexibility Score: inf
ROOT
ATOM      1  C   UNL A   1      36.803  21.947  25.047  1.00  0.00     0.118 C 
ENDROOT
BRANCH   1   2
ATOM      2  N   UNL A   1      36.243  22.104  26.375  1.00  0.00    -0.352 N 
ATOM      3  C   UNL A   1      35.247  22.936  26.773  1.00  0.00     0.244 C 
ATOM      4  O   UNL A   1      34.802  22.893  27.916  1.00  0.00    -0.270 OA
ATOM      5  H   UNL A   1      36.634  21.535  27.077  1.00  0.00     0.163 HD
BRANCH   3   6
ATOM      6  C   UNL A   1      34.668  23.872  25.792  1.00  0.00     0.072 C 
ATOM      7  C   UNL A   1      33.478  24.440  26.034  1.00  0.00     0.018 C 
BRANCH   7   8
ATOM      8  C   UNL A   1      32.764  25.232  25.021  1.00  0.00     0.024 A 
ATOM      9  C   UNL A   1      32.364  24.590  23.817  1.00  0.00    -0.011 A 
ATOM     10  C   UNL A   1      31.681  25.313  22.824  1.00  0.00     0.055 A 
ATOM     11  C   UNL A   1      31.418  26.670  22.981  1.00  0.00     0.123 A 
ATOM     12  C   UNL A   1      32.475  26.607  25.181  1.00  0.00     0.130 A 
ATOM     13  C   UNL A   1      31.795  27.299  24.162  1.00  0.00     0.093 A 
BRANCH   9  14
ATOM     14  C   UNL A   1      32.681  23.185  23.487  1.00  0.00     0.009 C 
ATOM     15  C   UNL A   1      32.319  22.128  24.234  1.00  0.00     0.009 C 
BRANCH  15  16
ATOM     16  C   UNL A   1      32.654  20.727  23.902  1.00  0.00    -0.025 A 
ATOM     17  C   UNL A   1      33.161  18.017  23.261  1.00  0.00     0.118 A 
ATOM     18  C   UNL A   1      33.775  18.614  24.361  1.00  0.00     0.047 A 
ATOM     19  C   UNL A   1      32.301  18.774  22.470  1.00  0.00     0.047 A 
ATOM     20  C   UNL A   1      33.537  19.959  24.671  1.00  0.00     0.012 A 
ATOM     21  C   UNL A   1      32.065  20.123  22.779  1.00  0.00     0.012 A 
BRANCH  17  22
ATOM     22  O   UNL A   1      33.438  16.690  23.091  1.00  0.00    -0.497 OA
ATOM     23  C   UNL A   1      33.478  15.900  24.273  1.00  0.00     0.278 C 
ENDBRANCH  17  22
ENDBRANCH  15  16
ENDBRANCH   9  14
BRANCH  11  24
ATOM     24  O   UNL A   1      30.783  27.276  21.932  1.00  0.00    -0.497 OA
ATOM     25  C   UNL A   1      29.906  28.345  22.275  1.00  0.00     0.278 C 
ENDBRANCH  11  24
BRANCH  12  26
ATOM     26  O   UNL A   1      32.728  27.439  26.240  1.00  0.00    -0.496 OA
ATOM     27  C   UNL A   1      32.330  28.801  26.213  1.00  0.00     0.278 C 
ENDBRANCH  12  26
ENDBRANCH   7   8
ENDBRANCH   3   6
ENDBRANCH   1   2
BRANCH   1  28
ATOM     28  C   UNL A   1      37.864  20.856  25.007  1.00  0.00     0.042 C 
BRANCH  28  29
ATOM     29  C   UNL A   1      38.922  21.008  26.093  1.00  0.00     0.118 C 
BRANCH  29  30
ATOM     30  N   UNL A   1      39.886  19.912  26.088  1.00  0.00    -0.352 N 
ATOM     31  C   UNL A   1      41.260  19.938  26.095  1.00  0.00     0.251 C 
ATOM     32  H   UNL A   1      39.488  19.011  26.077  1.00  0.00     0.163 HD
ATOM     33  O   UNL A   1      41.881  18.921  25.811  1.00  0.00    -0.269 OA
BRANCH  31  34
ATOM     34  C   UNL A   1      41.976  21.189  26.425  1.00  0.00     0.039 A 
ATOM     35  C   UNL A   1      42.292  22.079  25.395  1.00  0.00     0.014 A 
ATOM     36  C   UNL A   1      42.343  21.482  27.739  1.00  0.00     0.014 A 
ATOM     37  C   UNL A   1      42.883  23.307  25.694  1.00  0.00     0.010 A 
ATOM     38  C   UNL A   1      42.864  22.734  28.047  1.00  0.00     0.010 A 
ATOM     39  C   UNL A   1      43.130  23.659  27.027  1.00  0.00    -0.014 A 
BRANCH  39  40
ATOM     40  C   UNL A   1      43.689  24.982  27.390  1.00  0.00     0.031 A 
ATOM     41  C   UNL A   1      42.778  26.034  27.954  1.00  0.00     0.074 A 
ATOM     42  C   UNL A   1      44.983  25.253  27.131  1.00  0.00     0.049 A 
ATOM     43  N   UNL A   1      43.015  27.297  28.189  1.00  0.00    -0.248 NA
ATOM     44  C   UNL A   1      41.404  25.609  28.262  1.00  0.00     0.031 C 
ATOM     45  C   UNL A   1      45.951  24.307  26.572  1.00  0.00     0.029 A 
ATOM     46  N   UNL A   1      45.703  26.411  27.284  1.00  0.00    -0.354 N 
ATOM     47  C   UNL A   1      41.816  27.825  28.656  1.00  0.00     0.074 A 
ATOM     48  C   UNL A   1      40.842  26.755  28.617  1.00  0.00     0.031 C 
ATOM     49  C   UNL A   1      47.137  24.921  26.434  1.00  0.00     0.029 A 
ATOM     50  C   UNL A   1      47.003  26.314  26.845  1.00  0.00     0.049 A 
ATOM     51  H   UNL A   1      45.325  27.234  27.671  1.00  0.00     0.167 HD
ATOM     52  C   UNL A   1      41.560  29.082  29.092  1.00  0.00     0.034 A 
ATOM     53  C   UNL A   1      47.966  27.255  26.757  1.00  0.00     0.034 A 
ATOM     54  C   UNL A   1      42.553  30.127  29.128  1.00  0.00     0.049 A 
ATOM     55  C   UNL A   1      47.643  28.659  27.201  1.00  0.00     0.074 A 
ATOM     56  C   UNL A   1      42.426  31.423  29.596  1.00  0.00     0.029 A 
ATOM     57  N   UNL A   1      43.858  29.996  28.668  1.00  0.00    -0.354 N 
ATOM     58  N   UNL A   1      46.514  29.137  27.674  1.00  0.00    -0.248 NA
ATOM     59  C   UNL A   1      48.721  29.650  27.098  1.00  0.00     0.031 C 
ATOM     60  C   UNL A   1      43.632  32.092  29.361  1.00  0.00     0.029 A 
ATOM     61  C   UNL A   1      44.535  31.197  28.807  1.00  0.00     0.049 A 
ATOM     62  H   UNL A   1      44.245  29.171  28.297  1.00  0.00     0.167 HD
ATOM     63  C   UNL A   1      46.755  30.481  27.943  1.00  0.00     0.074 A 
ATOM     64  C   UNL A   1      48.140  30.731  27.597  1.00  0.00     0.031 C 
ATOM     65  C   UNL A   1      45.912  31.425  28.436  1.00  0.00     0.034 A 
BRANCH  52  66
ATOM     66  C   UNL A   1      40.148  29.389  29.526  1.00  0.00     0.023 A 
ATOM     67  C   UNL A   1      39.799  29.490  30.885  1.00  0.00     0.031 A 
ATOM     68  C   UNL A   1      39.126  29.537  28.572  1.00  0.00     0.131 A 
ATOM     69  C   UNL A   1      38.455  29.649  31.253  1.00  0.00     0.055 A 
ATOM     70  C   UNL A   1      37.801  29.777  28.943  1.00  0.00     0.041 A 
ATOM     71  F   UNL A   1      39.394  29.429  27.261  1.00  0.00    -0.206 F 
ATOM     72  C   UNL A   1      37.456  29.818  30.291  1.00  0.00     0.022 A 
BRANCH  69  73
ATOM     73  S   UNL A   1      38.012  29.483  33.004  1.00  0.00     0.124 S 
ATOM     74  O   UNL A   1      37.423  28.146  33.034  1.00  0.00    -0.237 OA
ATOM     75  O   UNL A   1      39.301  29.629  33.672  1.00  0.00    -0.237 OA
ATOM     76  O   UNL A   1      37.068  30.577  33.224  1.00  0.00    -0.744 OA
ENDBRANCH  69  73
ENDBRANCH  52  66
BRANCH  53  77
ATOM     77  C   UNL A   1      49.306  26.917  26.202  1.00  0.00     0.023 A 
ATOM     78  C   UNL A   1      49.699  27.369  24.933  1.00  0.00     0.031 A 
ATOM     79  C   UNL A   1      50.202  26.099  26.915  1.00  0.00     0.131 A 
ATOM     80  C   UNL A   1      50.932  26.968  24.396  1.00  0.00     0.055 A 
ATOM     81  C   UNL A   1      51.450  25.744  26.399  1.00  0.00     0.041 A 
ATOM     82  F   UNL A   1      49.880  25.641  28.135  1.00  0.00    -0.206 F 
ATOM     83  C   UNL A   1      51.816  26.169  25.125  1.00  0.00     0.022 A 
BRANCH  80  84
ATOM     84  S   UNL A   1      51.334  27.442  22.691  1.00  0.00     0.124 S 
ATOM     85  O   UNL A   1      51.164  28.891  22.737  1.00  0.00    -0.237 OA
ATOM     86  O   UNL A   1      52.704  26.960  22.559  1.00  0.00    -0.237 OA
ATOM     87  O   UNL A   1      50.342  26.722  21.896  1.00  0.00    -0.744 OA
ENDBRANCH  80  84
ENDBRANCH  53  77
BRANCH  65  88
ATOM     88  C   UNL A   1      46.484  32.802  28.651  1.00  0.00     0.023 A 
ATOM     89  C   UNL A   1      46.440  33.781  27.644  1.00  0.00     0.031 A 
ATOM     90  C   UNL A   1      47.075  33.138  29.881  1.00  0.00     0.131 A 
ATOM     91  C   UNL A   1      47.018  35.038  27.870  1.00  0.00     0.055 A 
ATOM     92  C   UNL A   1      47.601  34.408  30.119  1.00  0.00     0.041 A 
ATOM     93  F   UNL A   1      47.144  32.238  30.876  1.00  0.00    -0.206 F 
ATOM     94  C   UNL A   1      47.583  35.364  29.106  1.00  0.00     0.022 A 
BRANCH  91  95
ATOM     95  S   UNL A   1      47.083  36.226  26.500  1.00  0.00     0.124 S 
ATOM     96  O   UNL A   1      45.778  36.872  26.597  1.00  0.00    -0.237 OA
ATOM     97  O   UNL A   1      48.231  37.053  26.857  1.00  0.00    -0.237 OA
ATOM     98  O   UNL A   1      47.271  35.381  25.322  1.00  0.00    -0.744 OA
ENDBRANCH  91  95
ENDBRANCH  65  88
ENDBRANCH  39  40
ENDBRANCH  31  34
ENDBRANCH  29  30
ENDBRANCH  28  29
ENDBRANCH   1  28
TORSDOF 19
ENDMDL
MODEL 2
REMARK VINA RESULT:     -11.6      4.785     11.803
REMARK SMILES COc1ccc(/C=C/c2cc(OC)cc(OC)c2/C=C/C(=O)NCCCNC(=O)c2ccc(-c3c4nc(c(-c5cc(S(=O)(=O)[O-])ccc5F)c5ccc([nH]5)c(-c5cc(S(=O)(=O)[O-])ccc5F)c5nc(c(-c6cc(S(=O)(=O)[O-])ccc6F)c6ccc3[nH]6)C=C5)C=C4)cc2)cc1
REMARK SMILES IDX 24 1 23 2 21 3 22 4 20 6 19 7 18 8 9 9 10 10 11 11 15 12
REMARK SMILES IDX 14 13 8 14 7 15 6 16 3 17 4 18 94 19 5 20 93 21 2 22 1 23
REMARK SMILES IDX 12 24 13 25 16 26 17 27 25 28 26 29 27 30 28 31 29 33 30 34
REMARK SMILES IDX 31 35 92 36 32 37 91 38 33 39 34 40 35 41 85 42 36 43 90 44
REMARK SMILES IDX 84 45 86 46 37 47 89 48 83 49 82 50 38 52 70 53 50 54 69 55
REMARK SMILES IDX 51 56 54 57 68 58 87 59 52 60 53 61 67 63 88 64 55 65 39 66
REMARK SMILES IDX 40 67 48 68 41 69 47 70 49 71 46 72 42 73 43 74 44 75 45 76
REMARK SMILES IDX 71 77 72 78 80 79 73 80 79 81 81 82 78 83 74 84 75 85 76 86
REMARK SMILES IDX 77 87 56 88 57 89 65 90 58 91 64 92 66 93 63 94 59 95 60 96
REMARK SMILES IDX 61 97 62 98
REMARK H PARENT 23 5 27 32 86 51 54 62
REMARK Flexibility Score: inf
ROOT
ATOM      1  C   UNL A   1      42.926  22.614  24.970  1.00  0.00     0.118 C 
ENDROOT
BRANCH   1   2
ATOM      2  N   UNL A   1      44.171  22.654  24.225  1.00  0.00    -0.352 N 
ATOM      3  C   UNL A   1      45.324  23.291  24.551  1.00  0.00     0.244 C 
ATOM      4  O   UNL A   1      46.337  23.156  23.872  1.00  0.00    -0.270 OA
ATOM      5  H   UNL A   1      44.179  22.156  23.376  1.00  0.00     0.163 HD
BRANCH   3   6
ATOM      6  C   UNL A   1      45.358  24.120  25.769  1.00  0.00     0.072 C 
ATOM      7  C   UNL A   1      46.137  23.760  26.799  1.00  0.00     0.018 C 
BRANCH   7   8
ATOM      8  C   UNL A   1      46.078  24.435  28.105  1.00  0.00     0.024 A 
ATOM      9  C   UNL A   1      47.226  25.142  28.555  1.00  0.00    -0.011 A 
ATOM     10  C   UNL A   1      47.208  25.799  29.798  1.00  0.00     0.055 A 
ATOM     11  C   UNL A   1      46.090  25.740  30.622  1.00  0.00     0.123 A 
ATOM     12  C   UNL A   1      44.938  24.397  28.940  1.00  0.00     0.130 A 
ATOM     13  C   UNL A   1      44.960  25.060  30.180  1.00  0.00     0.093 A 
BRANCH   9  14
ATOM     14  C   UNL A   1      48.507  25.187  27.821  1.00  0.00     0.009 C 
ATOM     15  C   UNL A   1      48.733  25.938  26.730  1.00  0.00     0.009 C 
BRANCH  15  16
ATOM     16  C   UNL A   1      50.016  25.963  25.995  1.00  0.00    -0.025 A 
ATOM     17  C   UNL A   1      52.402  25.973  24.472  1.00  0.00     0.118 A 
ATOM     18  C   UNL A   1      52.326  25.263  25.669  1.00  0.00     0.047 A 
ATOM     19  C   UNL A   1      51.291  26.691  24.037  1.00  0.00     0.047 A 
ATOM     20  C   UNL A   1      51.151  25.268  26.430  1.00  0.00     0.012 A 
ATOM     21  C   UNL A   1      50.114  26.700  24.802  1.00  0.00     0.012 A 
BRANCH  17  22
ATOM     22  O   UNL A   1      53.585  25.852  23.798  1.00  0.00    -0.497 OA
ATOM     23  C   UNL A   1      53.973  26.968  23.005  1.00  0.00     0.278 C 
ENDBRANCH  17  22
ENDBRANCH  15  16
ENDBRANCH   9  14
BRANCH  11  24
ATOM     24  O   UNL A   1      46.204  26.383  31.824  1.00  0.00    -0.497 OA
ATOM     25  C   UNL A   1      45.589  25.734  32.933  1.00  0.00     0.278 C 
ENDBRANCH  11  24
BRANCH  12  26
ATOM     26  O   UNL A   1      43.715  23.812  28.731  1.00  0.00    -0.496 OA
ATOM     27  C   UNL A   1      43.178  22.884  29.661  1.00  0.00     0.278 C 
ENDBRANCH  12  26
ENDBRANCH   7   8
ENDBRANCH   3   6
ENDBRANCH   1   2
BRANCH   1  28
ATOM     28  C   UNL A   1      42.814  21.353  25.814  1.00  0.00     0.042 C 
BRANCH  28  29
ATOM     29  C   UNL A   1      41.755  21.453  26.906  1.00  0.00     0.118 C 
BRANCH  29  30
ATOM     30  N   UNL A   1      40.413  21.636  26.364  1.00  0.00    -0.352 N 
ATOM     31  C   UNL A   1      39.565  22.715  26.437  1.00  0.00     0.251 C 
ATOM     32  H   UNL A   1      40.059  20.864  25.866  1.00  0.00     0.163 HD
ATOM     33  O   UNL A   1      38.382  22.569  26.156  1.00  0.00    -0.269 OA
BRANCH  31  34
ATOM     34  C   UNL A   1      40.078  24.032  26.873  1.00  0.00     0.039 A 
ATOM     35  C   UNL A   1      40.437  24.972  25.905  1.00  0.00     0.014 A 
ATOM     36  C   UNL A   1      40.212  24.338  28.229  1.00  0.00     0.014 A 
ATOM     37  C   UNL A   1      40.833  26.253  26.292  1.00  0.00     0.010 A 
ATOM     38  C   UNL A   1      40.535  25.634  28.614  1.00  0.00     0.010 A 
ATOM     39  C   UNL A   1      40.840  26.603  27.647  1.00  0.00    -0.014 A 
BRANCH  39  40
ATOM     40  C   UNL A   1      41.185  27.974  28.094  1.00  0.00     0.031 A 
ATOM     41  C   UNL A   1      42.625  28.396  28.125  1.00  0.00     0.074 A 
ATOM     42  C   UNL A   1      40.214  28.791  28.546  1.00  0.00     0.049 A 
ATOM     43  N   UNL A   1      43.162  29.477  28.625  1.00  0.00    -0.248 NA
ATOM     44  C   UNL A   1      43.593  27.453  27.543  1.00  0.00     0.031 C 
ATOM     45  C   UNL A   1      38.784  28.475  28.572  1.00  0.00     0.029 A 
ATOM     46  N   UNL A   1      40.284  30.048  29.091  1.00  0.00    -0.354 N 
ATOM     47  C   UNL A   1      44.533  29.338  28.435  1.00  0.00     0.074 A 
ATOM     48  C   UNL A   1      44.745  28.043  27.824  1.00  0.00     0.031 C 
ATOM     49  C   UNL A   1      38.114  29.512  29.100  1.00  0.00     0.029 A 
ATOM     50  C   UNL A   1      39.067  30.543  29.496  1.00  0.00     0.049 A 
ATOM     51  H   UNL A   1      41.127  30.549  29.183  1.00  0.00     0.167 HD
ATOM     52  C   UNL A   1      45.519  30.220  28.729  1.00  0.00     0.034 A 
ATOM     53  C   UNL A   1      38.761  31.686  30.142  1.00  0.00     0.034 A 
ATOM     54  C   UNL A   1      45.278  31.509  29.329  1.00  0.00     0.049 A 
ATOM     55  C   UNL A   1      39.881  32.630  30.505  1.00  0.00     0.074 A 
ATOM     56  C   UNL A   1      46.190  32.506  29.626  1.00  0.00     0.029 A 
ATOM     57  N   UNL A   1      44.033  31.973  29.734  1.00  0.00    -0.354 N 
ATOM     58  N   UNL A   1      41.170  32.503  30.288  1.00  0.00    -0.248 NA
ATOM     59  C   UNL A   1      39.505  33.867  31.199  1.00  0.00     0.031 C 
ATOM     60  C   UNL A   1      45.506  33.546  30.267  1.00  0.00     0.029 A 
ATOM     61  C   UNL A   1      44.157  33.227  30.311  1.00  0.00     0.049 A 
ATOM     62  H   UNL A   1      43.186  31.484  29.628  1.00  0.00     0.167 HD
ATOM     63  C   UNL A   1      41.756  33.655  30.802  1.00  0.00     0.074 A 
ATOM     64  C   UNL A   1      40.678  34.471  31.323  1.00  0.00     0.031 C 
ATOM     65  C   UNL A   1      43.066  34.012  30.839  1.00  0.00     0.034 A 
BRANCH  52  66
ATOM     66  C   UNL A   1      46.937  29.796  28.433  1.00  0.00     0.023 A 
ATOM     67  C   UNL A   1      47.735  29.163  29.404  1.00  0.00     0.031 A 
ATOM     68  C   UNL A   1      47.516  30.068  27.181  1.00  0.00     0.131 A 
ATOM     69  C   UNL A   1      49.086  28.899  29.136  1.00  0.00     0.055 A 
ATOM     70  C   UNL A   1      48.840  29.728  26.893  1.00  0.00     0.041 A 
ATOM     71  F   UNL A   1      46.811  30.690  26.223  1.00  0.00    -0.206 F 
ATOM     72  C   UNL A   1      49.638  29.155  27.878  1.00  0.00     0.022 A 
BRANCH  69  73
ATOM     73  S   UNL A   1      50.149  28.354  30.502  1.00  0.00     0.124 S 
ATOM     74  O   UNL A   1      51.167  29.402  30.518  1.00  0.00    -0.237 OA
ATOM     75  O   UNL A   1      49.228  28.341  31.633  1.00  0.00    -0.237 OA
ATOM     76  O   UNL A   1      50.622  27.042  30.066  1.00  0.00    -0.744 OA
ENDBRANCH  69  73
ENDBRANCH  52  66
BRANCH  53  77
ATOM     77  C   UNL A   1      37.352  31.991  30.518  1.00  0.00     0.023 A 
ATOM     78  C   UNL A   1      36.488  32.637  29.621  1.00  0.00     0.031 A 
ATOM     79  C   UNL A   1      36.859  31.679  31.798  1.00  0.00     0.131 A 
ATOM     80  C   UNL A   1      35.191  32.989  30.027  1.00  0.00     0.055 A 
ATOM     81  C   UNL A   1      35.551  31.986  32.181  1.00  0.00     0.041 A 
ATOM     82  F   UNL A   1      37.641  31.059  32.695  1.00  0.00    -0.206 F 
ATOM     83  C   UNL A   1      34.712  32.657  31.296  1.00  0.00     0.022 A 
BRANCH  80  84
ATOM     84  S   UNL A   1      34.160  33.963  28.895  1.00  0.00     0.124 S 
ATOM     85  O   UNL A   1      35.132  34.897  28.337  1.00  0.00    -0.237 OA
ATOM     86  O   UNL A   1      33.658  32.938  27.987  1.00  0.00    -0.237 OA
ATOM     87  O   UNL A   1      33.157  34.558  29.776  1.00  0.00    -0.744 OA
ENDBRANCH  80  84
ENDBRANCH  53  77
BRANCH  65  88
ATOM     88  C   UNL A   1      43.388  35.356  31.440  1.00  0.00     0.023 A 
ATOM     89  C   UNL A   1      43.559  36.497  30.639  1.00  0.00     0.031 A 
ATOM     90  C   UNL A   1      43.520  35.495  32.833  1.00  0.00     0.131 A 
ATOM     91  C   UNL A   1      43.897  37.722  31.233  1.00  0.00     0.055 A 
ATOM     92  C   UNL A   1      43.803  36.727  33.423  1.00  0.00     0.041 A 
ATOM     93  F   UNL A   1      43.368  34.435  33.643  1.00  0.00    -0.206 F 
ATOM     94  C   UNL A   1      44.003  37.847  32.621  1.00  0.00     0.022 A 
BRANCH  91  95
ATOM     95  S   UNL A   1      44.262  39.139  30.162  1.00  0.00     0.124 S 
ATOM     96  O   UNL A   1      43.045  39.237  29.363  1.00  0.00    -0.237 OA
ATOM     97  O   UNL A   1      44.479  40.213  31.126  1.00  0.00    -0.237 OA
ATOM     98  O   UNL A   1      45.453  38.716  29.428  1.00  0.00    -0.744 OA
ENDBRANCH  91  95
ENDBRANCH  65  88
ENDBRANCH  39  40
ENDBRANCH  31  34
ENDBRANCH  29  30
ENDBRANCH  28  29
ENDBRANCH   1  28
TORSDOF 19
ENDMDL
MODEL 3
REMARK VINA RESULT:     -11.5      5.711     11.549
REMARK SMILES COc1ccc(/C=C/c2cc(OC)cc(OC)c2/C=C/C(=O)NCCCNC(=O)c2ccc(-c3c4nc(c(-c5cc(S(=O)(=O)[O-])ccc5F)c5ccc([nH]5)c(-c5cc(S(=O)(=O)[O-])ccc5F)c5nc(c(-c6cc(S(=O)(=O)[O-])ccc6F)c6ccc3[nH]6)C=C5)C=C4)cc2)cc1
REMARK SMILES IDX 24 1 23 2 21 3 22 4 20 6 19 7 18 8 9 9 10 10 11 11 15 12
REMARK SMILES IDX 14 13 8 14 7 15 6 16 3 17 4 18 94 19 5 20 93 21 2 22 1 23
REMARK SMILES IDX 12 24 13 25 16 26 17 27 25 28 26 29 27 30 28 31 29 33 30 34
REMARK SMILES IDX 31 35 92 36 32 37 91 38 33 39 34 40 35 41 85 42 36 43 90 44
REMARK SMILES IDX 84 45 86 46 37 47 89 48 83 49 82 50 38 52 70 53 50 54 69 55
REMARK SMILES IDX 51 56 54 57 68 58 87 59 52 60 53 61 67 63 88 64 55 65 39 66
REMARK SMILES IDX 40 67 48 68 41 69 47 70 49 71 46 72 42 73 43 74 44 75 45 76
REMARK SMILES IDX 71 77 72 78 80 79 73 80 79 81 81 82 78 83 74 84 75 85 76 86
REMARK SMILES IDX 77 87 56 88 57 89 65 90 58 91 64 92 66 93 63 94 59 95 60 96
REMARK SMILES IDX 61 97 62 98
REMARK H PARENT 23 5 27 32 86 51 54 62
REMARK Flexibility Score: inf
ROOT
ATOM      1  C   UNL A   1      33.716  29.889  26.825  1.00  0.00     0.118 C 
ENDROOT
BRANCH   1   2
ATOM      2  N   UNL A   1      32.631  29.380  27.642  1.00  0.00    -0.352 N 
ATOM      3  C   UNL A   1      32.002  28.180  27.550  1.00  0.00     0.244 C 
ATOM      4  O   UNL A   1      31.161  27.839  28.376  1.00  0.00    -0.270 OA
ATOM      5  H   UNL A   1      32.311  29.979  28.354  1.00  0.00     0.163 HD
BRANCH   3   6
ATOM      6  C   UNL A   1      32.377  27.263  26.458  1.00  0.00     0.072 C 
ATOM      7  C   UNL A   1      31.605  26.201  26.186  1.00  0.00     0.018 C 
BRANCH   7   8
ATOM      8  C   UNL A   1      32.017  25.152  25.240  1.00  0.00     0.024 A 
ATOM      9  C   UNL A   1      31.822  25.379  23.849  1.00  0.00    -0.011 A 
ATOM     10  C   UNL A   1      32.201  24.400  22.915  1.00  0.00     0.055 A 
ATOM     11  C   UNL A   1      32.734  23.185  23.329  1.00  0.00     0.123 A 
ATOM     12  C   UNL A   1      32.578  23.922  25.651  1.00  0.00     0.130 A 
ATOM     13  C   UNL A   1      32.938  22.963  24.686  1.00  0.00     0.093 A 
BRANCH   9  14
ATOM     14  C   UNL A   1      31.167  26.581  23.294  1.00  0.00     0.009 C 
ATOM     15  C   UNL A   1      29.939  27.005  23.637  1.00  0.00     0.009 C 
BRANCH  15  16
ATOM     16  C   UNL A   1      29.287  28.201  23.063  1.00  0.00    -0.025 A 
ATOM     17  C   UNL A   1      27.950  30.409  21.899  1.00  0.00     0.118 A 
ATOM     18  C   UNL A   1      29.333  30.275  21.787  1.00  0.00     0.047 A 
ATOM     19  C   UNL A   1      27.231  29.447  22.604  1.00  0.00     0.047 A 
ATOM     20  C   UNL A   1      29.997  29.192  22.373  1.00  0.00     0.012 A 
ATOM     21  C   UNL A   1      27.898  28.362  23.196  1.00  0.00     0.012 A 
BRANCH  17  22
ATOM     22  O   UNL A   1      27.414  31.482  21.245  1.00  0.00    -0.497 OA
ATOM     23  C   UNL A   1      28.287  32.182  20.367  1.00  0.00     0.278 C 
ENDBRANCH  17  22
ENDBRANCH  15  16
ENDBRANCH   9  14
BRANCH  11  24
ATOM     24  O   UNL A   1      33.028  22.295  22.331  1.00  0.00    -0.497 OA
ATOM     25  C   UNL A   1      32.057  21.276  22.107  1.00  0.00     0.278 C 
ENDBRANCH  11  24
BRANCH  12  26
ATOM     26  O   UNL A   1      32.885  23.474  26.910  1.00  0.00    -0.496 OA
ATOM     27  C   UNL A   1      34.046  22.692  27.146  1.00  0.00     0.278 C 
ENDBRANCH  12  26
ENDBRANCH   7   8
ENDBRANCH   3   6
ENDBRANCH   1   2
BRANCH   1  28
ATOM     28  C   UNL A   1      33.954  31.372  27.064  1.00  0.00     0.042 C 
BRANCH  28  29
ATOM     29  C   UNL A   1      32.912  32.009  27.976  1.00  0.00     0.118 C 
BRANCH  29  30
ATOM     30  N   UNL A   1      32.905  33.465  27.880  1.00  0.00    -0.352 N 
ATOM     31  C   UNL A   1      33.625  34.405  28.577  1.00  0.00     0.251 C 
ATOM     32  H   UNL A   1      32.285  33.833  27.208  1.00  0.00     0.163 HD
ATOM     33  O   UNL A   1      33.275  35.578  28.542  1.00  0.00    -0.269 OA
BRANCH  31  34
ATOM     34  C   UNL A   1      34.800  33.994  29.378  1.00  0.00     0.039 A 
ATOM     35  C   UNL A   1      34.596  33.287  30.565  1.00  0.00     0.014 A 
ATOM     36  C   UNL A   1      36.096  34.311  28.967  1.00  0.00     0.014 A 
ATOM     37  C   UNL A   1      35.690  32.808  31.286  1.00  0.00     0.010 A 
ATOM     38  C   UNL A   1      37.184  33.774  29.644  1.00  0.00     0.010 A 
ATOM     39  C   UNL A   1      36.989  33.011  30.804  1.00  0.00    -0.014 A 
BRANCH  39  40
ATOM     40  C   UNL A   1      38.172  32.457  31.503  1.00  0.00     0.031 A 
ATOM     41  C   UNL A   1      38.939  31.332  30.869  1.00  0.00     0.074 A 
ATOM     42  C   UNL A   1      38.493  32.907  32.731  1.00  0.00     0.049 A 
ATOM     43  N   UNL A   1      39.897  30.597  31.368  1.00  0.00    -0.248 NA
ATOM     44  C   UNL A   1      38.548  30.967  29.498  1.00  0.00     0.031 C 
ATOM     45  C   UNL A   1      37.805  33.986  33.443  1.00  0.00     0.029 A 
ATOM     46  N   UNL A   1      39.466  32.499  33.608  1.00  0.00    -0.354 N 
ATOM     47  C   UNL A   1      40.212  29.669  30.380  1.00  0.00     0.074 A 
ATOM     48  C   UNL A   1      39.304  29.903  29.277  1.00  0.00     0.031 C 
ATOM     49  C   UNL A   1      38.382  34.157  34.644  1.00  0.00     0.029 A 
ATOM     50  C   UNL A   1      39.442  33.170  34.809  1.00  0.00     0.049 A 
ATOM     51  H   UNL A   1      40.119  31.793  33.398  1.00  0.00     0.167 HD
ATOM     52  C   UNL A   1      41.182  28.723  30.390  1.00  0.00     0.034 A 
ATOM     53  C   UNL A   1      40.176  32.985  35.925  1.00  0.00     0.034 A 
ATOM     54  C   UNL A   1      42.079  28.518  31.500  1.00  0.00     0.049 A 
ATOM     55  C   UNL A   1      41.215  31.892  35.931  1.00  0.00     0.074 A 
ATOM     56  C   UNL A   1      43.132  27.626  31.605  1.00  0.00     0.029 A 
ATOM     57  N   UNL A   1      42.022  29.210  32.703  1.00  0.00    -0.354 N 
ATOM     58  N   UNL A   1      41.528  31.045  34.977  1.00  0.00    -0.248 NA
ATOM     59  C   UNL A   1      41.998  31.730  37.162  1.00  0.00     0.031 C 
ATOM     60  C   UNL A   1      43.669  27.735  32.893  1.00  0.00     0.029 A 
ATOM     61  C   UNL A   1      42.996  28.741  33.570  1.00  0.00     0.049 A 
ATOM     62  H   UNL A   1      41.382  29.928  32.911  1.00  0.00     0.167 HD
ATOM     63  C   UNL A   1      42.559  30.262  35.489  1.00  0.00     0.074 A 
ATOM     64  C   UNL A   1      42.825  30.751  36.826  1.00  0.00     0.031 C 
ATOM     65  C   UNL A   1      43.229  29.234  34.907  1.00  0.00     0.034 A 
BRANCH  52  66
ATOM     66  C   UNL A   1      41.287  27.828  29.179  1.00  0.00     0.023 A 
ATOM     67  C   UNL A   1      42.276  28.028  28.199  1.00  0.00     0.031 A 
ATOM     68  C   UNL A   1      40.359  26.792  28.976  1.00  0.00     0.131 A 
ATOM     69  C   UNL A   1      42.265  27.258  27.026  1.00  0.00     0.055 A 
ATOM     70  C   UNL A   1      40.403  25.976  27.844  1.00  0.00     0.041 A 
ATOM     71  F   UNL A   1      39.380  26.568  29.867  1.00  0.00    -0.206 F 
ATOM     72  C   UNL A   1      41.349  26.217  26.852  1.00  0.00     0.022 A 
BRANCH  69  73
ATOM     73  S   UNL A   1      43.367  27.735  25.666  1.00  0.00     0.124 S 
ATOM     74  O   UNL A   1      44.276  26.592  25.609  1.00  0.00    -0.237 OA
ATOM     75  O   UNL A   1      42.444  27.875  24.545  1.00  0.00    -0.237 OA
ATOM     76  O   UNL A   1      43.971  28.980  26.136  1.00  0.00    -0.744 OA
ENDBRANCH  69  73
ENDBRANCH  52  66
BRANCH  53  77
ATOM     77  C   UNL A   1      39.939  33.822  37.135  1.00  0.00     0.023 A 
ATOM     78  C   UNL A   1      40.757  34.925  37.423  1.00  0.00     0.031 A 
ATOM     79  C   UNL A   1      38.914  33.506  38.046  1.00  0.00     0.131 A 
ATOM     80  C   UNL A   1      40.566  35.648  38.612  1.00  0.00     0.055 A 
ATOM     81  C   UNL A   1      38.696  34.258  39.202  1.00  0.00     0.041 A 
ATOM     82  F   UNL A   1      38.100  32.463  37.819  1.00  0.00    -0.206 F 
ATOM     83  C   UNL A   1      39.534  35.330  39.497  1.00  0.00     0.022 A 
BRANCH  80  84
ATOM     84  S   UNL A   1      41.743  36.965  39.026  1.00  0.00     0.124 S 
ATOM     85  O   UNL A   1      42.541  37.046  37.807  1.00  0.00    -0.237 OA
ATOM     86  O   UNL A   1      40.854  38.092  39.287  1.00  0.00    -0.237 OA
ATOM     87  O   UNL A   1      42.443  36.440  40.197  1.00  0.00    -0.744 OA
ENDBRANCH  80  84
ENDBRANCH  53  77
BRANCH  65  88
ATOM     88  C   UNL A   1      44.331  28.598  35.713  1.00  0.00     0.023 A 
ATOM     89  C   UNL A   1      44.075  27.534  36.594  1.00  0.00     0.031 A 
ATOM     90  C   UNL A   1      45.653  29.061  35.594  1.00  0.00     0.131 A 
ATOM     91  C   UNL A   1      45.121  26.994  37.357  1.00  0.00     0.055 A 
ATOM     92  C   UNL A   1      46.699  28.485  36.315  1.00  0.00     0.041 A 
ATOM     93  F   UNL A   1      45.950  30.077  34.768  1.00  0.00    -0.206 F 
ATOM     94  C   UNL A   1      46.434  27.451  37.210  1.00  0.00     0.022 A 
BRANCH  91  95
ATOM     95  S   UNL A   1      44.733  25.727  38.596  1.00  0.00     0.124 S 
ATOM     96  O   UNL A   1      43.741  24.916  37.899  1.00  0.00    -0.237 OA
ATOM     97  O   UNL A   1      46.031  25.096  38.816  1.00  0.00    -0.237 OA
ATOM     98  O   UNL A   1      44.222  26.499  39.726  1.00  0.00    -0.744 OA
ENDBRANCH  91  95
ENDBRANCH  65  88
ENDBRANCH  39  40
ENDBRANCH  31  34
ENDBRANCH  29  30
ENDBRANCH  28  29
ENDBRANCH   1  28
TORSDOF 19
ENDMDL
