MODEL 1
REMARK VINA RESULT:     -13.0      0.000      0.000
REMARK SMILES CC1(C)CCCC[C@H]1NC(=O)Nc1ccccc1C(=O)NCCCNC(=O)c1ccc(-c2c3nc(c(-c4cc(S(=O)(=O)[O-])ccc4F)c4ccc([nH]4)c(-c4cc(S(=O)(=O)[O-])ccc4F)c4nc(c(-c5cc(S(=O)(=O)[O-])ccc5F)c5ccc2[nH]5)C=C4)C=C3)cc1
REMARK SMILES IDX 23 1 22 2 21 3 19 4 20 5 18 7 13 8 14 9 15 10 17 11 16 12
REMARK SMILES IDX 12 13 9 14 10 15 11 17 8 19 1 20 2 21 3 22 4 23 5 24 7 25
REMARK SMILES IDX 6 26 24 27 25 28 26 29 27 31 28 32 29 33 90 34 30 35 89 36
REMARK SMILES IDX 31 37 32 38 33 39 83 40 34 41 88 42 82 43 84 44 35 45 87 46
REMARK SMILES IDX 81 47 80 48 36 50 68 51 48 52 67 53 49 54 52 55 66 56 85 57
REMARK SMILES IDX 50 58 51 59 65 61 86 62 53 63 37 64 38 65 46 66 39 67 45 68
REMARK SMILES IDX 47 69 44 70 40 71 41 72 42 73 43 74 69 75 70 76 78 77 71 78
REMARK SMILES IDX 77 79 79 80 76 81 72 82 73 83 74 84 75 85 54 86 55 87 63 88
REMARK SMILES IDX 56 89 62 90 64 91 61 92 57 93 58 94 59 95 60 96
REMARK H PARENT 21 6 9 16 12 18 25 30 84 49 52 60
REMARK Flexibility Score: inf
ROOT
ATOM      1  C   UNL A   1      31.735  29.480  27.143  1.00  0.00     0.042 C 
ENDROOT
BRANCH   1   2
ATOM      2  C   UNL A   1      32.298  28.153  27.613  1.00  0.00     0.118 C 
BRANCH   2   3
ATOM      3  N   UNL A   1      32.972  27.404  26.576  1.00  0.00    -0.352 N 
ATOM      4  C   UNL A   1      32.523  26.871  25.400  1.00  0.00     0.253 C 
ATOM      5  O   UNL A   1      33.371  26.287  24.715  1.00  0.00    -0.269 OA
ATOM      6  H   UNL A   1      33.928  27.250  26.748  1.00  0.00     0.163 HD
BRANCH   4   7
ATOM      7  C   UNL A   1      31.099  26.853  24.935  1.00  0.00     0.063 A 
ATOM      8  C   UNL A   1      30.029  26.013  25.303  1.00  0.00     0.055 A 
ATOM      9  C   UNL A   1      28.839  26.059  24.541  1.00  0.00     0.027 A 
ATOM     10  C   UNL A   1      28.632  27.018  23.551  1.00  0.00     0.002 A 
ATOM     11  C   UNL A   1      30.851  27.834  23.939  1.00  0.00     0.016 A 
ATOM     12  C   UNL A   1      29.630  27.934  23.274  1.00  0.00     0.001 A 
BRANCH   8  13
ATOM     13  N   UNL A   1      29.926  25.132  26.397  1.00  0.00    -0.307 N 
ATOM     14  N   UNL A   1      30.580  22.987  25.641  1.00  0.00    -0.335 N 
ATOM     15  C   UNL A   1      29.999  23.794  26.543  1.00  0.00     0.319 C 
ATOM     16  H   UNL A   1      30.212  22.076  25.582  1.00  0.00     0.165 HD
ATOM     17  O   UNL A   1      29.550  23.290  27.574  1.00  0.00    -0.248 OA
ATOM     18  H   UNL A   1      29.767  25.599  27.249  1.00  0.00     0.171 HD
BRANCH  14  19
ATOM     19  C   UNL A   1      31.681  23.279  24.740  1.00  0.00     0.089 C 
ATOM     20  C   UNL A   1      32.369  20.812  24.421  1.00  0.00     0.013 C 
ATOM     21  C   UNL A   1      32.831  22.228  24.823  1.00  0.00    -0.015 C 
ATOM     22  C   UNL A   1      33.393  22.141  26.259  1.00  0.00     0.013 C 
ATOM     23  C   UNL A   1      33.968  22.712  23.884  1.00  0.00     0.008 C 
ATOM     24  C   UNL A   1      33.504  23.026  22.457  1.00  0.00     0.001 C 
ATOM     25  C   UNL A   1      31.174  23.441  23.304  1.00  0.00     0.025 C 
ATOM     26  C   UNL A   1      32.299  23.960  22.419  1.00  0.00     0.002 C 
ENDBRANCH  14  19
ENDBRANCH   8  13
ENDBRANCH   4   7
ENDBRANCH   2   3
ENDBRANCH   1   2
BRANCH   1  27
ATOM     27  C   UNL A   1      32.789  30.365  26.486  1.00  0.00     0.118 C 
BRANCH  27  28
ATOM     28  N   UNL A   1      32.807  31.743  26.980  1.00  0.00    -0.352 N 
ATOM     29  C   UNL A   1      33.770  32.441  27.676  1.00  0.00     0.251 C 
ATOM     30  H   UNL A   1      31.992  32.259  26.782  1.00  0.00     0.163 HD
ATOM     31  O   UNL A   1      33.544  33.584  28.068  1.00  0.00    -0.269 OA
BRANCH  29  32
ATOM     32  C   UNL A   1      35.054  31.789  28.004  1.00  0.00     0.039 A 
ATOM     33  C   UNL A   1      36.206  32.567  28.139  1.00  0.00     0.014 A 
ATOM     34  C   UNL A   1      35.103  30.421  28.255  1.00  0.00     0.014 A 
ATOM     35  C   UNL A   1      37.368  31.992  28.661  1.00  0.00     0.010 A 
ATOM     36  C   UNL A   1      36.208  29.887  28.903  1.00  0.00     0.010 A 
ATOM     37  C   UNL A   1      37.356  30.665  29.120  1.00  0.00    -0.014 A 
BRANCH  37  38
ATOM     38  C   UNL A   1      38.521  30.049  29.812  1.00  0.00     0.031 A 
ATOM     39  C   UNL A   1      38.875  30.505  31.205  1.00  0.00     0.074 A 
ATOM     40  C   UNL A   1      39.314  29.171  29.164  1.00  0.00     0.049 A 
ATOM     41  N   UNL A   1      39.949  30.265  31.911  1.00  0.00    -0.248 NA
ATOM     42  C   UNL A   1      37.912  31.400  31.867  1.00  0.00     0.031 C 
ATOM     43  C   UNL A   1      39.112  28.686  27.796  1.00  0.00     0.029 A 
ATOM     44  N   UNL A   1      40.462  28.534  29.567  1.00  0.00    -0.354 N 
ATOM     45  C   UNL A   1      39.806  31.008  33.079  1.00  0.00     0.074 A 
ATOM     46  C   UNL A   1      38.583  31.768  32.947  1.00  0.00     0.031 C 
ATOM     47  C   UNL A   1      40.075  27.801  27.492  1.00  0.00     0.029 A 
ATOM     48  C   UNL A   1      40.998  27.695  28.616  1.00  0.00     0.049 A 
ATOM     49  H   UNL A   1      40.865  28.664  30.456  1.00  0.00     0.167 HD
ATOM     50  C   UNL A   1      40.599  31.026  34.178  1.00  0.00     0.034 A 
ATOM     51  C   UNL A   1      42.112  26.936  28.645  1.00  0.00     0.034 A 
ATOM     52  C   UNL A   1      41.784  30.221  34.318  1.00  0.00     0.049 A 
ATOM     53  C   UNL A   1      42.969  26.960  29.888  1.00  0.00     0.074 A 
ATOM     54  C   UNL A   1      42.648  30.130  35.397  1.00  0.00     0.029 A 
ATOM     55  N   UNL A   1      42.264  29.346  33.353  1.00  0.00    -0.354 N 
ATOM     56  N   UNL A   1      42.810  27.659  30.989  1.00  0.00    -0.248 NA
ATOM     57  C   UNL A   1      44.150  26.086  29.897  1.00  0.00     0.031 C 
ATOM     58  C   UNL A   1      43.665  29.227  35.070  1.00  0.00     0.029 A 
ATOM     59  C   UNL A   1      43.405  28.712  33.810  1.00  0.00     0.049 A 
ATOM     60  H   UNL A   1      41.850  29.198  32.471  1.00  0.00     0.167 HD
ATOM     61  C   UNL A   1      43.847  27.273  31.835  1.00  0.00     0.074 A 
ATOM     62  C   UNL A   1      44.616  26.275  31.122  1.00  0.00     0.031 C 
ATOM     63  C   UNL A   1      44.141  27.704  33.087  1.00  0.00     0.034 A 
BRANCH  50  64
ATOM     64  C   UNL A   1      40.194  31.943  35.307  1.00  0.00     0.023 A 
ATOM     65  C   UNL A   1      39.315  31.513  36.316  1.00  0.00     0.031 A 
ATOM     66  C   UNL A   1      40.653  33.270  35.355  1.00  0.00     0.131 A 
ATOM     67  C   UNL A   1      38.854  32.422  37.278  1.00  0.00     0.055 A 
ATOM     68  C   UNL A   1      40.258  34.147  36.368  1.00  0.00     0.041 A 
ATOM     69  F   UNL A   1      41.478  33.744  34.408  1.00  0.00    -0.206 F 
ATOM     70  C   UNL A   1      39.340  33.729  37.328  1.00  0.00     0.022 A 
BRANCH  67  71
ATOM     71  S   UNL A   1      37.503  31.908  38.373  1.00  0.00     0.124 S 
ATOM     72  O   UNL A   1      38.125  32.047  39.688  1.00  0.00    -0.237 OA
ATOM     73  O   UNL A   1      36.456  32.873  38.059  1.00  0.00    -0.237 OA
ATOM     74  O   UNL A   1      37.231  30.534  37.960  1.00  0.00    -0.744 OA
ENDBRANCH  67  71
ENDBRANCH  50  64
BRANCH  51  75
ATOM     75  C   UNL A   1      42.498  26.084  27.482  1.00  0.00     0.023 A 
ATOM     76  C   UNL A   1      42.014  24.770  27.365  1.00  0.00     0.031 A 
ATOM     77  C   UNL A   1      43.413  26.533  26.515  1.00  0.00     0.131 A 
ATOM     78  C   UNL A   1      42.497  23.930  26.351  1.00  0.00     0.055 A 
ATOM     79  C   UNL A   1      43.846  25.713  25.470  1.00  0.00     0.041 A 
ATOM     80  F   UNL A   1      43.904  27.782  26.572  1.00  0.00    -0.206 F 
ATOM     81  C   UNL A   1      43.402  24.396  25.395  1.00  0.00     0.022 A 
BRANCH  78  82
ATOM     82  S   UNL A   1      42.019  22.180  26.374  1.00  0.00     0.124 S 
ATOM     83  O   UNL A   1      40.570  22.266  26.240  1.00  0.00    -0.237 OA
ATOM     84  O   UNL A   1      42.742  21.656  25.220  1.00  0.00    -0.237 OA
ATOM     85  O   UNL A   1      42.499  21.714  27.673  1.00  0.00    -0.744 OA
ENDBRANCH  78  82
ENDBRANCH  51  75
BRANCH  63  86
ATOM     86  C   UNL A   1      45.299  27.038  33.783  1.00  0.00     0.023 A 
ATOM     87  C   UNL A   1      45.136  25.857  34.526  1.00  0.00     0.031 A 
ATOM     88  C   UNL A   1      46.585  27.602  33.703  1.00  0.00     0.131 A 
ATOM     89  C   UNL A   1      46.230  25.306  35.206  1.00  0.00     0.055 A 
ATOM     90  C   UNL A   1      47.681  27.018  34.336  1.00  0.00     0.041 A 
ATOM     91  F   UNL A   1      46.793  28.729  33.002  1.00  0.00    -0.206 F 
ATOM     92  C   UNL A   1      47.505  25.871  35.104  1.00  0.00     0.022 A 
BRANCH  89  93
ATOM     93  S   UNL A   1      45.952  23.879  36.290  1.00  0.00     0.124 S 
ATOM     94  O   UNL A   1      47.200  23.139  36.145  1.00  0.00    -0.237 OA
ATOM     95  O   UNL A   1      45.733  24.512  37.587  1.00  0.00    -0.237 OA
ATOM     96  O   UNL A   1      44.775  23.232  35.712  1.00  0.00    -0.744 OA
ENDBRANCH  89  93
ENDBRANCH  63  86
ENDBRANCH  37  38
ENDBRANCH  29  32
ENDBRANCH  27  28
ENDBRANCH   1  27
TORSDOF 15
ENDMDL
MODEL 2
REMARK VINA RESULT:     -13.0      0.754      7.461
REMARK SMILES CC1(C)CCCC[C@H]1NC(=O)Nc1ccccc1C(=O)NCCCNC(=O)c1ccc(-c2c3nc(c(-c4cc(S(=O)(=O)[O-])ccc4F)c4ccc([nH]4)c(-c4cc(S(=O)(=O)[O-])ccc4F)c4nc(c(-c5cc(S(=O)(=O)[O-])ccc5F)c5ccc2[nH]5)C=C4)C=C3)cc1
REMARK SMILES IDX 23 1 22 2 21 3 19 4 20 5 18 7 13 8 14 9 15 10 17 11 16 12
REMARK SMILES IDX 12 13 9 14 10 15 11 17 8 19 1 20 2 21 3 22 4 23 5 24 7 25
REMARK SMILES IDX 6 26 24 27 25 28 26 29 27 31 28 32 29 33 90 34 30 35 89 36
REMARK SMILES IDX 31 37 32 38 33 39 83 40 34 41 88 42 82 43 84 44 35 45 87 46
REMARK SMILES IDX 81 47 80 48 36 50 68 51 48 52 67 53 49 54 52 55 66 56 85 57
REMARK SMILES IDX 50 58 51 59 65 61 86 62 53 63 37 64 38 65 46 66 39 67 45 68
REMARK SMILES IDX 47 69 44 70 40 71 41 72 42 73 43 74 69 75 70 76 78 77 71 78
REMARK SMILES IDX 77 79 79 80 76 81 72 82 73 83 74 84 75 85 54 86 55 87 63 88
REMARK SMILES IDX 56 89 62 90 64 91 61 92 57 93 58 94 59 95 60 96
REMARK H PARENT 21 6 9 16 12 18 25 30 84 49 52 60
REMARK Flexibility Score: inf
ROOT
ATOM      1  C   UNL A   1      31.588  29.428  27.112  1.00  0.00     0.042 C 
ENDROOT
BRANCH   1   2
ATOM      2  C   UNL A   1      32.286  28.182  27.623  1.00  0.00     0.118 C 
BRANCH   2   3
ATOM      3  N   UNL A   1      32.969  27.431  26.593  1.00  0.00    -0.352 N 
ATOM      4  C   UNL A   1      32.531  26.893  25.415  1.00  0.00     0.253 C 
ATOM      5  O   UNL A   1      33.386  26.309  24.739  1.00  0.00    -0.269 OA
ATOM      6  H   UNL A   1      33.925  27.280  26.773  1.00  0.00     0.163 HD
BRANCH   4   7
ATOM      7  C   UNL A   1      31.110  26.870  24.940  1.00  0.00     0.063 A 
ATOM      8  C   UNL A   1      30.041  26.027  25.300  1.00  0.00     0.055 A 
ATOM      9  C   UNL A   1      28.857  26.068  24.529  1.00  0.00     0.027 A 
ATOM     10  C   UNL A   1      28.654  27.026  23.538  1.00  0.00     0.002 A 
ATOM     11  C   UNL A   1      30.867  27.850  23.942  1.00  0.00     0.016 A 
ATOM     12  C   UNL A   1      29.650  27.946  23.268  1.00  0.00     0.001 A 
BRANCH   8  13
ATOM     13  N   UNL A   1      29.933  25.145  26.393  1.00  0.00    -0.307 N 
ATOM     14  N   UNL A   1      30.588  22.999  25.639  1.00  0.00    -0.335 N 
ATOM     15  C   UNL A   1      30.004  23.807  26.539  1.00  0.00     0.319 C 
ATOM     16  H   UNL A   1      30.220  22.089  25.579  1.00  0.00     0.165 HD
ATOM     17  O   UNL A   1      29.550  23.304  27.568  1.00  0.00    -0.248 OA
ATOM     18  H   UNL A   1      29.770  25.612  27.244  1.00  0.00     0.171 HD
BRANCH  14  19
ATOM     19  C   UNL A   1      31.693  23.292  24.743  1.00  0.00     0.089 C 
ATOM     20  C   UNL A   1      32.360  20.821  24.399  1.00  0.00     0.013 C 
ATOM     21  C   UNL A   1      32.834  22.229  24.817  1.00  0.00    -0.015 C 
ATOM     22  C   UNL A   1      33.392  22.122  26.252  1.00  0.00     0.013 C 
ATOM     23  C   UNL A   1      33.976  22.713  23.884  1.00  0.00     0.008 C 
ATOM     24  C   UNL A   1      33.518  23.046  22.460  1.00  0.00     0.001 C 
ATOM     25  C   UNL A   1      31.190  23.473  23.308  1.00  0.00     0.025 C 
ATOM     26  C   UNL A   1      32.321  23.991  22.431  1.00  0.00     0.002 C 
ENDBRANCH  14  19
ENDBRANCH   8  13
ENDBRANCH   4   7
ENDBRANCH   2   3
ENDBRANCH   1   2
BRANCH   1  27
ATOM     27  C   UNL A   1      32.540  30.381  26.396  1.00  0.00     0.118 C 
BRANCH  27  28
ATOM     28  N   UNL A   1      32.414  31.779  26.813  1.00  0.00    -0.352 N 
ATOM     29  C   UNL A   1      33.284  32.601  27.495  1.00  0.00     0.251 C 
ATOM     30  H   UNL A   1      31.561  32.205  26.564  1.00  0.00     0.163 HD
ATOM     31  O   UNL A   1      32.941  33.736  27.817  1.00  0.00    -0.269 OA
BRANCH  29  32
ATOM     32  C   UNL A   1      34.612  32.091  27.894  1.00  0.00     0.039 A 
ATOM     33  C   UNL A   1      35.701  32.965  27.936  1.00  0.00     0.014 A 
ATOM     34  C   UNL A   1      34.764  30.769  28.301  1.00  0.00     0.014 A 
ATOM     35  C   UNL A   1      36.900  32.545  28.519  1.00  0.00     0.010 A 
ATOM     36  C   UNL A   1      35.902  30.399  29.003  1.00  0.00     0.010 A 
ATOM     37  C   UNL A   1      36.985  31.282  29.127  1.00  0.00    -0.014 A 
BRANCH  37  38
ATOM     38  C   UNL A   1      38.189  30.841  29.884  1.00  0.00     0.031 A 
ATOM     39  C   UNL A   1      39.133  29.850  29.253  1.00  0.00     0.074 A 
ATOM     40  C   UNL A   1      38.378  31.240  31.159  1.00  0.00     0.049 A 
ATOM     41  N   UNL A   1      40.115  29.176  29.793  1.00  0.00    -0.248 NA
ATOM     42  C   UNL A   1      38.899  29.532  27.835  1.00  0.00     0.031 C 
ATOM     43  C   UNL A   1      37.511  32.157  31.905  1.00  0.00     0.029 A 
ATOM     44  N   UNL A   1      39.361  30.917  32.063  1.00  0.00    -0.354 N 
ATOM     45  C   UNL A   1      40.588  28.332  28.792  1.00  0.00     0.074 A 
ATOM     46  C   UNL A   1      39.731  28.521  27.643  1.00  0.00     0.031 C 
ATOM     47  C   UNL A   1      38.022  32.352  33.132  1.00  0.00     0.029 A 
ATOM     48  C   UNL A   1      39.219  31.534  33.286  1.00  0.00     0.049 A 
ATOM     49  H   UNL A   1      40.100  30.301  31.855  1.00  0.00     0.167 HD
ATOM     50  C   UNL A   1      41.661  27.505  28.814  1.00  0.00     0.034 A 
ATOM     51  C   UNL A   1      39.965  31.440  34.405  1.00  0.00     0.034 A 
ATOM     52  C   UNL A   1      42.540  27.369  29.947  1.00  0.00     0.049 A 
ATOM     53  C   UNL A   1      41.166  30.525  34.399  1.00  0.00     0.074 A 
ATOM     54  C   UNL A   1      43.676  26.589  30.074  1.00  0.00     0.029 A 
ATOM     55  N   UNL A   1      42.391  28.051  31.147  1.00  0.00    -0.354 N 
ATOM     56  N   UNL A   1      41.605  29.746  33.437  1.00  0.00    -0.248 NA
ATOM     57  C   UNL A   1      41.977  30.486  35.623  1.00  0.00     0.031 C 
ATOM     58  C   UNL A   1      44.193  26.773  31.360  1.00  0.00     0.029 A 
ATOM     59  C   UNL A   1      43.413  27.712  32.016  1.00  0.00     0.049 A 
ATOM     60  H   UNL A   1      41.664  28.684  31.350  1.00  0.00     0.167 HD
ATOM     61  C   UNL A   1      42.768  29.158  33.929  1.00  0.00     0.074 A 
ATOM     62  C   UNL A   1      42.966  29.681  35.264  1.00  0.00     0.031 C 
ATOM     63  C   UNL A   1      43.598  28.265  33.335  1.00  0.00     0.034 A 
BRANCH  50  64
ATOM     64  C   UNL A   1      41.936  26.697  27.569  1.00  0.00     0.023 A 
ATOM     65  C   UNL A   1      41.550  25.348  27.475  1.00  0.00     0.031 A 
ATOM     66  C   UNL A   1      42.625  27.261  26.482  1.00  0.00     0.131 A 
ATOM     67  C   UNL A   1      41.931  24.586  26.362  1.00  0.00     0.055 A 
ATOM     68  C   UNL A   1      42.925  26.519  25.337  1.00  0.00     0.041 A 
ATOM     69  F   UNL A   1      43.037  28.538  26.521  1.00  0.00    -0.206 F 
ATOM     70  C   UNL A   1      42.592  25.168  25.280  1.00  0.00     0.022 A 
BRANCH  67  71
ATOM     71  S   UNL A   1      41.674  22.791  26.416  1.00  0.00     0.124 S 
ATOM     72  O   UNL A   1      42.282  22.449  27.699  1.00  0.00    -0.237 OA
ATOM     73  O   UNL A   1      40.223  22.676  26.347  1.00  0.00    -0.237 OA
ATOM     74  O   UNL A   1      42.396  22.307  25.242  1.00  0.00    -0.744 OA
ENDBRANCH  67  71
ENDBRANCH  50  64
BRANCH  51  75
ATOM     75  C   UNL A   1      39.622  32.222  35.629  1.00  0.00     0.023 A 
ATOM     76  C   UNL A   1      38.822  31.660  36.638  1.00  0.00     0.031 A 
ATOM     77  C   UNL A   1      40.017  33.563  35.779  1.00  0.00     0.131 A 
ATOM     78  C   UNL A   1      38.384  32.450  37.711  1.00  0.00     0.055 A 
ATOM     79  C   UNL A   1      39.630  34.329  36.880  1.00  0.00     0.041 A 
ATOM     80  F   UNL A   1      40.789  34.151  34.850  1.00  0.00    -0.206 F 
ATOM     81  C   UNL A   1      38.792  33.778  37.846  1.00  0.00     0.022 A 
BRANCH  78  82
ATOM     82  S   UNL A   1      37.171  31.750  38.865  1.00  0.00     0.124 S 
ATOM     83  O   UNL A   1      36.987  30.408  38.325  1.00  0.00    -0.237 OA
ATOM     84  O   UNL A   1      37.879  31.839  40.137  1.00  0.00    -0.237 OA
ATOM     85  O   UNL A   1      36.020  32.640  38.729  1.00  0.00    -0.744 OA
ENDBRANCH  78  82
ENDBRANCH  51  75
BRANCH  63  86
ATOM     86  C   UNL A   1      44.831  27.864  34.103  1.00  0.00     0.023 A 
ATOM     87  C   UNL A   1      44.837  26.757  34.968  1.00  0.00     0.031 A 
ATOM     88  C   UNL A   1      46.016  28.609  33.966  1.00  0.00     0.131 A 
ATOM     89  C   UNL A   1      45.990  26.458  35.706  1.00  0.00     0.055 A 
ATOM     90  C   UNL A   1      47.176  28.273  34.662  1.00  0.00     0.041 A 
ATOM     91  F   UNL A   1      46.062  29.674  33.149  1.00  0.00    -0.206 F 
ATOM     92  C   UNL A   1      47.164  27.199  35.548  1.00  0.00     0.022 A 
BRANCH  89  93
ATOM     93  S   UNL A   1      45.913  25.128  36.937  1.00  0.00     0.124 S 
ATOM     94  O   UNL A   1      47.320  24.778  37.096  1.00  0.00    -0.237 OA
ATOM     95  O   UNL A   1      45.290  25.794  38.077  1.00  0.00    -0.237 OA
ATOM     96  O   UNL A   1      45.088  24.108  36.291  1.00  0.00    -0.744 OA
ENDBRANCH  89  93
ENDBRANCH  63  86
ENDBRANCH  37  38
ENDBRANCH  29  32
ENDBRANCH  27  28
ENDBRANCH   1  27
TORSDOF 15
ENDMDL
MODEL 3
REMARK VINA RESULT:     -12.7      2.068      7.875
REMARK SMILES CC1(C)CCCC[C@H]1NC(=O)Nc1ccccc1C(=O)NCCCNC(=O)c1ccc(-c2c3nc(c(-c4cc(S(=O)(=O)[O-])ccc4F)c4ccc([nH]4)c(-c4cc(S(=O)(=O)[O-])ccc4F)c4nc(c(-c5cc(S(=O)(=O)[O-])ccc5F)c5ccc2[nH]5)C=C4)C=C3)cc1
REMARK SMILES IDX 23 1 22 2 21 3 19 4 20 5 18 7 13 8 14 9 15 10 17 11 16 12
REMARK SMILES IDX 12 13 9 14 10 15 11 17 8 19 1 20 2 21 3 22 4 23 5 24 7 25
REMARK SMILES IDX 6 26 24 27 25 28 26 29 27 31 28 32 29 33 90 34 30 35 89 36
REMARK SMILES IDX 31 37 32 38 33 39 83 40 34 41 88 42 82 43 84 44 35 45 87 46
REMARK SMILES IDX 81 47 80 48 36 50 68 51 48 52 67 53 49 54 52 55 66 56 85 57
REMARK SMILES IDX 50 58 51 59 65 61 86 62 53 63 37 64 38 65 46 66 39 67 45 68
REMARK SMILES IDX 47 69 44 70 40 71 41 72 42 73 43 74 69 75 70 76 78 77 71 78
REMARK SMILES IDX 77 79 79 80 76 81 72 82 73 83 74 84 75 85 54 86 55 87 63 88
REMARK SMILES IDX 56 89 62 90 64 91 61 92 57 93 58 94 59 95 60 96
REMARK H PARENT 21 6 9 16 12 18 25 30 84 49 52 60
REMARK Flexibility Score: inf
ROOT
ATOM      1  C   UNL A   1      32.339  30.508  26.669  1.00  0.00     0.042 C 
ENDROOT
BRANCH   1   2
ATOM      2  C   UNL A   1      32.176  29.186  27.393  1.00  0.00     0.118 C 
BRANCH   2   3
ATOM      3  N   UNL A   1      32.893  28.091  26.778  1.00  0.00    -0.352 N 
ATOM      4  C   UNL A   1      32.536  27.200  25.806  1.00  0.00     0.253 C 
ATOM      5  O   UNL A   1      33.401  26.376  25.487  1.00  0.00    -0.269 OA
ATOM      6  H   UNL A   1      33.806  27.965  27.124  1.00  0.00     0.163 HD
BRANCH   4   7
ATOM      7  C   UNL A   1      31.178  27.083  25.183  1.00  0.00     0.063 A 
ATOM      8  C   UNL A   1      30.151  26.145  25.403  1.00  0.00     0.055 A 
ATOM      9  C   UNL A   1      29.052  26.122  24.513  1.00  0.00     0.027 A 
ATOM     10  C   UNL A   1      28.874  27.099  23.535  1.00  0.00     0.002 A 
ATOM     11  C   UNL A   1      30.958  28.079  24.195  1.00  0.00     0.016 A 
ATOM     12  C   UNL A   1      29.813  28.104  23.400  1.00  0.00     0.001 A 
BRANCH   8  13
ATOM     13  N   UNL A   1      30.005  25.215  26.451  1.00  0.00    -0.307 N 
ATOM     14  N   UNL A   1      30.672  23.102  25.622  1.00  0.00    -0.335 N 
ATOM     15  C   UNL A   1      30.064  23.872  26.539  1.00  0.00     0.319 C 
ATOM     16  H   UNL A   1      30.300  22.198  25.509  1.00  0.00     0.165 HD
ATOM     17  O   UNL A   1      29.576  23.326  27.530  1.00  0.00    -0.248 OA
ATOM     18  H   UNL A   1      29.819  25.645  27.318  1.00  0.00     0.171 HD
BRANCH  14  19
ATOM     19  C   UNL A   1      31.805  23.426  24.774  1.00  0.00     0.089 C 
ATOM     20  C   UNL A   1      32.630  20.989  24.563  1.00  0.00     0.013 C 
ATOM     21  C   UNL A   1      32.999  22.437  24.949  1.00  0.00    -0.015 C 
ATOM     22  C   UNL A   1      33.484  22.415  26.415  1.00  0.00     0.013 C 
ATOM     23  C   UNL A   1      34.161  22.953  24.059  1.00  0.00     0.008 C 
ATOM     24  C   UNL A   1      33.762  23.207  22.601  1.00  0.00     0.001 C 
ATOM     25  C   UNL A   1      31.371  23.526  23.309  1.00  0.00     0.025 C 
ATOM     26  C   UNL A   1      32.516  24.078  22.472  1.00  0.00     0.002 C 
ENDBRANCH  14  19
ENDBRANCH   8  13
ENDBRANCH   4   7
ENDBRANCH   2   3
ENDBRANCH   1   2
BRANCH   1  27
ATOM     27  C   UNL A   1      33.368  31.418  27.334  1.00  0.00     0.118 C 
BRANCH  27  28
ATOM     28  N   UNL A   1      32.943  32.814  27.456  1.00  0.00    -0.352 N 
ATOM     29  C   UNL A   1      33.380  33.822  28.288  1.00  0.00     0.251 C 
ATOM     30  H   UNL A   1      32.221  33.077  26.840  1.00  0.00     0.163 HD
ATOM     31  O   UNL A   1      32.822  34.917  28.279  1.00  0.00    -0.269 OA
BRANCH  29  32
ATOM     32  C   UNL A   1      34.483  33.563  29.235  1.00  0.00     0.039 A 
ATOM     33  C   UNL A   1      34.262  32.736  30.340  1.00  0.00     0.014 A 
ATOM     34  C   UNL A   1      35.755  34.072  28.989  1.00  0.00     0.014 A 
ATOM     35  C   UNL A   1      35.347  32.313  31.111  1.00  0.00     0.010 A 
ATOM     36  C   UNL A   1      36.843  33.540  29.665  1.00  0.00     0.010 A 
ATOM     37  C   UNL A   1      36.657  32.649  30.733  1.00  0.00    -0.014 A 
BRANCH  37  38
ATOM     38  C   UNL A   1      37.854  32.108  31.435  1.00  0.00     0.031 A 
ATOM     39  C   UNL A   1      38.666  31.022  30.776  1.00  0.00     0.074 A 
ATOM     40  C   UNL A   1      38.149  32.509  32.690  1.00  0.00     0.049 A 
ATOM     41  N   UNL A   1      39.608  30.268  31.279  1.00  0.00    -0.248 NA
ATOM     42  C   UNL A   1      38.326  30.704  29.380  1.00  0.00     0.031 C 
ATOM     43  C   UNL A   1      37.413  33.516  33.460  1.00  0.00     0.029 A 
ATOM     44  N   UNL A   1      39.145  32.109  33.547  1.00  0.00    -0.354 N 
ATOM     45  C   UNL A   1      39.945  29.366  30.273  1.00  0.00     0.074 A 
ATOM     46  C   UNL A   1      39.048  29.616  29.167  1.00  0.00     0.031 C 
ATOM     47  C   UNL A   1      38.006  33.683  34.653  1.00  0.00     0.029 A 
ATOM     48  C   UNL A   1      39.128  32.758  34.762  1.00  0.00     0.049 A 
ATOM     49  H   UNL A   1      39.811  31.423  33.314  1.00  0.00     0.167 HD
ATOM     50  C   UNL A   1      40.936  28.441  30.256  1.00  0.00     0.034 A 
ATOM     51  C   UNL A   1      39.921  32.612  35.842  1.00  0.00     0.034 A 
ATOM     52  C   UNL A   1      41.858  28.242  31.344  1.00  0.00     0.049 A 
ATOM     53  C   UNL A   1      41.029  31.588  35.792  1.00  0.00     0.074 A 
ATOM     54  C   UNL A   1      42.921  27.360  31.428  1.00  0.00     0.029 A 
ATOM     55  N   UNL A   1      41.839  28.955  32.536  1.00  0.00    -0.354 N 
ATOM     56  N   UNL A   1      41.341  30.754  34.826  1.00  0.00    -0.248 NA
ATOM     57  C   UNL A   1      41.899  31.492  36.973  1.00  0.00     0.031 C 
ATOM     58  C   UNL A   1      43.523  27.516  32.681  1.00  0.00     0.029 A 
ATOM     59  C   UNL A   1      42.871  28.535  33.357  1.00  0.00     0.049 A 
ATOM     60  H   UNL A   1      41.187  29.657  32.762  1.00  0.00     0.167 HD
ATOM     61  C   UNL A   1      42.469  30.067  35.269  1.00  0.00     0.074 A 
ATOM     62  C   UNL A   1      42.787  30.592  36.580  1.00  0.00     0.031 C 
ATOM     63  C   UNL A   1      43.178  29.090  34.652  1.00  0.00     0.034 A 
BRANCH  50  64
ATOM     64  C   UNL A   1      41.065  27.590  29.016  1.00  0.00     0.023 A 
ATOM     65  C   UNL A   1      42.082  27.824  28.075  1.00  0.00     0.031 A 
ATOM     66  C   UNL A   1      40.142  26.565  28.748  1.00  0.00     0.131 A 
ATOM     67  C   UNL A   1      42.102  27.105  26.871  1.00  0.00     0.055 A 
ATOM     68  C   UNL A   1      40.220  25.793  27.587  1.00  0.00     0.041 A 
ATOM     69  F   UNL A   1      39.137  26.308  29.600  1.00  0.00    -0.206 F 
ATOM     70  C   UNL A   1      41.194  26.072  26.632  1.00  0.00     0.022 A 
BRANCH  67  71
ATOM     71  S   UNL A   1      43.242  27.638  25.565  1.00  0.00     0.124 S 
ATOM     72  O   UNL A   1      43.947  26.394  25.269  1.00  0.00    -0.237 OA
ATOM     73  O   UNL A   1      42.335  28.120  24.530  1.00  0.00    -0.237 OA
ATOM     74  O   UNL A   1      44.050  28.666  26.216  1.00  0.00    -0.744 OA
ENDBRANCH  67  71
ENDBRANCH  50  64
BRANCH  51  75
ATOM     75  C   UNL A   1      39.720  33.444  37.066  1.00  0.00     0.023 A 
ATOM     76  C   UNL A   1      39.059  32.918  38.188  1.00  0.00     0.031 A 
ATOM     77  C   UNL A   1      40.111  34.793  37.108  1.00  0.00     0.131 A 
ATOM     78  C   UNL A   1      38.745  33.749  39.274  1.00  0.00     0.055 A 
ATOM     79  C   UNL A   1      39.850  35.603  38.216  1.00  0.00     0.041 A 
ATOM     80  F   UNL A   1      40.753  35.348  36.067  1.00  0.00    -0.206 F 
ATOM     81  C   UNL A   1      39.146  35.087  39.301  1.00  0.00     0.022 A 
BRANCH  78  82
ATOM     82  S   UNL A   1      37.695  33.088  40.597  1.00  0.00     0.124 S 
ATOM     83  O   UNL A   1      36.419  32.924  39.910  1.00  0.00    -0.237 OA
ATOM     84  O   UNL A   1      38.397  31.860  40.953  1.00  0.00    -0.237 OA
ATOM     85  O   UNL A   1      37.725  34.140  41.612  1.00  0.00    -0.744 OA
ENDBRANCH  78  82
ENDBRANCH  51  75
BRANCH  63  86
ATOM     86  C   UNL A   1      44.408  28.587  35.362  1.00  0.00     0.023 A 
ATOM     87  C   UNL A   1      44.339  27.578  36.337  1.00  0.00     0.031 A 
ATOM     88  C   UNL A   1      45.667  29.135  35.057  1.00  0.00     0.131 A 
ATOM     89  C   UNL A   1      45.502  27.184  37.013  1.00  0.00     0.055 A 
ATOM     90  C   UNL A   1      46.828  28.700  35.695  1.00  0.00     0.041 A 
ATOM     91  F   UNL A   1      45.786  30.100  34.131  1.00  0.00    -0.206 F 
ATOM     92  C   UNL A   1      46.748  27.728  36.689  1.00  0.00     0.022 A 
BRANCH  89  93
ATOM     93  S   UNL A   1      45.354  26.002  38.381  1.00  0.00     0.124 S 
ATOM     94  O   UNL A   1      44.309  26.610  39.197  1.00  0.00    -0.237 OA
ATOM     95  O   UNL A   1      44.987  24.770  37.689  1.00  0.00    -0.237 OA
ATOM     96  O   UNL A   1      46.688  26.000  38.979  1.00  0.00    -0.744 OA
ENDBRANCH  89  93
ENDBRANCH  63  86
ENDBRANCH  37  38
ENDBRANCH  29  32
ENDBRANCH  27  28
ENDBRANCH   1  27
TORSDOF 15
ENDMDL
