MODEL 1
REMARK VINA RESULT:     -11.7      0.000      0.000
REMARK SMILES O=C(CCN1C(=O)/C(=C\c2ccc(-c3cccc(Cl)c3)o2)SC1=S)NCCCNC(=O)c1ccc(-c2c3nc(c(-c4cc(S(=O)(=O)[O-])ccc4F)c4ccc([nH]4)c(-c4cc(S(=O)(=O)[O-])ccc4F)c4nc(c(-c5cc(S(=O)(=O)[O-])ccc5F)c5ccc2[nH]5)C=C4)C=C3)cc1
REMARK SMILES IDX 26 1 25 2 1 3 2 4 3 6 4 7 5 8 6 9 23 10 7 11 8 12 22 13
REMARK SMILES IDX 24 14 9 15 10 16 11 17 21 18 12 19 13 20 14 21 15 22 20 23
REMARK SMILES IDX 16 24 18 25 17 26 19 27 27 28 28 29 29 30 30 31 31 33 32 34
REMARK SMILES IDX 33 35 94 36 34 37 93 38 35 39 36 40 37 41 87 42 38 43 92 44
REMARK SMILES IDX 86 45 88 46 39 47 91 48 85 49 84 50 40 52 72 53 52 54 71 55
REMARK SMILES IDX 53 56 56 57 70 58 89 59 54 60 55 61 69 63 90 64 57 65 41 66
REMARK SMILES IDX 42 67 50 68 43 69 49 70 51 71 48 72 44 73 45 74 46 75 47 76
REMARK SMILES IDX 73 77 74 78 82 79 75 80 81 81 83 82 80 83 76 84 77 85 78 86
REMARK SMILES IDX 79 87 58 88 59 89 67 90 60 91 66 92 68 93 65 94 61 95 62 96
REMARK SMILES IDX 63 97 64 98
REMARK H PARENT 25 5 29 32 88 51 56 62
REMARK Flexibility Score: inf
ROOT
ATOM      1  C   UNL A   1      39.503  21.896  26.452  1.00  0.00     0.117 C 
ENDROOT
BRANCH   1   2
ATOM      2  N   UNL A   1      38.143  22.326  26.147  1.00  0.00    -0.356 N 
ATOM      3  O   UNL A   1      38.479  24.557  26.588  1.00  0.00    -0.275 OA
ATOM      4  C   UNL A   1      37.763  23.652  26.168  1.00  0.00     0.221 C 
ATOM      5  H   UNL A   1      37.472  21.644  25.916  1.00  0.00     0.163 HD
BRANCH   4   6
ATOM      6  C   UNL A   1      36.376  23.942  25.627  1.00  0.00     0.122 C 
BRANCH   6   7
ATOM      7  C   UNL A   1      36.127  23.282  24.262  1.00  0.00     0.137 C 
BRANCH   7   8
ATOM      8  N   UNL A   1      34.732  22.898  24.010  1.00  0.00    -0.292 N 
ATOM      9  C   UNL A   1      33.944  23.730  23.232  1.00  0.00     0.266 C 
ATOM     10  C   UNL A   1      34.161  21.687  24.346  1.00  0.00     0.148 C 
ATOM     11  O   UNL A   1      34.347  24.622  22.517  1.00  0.00    -0.268 OA
ATOM     12  C   UNL A   1      32.519  23.346  23.388  1.00  0.00     0.084 C 
ATOM     13  S   UNL A   1      32.455  21.692  23.882  1.00  0.00    -0.054 SA
ATOM     14  S   UNL A   1      34.884  20.372  25.072  1.00  0.00    -0.052 S 
ATOM     15  C   UNL A   1      31.459  24.164  23.400  1.00  0.00     0.068 C 
BRANCH  15  16
ATOM     16  C   UNL A   1      31.553  25.590  23.374  1.00  0.00     0.128 A 
ATOM     17  C   UNL A   1      31.289  26.511  22.372  1.00  0.00     0.051 A 
ATOM     18  O   UNL A   1      31.973  26.315  24.476  1.00  0.00    -0.457 OA
ATOM     19  C   UNL A   1      31.583  27.808  22.868  1.00  0.00     0.051 A 
ATOM     20  C   UNL A   1      31.998  27.641  24.166  1.00  0.00     0.134 A 
BRANCH  20  21
ATOM     21  C   UNL A   1      32.433  28.553  25.215  1.00  0.00     0.019 A 
ATOM     22  C   UNL A   1      33.514  28.227  26.042  1.00  0.00     0.012 A 
ATOM     23  C   UNL A   1      31.751  29.754  25.445  1.00  0.00     0.032 A 
ATOM     24  C   UNL A   1      33.912  29.089  27.072  1.00  0.00     0.002 A 
ATOM     25  C   UNL A   1      32.174  30.629  26.450  1.00  0.00     0.041 A 
ATOM     26  C   UNL A   1      33.248  30.299  27.270  1.00  0.00     0.020 A 
ATOM     27  Cl  UNL A   1      31.353  32.127  26.676  1.00  0.00    -0.084 Cl
ENDBRANCH  20  21
ENDBRANCH  15  16
ENDBRANCH   7   8
ENDBRANCH   6   7
ENDBRANCH   4   6
ENDBRANCH   1   2
BRANCH   1  28
ATOM     28  C   UNL A   1      39.838  20.487  25.960  1.00  0.00     0.042 C 
BRANCH  28  29
ATOM     29  C   UNL A   1      41.053  19.802  26.591  1.00  0.00     0.118 C 
BRANCH  29  30
ATOM     30  N   UNL A   1      42.102  19.418  25.669  1.00  0.00    -0.352 N 
ATOM     31  C   UNL A   1      43.197  20.138  25.237  1.00  0.00     0.251 C 
ATOM     32  H   UNL A   1      42.022  18.509  25.298  1.00  0.00     0.163 HD
ATOM     33  O   UNL A   1      43.964  19.604  24.437  1.00  0.00    -0.269 OA
BRANCH  31  34
ATOM     34  C   UNL A   1      43.471  21.542  25.670  1.00  0.00     0.039 A 
ATOM     35  C   UNL A   1      43.798  21.774  27.009  1.00  0.00     0.014 A 
ATOM     36  C   UNL A   1      43.318  22.645  24.829  1.00  0.00     0.014 A 
ATOM     37  C   UNL A   1      44.002  23.083  27.481  1.00  0.00     0.010 A 
ATOM     38  C   UNL A   1      43.570  23.953  25.286  1.00  0.00     0.010 A 
ATOM     39  C   UNL A   1      43.910  24.196  26.626  1.00  0.00    -0.014 A 
BRANCH  39  40
ATOM     40  C   UNL A   1      44.183  25.579  27.144  1.00  0.00     0.031 A 
ATOM     41  C   UNL A   1      45.572  26.179  27.126  1.00  0.00     0.074 A 
ATOM     42  C   UNL A   1      43.169  26.325  27.636  1.00  0.00     0.049 A 
ATOM     43  N   UNL A   1      45.959  27.386  27.469  1.00  0.00    -0.248 NA
ATOM     44  C   UNL A   1      46.669  25.308  26.687  1.00  0.00     0.031 C 
ATOM     45  C   UNL A   1      41.784  25.875  27.768  1.00  0.00     0.029 A 
ATOM     46  N   UNL A   1      43.140  27.620  28.102  1.00  0.00    -0.354 N 
ATOM     47  C   UNL A   1      47.338  27.422  27.285  1.00  0.00     0.074 A 
ATOM     48  C   UNL A   1      47.725  26.091  26.862  1.00  0.00     0.031 C 
ATOM     49  C   UNL A   1      41.034  26.887  28.231  1.00  0.00     0.029 A 
ATOM     50  C   UNL A   1      41.885  28.050  28.472  1.00  0.00     0.049 A 
ATOM     51  H   UNL A   1      43.942  28.187  28.163  1.00  0.00     0.167 HD
ATOM     52  C   UNL A   1      48.201  28.464  27.424  1.00  0.00     0.034 A 
ATOM     53  C   UNL A   1      41.456  29.239  28.950  1.00  0.00     0.034 A 
ATOM     54  C   UNL A   1      47.819  29.795  27.840  1.00  0.00     0.049 A 
ATOM     55  C   UNL A   1      42.436  30.376  29.122  1.00  0.00     0.074 A 
ATOM     56  C   UNL A   1      48.615  30.926  27.949  1.00  0.00     0.029 A 
ATOM     57  N   UNL A   1      46.544  30.180  28.232  1.00  0.00    -0.354 N 
ATOM     58  N   UNL A   1      43.723  30.405  28.870  1.00  0.00    -0.248 NA
ATOM     59  C   UNL A   1      41.897  31.646  29.629  1.00  0.00     0.031 C 
ATOM     60  C   UNL A   1      47.845  31.965  28.481  1.00  0.00     0.029 A 
ATOM     61  C   UNL A   1      46.543  31.514  28.618  1.00  0.00     0.049 A 
ATOM     62  H   UNL A   1      45.754  29.592  28.236  1.00  0.00     0.167 HD
ATOM     63  C   UNL A   1      44.136  31.707  29.151  1.00  0.00     0.074 A 
ATOM     64  C   UNL A   1      42.961  32.434  29.578  1.00  0.00     0.031 C 
ATOM     65  C   UNL A   1      45.377  32.249  29.056  1.00  0.00     0.034 A 
BRANCH  52  66
ATOM     66  C   UNL A   1      49.667  28.205  27.139  1.00  0.00     0.023 A 
ATOM     67  C   UNL A   1      50.235  28.478  25.883  1.00  0.00     0.031 A 
ATOM     68  C   UNL A   1      50.511  27.685  28.139  1.00  0.00     0.131 A 
ATOM     69  C   UNL A   1      51.580  28.160  25.635  1.00  0.00     0.055 A 
ATOM     70  C   UNL A   1      51.870  27.454  27.912  1.00  0.00     0.041 A 
ATOM     71  F   UNL A   1      50.029  27.389  29.356  1.00  0.00    -0.206 F 
ATOM     72  C   UNL A   1      52.409  27.676  26.649  1.00  0.00     0.022 A 
BRANCH  69  73
ATOM     73  S   UNL A   1      52.188  28.244  23.928  1.00  0.00     0.124 S 
ATOM     74  O   UNL A   1      51.461  29.403  23.414  1.00  0.00    -0.237 OA
ATOM     75  O   UNL A   1      53.623  28.418  24.113  1.00  0.00    -0.237 OA
ATOM     76  O   UNL A   1      51.782  26.961  23.356  1.00  0.00    -0.744 OA
ENDBRANCH  69  73
ENDBRANCH  52  66
BRANCH  53  77
ATOM     77  C   UNL A   1      40.020  29.429  29.314  1.00  0.00     0.023 A 
ATOM     78  C   UNL A   1      39.605  29.456  30.656  1.00  0.00     0.031 A 
ATOM     79  C   UNL A   1      39.031  29.526  28.318  1.00  0.00     0.131 A 
ATOM     80  C   UNL A   1      38.237  29.521  30.965  1.00  0.00     0.055 A 
ATOM     81  C   UNL A   1      37.677  29.652  28.631  1.00  0.00     0.041 A 
ATOM     82  F   UNL A   1      39.371  29.508  27.019  1.00  0.00    -0.206 F 
ATOM     83  C   UNL A   1      37.271  29.635  29.962  1.00  0.00     0.022 A 
BRANCH  80  84
ATOM     84  S   UNL A   1      37.727  29.352  32.698  1.00  0.00     0.124 S 
ATOM     85  O   UNL A   1      36.461  30.077  32.705  1.00  0.00    -0.237 OA
ATOM     86  O   UNL A   1      37.638  27.903  32.847  1.00  0.00    -0.237 OA
ATOM     87  O   UNL A   1      38.816  29.988  33.436  1.00  0.00    -0.744 OA
ENDBRANCH  80  84
ENDBRANCH  53  77
BRANCH  65  88
ATOM     88  C   UNL A   1      45.522  33.723  29.369  1.00  0.00     0.023 A 
ATOM     89  C   UNL A   1      45.464  34.710  28.369  1.00  0.00     0.031 A 
ATOM     90  C   UNL A   1      45.736  34.146  30.695  1.00  0.00     0.131 A 
ATOM     91  C   UNL A   1      45.680  36.059  28.698  1.00  0.00     0.055 A 
ATOM     92  C   UNL A   1      45.884  35.494  31.025  1.00  0.00     0.041 A 
ATOM     93  F   UNL A   1      45.806  33.252  31.694  1.00  0.00    -0.206 F 
ATOM     94  C   UNL A   1      45.872  36.458  30.023  1.00  0.00     0.022 A 
BRANCH  91  95
ATOM     95  S   UNL A   1      45.814  37.276  27.359  1.00  0.00     0.124 S 
ATOM     96  O   UNL A   1      46.735  38.254  27.927  1.00  0.00    -0.237 OA
ATOM     97  O   UNL A   1      46.337  36.473  26.258  1.00  0.00    -0.237 OA
ATOM     98  O   UNL A   1      44.441  37.746  27.184  1.00  0.00    -0.744 OA
ENDBRANCH  91  95
ENDBRANCH  65  88
ENDBRANCH  39  40
ENDBRANCH  31  34
ENDBRANCH  29  30
ENDBRANCH  28  29
ENDBRANCH   1  28
TORSDOF 17
ENDMDL
MODEL 2
REMARK VINA RESULT:     -11.6      5.377     10.270
REMARK SMILES O=C(CCN1C(=O)/C(=C\c2ccc(-c3cccc(Cl)c3)o2)SC1=S)NCCCNC(=O)c1ccc(-c2c3nc(c(-c4cc(S(=O)(=O)[O-])ccc4F)c4ccc([nH]4)c(-c4cc(S(=O)(=O)[O-])ccc4F)c4nc(c(-c5cc(S(=O)(=O)[O-])ccc5F)c5ccc2[nH]5)C=C4)C=C3)cc1
REMARK SMILES IDX 26 1 25 2 1 3 2 4 3 6 4 7 5 8 6 9 23 10 7 11 8 12 22 13
REMARK SMILES IDX 24 14 9 15 10 16 11 17 21 18 12 19 13 20 14 21 15 22 20 23
REMARK SMILES IDX 16 24 18 25 17 26 19 27 27 28 28 29 29 30 30 31 31 33 32 34
REMARK SMILES IDX 33 35 94 36 34 37 93 38 35 39 36 40 37 41 87 42 38 43 92 44
REMARK SMILES IDX 86 45 88 46 39 47 91 48 85 49 84 50 40 52 72 53 52 54 71 55
REMARK SMILES IDX 53 56 56 57 70 58 89 59 54 60 55 61 69 63 90 64 57 65 41 66
REMARK SMILES IDX 42 67 50 68 43 69 49 70 51 71 48 72 44 73 45 74 46 75 47 76
REMARK SMILES IDX 73 77 74 78 82 79 75 80 81 81 83 82 80 83 76 84 77 85 78 86
REMARK SMILES IDX 79 87 58 88 59 89 67 90 60 91 66 92 68 93 65 94 61 95 62 96
REMARK SMILES IDX 63 97 64 98
REMARK H PARENT 25 5 29 32 88 51 56 62
REMARK Flexibility Score: inf
ROOT
ATOM      1  C   UNL A   1      31.863  28.028  27.218  1.00  0.00     0.117 C 
ENDROOT
BRANCH   1   2
ATOM      2  N   UNL A   1      30.906  27.428  26.296  1.00  0.00    -0.356 N 
ATOM      3  O   UNL A   1      31.466  25.243  26.738  1.00  0.00    -0.275 OA
ATOM      4  C   UNL A   1      30.735  26.062  26.190  1.00  0.00     0.221 C 
ATOM      5  H   UNL A   1      30.361  28.019  25.728  1.00  0.00     0.163 HD
BRANCH   4   6
ATOM      6  C   UNL A   1      29.560  25.617  25.340  1.00  0.00     0.122 C 
BRANCH   6   7
ATOM      7  C   UNL A   1      29.692  26.058  23.875  1.00  0.00     0.137 C 
BRANCH   7   8
ATOM      8  N   UNL A   1      31.064  26.047  23.350  1.00  0.00    -0.292 N 
ATOM      9  C   UNL A   1      31.689  24.827  23.151  1.00  0.00     0.266 C 
ATOM     10  C   UNL A   1      31.750  27.147  22.876  1.00  0.00     0.148 C 
ATOM     11  O   UNL A   1      31.141  23.746  23.121  1.00  0.00    -0.268 OA
ATOM     12  C   UNL A   1      33.143  25.045  22.955  1.00  0.00     0.084 C 
ATOM     13  S   UNL A   1      33.377  26.660  22.385  1.00  0.00    -0.054 SA
ATOM     14  S   UNL A   1      31.212  28.720  22.746  1.00  0.00    -0.052 S 
ATOM     15  C   UNL A   1      34.143  24.255  23.368  1.00  0.00     0.068 C 
BRANCH  15  16
ATOM     16  C   UNL A   1      33.956  23.098  24.185  1.00  0.00     0.128 A 
ATOM     17  C   UNL A   1      33.848  22.950  25.560  1.00  0.00     0.051 A 
ATOM     18  O   UNL A   1      33.853  21.829  23.642  1.00  0.00    -0.457 OA
ATOM     19  C   UNL A   1      33.707  21.568  25.851  1.00  0.00     0.051 A 
ATOM     20  C   UNL A   1      33.712  20.916  24.643  1.00  0.00     0.134 A 
BRANCH  20  21
ATOM     21  C   UNL A   1      33.602  19.519  24.247  1.00  0.00     0.019 A 
ATOM     22  C   UNL A   1      32.653  19.116  23.300  1.00  0.00     0.012 A 
ATOM     23  C   UNL A   1      34.415  18.543  24.837  1.00  0.00     0.032 A 
ATOM     24  C   UNL A   1      32.525  17.768  22.944  1.00  0.00     0.002 A 
ATOM     25  C   UNL A   1      34.309  17.203  24.453  1.00  0.00     0.041 A 
ATOM     26  C   UNL A   1      33.362  16.809  23.513  1.00  0.00     0.020 A 
ATOM     27  Cl  UNL A   1      35.359  16.030  25.154  1.00  0.00    -0.084 Cl
ENDBRANCH  20  21
ENDBRANCH  15  16
ENDBRANCH   7   8
ENDBRANCH   6   7
ENDBRANCH   4   6
ENDBRANCH   1   2
BRANCH   1  28
ATOM     28  C   UNL A   1      32.046  29.536  27.035  1.00  0.00     0.042 C 
BRANCH  28  29
ATOM     29  C   UNL A   1      33.464  30.087  27.203  1.00  0.00     0.118 C 
BRANCH  29  30
ATOM     30  N   UNL A   1      33.551  31.489  27.559  1.00  0.00    -0.352 N 
ATOM     31  C   UNL A   1      34.561  32.167  28.212  1.00  0.00     0.251 C 
ATOM     32  H   UNL A   1      32.777  32.037  27.295  1.00  0.00     0.163 HD
ATOM     33  O   UNL A   1      34.414  33.372  28.413  1.00  0.00    -0.269 OA
BRANCH  31  34
ATOM     34  C   UNL A   1      35.800  31.498  28.711  1.00  0.00     0.039 A 
ATOM     35  C   UNL A   1      37.004  32.208  28.668  1.00  0.00     0.014 A 
ATOM     36  C   UNL A   1      35.837  30.166  29.124  1.00  0.00     0.014 A 
ATOM     37  C   UNL A   1      38.208  31.602  29.066  1.00  0.00     0.010 A 
ATOM     38  C   UNL A   1      37.032  29.572  29.571  1.00  0.00     0.010 A 
ATOM     39  C   UNL A   1      38.244  30.279  29.542  1.00  0.00    -0.014 A 
BRANCH  39  40
ATOM     40  C   UNL A   1      39.536  29.672  30.010  1.00  0.00     0.031 A 
ATOM     41  C   UNL A   1      40.262  30.184  31.235  1.00  0.00     0.074 A 
ATOM     42  C   UNL A   1      40.075  28.634  29.334  1.00  0.00     0.049 A 
ATOM     43  N   UNL A   1      41.348  29.721  31.810  1.00  0.00    -0.248 NA
ATOM     44  C   UNL A   1      39.710  31.379  31.886  1.00  0.00     0.031 C 
ATOM     45  C   UNL A   1      39.526  28.056  28.107  1.00  0.00     0.029 A 
ATOM     46  N   UNL A   1      41.192  27.870  29.585  1.00  0.00    -0.354 N 
ATOM     47  C   UNL A   1      41.608  30.562  32.889  1.00  0.00     0.074 A 
ATOM     48  C   UNL A   1      40.599  31.602  32.844  1.00  0.00     0.031 C 
ATOM     49  C   UNL A   1      40.275  27.004  27.742  1.00  0.00     0.029 A 
ATOM     50  C   UNL A   1      41.385  26.850  28.680  1.00  0.00     0.049 A 
ATOM     51  H   UNL A   1      41.797  28.037  30.344  1.00  0.00     0.167 HD
ATOM     52  C   UNL A   1      42.572  30.468  33.844  1.00  0.00     0.034 A 
ATOM     53  C   UNL A   1      42.339  25.896  28.603  1.00  0.00     0.034 A 
ATOM     54  C   UNL A   1      43.577  29.429  33.895  1.00  0.00     0.049 A 
ATOM     55  C   UNL A   1      43.416  25.825  29.660  1.00  0.00     0.074 A 
ATOM     56  C   UNL A   1      44.552  29.221  34.859  1.00  0.00     0.029 A 
ATOM     57  N   UNL A   1      43.753  28.434  32.945  1.00  0.00    -0.354 N 
ATOM     58  N   UNL A   1      43.596  26.589  30.711  1.00  0.00    -0.248 NA
ATOM     59  C   UNL A   1      44.410  24.751  29.524  1.00  0.00     0.031 C 
ATOM     60  C   UNL A   1      45.364  28.158  34.451  1.00  0.00     0.029 A 
ATOM     61  C   UNL A   1      44.841  27.638  33.279  1.00  0.00     0.049 A 
ATOM     62  H   UNL A   1      43.188  28.309  32.148  1.00  0.00     0.167 HD
ATOM     63  C   UNL A   1      44.699  26.060  31.381  1.00  0.00     0.074 A 
ATOM     64  C   UNL A   1      45.134  24.908  30.622  1.00  0.00     0.031 C 
ATOM     65  C   UNL A   1      45.291  26.490  32.524  1.00  0.00     0.034 A 
BRANCH  52  66
ATOM     66  C   UNL A   1      42.604  31.538  34.917  1.00  0.00     0.023 A 
ATOM     67  C   UNL A   1      41.643  31.585  35.942  1.00  0.00     0.031 A 
ATOM     68  C   UNL A   1      43.611  32.520  34.921  1.00  0.00     0.131 A 
ATOM     69  C   UNL A   1      41.663  32.631  36.878  1.00  0.00     0.055 A 
ATOM     70  C   UNL A   1      43.678  33.507  35.908  1.00  0.00     0.041 A 
ATOM     71  F   UNL A   1      44.551  32.541  33.963  1.00  0.00    -0.206 F 
ATOM     72  C   UNL A   1      42.690  33.577  36.886  1.00  0.00     0.022 A 
BRANCH  69  73
ATOM     73  S   UNL A   1      40.243  32.824  37.990  1.00  0.00     0.124 S 
ATOM     74  O   UNL A   1      40.821  32.436  39.275  1.00  0.00    -0.237 OA
ATOM     75  O   UNL A   1      39.912  34.236  37.836  1.00  0.00    -0.237 OA
ATOM     76  O   UNL A   1      39.257  31.889  37.452  1.00  0.00    -0.744 OA
ENDBRANCH  69  73
ENDBRANCH  52  66
BRANCH  53  77
ATOM     77  C   UNL A   1      42.333  24.917  27.475  1.00  0.00     0.023 A 
ATOM     78  C   UNL A   1      41.537  23.759  27.519  1.00  0.00     0.031 A 
ATOM     79  C   UNL A   1      43.172  25.096  26.360  1.00  0.00     0.131 A 
ATOM     80  C   UNL A   1      41.638  22.802  26.498  1.00  0.00     0.055 A 
ATOM     81  C   UNL A   1      43.223  24.169  25.317  1.00  0.00     0.041 A 
ATOM     82  F   UNL A   1      43.951  26.186  26.265  1.00  0.00    -0.206 F 
ATOM     83  C   UNL A   1      42.464  23.006  25.390  1.00  0.00     0.022 A 
BRANCH  80  84
ATOM     84  S   UNL A   1      40.749  21.231  26.687  1.00  0.00     0.124 S 
ATOM     85  O   UNL A   1      40.681  21.103  28.138  1.00  0.00    -0.237 OA
ATOM     86  O   UNL A   1      39.489  21.513  26.006  1.00  0.00    -0.237 OA
ATOM     87  O   UNL A   1      41.617  20.266  26.014  1.00  0.00    -0.744 OA
ENDBRANCH  80  84
ENDBRANCH  53  77
BRANCH  65  88
ATOM     88  C   UNL A   1      46.448  25.675  33.061  1.00  0.00     0.023 A 
ATOM     89  C   UNL A   1      47.771  25.873  32.624  1.00  0.00     0.031 A 
ATOM     90  C   UNL A   1      46.219  24.669  34.018  1.00  0.00     0.131 A 
ATOM     91  C   UNL A   1      48.799  25.040  33.095  1.00  0.00     0.055 A 
ATOM     92  C   UNL A   1      47.255  23.888  34.532  1.00  0.00     0.041 A 
ATOM     93  F   UNL A   1      44.978  24.427  34.472  1.00  0.00    -0.206 F 
ATOM     94  C   UNL A   1      48.552  24.061  34.060  1.00  0.00     0.022 A 
BRANCH  91  95
ATOM     95  S   UNL A   1      50.449  25.182  32.353  1.00  0.00     0.124 S 
ATOM     96  O   UNL A   1      51.260  25.603  33.491  1.00  0.00    -0.237 OA
ATOM     97  O   UNL A   1      50.690  23.827  31.866  1.00  0.00    -0.237 OA
ATOM     98  O   UNL A   1      50.272  26.191  31.311  1.00  0.00    -0.744 OA
ENDBRANCH  91  95
ENDBRANCH  65  88
ENDBRANCH  39  40
ENDBRANCH  31  34
ENDBRANCH  29  30
ENDBRANCH  28  29
ENDBRANCH   1  28
TORSDOF 17
ENDMDL
MODEL 3
REMARK VINA RESULT:     -11.3      1.919      7.602
REMARK SMILES O=C(CCN1C(=O)/C(=C\c2ccc(-c3cccc(Cl)c3)o2)SC1=S)NCCCNC(=O)c1ccc(-c2c3nc(c(-c4cc(S(=O)(=O)[O-])ccc4F)c4ccc([nH]4)c(-c4cc(S(=O)(=O)[O-])ccc4F)c4nc(c(-c5cc(S(=O)(=O)[O-])ccc5F)c5ccc2[nH]5)C=C4)C=C3)cc1
REMARK SMILES IDX 26 1 25 2 1 3 2 4 3 6 4 7 5 8 6 9 23 10 7 11 8 12 22 13
REMARK SMILES IDX 24 14 9 15 10 16 11 17 21 18 12 19 13 20 14 21 15 22 20 23
REMARK SMILES IDX 16 24 18 25 17 26 19 27 27 28 28 29 29 30 30 31 31 33 32 34
REMARK SMILES IDX 33 35 94 36 34 37 93 38 35 39 36 40 37 41 87 42 38 43 92 44
REMARK SMILES IDX 86 45 88 46 39 47 91 48 85 49 84 50 40 52 72 53 52 54 71 55
REMARK SMILES IDX 53 56 56 57 70 58 89 59 54 60 55 61 69 63 90 64 57 65 41 66
REMARK SMILES IDX 42 67 50 68 43 69 49 70 51 71 48 72 44 73 45 74 46 75 47 76
REMARK SMILES IDX 73 77 74 78 82 79 75 80 81 81 83 82 80 83 76 84 77 85 78 86
REMARK SMILES IDX 79 87 58 88 59 89 67 90 60 91 66 92 68 93 65 94 61 95 62 96
REMARK SMILES IDX 63 97 64 98
REMARK H PARENT 25 5 29 32 88 51 56 62
REMARK Flexibility Score: inf
ROOT
ATOM      1  C   UNL A   1      39.598  22.179  26.049  1.00  0.00     0.117 C 
ENDROOT
BRANCH   1   2
ATOM      2  N   UNL A   1      38.293  22.508  25.488  1.00  0.00    -0.356 N 
ATOM      3  O   UNL A   1      37.902  24.343  26.816  1.00  0.00    -0.275 OA
ATOM      4  C   UNL A   1      37.580  23.625  25.874  1.00  0.00     0.221 C 
ATOM      5  H   UNL A   1      37.906  21.911  24.808  1.00  0.00     0.163 HD
BRANCH   4   6
ATOM      6  C   UNL A   1      36.345  23.929  25.047  1.00  0.00     0.122 C 
BRANCH   6   7
ATOM      7  C   UNL A   1      36.031  22.822  24.029  1.00  0.00     0.137 C 
BRANCH   7   8
ATOM      8  N   UNL A   1      34.601  22.535  23.853  1.00  0.00    -0.292 N 
ATOM      9  C   UNL A   1      33.839  23.406  23.092  1.00  0.00     0.266 C 
ATOM     10  C   UNL A   1      33.961  21.378  24.247  1.00  0.00     0.148 C 
ATOM     11  O   UNL A   1      34.269  24.250  22.336  1.00  0.00    -0.268 OA
ATOM     12  C   UNL A   1      32.399  23.132  23.324  1.00  0.00     0.084 C 
ATOM     13  S   UNL A   1      32.240  21.498  23.863  1.00  0.00    -0.054 SA
ATOM     14  S   UNL A   1      34.622  20.030  24.971  1.00  0.00    -0.052 S 
ATOM     15  C   UNL A   1      31.402  24.025  23.365  1.00  0.00     0.068 C 
BRANCH  15  16
ATOM     16  C   UNL A   1      31.598  25.439  23.298  1.00  0.00     0.128 A 
ATOM     17  C   UNL A   1      31.492  26.334  22.244  1.00  0.00     0.051 A 
ATOM     18  O   UNL A   1      31.966  26.180  24.408  1.00  0.00    -0.457 OA
ATOM     19  C   UNL A   1      31.830  27.627  22.719  1.00  0.00     0.051 A 
ATOM     20  C   UNL A   1      32.111  27.487  24.056  1.00  0.00     0.134 A 
BRANCH  20  21
ATOM     21  C   UNL A   1      32.511  28.411  25.108  1.00  0.00     0.019 A 
ATOM     22  C   UNL A   1      33.602  28.122  25.937  1.00  0.00     0.012 A 
ATOM     23  C   UNL A   1      31.787  29.587  25.340  1.00  0.00     0.032 A 
ATOM     24  C   UNL A   1      33.967  28.994  26.969  1.00  0.00     0.002 A 
ATOM     25  C   UNL A   1      32.176  30.473  26.349  1.00  0.00     0.041 A 
ATOM     26  C   UNL A   1      33.259  30.179  27.170  1.00  0.00     0.020 A 
ATOM     27  Cl  UNL A   1      31.301  31.940  26.577  1.00  0.00    -0.084 Cl
ENDBRANCH  20  21
ENDBRANCH  15  16
ENDBRANCH   7   8
ENDBRANCH   6   7
ENDBRANCH   4   6
ENDBRANCH   1   2
BRANCH   1  28
ATOM     28  C   UNL A   1      39.685  20.773  26.645  1.00  0.00     0.042 C 
BRANCH  28  29
ATOM     29  C   UNL A   1      39.948  19.622  25.671  1.00  0.00     0.118 C 
BRANCH  29  30
ATOM     30  N   UNL A   1      41.104  18.802  25.969  1.00  0.00    -0.352 N 
ATOM     31  C   UNL A   1      42.384  19.185  26.318  1.00  0.00     0.251 C 
ATOM     32  H   UNL A   1      40.954  17.830  25.915  1.00  0.00     0.163 HD
ATOM     33  O   UNL A   1      43.216  18.302  26.523  1.00  0.00    -0.269 OA
BRANCH  31  34
ATOM     34  C   UNL A   1      42.806  20.613  26.423  1.00  0.00     0.039 A 
ATOM     35  C   UNL A   1      42.797  21.221  27.682  1.00  0.00     0.014 A 
ATOM     36  C   UNL A   1      43.114  21.404  25.314  1.00  0.00     0.014 A 
ATOM     37  C   UNL A   1      43.124  22.580  27.826  1.00  0.00     0.010 A 
ATOM     38  C   UNL A   1      43.491  22.753  25.460  1.00  0.00     0.010 A 
ATOM     39  C   UNL A   1      43.495  23.368  26.721  1.00  0.00    -0.014 A 
BRANCH  39  40
ATOM     40  C   UNL A   1      43.890  24.805  26.909  1.00  0.00     0.031 A 
ATOM     41  C   UNL A   1      42.929  25.832  27.467  1.00  0.00     0.074 A 
ATOM     42  C   UNL A   1      45.138  25.207  26.583  1.00  0.00     0.049 A 
ATOM     43  N   UNL A   1      43.140  27.095  27.757  1.00  0.00    -0.248 NA
ATOM     44  C   UNL A   1      41.550  25.391  27.709  1.00  0.00     0.031 C 
ATOM     45  C   UNL A   1      46.167  24.354  25.989  1.00  0.00     0.029 A 
ATOM     46  N   UNL A   1      45.761  26.428  26.718  1.00  0.00    -0.354 N 
ATOM     47  C   UNL A   1      41.927  27.598  28.220  1.00  0.00     0.074 A 
ATOM     48  C   UNL A   1      40.970  26.516  28.106  1.00  0.00     0.031 C 
ATOM     49  C   UNL A   1      47.302  25.058  25.857  1.00  0.00     0.029 A 
ATOM     50  C   UNL A   1      47.079  26.428  26.315  1.00  0.00     0.049 A 
ATOM     51  H   UNL A   1      45.308  27.227  27.070  1.00  0.00     0.167 HD
ATOM     52  C   UNL A   1      41.637  28.830  28.719  1.00  0.00     0.034 A 
ATOM     53  C   UNL A   1      48.009  27.407  26.311  1.00  0.00     0.034 A 
ATOM     54  C   UNL A   1      42.590  29.911  28.839  1.00  0.00     0.049 A 
ATOM     55  C   UNL A   1      47.659  28.776  26.845  1.00  0.00     0.074 A 
ATOM     56  C   UNL A   1      42.400  31.170  29.389  1.00  0.00     0.029 A 
ATOM     57  N   UNL A   1      43.904  29.877  28.394  1.00  0.00    -0.354 N 
ATOM     58  N   UNL A   1      46.524  29.204  27.345  1.00  0.00    -0.248 NA
ATOM     59  C   UNL A   1      48.724  29.789  26.827  1.00  0.00     0.031 C 
ATOM     60  C   UNL A   1      43.565  31.919  29.202  1.00  0.00     0.029 A 
ATOM     61  C   UNL A   1      44.520  31.101  28.621  1.00  0.00     0.049 A 
ATOM     62  H   UNL A   1      44.338  29.097  27.978  1.00  0.00     0.167 HD
ATOM     63  C   UNL A   1      46.754  30.523  27.737  1.00  0.00     0.074 A 
ATOM     64  C   UNL A   1      48.137  30.814  27.427  1.00  0.00     0.031 C 
ATOM     65  C   UNL A   1      45.897  31.407  28.307  1.00  0.00     0.034 A 
BRANCH  52  66
ATOM     66  C   UNL A   1      40.210  29.090  29.162  1.00  0.00     0.023 A 
ATOM     67  C   UNL A   1      39.841  29.058  30.518  1.00  0.00     0.031 A 
ATOM     68  C   UNL A   1      39.208  29.382  28.218  1.00  0.00     0.131 A 
ATOM     69  C   UNL A   1      38.498  29.235  30.885  1.00  0.00     0.055 A 
ATOM     70  C   UNL A   1      37.890  29.645  28.598  1.00  0.00     0.041 A 
ATOM     71  F   UNL A   1      39.492  29.414  26.906  1.00  0.00    -0.206 F 
ATOM     72  C   UNL A   1      37.524  29.556  29.937  1.00  0.00     0.022 A 
BRANCH  69  73
ATOM     73  S   UNL A   1      38.017  28.887  32.599  1.00  0.00     0.124 S 
ATOM     74  O   UNL A   1      39.027  29.635  33.345  1.00  0.00    -0.237 OA
ATOM     75  O   UNL A   1      36.658  29.412  32.658  1.00  0.00    -0.237 OA
ATOM     76  O   UNL A   1      38.130  27.434  32.699  1.00  0.00    -0.744 OA
ENDBRANCH  69  73
ENDBRANCH  52  66
BRANCH  53  77
ATOM     77  C   UNL A   1      49.378  27.142  25.775  1.00  0.00     0.023 A 
ATOM     78  C   UNL A   1      50.442  26.806  26.628  1.00  0.00     0.031 A 
ATOM     79  C   UNL A   1      49.654  27.281  24.402  1.00  0.00     0.131 A 
ATOM     80  C   UNL A   1      51.740  26.675  26.111  1.00  0.00     0.055 A 
ATOM     81  C   UNL A   1      50.936  27.089  23.884  1.00  0.00     0.041 A 
ATOM     82  F   UNL A   1      48.674  27.598  23.541  1.00  0.00    -0.206 F 
ATOM     83  C   UNL A   1      51.992  26.799  24.742  1.00  0.00     0.022 A 
BRANCH  80  84
ATOM     84  S   UNL A   1      53.119  26.440  27.267  1.00  0.00     0.124 S 
ATOM     85  O   UNL A   1      53.620  25.131  26.865  1.00  0.00    -0.237 OA
ATOM     86  O   UNL A   1      53.975  27.580  26.952  1.00  0.00    -0.237 OA
ATOM     87  O   UNL A   1      52.475  26.488  28.578  1.00  0.00    -0.744 OA
ENDBRANCH  80  84
ENDBRANCH  53  77
BRANCH  65  88
ATOM     88  C   UNL A   1      46.445  32.766  28.687  1.00  0.00     0.023 A 
ATOM     89  C   UNL A   1      46.997  33.022  29.956  1.00  0.00     0.031 A 
ATOM     90  C   UNL A   1      46.400  33.829  27.767  1.00  0.00     0.131 A 
ATOM     91  C   UNL A   1      47.423  34.319  30.289  1.00  0.00     0.055 A 
ATOM     92  C   UNL A   1      46.886  35.100  28.080  1.00  0.00     0.041 A 
ATOM     93  F   UNL A   1      45.881  33.650  26.541  1.00  0.00    -0.206 F 
ATOM     94  C   UNL A   1      47.387  35.355  29.353  1.00  0.00     0.022 A 
BRANCH  91  95
ATOM     95  S   UNL A   1      47.928  34.662  31.998  1.00  0.00     0.124 S 
ATOM     96  O   UNL A   1      49.329  35.034  31.832  1.00  0.00    -0.237 OA
ATOM     97  O   UNL A   1      47.023  35.742  32.379  1.00  0.00    -0.237 OA
ATOM     98  O   UNL A   1      47.701  33.393  32.685  1.00  0.00    -0.744 OA
ENDBRANCH  91  95
ENDBRANCH  65  88
ENDBRANCH  39  40
ENDBRANCH  31  34
ENDBRANCH  29  30
ENDBRANCH  28  29
ENDBRANCH   1  28
TORSDOF 17
ENDMDL
