MODEL 1
REMARK VINA RESULT:     -13.7      0.000      0.000
REMARK SMILES Cc1nc(-c2ccc3c(c2)CCN3S(=O)(=O)c2ccc(F)c(C(=O)NCCCNC(=O)c3ccc(-c4c5nc(c(-c6cc(S(=O)(=O)[O-])ccc6F)c6ccc([nH]6)c(-c6cc(S(=O)(=O)[O-])ccc6F)c6nc(c(-c7cc(S(=O)(=O)[O-])ccc7F)c7ccc4[nH]7)C=C6)C=C5)cc3)c2)cs1
REMARK SMILES IDX 27 1 26 2 25 3 23 4 24 5 22 7 17 8 18 9 95 10 19 11 20 12
REMARK SMILES IDX 21 13 14 14 15 15 16 16 13 17 5 18 6 19 10 20 7 21 9 22 8 23
REMARK SMILES IDX 11 24 12 25 4 26 1 27 2 28 3 29 97 30 96 31 28 32 29 33
REMARK SMILES IDX 30 34 31 36 32 37 33 38 94 39 34 40 93 41 35 42 36 43 37 44
REMARK SMILES IDX 87 45 38 46 92 47 86 48 88 49 39 50 91 51 85 52 84 53 40 55
REMARK SMILES IDX 72 56 52 57 71 58 53 59 56 60 70 61 89 62 54 63 55 64 69 66
REMARK SMILES IDX 90 67 57 68 41 69 42 70 50 71 43 72 49 73 51 74 48 75 44 76
REMARK SMILES IDX 45 77 46 78 47 79 73 80 74 81 82 82 75 83 81 84 83 85 80 86
REMARK SMILES IDX 76 87 77 88 78 89 79 90 58 91 59 92 67 93 60 94 66 95 68 96
REMARK SMILES IDX 65 97 61 98 62 99 63 100 64 101
REMARK H PARENT 25 6 29 35 88 54 56 65
REMARK Flexibility Score: inf
ROOT
ATOM      1  C   UNL A   1      38.274  19.597  24.933  1.00  0.00     0.042 C 
ENDROOT
BRANCH   1   2
ATOM      2  C   UNL A   1      36.992  20.420  25.049  1.00  0.00     0.118 C 
BRANCH   2   3
ATOM      3  N   UNL A   1      35.804  19.589  24.999  1.00  0.00    -0.352 N 
ATOM      4  C   UNL A   1      34.459  19.791  25.112  1.00  0.00     0.254 C 
ATOM      5  O   UNL A   1      33.771  18.794  24.861  1.00  0.00    -0.269 OA
ATOM      6  H   UNL A   1      36.023  18.642  24.844  1.00  0.00     0.163 HD
BRANCH   4   7
ATOM      7  C   UNL A   1      33.739  21.045  25.492  1.00  0.00     0.076 A 
ATOM      8  C   UNL A   1      32.490  22.969  24.625  1.00  0.00     0.089 A 
ATOM      9  C   UNL A   1      32.276  23.445  25.918  1.00  0.00     0.025 A 
ATOM     10  C   UNL A   1      33.167  21.762  24.410  1.00  0.00     0.039 A 
ATOM     11  C   UNL A   1      32.845  22.764  26.984  1.00  0.00     0.041 A 
ATOM     12  C   UNL A   1      33.568  21.585  26.772  1.00  0.00     0.136 A 
ATOM     13  F   UNL A   1      34.063  21.027  27.876  1.00  0.00    -0.206 F 
BRANCH   8  14
ATOM     14  S   UNL A   1      31.930  23.967  23.274  1.00  0.00     0.264 S 
ATOM     15  O   UNL A   1      30.505  23.732  23.157  1.00  0.00    -0.201 OA
ATOM     16  O   UNL A   1      32.794  23.712  22.136  1.00  0.00    -0.201 OA
BRANCH  14  17
ATOM     17  N   UNL A   1      32.168  25.601  23.721  1.00  0.00    -0.266 N 
ATOM     18  C   UNL A   1      30.067  29.134  22.746  1.00  0.00     0.001 A 
ATOM     19  C   UNL A   1      29.316  28.002  23.099  1.00  0.00     0.012 A 
ATOM     20  C   UNL A   1      31.465  29.049  22.734  1.00  0.00     0.016 A 
ATOM     21  C   UNL A   1      29.941  26.792  23.415  1.00  0.00     0.028 A 
ATOM     22  C   UNL A   1      32.066  27.827  23.037  1.00  0.00    -0.021 A 
ATOM     23  C   UNL A   1      31.316  26.682  23.308  1.00  0.00     0.055 A 
ATOM     24  C   UNL A   1      33.517  27.587  23.308  1.00  0.00     0.060 C 
ATOM     25  C   UNL A   1      33.579  26.060  23.438  1.00  0.00     0.140 C 
BRANCH  18  26
ATOM     26  C   UNL A   1      29.365  30.386  22.521  1.00  0.00     0.081 A 
ATOM     27  C   UNL A   1      27.653  32.520  20.106  1.00  0.00     0.079 C 
ATOM     28  C   UNL A   1      28.297  31.881  21.286  1.00  0.00     0.090 A 
ATOM     29  N   UNL A   1      28.879  30.703  21.263  1.00  0.00    -0.242 NA
ATOM     30  S   UNL A   1      28.320  32.684  22.806  1.00  0.00    -0.127 S 
ATOM     31  C   UNL A   1      29.161  31.351  23.486  1.00  0.00     0.095 A 
ENDBRANCH  18  26
ENDBRANCH  14  17
ENDBRANCH   8  14
ENDBRANCH   4   7
ENDBRANCH   2   3
ENDBRANCH   1   2
BRANCH   1  32
ATOM     32  C   UNL A   1      39.367  20.070  25.896  1.00  0.00     0.118 C 
BRANCH  32  33
ATOM     33  N   UNL A   1      40.438  19.085  26.041  1.00  0.00    -0.352 N 
ATOM     34  C   UNL A   1      41.802  19.239  26.076  1.00  0.00     0.251 C 
ATOM     35  H   UNL A   1      40.129  18.154  26.126  1.00  0.00     0.163 HD
ATOM     36  O   UNL A   1      42.522  18.257  25.913  1.00  0.00    -0.269 OA
BRANCH  34  37
ATOM     37  C   UNL A   1      42.396  20.570  26.305  1.00  0.00     0.039 A 
ATOM     38  C   UNL A   1      42.839  21.321  25.212  1.00  0.00     0.014 A 
ATOM     39  C   UNL A   1      42.536  21.069  27.601  1.00  0.00     0.014 A 
ATOM     40  C   UNL A   1      43.335  22.610  25.416  1.00  0.00     0.010 A 
ATOM     41  C   UNL A   1      42.948  22.381  27.795  1.00  0.00     0.010 A 
ATOM     42  C   UNL A   1      43.342  23.170  26.704  1.00  0.00    -0.014 A 
BRANCH  42  43
ATOM     43  C   UNL A   1      43.727  24.584  26.937  1.00  0.00     0.031 A 
ATOM     44  C   UNL A   1      45.148  25.026  26.724  1.00  0.00     0.074 A 
ATOM     45  C   UNL A   1      42.809  25.447  27.418  1.00  0.00     0.049 A 
ATOM     46  N   UNL A   1      45.701  26.178  26.996  1.00  0.00    -0.248 NA
ATOM     47  C   UNL A   1      46.074  24.033  26.157  1.00  0.00     0.031 C 
ATOM     48  C   UNL A   1      41.405  25.127  27.688  1.00  0.00     0.029 A 
ATOM     49  N   UNL A   1      42.918  26.768  27.773  1.00  0.00    -0.354 N 
ATOM     50  C   UNL A   1      47.039  26.049  26.642  1.00  0.00     0.074 A 
ATOM     51  C   UNL A   1      47.225  24.689  26.187  1.00  0.00     0.031 C 
ATOM     52  C   UNL A   1      40.778  26.227  28.130  1.00  0.00     0.029 A 
ATOM     53  C   UNL A   1      41.743  27.316  28.234  1.00  0.00     0.049 A 
ATOM     54  H   UNL A   1      43.758  27.278  27.702  1.00  0.00     0.167 HD
ATOM     55  C   UNL A   1      48.015  26.988  26.675  1.00  0.00     0.034 A 
ATOM     56  C   UNL A   1      41.474  28.550  28.705  1.00  0.00     0.034 A 
ATOM     57  C   UNL A   1      47.810  28.345  27.117  1.00  0.00     0.049 A 
ATOM     58  C   UNL A   1      42.585  29.562  28.771  1.00  0.00     0.074 A 
ATOM     59  C   UNL A   1      48.725  29.381  27.156  1.00  0.00     0.029 A 
ATOM     60  N   UNL A   1      46.610  28.853  27.597  1.00  0.00    -0.354 N 
ATOM     61  N   UNL A   1      43.847  29.422  28.435  1.00  0.00    -0.248 NA
ATOM     62  C   UNL A   1      42.239  30.896  29.275  1.00  0.00     0.031 C 
ATOM     63  C   UNL A   1      48.100  30.496  27.720  1.00  0.00     0.029 A 
ATOM     64  C   UNL A   1      46.771  30.182  27.958  1.00  0.00     0.049 A 
ATOM     65  H   UNL A   1      45.770  28.346  27.670  1.00  0.00     0.167 HD
ATOM     66  C   UNL A   1      44.439  30.661  28.662  1.00  0.00     0.074 A 
ATOM     67  C   UNL A   1      43.396  31.534  29.160  1.00  0.00     0.031 C 
ATOM     68  C   UNL A   1      45.726  31.040  28.464  1.00  0.00     0.034 A 
BRANCH  55  69
ATOM     69  C   UNL A   1      49.397  26.581  26.233  1.00  0.00     0.023 A 
ATOM     70  C   UNL A   1      49.942  27.030  25.017  1.00  0.00     0.031 A 
ATOM     71  C   UNL A   1      50.192  25.762  27.053  1.00  0.00     0.131 A 
ATOM     72  C   UNL A   1      51.232  26.628  24.640  1.00  0.00     0.055 A 
ATOM     73  C   UNL A   1      51.498  25.419  26.702  1.00  0.00     0.041 A 
ATOM     74  F   UNL A   1      49.713  25.289  28.215  1.00  0.00    -0.206 F 
ATOM     75  C   UNL A   1      52.023  25.847  25.486  1.00  0.00     0.022 A 
BRANCH  72  76
ATOM     76  S   UNL A   1      51.837  27.080  22.992  1.00  0.00     0.124 S 
ATOM     77  O   UNL A   1      52.139  28.499  23.170  1.00  0.00    -0.237 OA
ATOM     78  O   UNL A   1      52.986  26.200  22.823  1.00  0.00    -0.237 OA
ATOM     79  O   UNL A   1      50.700  26.796  22.120  1.00  0.00    -0.744 OA
ENDBRANCH  72  76
ENDBRANCH  55  69
BRANCH  56  80
ATOM     80  C   UNL A   1      40.096  28.890  29.154  1.00  0.00     0.023 A 
ATOM     81  C   UNL A   1      39.744  28.825  30.511  1.00  0.00     0.031 A 
ATOM     82  C   UNL A   1      39.115  29.301  28.233  1.00  0.00     0.131 A 
ATOM     83  C   UNL A   1      38.436  29.146  30.908  1.00  0.00     0.055 A 
ATOM     84  C   UNL A   1      37.828  29.658  28.639  1.00  0.00     0.041 A 
ATOM     85  F   UNL A   1      39.406  29.391  26.926  1.00  0.00    -0.206 F 
ATOM     86  C   UNL A   1      37.481  29.575  29.984  1.00  0.00     0.022 A 
BRANCH  83  87
ATOM     87  S   UNL A   1      37.990  28.969  32.658  1.00  0.00     0.124 S 
ATOM     88  O   UNL A   1      39.043  29.736  33.311  1.00  0.00    -0.237 OA
ATOM     89  O   UNL A   1      36.653  29.552  32.692  1.00  0.00    -0.237 OA
ATOM     90  O   UNL A   1      38.040  27.524  32.875  1.00  0.00    -0.744 OA
ENDBRANCH  83  87
ENDBRANCH  56  80
BRANCH  68  91
ATOM     91  C   UNL A   1      46.077  32.479  28.745  1.00  0.00     0.023 A 
ATOM     92  C   UNL A   1      45.945  33.477  27.766  1.00  0.00     0.031 A 
ATOM     93  C   UNL A   1      46.512  32.857  30.027  1.00  0.00     0.131 A 
ATOM     94  C   UNL A   1      46.280  34.804  28.076  1.00  0.00     0.055 A 
ATOM     95  C   UNL A   1      46.791  34.187  30.345  1.00  0.00     0.041 A 
ATOM     96  F   UNL A   1      46.654  31.942  30.999  1.00  0.00    -0.206 F 
ATOM     97  C   UNL A   1      46.683  35.168  29.364  1.00  0.00     0.022 A 
BRANCH  94  98
ATOM     98  S   UNL A   1      46.233  36.045  26.755  1.00  0.00     0.124 S 
ATOM     99  O   UNL A   1      45.033  35.659  26.021  1.00  0.00    -0.237 OA
ATOM    100  O   UNL A   1      46.149  37.296  27.501  1.00  0.00    -0.237 OA
ATOM    101  O   UNL A   1      47.492  35.835  26.042  1.00  0.00    -0.744 OA
ENDBRANCH  94  98
ENDBRANCH  68  91
ENDBRANCH  42  43
ENDBRANCH  34  37
ENDBRANCH  32  33
ENDBRANCH   1  32
TORSDOF 16
ENDMDL
MODEL 2
REMARK VINA RESULT:     -13.7      1.831      7.800
REMARK SMILES Cc1nc(-c2ccc3c(c2)CCN3S(=O)(=O)c2ccc(F)c(C(=O)NCCCNC(=O)c3ccc(-c4c5nc(c(-c6cc(S(=O)(=O)[O-])ccc6F)c6ccc([nH]6)c(-c6cc(S(=O)(=O)[O-])ccc6F)c6nc(c(-c7cc(S(=O)(=O)[O-])ccc7F)c7ccc4[nH]7)C=C6)C=C5)cc3)c2)cs1
REMARK SMILES IDX 27 1 26 2 25 3 23 4 24 5 22 7 17 8 18 9 95 10 19 11 20 12
REMARK SMILES IDX 21 13 14 14 15 15 16 16 13 17 5 18 6 19 10 20 7 21 9 22 8 23
REMARK SMILES IDX 11 24 12 25 4 26 1 27 2 28 3 29 97 30 96 31 28 32 29 33
REMARK SMILES IDX 30 34 31 36 32 37 33 38 94 39 34 40 93 41 35 42 36 43 37 44
REMARK SMILES IDX 87 45 38 46 92 47 86 48 88 49 39 50 91 51 85 52 84 53 40 55
REMARK SMILES IDX 72 56 52 57 71 58 53 59 56 60 70 61 89 62 54 63 55 64 69 66
REMARK SMILES IDX 90 67 57 68 41 69 42 70 50 71 43 72 49 73 51 74 48 75 44 76
REMARK SMILES IDX 45 77 46 78 47 79 73 80 74 81 82 82 75 83 81 84 83 85 80 86
REMARK SMILES IDX 76 87 77 88 78 89 79 90 58 91 59 92 67 93 60 94 66 95 68 96
REMARK SMILES IDX 65 97 61 98 62 99 63 100 64 101
REMARK H PARENT 25 6 29 35 88 54 56 65
REMARK Flexibility Score: inf
ROOT
ATOM      1  C   UNL A   1      38.147  19.700  25.069  1.00  0.00     0.042 C 
ENDROOT
BRANCH   1   2
ATOM      2  C   UNL A   1      37.256  20.831  24.559  1.00  0.00     0.118 C 
BRANCH   2   3
ATOM      3  N   UNL A   1      37.503  22.078  25.258  1.00  0.00    -0.352 N 
ATOM      4  C   UNL A   1      36.738  23.030  25.869  1.00  0.00     0.254 C 
ATOM      5  O   UNL A   1      37.386  23.889  26.479  1.00  0.00    -0.269 OA
ATOM      6  H   UNL A   1      38.462  22.291  25.303  1.00  0.00     0.163 HD
BRANCH   4   7
ATOM      7  C   UNL A   1      35.248  23.148  25.889  1.00  0.00     0.076 A 
ATOM      8  C   UNL A   1      33.257  23.522  24.506  1.00  0.00     0.089 A 
ATOM      9  C   UNL A   1      32.427  23.371  25.616  1.00  0.00     0.025 A 
ATOM     10  C   UNL A   1      34.644  23.365  24.623  1.00  0.00     0.039 A 
ATOM     11  C   UNL A   1      33.004  23.177  26.862  1.00  0.00     0.041 A 
ATOM     12  C   UNL A   1      34.394  23.071  26.994  1.00  0.00     0.136 A 
ATOM     13  F   UNL A   1      34.822  22.885  28.242  1.00  0.00    -0.206 F 
BRANCH   8  14
ATOM     14  S   UNL A   1      32.506  23.974  22.968  1.00  0.00     0.264 S 
ATOM     15  O   UNL A   1      31.513  22.958  22.686  1.00  0.00    -0.201 OA
ATOM     16  O   UNL A   1      33.563  24.229  22.006  1.00  0.00    -0.201 OA
BRANCH  14  17
ATOM     17  N   UNL A   1      31.696  25.460  23.219  1.00  0.00    -0.266 N 
ATOM     18  C   UNL A   1      32.602  28.804  25.634  1.00  0.00     0.001 A 
ATOM     19  C   UNL A   1      33.643  28.240  24.881  1.00  0.00     0.012 A 
ATOM     20  C   UNL A   1      31.320  28.244  25.555  1.00  0.00     0.016 A 
ATOM     21  C   UNL A   1      33.422  27.120  24.074  1.00  0.00     0.028 A 
ATOM     22  C   UNL A   1      31.128  27.117  24.755  1.00  0.00    -0.021 A 
ATOM     23  C   UNL A   1      32.182  26.509  24.071  1.00  0.00     0.055 A 
ATOM     24  C   UNL A   1      29.818  26.520  24.352  1.00  0.00     0.060 C 
ATOM     25  C   UNL A   1      30.251  25.250  23.607  1.00  0.00     0.140 C 
BRANCH  18  26
ATOM     26  C   UNL A   1      32.870  30.022  26.380  1.00  0.00     0.081 A 
ATOM     27  C   UNL A   1      35.291  31.907  28.356  1.00  0.00     0.079 C 
ATOM     28  C   UNL A   1      34.116  31.375  27.612  1.00  0.00     0.090 A 
ATOM     29  N   UNL A   1      34.101  30.220  26.985  1.00  0.00    -0.242 NA
ATOM     30  S   UNL A   1      32.654  32.275  27.534  1.00  0.00    -0.127 S 
ATOM     31  C   UNL A   1      31.952  31.033  26.579  1.00  0.00     0.095 A 
ENDBRANCH  18  26
ENDBRANCH  14  17
ENDBRANCH   8  14
ENDBRANCH   4   7
ENDBRANCH   2   3
ENDBRANCH   1   2
BRANCH   1  32
ATOM     32  C   UNL A   1      39.404  20.215  25.776  1.00  0.00     0.118 C 
BRANCH  32  33
ATOM     33  N   UNL A   1      40.386  19.153  25.995  1.00  0.00    -0.352 N 
ATOM     34  C   UNL A   1      41.749  19.207  26.150  1.00  0.00     0.251 C 
ATOM     35  H   UNL A   1      40.005  18.246  26.039  1.00  0.00     0.163 HD
ATOM     36  O   UNL A   1      42.409  18.178  26.033  1.00  0.00    -0.269 OA
BRANCH  34  37
ATOM     37  C   UNL A   1      42.415  20.490  26.450  1.00  0.00     0.039 A 
ATOM     38  C   UNL A   1      43.014  21.211  25.414  1.00  0.00     0.014 A 
ATOM     39  C   UNL A   1      42.467  20.969  27.760  1.00  0.00     0.014 A 
ATOM     40  C   UNL A   1      43.581  22.458  25.680  1.00  0.00     0.010 A 
ATOM     41  C   UNL A   1      42.954  22.246  28.009  1.00  0.00     0.010 A 
ATOM     42  C   UNL A   1      43.507  23.009  26.970  1.00  0.00    -0.014 A 
BRANCH  42  43
ATOM     43  C   UNL A   1      43.970  24.390  27.256  1.00  0.00     0.031 A 
ATOM     44  C   UNL A   1      42.997  25.428  27.741  1.00  0.00     0.074 A 
ATOM     45  C   UNL A   1      45.250  24.724  26.998  1.00  0.00     0.049 A 
ATOM     46  N   UNL A   1      43.182  26.709  27.921  1.00  0.00    -0.248 NA
ATOM     47  C   UNL A   1      41.630  24.971  28.039  1.00  0.00     0.031 C 
ATOM     48  C   UNL A   1      46.280  23.808  26.500  1.00  0.00     0.029 A 
ATOM     49  N   UNL A   1      45.906  25.924  27.111  1.00  0.00    -0.354 N 
ATOM     50  C   UNL A   1      41.957  27.213  28.343  1.00  0.00     0.074 A 
ATOM     51  C   UNL A   1      41.023  26.110  28.341  1.00  0.00     0.031 C 
ATOM     52  C   UNL A   1      47.442  24.469  26.386  1.00  0.00     0.029 A 
ATOM     53  C   UNL A   1      47.231  25.868  26.742  1.00  0.00     0.049 A 
ATOM     54  H   UNL A   1      45.470  26.748  27.428  1.00  0.00     0.167 HD
ATOM     55  C   UNL A   1      41.649  28.478  28.718  1.00  0.00     0.034 A 
ATOM     56  C   UNL A   1      48.167  26.835  26.680  1.00  0.00     0.034 A 
ATOM     57  C   UNL A   1      42.595  29.566  28.729  1.00  0.00     0.049 A 
ATOM     58  C   UNL A   1      47.788  28.240  27.062  1.00  0.00     0.074 A 
ATOM     59  C   UNL A   1      42.391  30.875  29.124  1.00  0.00     0.029 A 
ATOM     60  N   UNL A   1      43.921  29.472  28.328  1.00  0.00    -0.354 N 
ATOM     61  N   UNL A   1      46.624  28.700  27.455  1.00  0.00    -0.248 NA
ATOM     62  C   UNL A   1      48.847  29.254  26.993  1.00  0.00     0.031 C 
ATOM     63  C   UNL A   1      43.571  31.589  28.900  1.00  0.00     0.029 A 
ATOM     64  C   UNL A   1      44.538  30.708  28.442  1.00  0.00     0.049 A 
ATOM     65  H   UNL A   1      44.358  28.650  28.009  1.00  0.00     0.167 HD
ATOM     66  C   UNL A   1      46.818  30.055  27.709  1.00  0.00     0.074 A 
ATOM     67  C   UNL A   1      48.211  30.335  27.426  1.00  0.00     0.031 C 
ATOM     68  C   UNL A   1      45.925  30.977  28.146  1.00  0.00     0.034 A 
BRANCH  55  69
ATOM     69  C   UNL A   1      40.229  28.761  29.135  1.00  0.00     0.023 A 
ATOM     70  C   UNL A   1      39.843  28.747  30.487  1.00  0.00     0.031 A 
ATOM     71  C   UNL A   1      39.257  29.083  28.172  1.00  0.00     0.131 A 
ATOM     72  C   UNL A   1      38.511  29.015  30.836  1.00  0.00     0.055 A 
ATOM     73  C   UNL A   1      37.949  29.412  28.531  1.00  0.00     0.041 A 
ATOM     74  F   UNL A   1      39.566  29.092  26.866  1.00  0.00    -0.206 F 
ATOM     75  C   UNL A   1      37.568  29.373  29.870  1.00  0.00     0.022 A 
BRANCH  72  76
ATOM     76  S   UNL A   1      38.009  28.818  32.566  1.00  0.00     0.124 S 
ATOM     77  O   UNL A   1      39.003  29.638  33.256  1.00  0.00    -0.237 OA
ATOM     78  O   UNL A   1      36.646  29.337  32.562  1.00  0.00    -0.237 OA
ATOM     79  O   UNL A   1      38.128  27.380  32.796  1.00  0.00    -0.744 OA
ENDBRANCH  72  76
ENDBRANCH  55  69
BRANCH  56  80
ATOM     80  C   UNL A   1      49.548  26.503  26.234  1.00  0.00     0.023 A 
ATOM     81  C   UNL A   1      50.028  26.940  24.990  1.00  0.00     0.031 A 
ATOM     82  C   UNL A   1      50.415  25.759  27.054  1.00  0.00     0.131 A 
ATOM     83  C   UNL A   1      51.333  26.611  24.591  1.00  0.00     0.055 A 
ATOM     84  C   UNL A   1      51.725  25.469  26.670  1.00  0.00     0.041 A 
ATOM     85  F   UNL A   1      50.007  25.329  28.258  1.00  0.00    -0.206 F 
ATOM     86  C   UNL A   1      52.189  25.891  25.428  1.00  0.00     0.022 A 
BRANCH  83  87
ATOM     87  S   UNL A   1      51.892  27.118  22.941  1.00  0.00     0.124 S 
ATOM     88  O   UNL A   1      53.002  26.202  22.709  1.00  0.00    -0.237 OA
ATOM     89  O   UNL A   1      50.697  26.900  22.133  1.00  0.00    -0.237 OA
ATOM     90  O   UNL A   1      52.265  28.519  23.125  1.00  0.00    -0.744 OA
ENDBRANCH  83  87
ENDBRANCH  56  80
BRANCH  68  91
ATOM     91  C   UNL A   1      46.434  32.374  28.392  1.00  0.00     0.023 A 
ATOM     92  C   UNL A   1      46.540  33.317  27.355  1.00  0.00     0.031 A 
ATOM     93  C   UNL A   1      46.783  32.776  29.694  1.00  0.00     0.131 A 
ATOM     94  C   UNL A   1      47.017  34.607  27.633  1.00  0.00     0.055 A 
ATOM     95  C   UNL A   1      47.203  34.076  29.973  1.00  0.00     0.041 A 
ATOM     96  F   UNL A   1      46.698  31.914  30.719  1.00  0.00    -0.206 F 
ATOM     97  C   UNL A   1      47.329  34.998  28.939  1.00  0.00     0.022 A 
BRANCH  94  98
ATOM     98  S   UNL A   1      47.273  35.756  26.255  1.00  0.00     0.124 S 
ATOM     99  O   UNL A   1      48.594  36.300  26.558  1.00  0.00    -0.237 OA
ATOM    100  O   UNL A   1      47.198  34.878  25.093  1.00  0.00    -0.237 OA
ATOM    101  O   UNL A   1      46.167  36.703  26.388  1.00  0.00    -0.744 OA
ENDBRANCH  94  98
ENDBRANCH  68  91
ENDBRANCH  42  43
ENDBRANCH  34  37
ENDBRANCH  32  33
ENDBRANCH   1  32
TORSDOF 16
ENDMDL
MODEL 3
REMARK VINA RESULT:     -13.4      1.997      3.010
REMARK SMILES Cc1nc(-c2ccc3c(c2)CCN3S(=O)(=O)c2ccc(F)c(C(=O)NCCCNC(=O)c3ccc(-c4c5nc(c(-c6cc(S(=O)(=O)[O-])ccc6F)c6ccc([nH]6)c(-c6cc(S(=O)(=O)[O-])ccc6F)c6nc(c(-c7cc(S(=O)(=O)[O-])ccc7F)c7ccc4[nH]7)C=C6)C=C5)cc3)c2)cs1
REMARK SMILES IDX 27 1 26 2 25 3 23 4 24 5 22 7 17 8 18 9 95 10 19 11 20 12
REMARK SMILES IDX 21 13 14 14 15 15 16 16 13 17 5 18 6 19 10 20 7 21 9 22 8 23
REMARK SMILES IDX 11 24 12 25 4 26 1 27 2 28 3 29 97 30 96 31 28 32 29 33
REMARK SMILES IDX 30 34 31 36 32 37 33 38 94 39 34 40 93 41 35 42 36 43 37 44
REMARK SMILES IDX 87 45 38 46 92 47 86 48 88 49 39 50 91 51 85 52 84 53 40 55
REMARK SMILES IDX 72 56 52 57 71 58 53 59 56 60 70 61 89 62 54 63 55 64 69 66
REMARK SMILES IDX 90 67 57 68 41 69 42 70 50 71 43 72 49 73 51 74 48 75 44 76
REMARK SMILES IDX 45 77 46 78 47 79 73 80 74 81 82 82 75 83 81 84 83 85 80 86
REMARK SMILES IDX 76 87 77 88 78 89 79 90 58 91 59 92 67 93 60 94 66 95 68 96
REMARK SMILES IDX 65 97 61 98 62 99 63 100 64 101
REMARK H PARENT 25 6 29 35 88 54 56 65
REMARK Flexibility Score: inf
ROOT
ATOM      1  C   UNL A   1      38.244  19.730  25.148  1.00  0.00     0.042 C 
ENDROOT
BRANCH   1   2
ATOM      2  C   UNL A   1      37.298  20.879  24.802  1.00  0.00     0.118 C 
BRANCH   2   3
ATOM      3  N   UNL A   1      36.018  20.752  25.472  1.00  0.00    -0.352 N 
ATOM      4  C   UNL A   1      34.822  21.408  25.437  1.00  0.00     0.254 C 
ATOM      5  O   UNL A   1      33.924  20.867  26.093  1.00  0.00    -0.269 OA
ATOM      6  H   UNL A   1      36.010  20.006  26.113  1.00  0.00     0.163 HD
BRANCH   4   7
ATOM      7  C   UNL A   1      34.479  22.670  24.712  1.00  0.00     0.076 A 
ATOM      8  C   UNL A   1      33.075  24.681  24.761  1.00  0.00     0.089 A 
ATOM      9  C   UNL A   1      33.661  25.148  23.585  1.00  0.00     0.025 A 
ATOM     10  C   UNL A   1      33.507  23.484  25.348  1.00  0.00     0.039 A 
ATOM     11  C   UNL A   1      34.599  24.354  22.942  1.00  0.00     0.041 A 
ATOM     12  C   UNL A   1      34.998  23.132  23.498  1.00  0.00     0.136 A 
ATOM     13  F   UNL A   1      35.904  22.465  22.785  1.00  0.00    -0.206 F 
BRANCH   8  14
ATOM     14  S   UNL A   1      31.737  25.615  25.445  1.00  0.00     0.264 S 
ATOM     15  O   UNL A   1      31.873  25.526  26.885  1.00  0.00    -0.201 OA
ATOM     16  O   UNL A   1      30.506  25.172  24.814  1.00  0.00    -0.201 OA
BRANCH  14  17
ATOM     17  N   UNL A   1      31.971  27.246  24.985  1.00  0.00    -0.266 N 
ATOM     18  C   UNL A   1      33.531  30.575  27.064  1.00  0.00     0.001 A 
ATOM     19  C   UNL A   1      34.221  29.358  27.167  1.00  0.00     0.012 A 
ATOM     20  C   UNL A   1      32.369  30.637  26.285  1.00  0.00     0.016 A 
ATOM     21  C   UNL A   1      33.754  28.209  26.522  1.00  0.00     0.028 A 
ATOM     22  C   UNL A   1      31.913  29.474  25.665  1.00  0.00    -0.021 A 
ATOM     23  C   UNL A   1      32.555  28.247  25.834  1.00  0.00     0.055 A 
ATOM     24  C   UNL A   1      30.850  29.377  24.618  1.00  0.00     0.060 C 
ATOM     25  C   UNL A   1      30.705  27.860  24.436  1.00  0.00     0.140 C 
BRANCH  18  26
ATOM     26  C   UNL A   1      34.116  31.755  27.678  1.00  0.00     0.081 A 
ATOM     27  C   UNL A   1      37.181  33.426  28.742  1.00  0.00     0.079 C 
ATOM     28  C   UNL A   1      35.792  32.991  28.429  1.00  0.00     0.090 A 
ATOM     29  N   UNL A   1      35.488  31.856  27.843  1.00  0.00    -0.242 NA
ATOM     30  S   UNL A   1      34.454  33.990  28.839  1.00  0.00    -0.127 S 
ATOM     31  C   UNL A   1      33.390  32.820  28.170  1.00  0.00     0.095 A 
ENDBRANCH  18  26
ENDBRANCH  14  17
ENDBRANCH   8  14
ENDBRANCH   4   7
ENDBRANCH   2   3
ENDBRANCH   1   2
BRANCH   1  32
ATOM     32  C   UNL A   1      39.394  20.168  26.060  1.00  0.00     0.118 C 
BRANCH  32  33
ATOM     33  N   UNL A   1      40.481  19.190  26.084  1.00  0.00    -0.352 N 
ATOM     34  C   UNL A   1      41.843  19.360  26.053  1.00  0.00     0.251 C 
ATOM     35  H   UNL A   1      40.187  18.252  26.129  1.00  0.00     0.163 HD
ATOM     36  O   UNL A   1      42.563  18.400  25.790  1.00  0.00    -0.269 OA
BRANCH  34  37
ATOM     37  C   UNL A   1      42.437  20.683  26.329  1.00  0.00     0.039 A 
ATOM     38  C   UNL A   1      42.936  21.445  25.270  1.00  0.00     0.014 A 
ATOM     39  C   UNL A   1      42.519  21.161  27.638  1.00  0.00     0.014 A 
ATOM     40  C   UNL A   1      43.432  22.727  25.516  1.00  0.00     0.010 A 
ATOM     41  C   UNL A   1      42.932  22.467  27.871  1.00  0.00     0.010 A 
ATOM     42  C   UNL A   1      43.383  23.268  26.812  1.00  0.00    -0.014 A 
BRANCH  42  43
ATOM     43  C   UNL A   1      43.767  24.676  27.084  1.00  0.00     0.031 A 
ATOM     44  C   UNL A   1      45.195  25.114  26.922  1.00  0.00     0.074 A 
ATOM     45  C   UNL A   1      42.840  25.534  27.555  1.00  0.00     0.049 A 
ATOM     46  N   UNL A   1      45.745  26.258  27.232  1.00  0.00    -0.248 NA
ATOM     47  C   UNL A   1      46.134  24.128  26.362  1.00  0.00     0.031 C 
ATOM     48  C   UNL A   1      41.426  25.215  27.778  1.00  0.00     0.029 A 
ATOM     49  N   UNL A   1      42.944  26.847  27.938  1.00  0.00    -0.354 N 
ATOM     50  C   UNL A   1      47.093  26.129  26.914  1.00  0.00     0.074 A 
ATOM     51  C   UNL A   1      47.286  24.777  26.438  1.00  0.00     0.031 C 
ATOM     52  C   UNL A   1      40.792  26.310  28.222  1.00  0.00     0.029 A 
ATOM     53  C   UNL A   1      41.758  27.392  28.376  1.00  0.00     0.049 A 
ATOM     54  H   UNL A   1      43.788  27.353  27.903  1.00  0.00     0.167 HD
ATOM     55  C   UNL A   1      48.072  27.062  26.995  1.00  0.00     0.034 A 
ATOM     56  C   UNL A   1      41.482  28.617  28.864  1.00  0.00     0.034 A 
ATOM     57  C   UNL A   1      47.860  28.410  27.458  1.00  0.00     0.049 A 
ATOM     58  C   UNL A   1      42.595  29.622  28.982  1.00  0.00     0.074 A 
ATOM     59  C   UNL A   1      48.778  29.441  27.544  1.00  0.00     0.029 A 
ATOM     60  N   UNL A   1      46.649  28.916  27.912  1.00  0.00    -0.354 N 
ATOM     61  N   UNL A   1      43.865  29.482  28.681  1.00  0.00    -0.248 NA
ATOM     62  C   UNL A   1      42.240  30.948  29.502  1.00  0.00     0.031 C 
ATOM     63  C   UNL A   1      48.142  30.548  28.111  1.00  0.00     0.029 A 
ATOM     64  C   UNL A   1      46.805  30.236  28.304  1.00  0.00     0.049 A 
ATOM     65  H   UNL A   1      45.805  28.411  27.950  1.00  0.00     0.167 HD
ATOM     66  C   UNL A   1      44.456  30.713  28.949  1.00  0.00     0.074 A 
ATOM     67  C   UNL A   1      43.403  31.582  29.434  1.00  0.00     0.031 C 
ATOM     68  C   UNL A   1      45.750  31.089  28.797  1.00  0.00     0.034 A 
BRANCH  55  69
ATOM     69  C   UNL A   1      49.464  26.656  26.585  1.00  0.00     0.023 A 
ATOM     70  C   UNL A   1      50.018  27.064  25.359  1.00  0.00     0.031 A 
ATOM     71  C   UNL A   1      50.260  25.882  27.446  1.00  0.00     0.131 A 
ATOM     72  C   UNL A   1      51.317  26.665  25.013  1.00  0.00     0.055 A 
ATOM     73  C   UNL A   1      51.575  25.543  27.125  1.00  0.00     0.041 A 
ATOM     74  F   UNL A   1      49.774  25.450  28.621  1.00  0.00    -0.206 F 
ATOM     75  C   UNL A   1      52.109  25.929  25.898  1.00  0.00     0.022 A 
BRANCH  72  76
ATOM     76  S   UNL A   1      51.936  27.059  23.355  1.00  0.00     0.124 S 
ATOM     77  O   UNL A   1      52.365  28.446  23.525  1.00  0.00    -0.237 OA
ATOM     78  O   UNL A   1      53.000  26.080  23.172  1.00  0.00    -0.237 OA
ATOM     79  O   UNL A   1      50.766  26.876  22.500  1.00  0.00    -0.744 OA
ENDBRANCH  72  76
ENDBRANCH  55  69
BRANCH  56  80
ATOM     80  C   UNL A   1      40.092  28.955  29.278  1.00  0.00     0.023 A 
ATOM     81  C   UNL A   1      39.707  28.888  30.626  1.00  0.00     0.031 A 
ATOM     82  C   UNL A   1      39.134  29.367  28.335  1.00  0.00     0.131 A 
ATOM     83  C   UNL A   1      38.389  29.208  30.992  1.00  0.00     0.055 A 
ATOM     84  C   UNL A   1      37.838  29.722  28.708  1.00  0.00     0.041 A 
ATOM     85  F   UNL A   1      39.457  29.458  27.035  1.00  0.00    -0.206 F 
ATOM     86  C   UNL A   1      37.457  29.637  30.044  1.00  0.00     0.022 A 
BRANCH  83  87
ATOM     87  S   UNL A   1      37.900  29.028  32.729  1.00  0.00     0.124 S 
ATOM     88  O   UNL A   1      36.636  29.752  32.758  1.00  0.00    -0.237 OA
ATOM     89  O   UNL A   1      37.816  27.578  32.874  1.00  0.00    -0.237 OA
ATOM     90  O   UNL A   1      39.000  29.658  33.457  1.00  0.00    -0.744 OA
ENDBRANCH  83  87
ENDBRANCH  56  80
BRANCH  68  91
ATOM     91  C   UNL A   1      46.099  32.521  29.116  1.00  0.00     0.023 A 
ATOM     92  C   UNL A   1      45.978  33.543  28.160  1.00  0.00     0.031 A 
ATOM     93  C   UNL A   1      46.522  32.868  30.411  1.00  0.00     0.131 A 
ATOM     94  C   UNL A   1      46.311  34.861  28.505  1.00  0.00     0.055 A 
ATOM     95  C   UNL A   1      46.798  34.189  30.764  1.00  0.00     0.041 A 
ATOM     96  F   UNL A   1      46.652  31.928  31.362  1.00  0.00    -0.206 F 
ATOM     97  C   UNL A   1      46.701  35.193  29.807  1.00  0.00     0.022 A 
BRANCH  94  98
ATOM     98  S   UNL A   1      46.279  36.134  27.215  1.00  0.00     0.124 S 
ATOM     99  O   UNL A   1      47.439  35.775  26.407  1.00  0.00    -0.237 OA
ATOM    100  O   UNL A   1      44.977  35.920  26.593  1.00  0.00    -0.237 OA
ATOM    101  O   UNL A   1      46.407  37.384  27.963  1.00  0.00    -0.744 OA
ENDBRANCH  94  98
ENDBRANCH  68  91
ENDBRANCH  42  43
ENDBRANCH  34  37
ENDBRANCH  32  33
ENDBRANCH   1  32
TORSDOF 16
ENDMDL
