MODEL 1
REMARK VINA RESULT:     -11.9      0.000      0.000
REMARK SMILES CCc1cc(OC(F)(F)F)cc2c1O[C@@H](C(F)(F)F)C(C(=O)NCCCNC(=O)c1ccc(-c3c4nc(c(-c5cc(S(=O)(=O)[O-])ccc5F)c5ccc([nH]5)c(-c5cc(S(=O)(=O)[O-])ccc5F)c5nc(c(-c6cc(S(=O)(=O)[O-])ccc6F)c6ccc3[nH]6)C=C5)C=C4)cc1)=C2
REMARK SMILES IDX 25 1 24 2 23 3 21 4 22 5 20 7 3 8 4 9 13 10 5 11 12 12 14 13
REMARK SMILES IDX 11 14 93 15 15 16 2 17 1 18 6 19 7 20 8 21 9 22 10 23 16 24
REMARK SMILES IDX 17 25 18 26 19 27 26 28 27 29 28 30 29 32 30 33 31 34 92 35
REMARK SMILES IDX 32 36 91 37 33 38 34 39 35 40 85 41 36 42 90 43 84 44 86 45
REMARK SMILES IDX 37 46 89 47 83 48 82 49 38 51 70 52 50 53 69 54 51 55 54 56
REMARK SMILES IDX 68 57 87 58 52 59 53 60 67 62 88 63 55 64 39 65 40 66 48 67
REMARK SMILES IDX 41 68 47 69 49 70 46 71 42 72 43 73 44 74 45 75 71 76 72 77
REMARK SMILES IDX 80 78 73 79 79 80 81 81 78 82 74 83 75 84 76 85 77 86 56 87
REMARK SMILES IDX 57 88 65 89 58 90 64 91 66 92 63 93 59 94 60 95 61 96 62 97
REMARK H PARENT 23 6 27 31 86 50 54 61
REMARK Flexibility Score: inf
ROOT
ATOM      1  C   UNL A   1      31.772  28.987  27.087  1.00  0.00     0.042 C 
ENDROOT
BRANCH   1   2
ATOM      2  C   UNL A   1      31.724  27.461  26.966  1.00  0.00     0.118 C 
BRANCH   2   3
ATOM      3  N   UNL A   1      30.659  27.046  26.063  1.00  0.00    -0.352 N 
ATOM      4  C   UNL A   1      30.567  26.067  25.127  1.00  0.00     0.251 C 
ATOM      5  O   UNL A   1      29.557  26.032  24.427  1.00  0.00    -0.270 OA
ATOM      6  H   UNL A   1      29.841  27.586  26.150  1.00  0.00     0.163 HD
BRANCH   4   7
ATOM      7  C   UNL A   1      31.588  25.000  24.965  1.00  0.00     0.067 C 
ATOM      8  C   UNL A   1      34.549  22.110  24.157  1.00  0.00    -0.002 A 
ATOM      9  C   UNL A   1      34.347  20.796  24.624  1.00  0.00     0.054 A 
ATOM     10  C   UNL A   1      33.578  23.086  24.453  1.00  0.00     0.131 A 
ATOM     11  C   UNL A   1      33.192  20.452  25.332  1.00  0.00     0.130 A 
ATOM     12  C   UNL A   1      32.432  22.752  25.171  1.00  0.00     0.021 A 
ATOM     13  O   UNL A   1      33.780  24.342  23.956  1.00  0.00    -0.475 OA
ATOM     14  C   UNL A   1      32.244  21.436  25.607  1.00  0.00     0.058 A 
ATOM     15  C   UNL A   1      31.398  23.747  25.400  1.00  0.00     0.025 C 
ATOM     16  C   UNL A   1      32.947  25.438  24.430  1.00  0.00     0.314 C 
BRANCH   8  17
ATOM     17  C   UNL A   1      35.806  22.507  23.404  1.00  0.00     0.036 C 
ATOM     18  C   UNL A   1      37.045  22.786  24.246  1.00  0.00     0.009 C 
ENDBRANCH   8  17
BRANCH  11  19
ATOM     19  O   UNL A   1      32.862  19.212  25.799  1.00  0.00    -0.406 OA
BRANCH  19  20
ATOM     20  C   UNL A   1      32.794  18.145  24.872  1.00  0.00     0.573 C 
ATOM     21  F   UNL A   1      32.054  18.480  23.792  1.00  0.00    -0.132 F 
ATOM     22  F   UNL A   1      34.028  17.771  24.471  1.00  0.00    -0.132 F 
ATOM     23  F   UNL A   1      32.205  17.085  25.468  1.00  0.00    -0.132 F 
ENDBRANCH  19  20
ENDBRANCH  11  19
BRANCH  16  24
ATOM     24  C   UNL A   1      32.934  26.503  23.309  1.00  0.00     0.429 C 
ATOM     25  F   UNL A   1      32.898  27.769  23.778  1.00  0.00    -0.167 F 
ATOM     26  F   UNL A   1      34.071  26.432  22.560  1.00  0.00    -0.167 F 
ATOM     27  F   UNL A   1      31.900  26.339  22.452  1.00  0.00    -0.167 F 
ENDBRANCH  16  24
ENDBRANCH   4   7
ENDBRANCH   2   3
ENDBRANCH   1   2
BRANCH   1  28
ATOM     28  C   UNL A   1      33.050  29.602  26.518  1.00  0.00     0.118 C 
BRANCH  28  29
ATOM     29  N   UNL A   1      33.084  31.042  26.709  1.00  0.00    -0.352 N 
ATOM     30  C   UNL A   1      33.898  31.807  27.509  1.00  0.00     0.251 C 
ATOM     31  H   UNL A   1      32.422  31.549  26.184  1.00  0.00     0.163 HD
ATOM     32  O   UNL A   1      33.593  32.978  27.717  1.00  0.00    -0.269 OA
BRANCH  30  33
ATOM     33  C   UNL A   1      35.118  31.234  28.125  1.00  0.00     0.039 A 
ATOM     34  C   UNL A   1      36.300  31.980  28.092  1.00  0.00     0.014 A 
ATOM     35  C   UNL A   1      35.121  29.950  28.678  1.00  0.00     0.014 A 
ATOM     36  C   UNL A   1      37.470  31.460  28.653  1.00  0.00     0.010 A 
ATOM     37  C   UNL A   1      36.272  29.459  29.294  1.00  0.00     0.010 A 
ATOM     38  C   UNL A   1      37.461  30.205  29.283  1.00  0.00    -0.014 A 
BRANCH  38  39
ATOM     39  C   UNL A   1      38.685  29.654  29.923  1.00  0.00     0.031 A 
ATOM     40  C   UNL A   1      39.118  30.148  31.277  1.00  0.00     0.074 A 
ATOM     41  C   UNL A   1      39.437  28.755  29.258  1.00  0.00     0.049 A 
ATOM     42  N   UNL A   1      40.195  29.857  31.960  1.00  0.00    -0.248 NA
ATOM     43  C   UNL A   1      38.233  31.120  31.935  1.00  0.00     0.031 C 
ATOM     44  C   UNL A   1      39.137  28.225  27.926  1.00  0.00     0.029 A 
ATOM     45  N   UNL A   1      40.612  28.135  29.604  1.00  0.00    -0.354 N 
ATOM     46  C   UNL A   1      40.128  30.621  33.122  1.00  0.00     0.074 A 
ATOM     47  C   UNL A   1      38.930  31.428  33.019  1.00  0.00     0.031 C 
ATOM     48  C   UNL A   1      40.091  27.348  27.576  1.00  0.00     0.029 A 
ATOM     49  C   UNL A   1      41.095  27.287  28.635  1.00  0.00     0.049 A 
ATOM     50  H   UNL A   1      41.066  28.284  30.464  1.00  0.00     0.167 HD
ATOM     51  C   UNL A   1      40.975  30.632  34.182  1.00  0.00     0.034 A 
ATOM     52  C   UNL A   1      42.226  26.554  28.595  1.00  0.00     0.034 A 
ATOM     53  C   UNL A   1      42.158  29.809  34.271  1.00  0.00     0.049 A 
ATOM     54  C   UNL A   1      43.163  26.598  29.775  1.00  0.00     0.074 A 
ATOM     55  C   UNL A   1      43.056  29.701  35.319  1.00  0.00     0.029 A 
ATOM     56  N   UNL A   1      42.614  28.958  33.272  1.00  0.00    -0.354 N 
ATOM     57  N   UNL A   1      43.062  27.292  30.885  1.00  0.00    -0.248 NA
ATOM     58  C   UNL A   1      44.360  25.752  29.701  1.00  0.00     0.031 C 
ATOM     59  C   UNL A   1      44.087  28.838  34.928  1.00  0.00     0.029 A 
ATOM     60  C   UNL A   1      43.794  28.346  33.666  1.00  0.00     0.049 A 
ATOM     61  H   UNL A   1      42.164  28.811  32.409  1.00  0.00     0.167 HD
ATOM     62  C   UNL A   1      44.167  26.941  31.654  1.00  0.00     0.074 A 
ATOM     63  C   UNL A   1      44.912  25.964  30.886  1.00  0.00     0.031 C 
ATOM     64  C   UNL A   1      44.533  27.381  32.884  1.00  0.00     0.034 A 
BRANCH  51  65
ATOM     65  C   UNL A   1      40.662  31.585  35.312  1.00  0.00     0.023 A 
ATOM     66  C   UNL A   1      39.617  31.339  36.219  1.00  0.00     0.031 A 
ATOM     67  C   UNL A   1      41.402  32.772  35.469  1.00  0.00     0.131 A 
ATOM     68  C   UNL A   1      39.289  32.299  37.189  1.00  0.00     0.055 A 
ATOM     69  C   UNL A   1      41.124  33.684  36.490  1.00  0.00     0.041 A 
ATOM     70  F   UNL A   1      42.399  33.073  34.623  1.00  0.00    -0.206 F 
ATOM     71  C   UNL A   1      40.051  33.458  37.347  1.00  0.00     0.022 A 
BRANCH  68  72
ATOM     72  S   UNL A   1      37.761  32.079  38.143  1.00  0.00     0.124 S 
ATOM     73  O   UNL A   1      37.403  30.702  37.811  1.00  0.00    -0.237 OA
ATOM     74  O   UNL A   1      38.208  32.310  39.512  1.00  0.00    -0.237 OA
ATOM     75  O   UNL A   1      36.866  33.097  37.597  1.00  0.00    -0.744 OA
ENDBRANCH  68  72
ENDBRANCH  51  65
BRANCH  52  76
ATOM     76  C   UNL A   1      42.546  25.725  27.398  1.00  0.00     0.023 A 
ATOM     77  C   UNL A   1      42.135  24.385  27.316  1.00  0.00     0.031 A 
ATOM     78  C   UNL A   1      43.301  26.250  26.334  1.00  0.00     0.131 A 
ATOM     79  C   UNL A   1      42.517  23.603  26.216  1.00  0.00     0.055 A 
ATOM     80  C   UNL A   1      43.635  25.481  25.217  1.00  0.00     0.041 A 
ATOM     81  F   UNL A   1      43.713  27.527  26.359  1.00  0.00    -0.206 F 
ATOM     82  C   UNL A   1      43.254  24.144  25.160  1.00  0.00     0.022 A 
BRANCH  79  83
ATOM     83  S   UNL A   1      42.106  21.835  26.223  1.00  0.00     0.124 S 
ATOM     84  O   UNL A   1      42.980  21.323  25.174  1.00  0.00    -0.237 OA
ATOM     85  O   UNL A   1      42.447  21.452  27.588  1.00  0.00    -0.237 OA
ATOM     86  O   UNL A   1      40.678  21.818  25.912  1.00  0.00    -0.744 OA
ENDBRANCH  79  83
ENDBRANCH  52  76
BRANCH  64  87
ATOM     87  C   UNL A   1      45.772  26.770  33.490  1.00  0.00     0.023 A 
ATOM     88  C   UNL A   1      45.729  25.561  34.206  1.00  0.00     0.031 A 
ATOM     89  C   UNL A   1      47.014  27.419  33.358  1.00  0.00     0.131 A 
ATOM     90  C   UNL A   1      46.894  25.067  34.811  1.00  0.00     0.055 A 
ATOM     91  C   UNL A   1      48.181  26.890  33.913  1.00  0.00     0.041 A 
ATOM     92  F   UNL A   1      47.113  28.577  32.687  1.00  0.00    -0.206 F 
ATOM     93  C   UNL A   1      48.122  25.715  34.655  1.00  0.00     0.022 A 
BRANCH  90  94
ATOM     94  S   UNL A   1      46.766  23.610  35.885  1.00  0.00     0.124 S 
ATOM     95  O   UNL A   1      47.544  24.021  37.048  1.00  0.00    -0.237 OA
ATOM     96  O   UNL A   1      45.325  23.498  36.088  1.00  0.00    -0.237 OA
ATOM     97  O   UNL A   1      47.362  22.541  35.086  1.00  0.00    -0.744 OA
ENDBRANCH  90  94
ENDBRANCH  64  87
ENDBRANCH  38  39
ENDBRANCH  30  33
ENDBRANCH  28  29
ENDBRANCH   1  28
TORSDOF 17
ENDMDL
MODEL 2
REMARK VINA RESULT:     -11.9      5.643      8.713
REMARK SMILES CCc1cc(OC(F)(F)F)cc2c1O[C@@H](C(F)(F)F)C(C(=O)NCCCNC(=O)c1ccc(-c3c4nc(c(-c5cc(S(=O)(=O)[O-])ccc5F)c5ccc([nH]5)c(-c5cc(S(=O)(=O)[O-])ccc5F)c5nc(c(-c6cc(S(=O)(=O)[O-])ccc6F)c6ccc3[nH]6)C=C5)C=C4)cc1)=C2
REMARK SMILES IDX 25 1 24 2 23 3 21 4 22 5 20 7 3 8 4 9 13 10 5 11 12 12 14 13
REMARK SMILES IDX 11 14 93 15 15 16 2 17 1 18 6 19 7 20 8 21 9 22 10 23 16 24
REMARK SMILES IDX 17 25 18 26 19 27 26 28 27 29 28 30 29 32 30 33 31 34 92 35
REMARK SMILES IDX 32 36 91 37 33 38 34 39 35 40 85 41 36 42 90 43 84 44 86 45
REMARK SMILES IDX 37 46 89 47 83 48 82 49 38 51 70 52 50 53 69 54 51 55 54 56
REMARK SMILES IDX 68 57 87 58 52 59 53 60 67 62 88 63 55 64 39 65 40 66 48 67
REMARK SMILES IDX 41 68 47 69 49 70 46 71 42 72 43 73 44 74 45 75 71 76 72 77
REMARK SMILES IDX 80 78 73 79 79 80 81 81 78 82 74 83 75 84 76 85 77 86 56 87
REMARK SMILES IDX 57 88 65 89 58 90 64 91 66 92 63 93 59 94 60 95 61 96 62 97
REMARK H PARENT 23 6 27 31 86 50 54 61
REMARK Flexibility Score: inf
ROOT
ATOM      1  C   UNL A   1      39.285  21.593  26.464  1.00  0.00     0.042 C 
ENDROOT
BRANCH   1   2
ATOM      2  C   UNL A   1      38.222  22.663  26.195  1.00  0.00     0.118 C 
BRANCH   2   3
ATOM      3  N   UNL A   1      37.880  22.708  24.781  1.00  0.00    -0.352 N 
ATOM      4  C   UNL A   1      36.709  22.883  24.116  1.00  0.00     0.251 C 
ATOM      5  O   UNL A   1      36.716  22.757  22.894  1.00  0.00    -0.270 OA
ATOM      6  H   UNL A   1      38.655  22.588  24.187  1.00  0.00     0.163 HD
BRANCH   4   7
ATOM      7  C   UNL A   1      35.447  23.292  24.787  1.00  0.00     0.067 C 
ATOM      8  C   UNL A   1      31.712  24.137  26.548  1.00  0.00    -0.002 A 
ATOM      9  C   UNL A   1      31.273  25.475  26.578  1.00  0.00     0.054 A 
ATOM     10  C   UNL A   1      32.973  23.854  25.990  1.00  0.00     0.131 A 
ATOM     11  C   UNL A   1      32.051  26.501  26.034  1.00  0.00     0.130 A 
ATOM     12  C   UNL A   1      33.759  24.875  25.459  1.00  0.00     0.021 A 
ATOM     13  O   UNL A   1      33.357  22.545  25.938  1.00  0.00    -0.475 OA
ATOM     14  C   UNL A   1      33.294  26.193  25.483  1.00  0.00     0.058 A 
ATOM     15  C   UNL A   1      35.022  24.562  24.813  1.00  0.00     0.025 C 
ATOM     16  C   UNL A   1      34.736  22.218  25.603  1.00  0.00     0.314 C 
BRANCH   8  17
ATOM     17  C   UNL A   1      30.889  23.012  27.150  1.00  0.00     0.036 C 
ATOM     18  C   UNL A   1      29.374  23.160  27.073  1.00  0.00     0.009 C 
ENDBRANCH   8  17
BRANCH  11  19
ATOM     19  O   UNL A   1      31.722  27.825  25.966  1.00  0.00    -0.406 OA
BRANCH  19  20
ATOM     20  C   UNL A   1      31.887  28.614  27.130  1.00  0.00     0.573 C 
ATOM     21  F   UNL A   1      33.073  28.367  27.726  1.00  0.00    -0.132 F 
ATOM     22  F   UNL A   1      31.796  29.930  26.840  1.00  0.00    -0.132 F 
ATOM     23  F   UNL A   1      30.907  28.308  28.008  1.00  0.00    -0.132 F 
ENDBRANCH  19  20
ENDBRANCH  11  19
BRANCH  16  24
ATOM     24  C   UNL A   1      34.721  20.794  25.002  1.00  0.00     0.429 C 
ATOM     25  F   UNL A   1      35.935  20.201  25.010  1.00  0.00    -0.167 F 
ATOM     26  F   UNL A   1      33.916  19.969  25.729  1.00  0.00    -0.167 F 
ATOM     27  F   UNL A   1      34.249  20.772  23.734  1.00  0.00    -0.167 F 
ENDBRANCH  16  24
ENDBRANCH   4   7
ENDBRANCH   2   3
ENDBRANCH   1   2
BRANCH   1  28
ATOM     28  C   UNL A   1      39.230  20.421  25.485  1.00  0.00     0.118 C 
BRANCH  28  29
ATOM     29  N   UNL A   1      40.250  19.428  25.778  1.00  0.00    -0.352 N 
ATOM     30  C   UNL A   1      41.584  19.592  26.062  1.00  0.00     0.251 C 
ATOM     31  H   UNL A   1      39.938  18.494  25.772  1.00  0.00     0.163 HD
ATOM     32  O   UNL A   1      42.322  18.611  26.026  1.00  0.00    -0.269 OA
BRANCH  30  33
ATOM     33  C   UNL A   1      42.135  20.928  26.394  1.00  0.00     0.039 A 
ATOM     34  C   UNL A   1      42.432  21.809  25.351  1.00  0.00     0.014 A 
ATOM     35  C   UNL A   1      42.415  21.292  27.714  1.00  0.00     0.014 A 
ATOM     36  C   UNL A   1      42.964  23.071  25.632  1.00  0.00     0.010 A 
ATOM     37  C   UNL A   1      42.887  22.574  27.998  1.00  0.00     0.010 A 
ATOM     38  C   UNL A   1      43.172  23.475  26.960  1.00  0.00    -0.014 A 
BRANCH  38  39
ATOM     39  C   UNL A   1      43.698  24.829  27.280  1.00  0.00     0.031 A 
ATOM     40  C   UNL A   1      42.774  25.893  27.810  1.00  0.00     0.074 A 
ATOM     41  C   UNL A   1      44.992  25.115  27.038  1.00  0.00     0.049 A 
ATOM     42  N   UNL A   1      43.021  27.152  28.066  1.00  0.00    -0.248 NA
ATOM     43  C   UNL A   1      41.382  25.491  28.055  1.00  0.00     0.031 C 
ATOM     44  C   UNL A   1      45.977  24.176  26.495  1.00  0.00     0.029 A 
ATOM     45  N   UNL A   1      45.701  26.279  27.203  1.00  0.00    -0.354 N 
ATOM     46  C   UNL A   1      41.813  27.699  28.488  1.00  0.00     0.074 A 
ATOM     47  C   UNL A   1      40.825  26.644  28.398  1.00  0.00     0.031 C 
ATOM     48  C   UNL A   1      47.163  24.794  26.391  1.00  0.00     0.029 A 
ATOM     49  C   UNL A   1      47.017  26.184  26.812  1.00  0.00     0.049 A 
ATOM     50  H   UNL A   1      45.306  27.103  27.568  1.00  0.00     0.167 HD
ATOM     51  C   UNL A   1      41.557  28.957  28.929  1.00  0.00     0.034 A 
ATOM     52  C   UNL A   1      47.992  27.114  26.782  1.00  0.00     0.034 A 
ATOM     53  C   UNL A   1      42.560  29.992  29.024  1.00  0.00     0.049 A 
ATOM     54  C   UNL A   1      47.680  28.511  27.256  1.00  0.00     0.074 A 
ATOM     55  C   UNL A   1      42.423  31.283  29.506  1.00  0.00     0.029 A 
ATOM     56  N   UNL A   1      43.883  29.858  28.623  1.00  0.00    -0.354 N 
ATOM     57  N   UNL A   1      46.543  29.000  27.694  1.00  0.00    -0.248 NA
ATOM     58  C   UNL A   1      48.785  29.477  27.242  1.00  0.00     0.031 C 
ATOM     59  C   UNL A   1      43.643  31.948  29.334  1.00  0.00     0.029 A 
ATOM     60  C   UNL A   1      44.565  31.051  28.818  1.00  0.00     0.049 A 
ATOM     61  H   UNL A   1      44.280  29.037  28.254  1.00  0.00     0.167 HD
ATOM     62  C   UNL A   1      46.806  30.323  28.037  1.00  0.00     0.074 A 
ATOM     63  C   UNL A   1      48.211  30.549  27.767  1.00  0.00     0.031 C 
ATOM     64  C   UNL A   1      45.964  31.265  28.533  1.00  0.00     0.034 A 
BRANCH  51  65
ATOM     65  C   UNL A   1      40.132  29.283  29.311  1.00  0.00     0.023 A 
ATOM     66  C   UNL A   1      39.722  29.346  30.654  1.00  0.00     0.031 A 
ATOM     67  C   UNL A   1      39.162  29.509  28.317  1.00  0.00     0.131 A 
ATOM     68  C   UNL A   1      38.369  29.547  30.967  1.00  0.00     0.055 A 
ATOM     69  C   UNL A   1      37.832  29.793  28.637  1.00  0.00     0.041 A 
ATOM     70  F   UNL A   1      39.487  29.445  27.017  1.00  0.00    -0.206 F 
ATOM     71  C   UNL A   1      37.425  29.795  29.968  1.00  0.00     0.022 A 
BRANCH  68  72
ATOM     72  S   UNL A   1      37.836  29.330  32.687  1.00  0.00     0.124 S 
ATOM     73  O   UNL A   1      38.947  29.934  33.418  1.00  0.00    -0.237 OA
ATOM     74  O   UNL A   1      36.575  30.061  32.721  1.00  0.00    -0.237 OA
ATOM     75  O   UNL A   1      37.722  27.880  32.830  1.00  0.00    -0.744 OA
ENDBRANCH  68  72
ENDBRANCH  51  65
BRANCH  52  76
ATOM     76  C   UNL A   1      49.351  26.767  26.277  1.00  0.00     0.023 A 
ATOM     77  C   UNL A   1      49.784  27.198  25.013  1.00  0.00     0.031 A 
ATOM     78  C   UNL A   1      50.223  25.966  27.036  1.00  0.00     0.131 A 
ATOM     79  C   UNL A   1      51.036  26.791  24.527  1.00  0.00     0.055 A 
ATOM     80  C   UNL A   1      51.489  25.606  26.568  1.00  0.00     0.041 A 
ATOM     81  F   UNL A   1      49.861  25.532  28.253  1.00  0.00    -0.206 F 
ATOM     82  C   UNL A   1      51.896  26.008  25.300  1.00  0.00     0.022 A 
BRANCH  79  83
ATOM     83  S   UNL A   1      51.492  27.233  22.827  1.00  0.00     0.124 S 
ATOM     84  O   UNL A   1      52.706  26.449  22.632  1.00  0.00    -0.237 OA
ATOM     85  O   UNL A   1      50.318  26.799  22.078  1.00  0.00    -0.237 OA
ATOM     86  O   UNL A   1      51.686  28.681  22.893  1.00  0.00    -0.744 OA
ENDBRANCH  79  83
ENDBRANCH  52  76
BRANCH  64  87
ATOM     87  C   UNL A   1      46.561  32.612  28.858  1.00  0.00     0.023 A 
ATOM     88  C   UNL A   1      46.648  33.635  27.897  1.00  0.00     0.031 A 
ATOM     89  C   UNL A   1      47.065  32.869  30.146  1.00  0.00     0.131 A 
ATOM     90  C   UNL A   1      47.275  34.847  28.223  1.00  0.00     0.055 A 
ATOM     91  C   UNL A   1      47.634  34.098  30.481  1.00  0.00     0.041 A 
ATOM     92  F   UNL A   1      47.010  31.927  31.101  1.00  0.00    -0.206 F 
ATOM     93  C   UNL A   1      47.753  35.091  29.514  1.00  0.00     0.022 A 
BRANCH  90  94
ATOM     94  S   UNL A   1      47.541  36.071  26.910  1.00  0.00     0.124 S 
ATOM     95  O   UNL A   1      46.191  36.257  26.391  1.00  0.00    -0.237 OA
ATOM     96  O   UNL A   1      48.104  37.199  27.644  1.00  0.00    -0.237 OA
ATOM     97  O   UNL A   1      48.469  35.401  26.000  1.00  0.00    -0.744 OA
ENDBRANCH  90  94
ENDBRANCH  64  87
ENDBRANCH  38  39
ENDBRANCH  30  33
ENDBRANCH  28  29
ENDBRANCH   1  28
TORSDOF 17
ENDMDL
MODEL 3
REMARK VINA RESULT:     -11.9      4.942     10.181
REMARK SMILES CCc1cc(OC(F)(F)F)cc2c1O[C@@H](C(F)(F)F)C(C(=O)NCCCNC(=O)c1ccc(-c3c4nc(c(-c5cc(S(=O)(=O)[O-])ccc5F)c5ccc([nH]5)c(-c5cc(S(=O)(=O)[O-])ccc5F)c5nc(c(-c6cc(S(=O)(=O)[O-])ccc6F)c6ccc3[nH]6)C=C5)C=C4)cc1)=C2
REMARK SMILES IDX 25 1 24 2 23 3 21 4 22 5 20 7 3 8 4 9 13 10 5 11 12 12 14 13
REMARK SMILES IDX 11 14 93 15 15 16 2 17 1 18 6 19 7 20 8 21 9 22 10 23 16 24
REMARK SMILES IDX 17 25 18 26 19 27 26 28 27 29 28 30 29 32 30 33 31 34 92 35
REMARK SMILES IDX 32 36 91 37 33 38 34 39 35 40 85 41 36 42 90 43 84 44 86 45
REMARK SMILES IDX 37 46 89 47 83 48 82 49 38 51 70 52 50 53 69 54 51 55 54 56
REMARK SMILES IDX 68 57 87 58 52 59 53 60 67 62 88 63 55 64 39 65 40 66 48 67
REMARK SMILES IDX 41 68 47 69 49 70 46 71 42 72 43 73 44 74 45 75 71 76 72 77
REMARK SMILES IDX 80 78 73 79 79 80 81 81 78 82 74 83 75 84 76 85 77 86 56 87
REMARK SMILES IDX 57 88 65 89 58 90 64 91 66 92 63 93 59 94 60 95 61 96 62 97
REMARK H PARENT 23 6 27 31 86 50 54 61
REMARK Flexibility Score: inf
ROOT
ATOM      1  C   UNL A   1      36.755  22.124  24.176  1.00  0.00     0.042 C 
ENDROOT
BRANCH   1   2
ATOM      2  C   UNL A   1      35.814  23.217  23.663  1.00  0.00     0.118 C 
BRANCH   2   3
ATOM      3  N   UNL A   1      34.590  22.638  23.129  1.00  0.00    -0.352 N 
ATOM      4  C   UNL A   1      33.291  23.032  23.154  1.00  0.00     0.251 C 
ATOM      5  O   UNL A   1      32.446  22.261  22.705  1.00  0.00    -0.270 OA
ATOM      6  H   UNL A   1      34.734  21.789  22.653  1.00  0.00     0.163 HD
BRANCH   4   7
ATOM      7  C   UNL A   1      32.858  24.374  23.626  1.00  0.00     0.067 C 
ATOM      8  C   UNL A   1      31.466  28.002  25.258  1.00  0.00    -0.002 A 
ATOM      9  C   UNL A   1      30.995  28.996  24.378  1.00  0.00     0.054 A 
ATOM     10  C   UNL A   1      31.962  26.802  24.715  1.00  0.00     0.131 A 
ATOM     11  C   UNL A   1      30.981  28.786  22.996  1.00  0.00     0.130 A 
ATOM     12  C   UNL A   1      31.965  26.593  23.338  1.00  0.00     0.021 A 
ATOM     13  O   UNL A   1      32.376  25.841  25.593  1.00  0.00    -0.475 OA
ATOM     14  C   UNL A   1      31.474  27.586  22.485  1.00  0.00     0.058 A 
ATOM     15  C   UNL A   1      32.402  25.319  22.794  1.00  0.00     0.025 C 
ATOM     16  C   UNL A   1      33.119  24.692  25.094  1.00  0.00     0.314 C 
BRANCH   8  17
ATOM     17  C   UNL A   1      31.507  28.219  26.760  1.00  0.00     0.036 C 
ATOM     18  C   UNL A   1      32.414  29.337  27.262  1.00  0.00     0.009 C 
ENDBRANCH   8  17
BRANCH  11  19
ATOM     19  O   UNL A   1      30.516  29.649  22.045  1.00  0.00    -0.406 OA
BRANCH  19  20
ATOM     20  C   UNL A   1      29.173  30.088  22.142  1.00  0.00     0.573 C 
ATOM     21  F   UNL A   1      29.043  31.065  23.066  1.00  0.00    -0.132 F 
ATOM     22  F   UNL A   1      28.722  30.536  20.951  1.00  0.00    -0.132 F 
ATOM     23  F   UNL A   1      28.399  29.048  22.522  1.00  0.00    -0.132 F 
ENDBRANCH  19  20
ENDBRANCH  11  19
BRANCH  16  24
ATOM     24  C   UNL A   1      32.885  23.541  26.100  1.00  0.00     0.429 C 
ATOM     25  F   UNL A   1      34.031  22.985  26.548  1.00  0.00    -0.167 F 
ATOM     26  F   UNL A   1      32.248  23.995  27.216  1.00  0.00    -0.167 F 
ATOM     27  F   UNL A   1      32.109  22.557  25.589  1.00  0.00    -0.167 F 
ENDBRANCH  16  24
ENDBRANCH   4   7
ENDBRANCH   2   3
ENDBRANCH   1   2
BRANCH   1  28
ATOM     28  C   UNL A   1      37.120  22.278  25.652  1.00  0.00     0.118 C 
BRANCH  28  29
ATOM     29  N   UNL A   1      38.134  21.319  26.058  1.00  0.00    -0.352 N 
ATOM     30  C   UNL A   1      39.431  21.525  26.460  1.00  0.00     0.251 C 
ATOM     31  H   UNL A   1      37.848  20.377  26.043  1.00  0.00     0.163 HD
ATOM     32  O   UNL A   1      40.195  20.565  26.513  1.00  0.00    -0.269 OA
BRANCH  30  33
ATOM     33  C   UNL A   1      39.914  22.881  26.814  1.00  0.00     0.039 A 
ATOM     34  C   UNL A   1      40.806  23.018  27.881  1.00  0.00     0.014 A 
ATOM     35  C   UNL A   1      39.450  24.017  26.144  1.00  0.00     0.014 A 
ATOM     36  C   UNL A   1      41.269  24.286  28.247  1.00  0.00     0.010 A 
ATOM     37  C   UNL A   1      39.960  25.275  26.469  1.00  0.00     0.010 A 
ATOM     38  C   UNL A   1      40.870  25.424  27.527  1.00  0.00    -0.014 A 
BRANCH  38  39
ATOM     39  C   UNL A   1      41.385  26.775  27.874  1.00  0.00     0.031 A 
ATOM     40  C   UNL A   1      42.803  27.152  27.542  1.00  0.00     0.074 A 
ATOM     41  C   UNL A   1      40.593  27.639  28.540  1.00  0.00     0.049 A 
ATOM     42  N   UNL A   1      43.462  28.244  27.837  1.00  0.00    -0.248 NA
ATOM     43  C   UNL A   1      43.593  26.155  26.805  1.00  0.00     0.031 C 
ATOM     44  C   UNL A   1      39.210  27.374  28.946  1.00  0.00     0.029 A 
ATOM     45  N   UNL A   1      40.837  28.907  29.005  1.00  0.00    -0.354 N 
ATOM     46  C   UNL A   1      44.747  28.061  27.337  1.00  0.00     0.074 A 
ATOM     47  C   UNL A   1      44.787  26.729  26.770  1.00  0.00     0.031 C 
ATOM     48  C   UNL A   1      38.725  28.452  29.581  1.00  0.00     0.029 A 
ATOM     49  C   UNL A   1      39.771  29.466  29.671  1.00  0.00     0.049 A 
ATOM     50  H   UNL A   1      41.695  29.372  28.874  1.00  0.00     0.167 HD
ATOM     51  C   UNL A   1      45.790  28.930  27.333  1.00  0.00     0.034 A 
ATOM     52  C   UNL A   1      39.653  30.654  30.296  1.00  0.00     0.034 A 
ATOM     53  C   UNL A   1      45.726  30.260  27.892  1.00  0.00     0.049 A 
ATOM     54  C   UNL A   1      40.831  31.595  30.298  1.00  0.00     0.074 A 
ATOM     55  C   UNL A   1      46.703  31.241  27.895  1.00  0.00     0.029 A 
ATOM     56  N   UNL A   1      44.628  30.794  28.555  1.00  0.00    -0.354 N 
ATOM     57  N   UNL A   1      42.026  31.424  29.781  1.00  0.00    -0.248 NA
ATOM     58  C   UNL A   1      40.640  32.893  30.958  1.00  0.00     0.031 C 
ATOM     59  C   UNL A   1      46.220  32.340  28.615  1.00  0.00     0.029 A 
ATOM     60  C   UNL A   1      44.914  32.078  28.996  1.00  0.00     0.049 A 
ATOM     61  H   UNL A   1      43.771  30.329  28.691  1.00  0.00     0.167 HD
ATOM     62  C   UNL A   1      42.718  32.606  30.027  1.00  0.00     0.074 A 
ATOM     63  C   UNL A   1      41.802  33.485  30.725  1.00  0.00     0.031 C 
ATOM     64  C   UNL A   1      43.993  32.939  29.702  1.00  0.00     0.034 A 
BRANCH  51  65
ATOM     65  C   UNL A   1      47.090  28.453  26.730  1.00  0.00     0.023 A 
ATOM     66  C   UNL A   1      47.275  28.372  25.339  1.00  0.00     0.031 A 
ATOM     67  C   UNL A   1      48.153  28.046  27.558  1.00  0.00     0.131 A 
ATOM     68  C   UNL A   1      48.458  27.824  24.818  1.00  0.00     0.055 A 
ATOM     69  C   UNL A   1      49.360  27.581  27.032  1.00  0.00     0.041 A 
ATOM     70  F   UNL A   1      48.031  28.082  28.894  1.00  0.00    -0.206 F 
ATOM     71  C   UNL A   1      49.511  27.451  25.655  1.00  0.00     0.022 A 
BRANCH  68  72
ATOM     72  S   UNL A   1      48.538  27.468  23.041  1.00  0.00     0.124 S 
ATOM     73  O   UNL A   1      49.852  28.003  22.693  1.00  0.00    -0.237 OA
ATOM     74  O   UNL A   1      48.409  26.016  23.004  1.00  0.00    -0.237 OA
ATOM     75  O   UNL A   1      47.406  28.211  22.491  1.00  0.00    -0.744 OA
ENDBRANCH  68  72
ENDBRANCH  51  65
BRANCH  52  76
ATOM     76  C   UNL A   1      38.383  31.022  30.984  1.00  0.00     0.023 A 
ATOM     77  C   UNL A   1      37.338  31.648  30.285  1.00  0.00     0.031 A 
ATOM     78  C   UNL A   1      38.209  30.787  32.360  1.00  0.00     0.131 A 
ATOM     79  C   UNL A   1      36.185  32.058  30.972  1.00  0.00     0.055 A 
ATOM     80  C   UNL A   1      37.038  31.151  33.028  1.00  0.00     0.041 A 
ATOM     81  F   UNL A   1      39.174  30.186  33.073  1.00  0.00    -0.206 F 
ATOM     82  C   UNL A   1      36.022  31.802  32.335  1.00  0.00     0.022 A 
BRANCH  79  83
ATOM     83  S   UNL A   1      34.929  33.006  30.070  1.00  0.00     0.124 S 
ATOM     84  O   UNL A   1      34.016  33.386  31.142  1.00  0.00    -0.237 OA
ATOM     85  O   UNL A   1      35.723  34.084  29.490  1.00  0.00    -0.237 OA
ATOM     86  O   UNL A   1      34.398  32.041  29.109  1.00  0.00    -0.744 OA
ENDBRANCH  79  83
ENDBRANCH  52  76
BRANCH  64  87
ATOM     87  C   UNL A   1      44.450  34.331  30.062  1.00  0.00     0.023 A 
ATOM     88  C   UNL A   1      44.253  35.422  29.199  1.00  0.00     0.031 A 
ATOM     89  C   UNL A   1      45.108  34.563  31.285  1.00  0.00     0.131 A 
ATOM     90  C   UNL A   1      44.757  36.685  29.544  1.00  0.00     0.055 A 
ATOM     91  C   UNL A   1      45.555  35.834  31.648  1.00  0.00     0.041 A 
ATOM     92  F   UNL A   1      45.326  33.556  32.145  1.00  0.00    -0.206 F 
ATOM     93  C   UNL A   1      45.392  36.901  30.770  1.00  0.00     0.022 A 
BRANCH  90  94
ATOM     94  S   UNL A   1      44.654  38.026  28.326  1.00  0.00     0.124 S 
ATOM     95  O   UNL A   1      46.057  38.380  28.145  1.00  0.00    -0.237 OA
ATOM     96  O   UNL A   1      44.009  37.370  27.193  1.00  0.00    -0.237 OA
ATOM     97  O   UNL A   1      43.841  39.038  28.999  1.00  0.00    -0.744 OA
ENDBRANCH  90  94
ENDBRANCH  64  87
ENDBRANCH  38  39
ENDBRANCH  30  33
ENDBRANCH  28  29
ENDBRANCH   1  28
TORSDOF 17
ENDMDL
