MODEL 1
REMARK VINA RESULT:     -14.1      0.000      0.000
REMARK SMILES C[C@@H](C(=O)NCCCNC(=O)c1ccc(-c2c3nc(c(-c4cc(S(=O)(=O)[O-])ccc4F)c4ccc([nH]4)c(-c4cc(S(=O)(=O)[O-])ccc4F)c4nc(c(-c5cc(S(=O)(=O)[O-])ccc5F)c5ccc2[nH]5)C=C4)C=C3)cc1)[N@@H+]1CCc2n[nH]c(C(c3ccccc3)c3ccccc3)c2C1
REMARK SMILES IDX 7 1 6 2 5 3 3 4 4 5 2 7 1 8 75 9 76 10 96 11 77 13 95 14
REMARK SMILES IDX 78 15 81 16 79 17 80 18 82 20 83 21 84 22 88 23 85 24 87 25
REMARK SMILES IDX 86 26 89 27 90 28 94 29 91 30 93 31 92 32 8 33 9 34 10 35
REMARK SMILES IDX 11 37 12 38 13 39 74 40 14 41 73 42 15 43 16 44 17 45 67 46
REMARK SMILES IDX 18 47 72 48 66 49 68 50 19 51 71 52 65 53 64 54 20 56 52 57
REMARK SMILES IDX 32 58 51 59 33 60 36 61 50 62 69 63 34 64 35 65 49 67 70 68
REMARK SMILES IDX 37 69 21 70 22 71 30 72 23 73 29 74 31 75 28 76 24 77 25 78
REMARK SMILES IDX 26 79 27 80 53 81 54 82 62 83 55 84 61 85 63 86 60 87 56 88
REMARK SMILES IDX 57 89 58 90 59 91 38 92 39 93 47 94 40 95 46 96 48 97 45 98
REMARK SMILES IDX 41 99 42 100 43 101 44 102
REMARK H PARENT 5 6 75 12 80 19 9 36 68 55 36 66
REMARK Flexibility Score: inf
ROOT
ATOM      1  C   UNL A   1      35.447  22.089  26.313  1.00  0.00     0.042 C 
ENDROOT
BRANCH   1   2
ATOM      2  C   UNL A   1      34.062  21.308  26.415  1.00  0.00     0.118 C 
BRANCH   2   3
ATOM      3  N   UNL A   1      32.858  21.881  27.013  1.00  0.00    -0.351 N 
ATOM      4  C   UNL A   1      32.119  23.013  26.815  1.00  0.00     0.278 C 
ATOM      5  O   UNL A   1      31.171  23.231  27.585  1.00  0.00    -0.268 OA
ATOM      6  H   UNL A   1      32.492  21.317  27.732  1.00  0.00     0.163 HD
BRANCH   4   7
ATOM      7  C   UNL A   1      32.336  24.004  25.671  1.00  0.00     0.271 C 
ATOM      8  C   UNL A   1      32.154  25.418  26.209  1.00  0.00     0.086 C 
BRANCH   7   9
ATOM      9  N   UNL A   1      31.772  23.594  24.375  1.00  0.00    -0.321 N 
ATOM     10  C   UNL A   1      32.552  22.702  23.507  1.00  0.00     0.269 C 
ATOM     11  C   UNL A   1      30.954  24.620  23.707  1.00  0.00     0.303 C 
ATOM     12  H   UNL A   1      31.093  22.898  24.686  1.00  0.00     0.349 HD
ATOM     13  C   UNL A   1      32.923  23.207  22.089  1.00  0.00     0.120 C 
ATOM     14  C   UNL A   1      31.839  25.410  22.818  1.00  0.00     0.052 A 
ATOM     15  C   UNL A   1      32.725  24.678  21.980  1.00  0.00     0.077 A 
ATOM     16  C   UNL A   1      32.142  26.753  22.603  1.00  0.00     0.056 A 
ATOM     17  N   UNL A   1      33.397  25.466  21.151  1.00  0.00    -0.180 NA
ATOM     18  N   UNL A   1      32.903  26.683  21.440  1.00  0.00    -0.281 N 
ATOM     19  H   UNL A   1      33.068  27.467  20.869  1.00  0.00     0.190 HD
BRANCH  16  20
ATOM     20  C   UNL A   1      31.781  28.159  23.133  1.00  0.00     0.098 C 
BRANCH  20  21
ATOM     21  C   UNL A   1      30.379  28.590  22.734  1.00  0.00    -0.035 A 
ATOM     22  C   UNL A   1      30.212  29.768  21.979  1.00  0.00     0.005 A 
ATOM     23  C   UNL A   1      29.257  27.919  23.225  1.00  0.00     0.005 A 
ATOM     24  C   UNL A   1      28.949  30.315  21.808  1.00  0.00     0.000 A 
ATOM     25  C   UNL A   1      28.000  28.494  23.088  1.00  0.00     0.000 A 
ATOM     26  C   UNL A   1      27.849  29.696  22.393  1.00  0.00     0.000 A 
ENDBRANCH  20  21
BRANCH  20  27
ATOM     27  C   UNL A   1      32.262  28.764  24.513  1.00  0.00    -0.035 A 
ATOM     28  C   UNL A   1      31.428  29.566  25.304  1.00  0.00     0.005 A 
ATOM     29  C   UNL A   1      33.573  28.655  25.044  1.00  0.00     0.005 A 
ATOM     30  C   UNL A   1      31.836  30.104  26.544  1.00  0.00     0.000 A 
ATOM     31  C   UNL A   1      33.998  29.174  26.280  1.00  0.00     0.000 A 
ATOM     32  C   UNL A   1      33.110  29.884  27.050  1.00  0.00     0.000 A 
ENDBRANCH  20  27
ENDBRANCH  16  20
ENDBRANCH   7   9
ENDBRANCH   4   7
ENDBRANCH   2   3
ENDBRANCH   1   2
BRANCH   1  33
ATOM     33  C   UNL A   1      36.614  22.178  25.240  1.00  0.00     0.118 C 
BRANCH  33  34
ATOM     34  N   UNL A   1      37.802  21.296  25.245  1.00  0.00    -0.352 N 
ATOM     35  C   UNL A   1      39.034  21.273  25.862  1.00  0.00     0.251 C 
ATOM     36  H   UNL A   1      37.681  20.520  24.651  1.00  0.00     0.163 HD
ATOM     37  O   UNL A   1      39.785  20.336  25.689  1.00  0.00    -0.269 OA
BRANCH  35  38
ATOM     38  C   UNL A   1      39.449  22.411  26.673  1.00  0.00     0.039 A 
ATOM     39  C   UNL A   1      40.404  22.206  27.676  1.00  0.00     0.014 A 
ATOM     40  C   UNL A   1      38.984  23.673  26.336  1.00  0.00     0.014 A 
ATOM     41  C   UNL A   1      41.024  23.312  28.237  1.00  0.00     0.010 A 
ATOM     42  C   UNL A   1      39.662  24.763  26.828  1.00  0.00     0.010 A 
ATOM     43  C   UNL A   1      40.708  24.585  27.750  1.00  0.00    -0.014 A 
BRANCH  43  44
ATOM     44  C   UNL A   1      41.467  25.785  28.144  1.00  0.00     0.031 A 
ATOM     45  C   UNL A   1      40.731  26.886  28.832  1.00  0.00     0.074 A 
ATOM     46  C   UNL A   1      42.731  25.927  27.706  1.00  0.00     0.049 A 
ATOM     47  N   UNL A   1      41.083  28.127  29.016  1.00  0.00    -0.248 NA
ATOM     48  C   UNL A   1      39.381  26.552  29.316  1.00  0.00     0.031 C 
ATOM     49  C   UNL A   1      43.499  24.910  26.981  1.00  0.00     0.029 A 
ATOM     50  N   UNL A   1      43.578  27.000  27.771  1.00  0.00    -0.354 N 
ATOM     51  C   UNL A   1      39.983  28.736  29.603  1.00  0.00     0.074 A 
ATOM     52  C   UNL A   1      38.932  27.743  29.673  1.00  0.00     0.031 C 
ATOM     53  C   UNL A   1      44.706  25.410  26.672  1.00  0.00     0.029 A 
ATOM     54  C   UNL A   1      44.772  26.795  27.122  1.00  0.00     0.049 A 
ATOM     55  H   UNL A   1      43.354  27.837  28.239  1.00  0.00     0.167 HD
ATOM     56  C   UNL A   1      39.877  30.008  30.058  1.00  0.00     0.034 A 
ATOM     57  C   UNL A   1      45.787  27.648  26.889  1.00  0.00     0.034 A 
ATOM     58  C   UNL A   1      40.958  30.958  29.964  1.00  0.00     0.049 A 
ATOM     59  C   UNL A   1      45.658  29.056  27.404  1.00  0.00     0.074 A 
ATOM     60  C   UNL A   1      41.009  32.260  30.420  1.00  0.00     0.029 A 
ATOM     61  N   UNL A   1      42.186  30.698  29.362  1.00  0.00    -0.354 N 
ATOM     62  N   UNL A   1      44.632  29.625  27.997  1.00  0.00    -0.248 NA
ATOM     63  C   UNL A   1      46.820  29.936  27.234  1.00  0.00     0.031 C 
ATOM     64  C   UNL A   1      42.240  32.807  30.041  1.00  0.00     0.029 A 
ATOM     65  C   UNL A   1      42.994  31.821  29.419  1.00  0.00     0.049 A 
ATOM     66  H   UNL A   1      42.444  29.839  28.955  1.00  0.00     0.167 HD
ATOM     67  C   UNL A   1      45.038  30.918  28.305  1.00  0.00     0.074 A 
ATOM     68  C   UNL A   1      46.402  31.045  27.829  1.00  0.00     0.031 C 
ATOM     69  C   UNL A   1      44.354  31.909  28.934  1.00  0.00     0.034 A 
BRANCH  56  70
ATOM     70  C   UNL A   1      38.547  30.419  30.641  1.00  0.00     0.023 A 
ATOM     71  C   UNL A   1      37.616  31.168  29.895  1.00  0.00     0.031 A 
ATOM     72  C   UNL A   1      38.239  30.151  31.986  1.00  0.00     0.131 A 
ATOM     73  C   UNL A   1      36.497  31.727  30.526  1.00  0.00     0.055 A 
ATOM     74  C   UNL A   1      37.065  30.619  32.580  1.00  0.00     0.041 A 
ATOM     75  F   UNL A   1      39.093  29.463  32.759  1.00  0.00    -0.206 F 
ATOM     76  C   UNL A   1      36.198  31.434  31.857  1.00  0.00     0.022 A 
BRANCH  73  77
ATOM     77  S   UNL A   1      35.560  33.004  29.641  1.00  0.00     0.124 S 
ATOM     78  O   UNL A   1      36.475  33.335  28.549  1.00  0.00    -0.237 OA
ATOM     79  O   UNL A   1      34.343  32.299  29.262  1.00  0.00    -0.237 OA
ATOM     80  O   UNL A   1      35.389  34.057  30.640  1.00  0.00    -0.744 OA
ENDBRANCH  73  77
ENDBRANCH  56  70
BRANCH  57  81
ATOM     81  C   UNL A   1      46.992  27.190  26.142  1.00  0.00     0.023 A 
ATOM     82  C   UNL A   1      48.059  26.567  26.807  1.00  0.00     0.031 A 
ATOM     83  C   UNL A   1      47.085  27.347  24.747  1.00  0.00     0.131 A 
ATOM     84  C   UNL A   1      49.187  26.149  26.082  1.00  0.00     0.055 A 
ATOM     85  C   UNL A   1      48.189  26.891  24.026  1.00  0.00     0.041 A 
ATOM     86  F   UNL A   1      46.084  27.920  24.060  1.00  0.00    -0.206 F 
ATOM     87  C   UNL A   1      49.254  26.295  24.695  1.00  0.00     0.022 A 
BRANCH  84  88
ATOM     88  S   UNL A   1      50.593  25.450  26.990  1.00  0.00     0.124 S 
ATOM     89  O   UNL A   1      51.515  25.127  25.907  1.00  0.00    -0.237 OA
ATOM     90  O   UNL A   1      50.979  26.562  27.852  1.00  0.00    -0.237 OA
ATOM     91  O   UNL A   1      50.013  24.301  27.682  1.00  0.00    -0.744 OA
ENDBRANCH  84  88
ENDBRANCH  57  81
BRANCH  69  92
ATOM     92  C   UNL A   1      45.099  33.189  29.205  1.00  0.00     0.023 A 
ATOM     93  C   UNL A   1      45.040  34.285  28.329  1.00  0.00     0.031 A 
ATOM     94  C   UNL A   1      45.850  33.317  30.387  1.00  0.00     0.131 A 
ATOM     95  C   UNL A   1      45.752  35.455  28.633  1.00  0.00     0.055 A 
ATOM     96  C   UNL A   1      46.510  34.502  30.710  1.00  0.00     0.041 A 
ATOM     97  F   UNL A   1      45.938  32.297  31.255  1.00  0.00    -0.206 F 
ATOM     98  C   UNL A   1      46.470  35.577  29.827  1.00  0.00     0.022 A 
BRANCH  95  99
ATOM     99  S   UNL A   1      45.778  36.800  27.418  1.00  0.00     0.124 S 
ATOM    100  O   UNL A   1      44.397  36.808  26.947  1.00  0.00    -0.237 OA
ATOM    101  O   UNL A   1      46.182  37.945  28.227  1.00  0.00    -0.237 OA
ATOM    102  O   UNL A   1      46.766  36.356  26.437  1.00  0.00    -0.744 OA
ENDBRANCH  95  99
ENDBRANCH  69  92
ENDBRANCH  43  44
ENDBRANCH  35  38
ENDBRANCH  33  34
ENDBRANCH   1  33
TORSDOF 17
ENDMDL
MODEL 2
REMARK VINA RESULT:     -14.1      4.494     10.052
REMARK SMILES C[C@@H](C(=O)NCCCNC(=O)c1ccc(-c2c3nc(c(-c4cc(S(=O)(=O)[O-])ccc4F)c4ccc([nH]4)c(-c4cc(S(=O)(=O)[O-])ccc4F)c4nc(c(-c5cc(S(=O)(=O)[O-])ccc5F)c5ccc2[nH]5)C=C4)C=C3)cc1)[N@@H+]1CCc2n[nH]c(C(c3ccccc3)c3ccccc3)c2C1
REMARK SMILES IDX 7 1 6 2 5 3 3 4 4 5 2 7 1 8 75 9 76 10 96 11 77 13 95 14
REMARK SMILES IDX 78 15 81 16 79 17 80 18 82 20 83 21 84 22 88 23 85 24 87 25
REMARK SMILES IDX 86 26 89 27 90 28 94 29 91 30 93 31 92 32 8 33 9 34 10 35
REMARK SMILES IDX 11 37 12 38 13 39 74 40 14 41 73 42 15 43 16 44 17 45 67 46
REMARK SMILES IDX 18 47 72 48 66 49 68 50 19 51 71 52 65 53 64 54 20 56 52 57
REMARK SMILES IDX 32 58 51 59 33 60 36 61 50 62 69 63 34 64 35 65 49 67 70 68
REMARK SMILES IDX 37 69 21 70 22 71 30 72 23 73 29 74 31 75 28 76 24 77 25 78
REMARK SMILES IDX 26 79 27 80 53 81 54 82 62 83 55 84 61 85 63 86 60 87 56 88
REMARK SMILES IDX 57 89 58 90 59 91 38 92 39 93 47 94 40 95 46 96 48 97 45 98
REMARK SMILES IDX 41 99 42 100 43 101 44 102
REMARK H PARENT 5 6 75 12 80 19 9 36 68 55 36 66
REMARK Flexibility Score: inf
ROOT
ATOM      1  C   UNL A   1      33.276  29.269  24.511  1.00  0.00     0.042 C 
ENDROOT
BRANCH   1   2
ATOM      2  C   UNL A   1      32.537  29.001  23.125  1.00  0.00     0.118 C 
BRANCH   2   3
ATOM      3  N   UNL A   1      32.950  27.963  22.182  1.00  0.00    -0.351 N 
ATOM      4  C   UNL A   1      33.201  26.623  22.260  1.00  0.00     0.278 C 
ATOM      5  O   UNL A   1      33.628  26.050  21.246  1.00  0.00    -0.268 OA
ATOM      6  H   UNL A   1      33.080  28.316  21.272  1.00  0.00     0.163 HD
BRANCH   4   7
ATOM      7  C   UNL A   1      32.935  25.760  23.494  1.00  0.00     0.271 C 
ATOM      8  C   UNL A   1      34.129  24.838  23.711  1.00  0.00     0.086 C 
BRANCH   7   9
ATOM      9  N   UNL A   1      31.552  25.274  23.629  1.00  0.00    -0.321 N 
ATOM     10  C   UNL A   1      30.594  26.061  24.416  1.00  0.00     0.269 C 
ATOM     11  C   UNL A   1      31.417  23.809  23.692  1.00  0.00     0.303 C 
ATOM     12  H   UNL A   1      31.185  25.519  22.710  1.00  0.00     0.349 HD
ATOM     13  C   UNL A   1      29.924  25.382  25.639  1.00  0.00     0.120 C 
ATOM     14  C   UNL A   1      31.461  23.402  25.117  1.00  0.00     0.052 A 
ATOM     15  C   UNL A   1      30.650  24.140  26.021  1.00  0.00     0.077 A 
ATOM     16  C   UNL A   1      32.176  22.500  25.904  1.00  0.00     0.056 A 
ATOM     17  N   UNL A   1      30.678  23.636  27.247  1.00  0.00    -0.180 NA
ATOM     18  N   UNL A   1      31.471  22.560  27.102  1.00  0.00    -0.281 N 
ATOM     19  H   UNL A   1      31.548  21.865  27.795  1.00  0.00     0.190 HD
BRANCH  16  20
ATOM     20  C   UNL A   1      33.301  21.446  25.791  1.00  0.00     0.098 C 
BRANCH  20  21
ATOM     21  C   UNL A   1      32.852  20.190  25.063  1.00  0.00    -0.035 A 
ATOM     22  C   UNL A   1      32.904  18.952  25.735  1.00  0.00     0.005 A 
ATOM     23  C   UNL A   1      32.529  20.226  23.706  1.00  0.00     0.005 A 
ATOM     24  C   UNL A   1      32.736  17.768  25.032  1.00  0.00     0.000 A 
ATOM     25  C   UNL A   1      32.404  19.037  22.998  1.00  0.00     0.000 A 
ATOM     26  C   UNL A   1      32.522  17.811  23.658  1.00  0.00     0.000 A 
ENDBRANCH  20  21
BRANCH  20  27
ATOM     27  C   UNL A   1      34.838  21.771  25.608  1.00  0.00    -0.035 A 
ATOM     28  C   UNL A   1      35.457  22.837  26.276  1.00  0.00     0.005 A 
ATOM     29  C   UNL A   1      35.713  21.114  24.706  1.00  0.00     0.005 A 
ATOM     30  C   UNL A   1      36.829  23.134  26.134  1.00  0.00     0.000 A 
ATOM     31  C   UNL A   1      37.084  21.387  24.555  1.00  0.00     0.000 A 
ATOM     32  C   UNL A   1      37.653  22.392  25.299  1.00  0.00     0.000 A 
ENDBRANCH  20  27
ENDBRANCH  16  20
ENDBRANCH   7   9
ENDBRANCH   4   7
ENDBRANCH   2   3
ENDBRANCH   1   2
BRANCH   1  33
ATOM     33  C   UNL A   1      32.817  29.400  26.025  1.00  0.00     0.118 C 
BRANCH  33  34
ATOM     34  N   UNL A   1      32.610  30.695  26.712  1.00  0.00    -0.352 N 
ATOM     35  C   UNL A   1      33.390  31.610  27.386  1.00  0.00     0.251 C 
ATOM     36  H   UNL A   1      31.668  30.977  26.678  1.00  0.00     0.163 HD
ATOM     37  O   UNL A   1      32.901  32.644  27.793  1.00  0.00    -0.269 OA
BRANCH  35  38
ATOM     38  C   UNL A   1      34.787  31.297  27.658  1.00  0.00     0.039 A 
ATOM     39  C   UNL A   1      35.705  32.350  27.745  1.00  0.00     0.014 A 
ATOM     40  C   UNL A   1      35.130  29.985  27.949  1.00  0.00     0.014 A 
ATOM     41  C   UNL A   1      36.951  32.100  28.298  1.00  0.00     0.010 A 
ATOM     42  C   UNL A   1      36.332  29.758  28.578  1.00  0.00     0.010 A 
ATOM     43  C   UNL A   1      37.229  30.820  28.789  1.00  0.00    -0.014 A 
BRANCH  43  44
ATOM     44  C   UNL A   1      38.442  30.527  29.572  1.00  0.00     0.031 A 
ATOM     45  C   UNL A   1      39.407  29.528  29.025  1.00  0.00     0.074 A 
ATOM     46  C   UNL A   1      38.543  31.016  30.821  1.00  0.00     0.049 A 
ATOM     47  N   UNL A   1      40.371  28.893  29.629  1.00  0.00    -0.248 NA
ATOM     48  C   UNL A   1      39.205  29.145  27.618  1.00  0.00     0.031 C 
ATOM     49  C   UNL A   1      37.608  31.959  31.443  1.00  0.00     0.029 A 
ATOM     50  N   UNL A   1      39.455  30.754  31.807  1.00  0.00    -0.354 N 
ATOM     51  C   UNL A   1      40.870  28.004  28.687  1.00  0.00     0.074 A 
ATOM     52  C   UNL A   1      40.051  28.134  27.502  1.00  0.00     0.031 C 
ATOM     53  C   UNL A   1      38.000  32.197  32.705  1.00  0.00     0.029 A 
ATOM     54  C   UNL A   1      39.172  31.381  32.997  1.00  0.00     0.049 A 
ATOM     55  H   UNL A   1      40.240  30.173  31.677  1.00  0.00     0.167 HD
ATOM     56  C   UNL A   1      41.932  27.171  28.807  1.00  0.00     0.034 A 
ATOM     57  C   UNL A   1      39.776  31.277  34.195  1.00  0.00     0.034 A 
ATOM     58  C   UNL A   1      42.717  27.082  30.013  1.00  0.00     0.049 A 
ATOM     59  C   UNL A   1      40.957  30.351  34.312  1.00  0.00     0.074 A 
ATOM     60  C   UNL A   1      43.841  26.319  30.261  1.00  0.00     0.029 A 
ATOM     61  N   UNL A   1      42.446  27.786  31.183  1.00  0.00    -0.354 N 
ATOM     62  N   UNL A   1      41.456  29.537  33.409  1.00  0.00    -0.248 NA
ATOM     63  C   UNL A   1      41.665  30.334  35.597  1.00  0.00     0.031 C 
ATOM     64  C   UNL A   1      44.213  26.514  31.596  1.00  0.00     0.029 A 
ATOM     65  C   UNL A   1      43.372  27.462  32.161  1.00  0.00     0.049 A 
ATOM     66  H   UNL A   1      41.705  28.423  31.299  1.00  0.00     0.167 HD
ATOM     67  C   UNL A   1      42.561  28.938  34.004  1.00  0.00     0.074 A 
ATOM     68  C   UNL A   1      42.651  29.484  35.345  1.00  0.00     0.031 C 
ATOM     69  C   UNL A   1      43.430  28.031  33.489  1.00  0.00     0.034 A 
BRANCH  56  70
ATOM     70  C   UNL A   1      42.248  26.290  27.622  1.00  0.00     0.023 A 
ATOM     71  C   UNL A   1      41.765  24.969  27.539  1.00  0.00     0.031 A 
ATOM     72  C   UNL A   1      43.120  26.730  26.612  1.00  0.00     0.131 A 
ATOM     73  C   UNL A   1      42.254  24.104  26.551  1.00  0.00     0.055 A 
ATOM     74  C   UNL A   1      43.517  25.894  25.566  1.00  0.00     0.041 A 
ATOM     75  F   UNL A   1      43.634  27.969  26.644  1.00  0.00    -0.206 F 
ATOM     76  C   UNL A   1      43.105  24.564  25.545  1.00  0.00     0.022 A 
BRANCH  73  77
ATOM     77  S   UNL A   1      41.928  22.327  26.726  1.00  0.00     0.124 S 
ATOM     78  O   UNL A   1      40.512  22.324  27.090  1.00  0.00    -0.237 OA
ATOM     79  O   UNL A   1      42.246  21.814  25.400  1.00  0.00    -0.237 OA
ATOM     80  O   UNL A   1      42.838  21.915  27.792  1.00  0.00    -0.744 OA
ENDBRANCH  73  77
ENDBRANCH  56  70
BRANCH  57  81
ATOM     81  C   UNL A   1      39.273  32.061  35.357  1.00  0.00     0.023 A 
ATOM     82  C   UNL A   1      39.754  33.353  35.617  1.00  0.00     0.031 A 
ATOM     83  C   UNL A   1      38.285  31.540  36.213  1.00  0.00     0.131 A 
ATOM     84  C   UNL A   1      39.269  34.072  36.722  1.00  0.00     0.055 A 
ATOM     85  C   UNL A   1      37.775  32.275  37.285  1.00  0.00     0.041 A 
ATOM     86  F   UNL A   1      37.778  30.316  35.998  1.00  0.00    -0.206 F 
ATOM     87  C   UNL A   1      38.274  33.547  37.549  1.00  0.00     0.022 A 
BRANCH  84  88
ATOM     88  S   UNL A   1      39.994  35.693  37.090  1.00  0.00     0.124 S 
ATOM     89  O   UNL A   1      39.653  36.450  35.892  1.00  0.00    -0.237 OA
ATOM     90  O   UNL A   1      39.288  36.069  38.311  1.00  0.00    -0.237 OA
ATOM     91  O   UNL A   1      41.415  35.398  37.261  1.00  0.00    -0.744 OA
ENDBRANCH  84  88
ENDBRANCH  57  81
BRANCH  69  92
ATOM     92  C   UNL A   1      44.593  27.629  34.358  1.00  0.00     0.023 A 
ATOM     93  C   UNL A   1      44.552  26.489  35.178  1.00  0.00     0.031 A 
ATOM     94  C   UNL A   1      45.776  28.389  34.328  1.00  0.00     0.131 A 
ATOM     95  C   UNL A   1      45.666  26.160  35.964  1.00  0.00     0.055 A 
ATOM     96  C   UNL A   1      46.899  28.025  35.070  1.00  0.00     0.041 A 
ATOM     97  F   UNL A   1      45.864  29.487  33.561  1.00  0.00    -0.206 F 
ATOM     98  C   UNL A   1      46.845  26.909  35.900  1.00  0.00     0.022 A 
BRANCH  95  99
ATOM     99  S   UNL A   1      45.536  24.771  37.121  1.00  0.00     0.124 S 
ATOM    100  O   UNL A   1      44.348  24.079  36.631  1.00  0.00    -0.237 OA
ATOM    101  O   UNL A   1      46.805  24.077  36.922  1.00  0.00    -0.237 OA
ATOM    102  O   UNL A   1      45.384  25.420  38.422  1.00  0.00    -0.744 OA
ENDBRANCH  95  99
ENDBRANCH  69  92
ENDBRANCH  43  44
ENDBRANCH  35  38
ENDBRANCH  33  34
ENDBRANCH   1  33
TORSDOF 17
ENDMDL
MODEL 3
REMARK VINA RESULT:     -13.8      1.309      7.626
REMARK SMILES C[C@@H](C(=O)NCCCNC(=O)c1ccc(-c2c3nc(c(-c4cc(S(=O)(=O)[O-])ccc4F)c4ccc([nH]4)c(-c4cc(S(=O)(=O)[O-])ccc4F)c4nc(c(-c5cc(S(=O)(=O)[O-])ccc5F)c5ccc2[nH]5)C=C4)C=C3)cc1)[N@@H+]1CCc2n[nH]c(C(c3ccccc3)c3ccccc3)c2C1
REMARK SMILES IDX 7 1 6 2 5 3 3 4 4 5 2 7 1 8 75 9 76 10 96 11 77 13 95 14
REMARK SMILES IDX 78 15 81 16 79 17 80 18 82 20 83 21 84 22 88 23 85 24 87 25
REMARK SMILES IDX 86 26 89 27 90 28 94 29 91 30 93 31 92 32 8 33 9 34 10 35
REMARK SMILES IDX 11 37 12 38 13 39 74 40 14 41 73 42 15 43 16 44 17 45 67 46
REMARK SMILES IDX 18 47 72 48 66 49 68 50 19 51 71 52 65 53 64 54 20 56 52 57
REMARK SMILES IDX 32 58 51 59 33 60 36 61 50 62 69 63 34 64 35 65 49 67 70 68
REMARK SMILES IDX 37 69 21 70 22 71 30 72 23 73 29 74 31 75 28 76 24 77 25 78
REMARK SMILES IDX 26 79 27 80 53 81 54 82 62 83 55 84 61 85 63 86 60 87 56 88
REMARK SMILES IDX 57 89 58 90 59 91 38 92 39 93 47 94 40 95 46 96 48 97 45 98
REMARK SMILES IDX 41 99 42 100 43 101 44 102
REMARK H PARENT 5 6 75 12 80 19 9 36 68 55 36 66
REMARK Flexibility Score: inf
ROOT
ATOM      1  C   UNL A   1      35.661  21.703  26.102  1.00  0.00     0.042 C 
ENDROOT
BRANCH   1   2
ATOM      2  C   UNL A   1      34.158  21.181  26.021  1.00  0.00     0.118 C 
BRANCH   2   3
ATOM      3  N   UNL A   1      33.060  21.771  26.784  1.00  0.00    -0.351 N 
ATOM      4  C   UNL A   1      32.342  22.931  26.716  1.00  0.00     0.278 C 
ATOM      5  O   UNL A   1      31.507  23.153  27.606  1.00  0.00    -0.268 OA
ATOM      6  H   UNL A   1      32.768  21.194  27.527  1.00  0.00     0.163 HD
BRANCH   4   7
ATOM      7  C   UNL A   1      32.449  23.953  25.584  1.00  0.00     0.271 C 
ATOM      8  C   UNL A   1      32.234  25.347  26.162  1.00  0.00     0.086 C 
BRANCH   7   9
ATOM      9  N   UNL A   1      31.831  23.543  24.313  1.00  0.00    -0.321 N 
ATOM     10  C   UNL A   1      32.583  22.668  23.404  1.00  0.00     0.269 C 
ATOM     11  C   UNL A   1      30.968  24.561  23.690  1.00  0.00     0.303 C 
ATOM     12  H   UNL A   1      31.178  22.836  24.650  1.00  0.00     0.349 HD
ATOM     13  C   UNL A   1      32.881  23.187  21.973  1.00  0.00     0.120 C 
ATOM     14  C   UNL A   1      31.800  25.369  22.766  1.00  0.00     0.052 A 
ATOM     15  C   UNL A   1      32.656  24.656  21.883  1.00  0.00     0.077 A 
ATOM     16  C   UNL A   1      32.073  26.718  22.547  1.00  0.00     0.056 A 
ATOM     17  N   UNL A   1      33.278  25.458  21.030  1.00  0.00    -0.180 NA
ATOM     18  N   UNL A   1      32.780  26.666  21.349  1.00  0.00    -0.281 N 
ATOM     19  H   UNL A   1      32.907  27.456  20.777  1.00  0.00     0.190 HD
BRANCH  16  20
ATOM     20  C   UNL A   1      31.717  28.116  23.103  1.00  0.00     0.098 C 
BRANCH  20  21
ATOM     21  C   UNL A   1      30.306  28.546  22.735  1.00  0.00    -0.035 A 
ATOM     22  C   UNL A   1      30.122  29.735  22.000  1.00  0.00     0.005 A 
ATOM     23  C   UNL A   1      29.196  27.864  23.235  1.00  0.00     0.005 A 
ATOM     24  C   UNL A   1      28.854  30.279  21.859  1.00  0.00     0.000 A 
ATOM     25  C   UNL A   1      27.934  28.435  23.128  1.00  0.00     0.000 A 
ATOM     26  C   UNL A   1      27.766  29.647  22.454  1.00  0.00     0.000 A 
ENDBRANCH  20  21
BRANCH  20  27
ATOM     27  C   UNL A   1      32.220  28.703  24.482  1.00  0.00    -0.035 A 
ATOM     28  C   UNL A   1      31.407  29.514  25.285  1.00  0.00     0.005 A 
ATOM     29  C   UNL A   1      33.534  28.570  25.000  1.00  0.00     0.005 A 
ATOM     30  C   UNL A   1      31.835  30.037  26.525  1.00  0.00     0.000 A 
ATOM     31  C   UNL A   1      33.979  29.073  26.235  1.00  0.00     0.000 A 
ATOM     32  C   UNL A   1      33.109  29.792  27.018  1.00  0.00     0.000 A 
ENDBRANCH  20  27
ENDBRANCH  16  20
ENDBRANCH   7   9
ENDBRANCH   4   7
ENDBRANCH   2   3
ENDBRANCH   1   2
BRANCH   1  33
ATOM     33  C   UNL A   1      36.911  21.693  25.123  1.00  0.00     0.118 C 
BRANCH  33  34
ATOM     34  N   UNL A   1      38.159  20.944  25.394  1.00  0.00    -0.352 N 
ATOM     35  C   UNL A   1      39.331  21.161  26.086  1.00  0.00     0.251 C 
ATOM     36  H   UNL A   1      38.149  20.057  24.967  1.00  0.00     0.163 HD
ATOM     37  O   UNL A   1      40.164  20.282  26.164  1.00  0.00    -0.269 OA
BRANCH  35  38
ATOM     38  C   UNL A   1      39.585  22.472  26.669  1.00  0.00     0.039 A 
ATOM     39  C   UNL A   1      40.597  22.595  27.628  1.00  0.00     0.014 A 
ATOM     40  C   UNL A   1      38.907  23.569  26.160  1.00  0.00     0.014 A 
ATOM     41  C   UNL A   1      41.050  23.863  27.958  1.00  0.00     0.010 A 
ATOM     42  C   UNL A   1      39.416  24.820  26.421  1.00  0.00     0.010 A 
ATOM     43  C   UNL A   1      40.512  24.968  27.289  1.00  0.00    -0.014 A 
BRANCH  43  44
ATOM     44  C   UNL A   1      41.079  26.320  27.429  1.00  0.00     0.031 A 
ATOM     45  C   UNL A   1      42.479  26.546  26.966  1.00  0.00     0.074 A 
ATOM     46  C   UNL A   1      40.396  27.241  28.133  1.00  0.00     0.049 A 
ATOM     47  N   UNL A   1      43.290  27.531  27.233  1.00  0.00    -0.248 NA
ATOM     48  C   UNL A   1      43.065  25.474  26.145  1.00  0.00     0.031 C 
ATOM     49  C   UNL A   1      39.039  27.073  28.663  1.00  0.00     0.029 A 
ATOM     50  N   UNL A   1      40.767  28.488  28.561  1.00  0.00    -0.354 N 
ATOM     51  C   UNL A   1      44.498  27.181  26.645  1.00  0.00     0.074 A 
ATOM     52  C   UNL A   1      44.327  25.861  26.075  1.00  0.00     0.031 C 
ATOM     53  C   UNL A   1      38.693  28.178  29.342  1.00  0.00     0.029 A 
ATOM     54  C   UNL A   1      39.820  29.102  29.346  1.00  0.00     0.049 A 
ATOM     55  H   UNL A   1      41.628  28.904  28.328  1.00  0.00     0.167 HD
ATOM     56  C   UNL A   1      45.636  27.913  26.577  1.00  0.00     0.034 A 
ATOM     57  C   UNL A   1      39.878  30.266  30.019  1.00  0.00     0.034 A 
ATOM     58  C   UNL A   1      45.750  29.225  27.162  1.00  0.00     0.049 A 
ATOM     59  C   UNL A   1      41.147  31.071  29.930  1.00  0.00     0.074 A 
ATOM     60  C   UNL A   1      46.822  30.096  27.133  1.00  0.00     0.029 A 
ATOM     61  N   UNL A   1      44.746  29.853  27.894  1.00  0.00    -0.354 N 
ATOM     62  N   UNL A   1      42.279  30.758  29.340  1.00  0.00    -0.248 NA
ATOM     63  C   UNL A   1      41.148  32.385  30.582  1.00  0.00     0.031 C 
ATOM     64  C   UNL A   1      46.489  31.221  27.895  1.00  0.00     0.029 A 
ATOM     65  C   UNL A   1      45.179  31.091  28.335  1.00  0.00     0.049 A 
ATOM     66  H   UNL A   1      43.855  29.471  28.071  1.00  0.00     0.167 HD
ATOM     67  C   UNL A   1      43.116  31.854  29.517  1.00  0.00     0.074 A 
ATOM     68  C   UNL A   1      42.357  32.833  30.272  1.00  0.00     0.031 C 
ATOM     69  C   UNL A   1      44.390  32.043  29.086  1.00  0.00     0.034 A 
BRANCH  56  70
ATOM     70  C   UNL A   1      46.819  27.276  25.887  1.00  0.00     0.023 A 
ATOM     71  C   UNL A   1      47.779  26.538  26.606  1.00  0.00     0.031 A 
ATOM     72  C   UNL A   1      47.051  27.488  24.518  1.00  0.00     0.131 A 
ATOM     73  C   UNL A   1      48.977  26.154  25.988  1.00  0.00     0.055 A 
ATOM     74  C   UNL A   1      48.197  27.005  23.882  1.00  0.00     0.041 A 
ATOM     75  F   UNL A   1      46.186  28.202  23.779  1.00  0.00    -0.206 F 
ATOM     76  C   UNL A   1      49.181  26.357  24.622  1.00  0.00     0.022 A 
BRANCH  73  77
ATOM     77  S   UNL A   1      50.340  25.580  27.038  1.00  0.00     0.124 S 
ATOM     78  O   UNL A   1      49.742  24.412  27.683  1.00  0.00    -0.237 OA
ATOM     79  O   UNL A   1      51.393  25.304  26.069  1.00  0.00    -0.237 OA
ATOM     80  O   UNL A   1      50.589  26.713  27.926  1.00  0.00    -0.744 OA
ENDBRANCH  73  77
ENDBRANCH  56  70
BRANCH  57  81
ATOM     81  C   UNL A   1      38.710  30.724  30.822  1.00  0.00     0.023 A 
ATOM     82  C   UNL A   1      37.654  31.428  30.223  1.00  0.00     0.031 A 
ATOM     83  C   UNL A   1      38.620  30.444  32.198  1.00  0.00     0.131 A 
ATOM     84  C   UNL A   1      36.566  31.854  31.001  1.00  0.00     0.055 A 
ATOM     85  C   UNL A   1      37.516  30.833  32.959  1.00  0.00     0.041 A 
ATOM     86  F   UNL A   1      39.594  29.759  32.816  1.00  0.00    -0.206 F 
ATOM     87  C   UNL A   1      36.484  31.551  32.362  1.00  0.00     0.022 A 
BRANCH  84  88
ATOM     88  S   UNL A   1      35.275  32.857  30.215  1.00  0.00     0.124 S 
ATOM     89  O   UNL A   1      34.745  31.931  29.221  1.00  0.00    -0.237 OA
ATOM     90  O   UNL A   1      34.400  33.160  31.342  1.00  0.00    -0.237 OA
ATOM     91  O   UNL A   1      36.012  33.998  29.677  1.00  0.00    -0.744 OA
ENDBRANCH  84  88
ENDBRANCH  57  81
BRANCH  69  92
ATOM     92  C   UNL A   1      45.013  33.386  29.362  1.00  0.00     0.023 A 
ATOM     93  C   UNL A   1      45.792  33.625  30.506  1.00  0.00     0.031 A 
ATOM     94  C   UNL A   1      44.849  34.431  28.435  1.00  0.00     0.131 A 
ATOM     95  C   UNL A   1      46.351  34.895  30.711  1.00  0.00     0.055 A 
ATOM     96  C   UNL A   1      45.453  35.674  28.617  1.00  0.00     0.041 A 
ATOM     97  F   UNL A   1      44.112  34.252  27.327  1.00  0.00    -0.206 F 
ATOM     98  C   UNL A   1      46.203  35.914  29.764  1.00  0.00     0.022 A 
BRANCH  95  99
ATOM     99  S   UNL A   1      47.230  35.221  32.263  1.00  0.00     0.124 S 
ATOM    100  O   UNL A   1      46.587  36.448  32.722  1.00  0.00    -0.237 OA
ATOM    101  O   UNL A   1      46.943  34.021  33.043  1.00  0.00    -0.237 OA
ATOM    102  O   UNL A   1      48.622  35.368  31.844  1.00  0.00    -0.744 OA
ENDBRANCH  95  99
ENDBRANCH  69  92
ENDBRANCH  43  44
ENDBRANCH  35  38
ENDBRANCH  33  34
ENDBRANCH   1  33
TORSDOF 17
ENDMDL
