MODEL 1
REMARK VINA RESULT:     -12.1      0.000      0.000
REMARK SMILES O=C1C=C/C(=C\NCc2ccc(C(=O)NCCCNC(=O)c3ccc(-c4c5nc(c(-c6cc(S(=O)(=O)[O-])ccc6F)c6ccc([nH]6)c(-c6cc(S(=O)(=O)[O-])ccc6F)c6nc(c(-c7cc(S(=O)(=O)[O-])ccc7F)c7ccc4[nH]7)C=C6)C=C5)cc3)cc2)C=C1[N+](=O)[O-]
REMARK SMILES IDX 16 1 15 2 13 3 14 4 12 6 9 7 10 8 86 9 11 10 85 11 8 12 7 13
REMARK SMILES IDX 6 15 1 16 2 17 3 18 88 19 4 20 87 21 5 22 89 23 90 24 91 25
REMARK SMILES IDX 17 26 18 27 19 28 20 29 21 31 22 32 23 33 84 34 24 35 83 36
REMARK SMILES IDX 25 37 26 38 27 39 77 40 28 41 82 42 76 43 78 44 29 45 81 46
REMARK SMILES IDX 75 47 74 48 30 50 62 51 42 52 61 53 43 54 46 55 60 56 79 57
REMARK SMILES IDX 44 58 45 59 59 61 80 62 47 63 31 64 32 65 40 66 33 67 39 68
REMARK SMILES IDX 41 69 38 70 34 71 35 72 36 73 37 74 63 75 64 76 72 77 65 78
REMARK SMILES IDX 71 79 73 80 70 81 66 82 67 83 68 84 69 85 48 86 49 87 57 88
REMARK SMILES IDX 50 89 56 90 58 91 55 92 51 93 52 94 53 95 54 96
REMARK H PARENT 15 5 7 14 19 30 78 49 46 60
REMARK Flexibility Score: inf
ROOT
ATOM      1  C   UNL A   1      31.311  30.511  26.138  1.00  0.00     0.118 C 
ENDROOT
BRANCH   1   2
ATOM      2  N   UNL A   1      31.457  30.237  24.720  1.00  0.00    -0.352 N 
ATOM      3  C   UNL A   1      31.374  29.076  23.997  1.00  0.00     0.251 C 
ATOM      4  O   UNL A   1      31.452  29.155  22.771  1.00  0.00    -0.269 OA
ATOM      5  H   UNL A   1      31.654  31.034  24.177  1.00  0.00     0.163 HD
BRANCH   3   6
ATOM      6  C   UNL A   1      31.146  27.742  24.618  1.00  0.00     0.039 A 
ATOM      7  C   UNL A   1      30.854  25.255  25.919  1.00  0.00    -0.029 A 
ATOM      8  C   UNL A   1      31.961  26.068  26.188  1.00  0.00     0.006 A 
ATOM      9  C   UNL A   1      29.881  25.711  25.022  1.00  0.00     0.006 A 
ATOM     10  C   UNL A   1      32.106  27.297  25.540  1.00  0.00     0.014 A 
ATOM     11  C   UNL A   1      30.016  26.954  24.396  1.00  0.00     0.014 A 
BRANCH   7  12
ATOM     12  C   UNL A   1      30.651  23.955  26.655  1.00  0.00     0.148 C 
BRANCH  12  13
ATOM     13  N   UNL A   1      31.209  22.885  25.852  1.00  0.00    -0.386 N 
ATOM     14  H   UNL A   1      30.622  22.494  25.166  1.00  0.00     0.160 HD
BRANCH  13  15
ATOM     15  C   UNL A   1      32.477  22.362  25.951  1.00  0.00     0.086 C 
ATOM     16  O   UNL A   1      36.737  22.998  22.638  1.00  0.00    -0.282 OA
ATOM     17  C   UNL A   1      35.832  22.860  23.451  1.00  0.00     0.255 C 
ATOM     18  C   UNL A   1      34.567  23.611  23.214  1.00  0.00     0.060 C 
ATOM     19  C   UNL A   1      35.870  21.995  24.659  1.00  0.00     0.316 C 
ATOM     20  C   UNL A   1      33.505  23.462  24.017  1.00  0.00     0.014 C 
ATOM     21  C   UNL A   1      34.796  21.867  25.462  1.00  0.00     0.099 C 
ATOM     22  C   UNL A   1      33.548  22.562  25.159  1.00  0.00    -0.003 C 
BRANCH  19  23
ATOM     23  N   UNL A   1      37.062  21.232  24.991  1.00  0.00     0.067 N 
ATOM     24  O   UNL A   1      36.984  19.993  24.946  1.00  0.00    -0.258 OA
ATOM     25  O   UNL A   1      38.099  21.839  25.277  1.00  0.00    -0.258 OA
ENDBRANCH  19  23
ENDBRANCH  13  15
ENDBRANCH  12  13
ENDBRANCH   7  12
ENDBRANCH   3   6
ENDBRANCH   1   2
BRANCH   1  26
ATOM     26  C   UNL A   1      31.375  32.010  26.425  1.00  0.00     0.042 C 
BRANCH  26  27
ATOM     27  C   UNL A   1      32.653  32.439  27.141  1.00  0.00     0.118 C 
BRANCH  27  28
ATOM     28  N   UNL A   1      32.604  33.836  27.542  1.00  0.00    -0.352 N 
ATOM     29  C   UNL A   1      33.254  34.488  28.560  1.00  0.00     0.251 C 
ATOM     30  H   UNL A   1      32.013  34.404  26.996  1.00  0.00     0.163 HD
ATOM     31  O   UNL A   1      32.872  35.610  28.881  1.00  0.00    -0.269 OA
BRANCH  29  32
ATOM     32  C   UNL A   1      34.386  33.853  29.272  1.00  0.00     0.039 A 
ATOM     33  C   UNL A   1      35.689  34.231  28.932  1.00  0.00     0.014 A 
ATOM     34  C   UNL A   1      34.179  32.852  30.225  1.00  0.00     0.014 A 
ATOM     35  C   UNL A   1      36.777  33.640  29.580  1.00  0.00     0.010 A 
ATOM     36  C   UNL A   1      35.261  32.317  30.921  1.00  0.00     0.010 A 
ATOM     37  C   UNL A   1      36.571  32.696  30.599  1.00  0.00    -0.014 A 
BRANCH  37  38
ATOM     38  C   UNL A   1      37.719  32.095  31.326  1.00  0.00     0.031 A 
ATOM     39  C   UNL A   1      38.502  30.965  30.715  1.00  0.00     0.074 A 
ATOM     40  C   UNL A   1      38.023  32.535  32.561  1.00  0.00     0.049 A 
ATOM     41  N   UNL A   1      39.513  30.293  31.205  1.00  0.00    -0.248 NA
ATOM     42  C   UNL A   1      38.066  30.512  29.386  1.00  0.00     0.031 C 
ATOM     43  C   UNL A   1      37.315  33.600  33.276  1.00  0.00     0.029 A 
ATOM     44  N   UNL A   1      39.008  32.149  33.435  1.00  0.00    -0.354 N 
ATOM     45  C   UNL A   1      39.827  29.330  30.252  1.00  0.00     0.074 A 
ATOM     46  C   UNL A   1      38.850  29.463  29.191  1.00  0.00     0.031 C 
ATOM     47  C   UNL A   1      37.913  33.808  34.459  1.00  0.00     0.029 A 
ATOM     48  C   UNL A   1      39.017  32.866  34.607  1.00  0.00     0.049 A 
ATOM     49  H   UNL A   1      39.646  31.425  33.241  1.00  0.00     0.167 HD
ATOM     50  C   UNL A   1      40.850  28.437  30.249  1.00  0.00     0.034 A 
ATOM     51  C   UNL A   1      39.825  32.776  35.680  1.00  0.00     0.034 A 
ATOM     52  C   UNL A   1      41.812  28.320  31.319  1.00  0.00     0.049 A 
ATOM     53  C   UNL A   1      40.929  31.751  35.678  1.00  0.00     0.074 A 
ATOM     54  C   UNL A   1      42.922  27.496  31.401  1.00  0.00     0.029 A 
ATOM     55  N   UNL A   1      41.773  29.042  32.508  1.00  0.00    -0.354 N 
ATOM     56  N   UNL A   1      41.252  30.884  34.746  1.00  0.00    -0.248 NA
ATOM     57  C   UNL A   1      41.780  31.701  36.871  1.00  0.00     0.031 C 
ATOM     58  C   UNL A   1      43.505  27.663  32.663  1.00  0.00     0.029 A 
ATOM     59  C   UNL A   1      42.811  28.652  33.343  1.00  0.00     0.049 A 
ATOM     60  H   UNL A   1      41.103  29.730  32.726  1.00  0.00     0.167 HD
ATOM     61  C   UNL A   1      42.365  30.205  35.231  1.00  0.00     0.074 A 
ATOM     62  C   UNL A   1      42.663  30.775  36.530  1.00  0.00     0.031 C 
ATOM     63  C   UNL A   1      43.081  29.207  34.651  1.00  0.00     0.034 A 
BRANCH  50  64
ATOM     64  C   UNL A   1      40.940  27.498  29.065  1.00  0.00     0.023 A 
ATOM     65  C   UNL A   1      41.902  27.677  28.052  1.00  0.00     0.031 A 
ATOM     66  C   UNL A   1      40.013  26.454  28.905  1.00  0.00     0.131 A 
ATOM     67  C   UNL A   1      41.843  26.907  26.881  1.00  0.00     0.055 A 
ATOM     68  C   UNL A   1      40.022  25.624  27.780  1.00  0.00     0.041 A 
ATOM     69  F   UNL A   1      39.059  26.239  29.823  1.00  0.00    -0.206 F 
ATOM     70  C   UNL A   1      40.925  25.863  26.748  1.00  0.00     0.022 A 
BRANCH  67  71
ATOM     71  S   UNL A   1      42.845  27.422  25.458  1.00  0.00     0.124 S 
ATOM     72  O   UNL A   1      42.040  28.513  24.910  1.00  0.00    -0.237 OA
ATOM     73  O   UNL A   1      44.103  27.808  26.083  1.00  0.00    -0.237 OA
ATOM     74  O   UNL A   1      42.900  26.222  24.626  1.00  0.00    -0.744 OA
ENDBRANCH  67  71
ENDBRANCH  50  64
BRANCH  51  75
ATOM     75  C   UNL A   1      39.637  33.694  36.838  1.00  0.00     0.023 A 
ATOM     76  C   UNL A   1      39.015  33.244  38.013  1.00  0.00     0.031 A 
ATOM     77  C   UNL A   1      40.064  35.032  36.785  1.00  0.00     0.131 A 
ATOM     78  C   UNL A   1      38.809  34.133  39.078  1.00  0.00     0.055 A 
ATOM     79  C   UNL A   1      39.896  35.902  37.865  1.00  0.00     0.041 A 
ATOM     80  F   UNL A   1      40.674  35.507  35.688  1.00  0.00    -0.206 F 
ATOM     81  C   UNL A   1      39.257  35.455  39.018  1.00  0.00     0.022 A 
BRANCH  78  82
ATOM     82  S   UNL A   1      37.900  33.546  40.534  1.00  0.00     0.124 S 
ATOM     83  O   UNL A   1      37.721  34.780  41.290  1.00  0.00    -0.237 OA
ATOM     84  O   UNL A   1      36.697  32.980  39.932  1.00  0.00    -0.237 OA
ATOM     85  O   UNL A   1      38.811  32.572  41.133  1.00  0.00    -0.744 OA
ENDBRANCH  78  82
ENDBRANCH  51  75
BRANCH  63  86
ATOM     86  C   UNL A   1      44.278  28.695  35.418  1.00  0.00     0.023 A 
ATOM     87  C   UNL A   1      44.167  27.653  36.355  1.00  0.00     0.031 A 
ATOM     88  C   UNL A   1      45.542  29.286  35.235  1.00  0.00     0.131 A 
ATOM     89  C   UNL A   1      45.281  27.279  37.121  1.00  0.00     0.055 A 
ATOM     90  C   UNL A   1      46.662  28.863  35.952  1.00  0.00     0.041 A 
ATOM     91  F   UNL A   1      45.707  30.288  34.357  1.00  0.00    -0.206 F 
ATOM     92  C   UNL A   1      46.533  27.864  36.913  1.00  0.00     0.022 A 
BRANCH  89  93
ATOM     93  S   UNL A   1      45.049  26.092  38.474  1.00  0.00     0.124 S 
ATOM     94  O   UNL A   1      44.864  24.839  37.749  1.00  0.00    -0.237 OA
ATOM     95  O   UNL A   1      46.297  26.220  39.219  1.00  0.00    -0.237 OA
ATOM     96  O   UNL A   1      43.861  26.588  39.166  1.00  0.00    -0.744 OA
ENDBRANCH  89  93
ENDBRANCH  63  86
ENDBRANCH  37  38
ENDBRANCH  29  32
ENDBRANCH  27  28
ENDBRANCH  26  27
ENDBRANCH   1  26
TORSDOF 17
ENDMDL
MODEL 2
REMARK VINA RESULT:     -12.1      2.476      4.209
REMARK SMILES O=C1C=C/C(=C\NCc2ccc(C(=O)NCCCNC(=O)c3ccc(-c4c5nc(c(-c6cc(S(=O)(=O)[O-])ccc6F)c6ccc([nH]6)c(-c6cc(S(=O)(=O)[O-])ccc6F)c6nc(c(-c7cc(S(=O)(=O)[O-])ccc7F)c7ccc4[nH]7)C=C6)C=C5)cc3)cc2)C=C1[N+](=O)[O-]
REMARK SMILES IDX 16 1 15 2 13 3 14 4 12 6 9 7 10 8 86 9 11 10 85 11 8 12 7 13
REMARK SMILES IDX 6 15 1 16 2 17 3 18 88 19 4 20 87 21 5 22 89 23 90 24 91 25
REMARK SMILES IDX 17 26 18 27 19 28 20 29 21 31 22 32 23 33 84 34 24 35 83 36
REMARK SMILES IDX 25 37 26 38 27 39 77 40 28 41 82 42 76 43 78 44 29 45 81 46
REMARK SMILES IDX 75 47 74 48 30 50 62 51 42 52 61 53 43 54 46 55 60 56 79 57
REMARK SMILES IDX 44 58 45 59 59 61 80 62 47 63 31 64 32 65 40 66 33 67 39 68
REMARK SMILES IDX 41 69 38 70 34 71 35 72 36 73 37 74 63 75 64 76 72 77 65 78
REMARK SMILES IDX 71 79 73 80 70 81 66 82 67 83 68 84 69 85 48 86 49 87 57 88
REMARK SMILES IDX 50 89 56 90 58 91 55 92 51 93 52 94 53 95 54 96
REMARK H PARENT 15 5 7 14 19 30 78 49 46 60
REMARK Flexibility Score: inf
ROOT
ATOM      1  C   UNL A   1      31.851  30.650  26.821  1.00  0.00     0.118 C 
ENDROOT
BRANCH   1   2
ATOM      2  N   UNL A   1      33.067  30.227  27.492  1.00  0.00    -0.352 N 
ATOM      3  C   UNL A   1      33.959  29.222  27.225  1.00  0.00     0.251 C 
ATOM      4  O   UNL A   1      34.970  29.151  27.923  1.00  0.00    -0.269 OA
ATOM      5  H   UNL A   1      33.291  30.762  28.287  1.00  0.00     0.163 HD
BRANCH   3   6
ATOM      6  C   UNL A   1      33.786  28.252  26.109  1.00  0.00     0.039 A 
ATOM      7  C   UNL A   1      33.356  26.305  24.111  1.00  0.00    -0.029 A 
ATOM      8  C   UNL A   1      33.027  26.035  25.444  1.00  0.00     0.006 A 
ATOM      9  C   UNL A   1      33.868  27.566  23.783  1.00  0.00     0.006 A 
ATOM     10  C   UNL A   1      33.245  26.999  26.433  1.00  0.00     0.014 A 
ATOM     11  C   UNL A   1      34.060  28.537  24.769  1.00  0.00     0.014 A 
BRANCH   7  12
ATOM     12  C   UNL A   1      33.069  25.300  23.025  1.00  0.00     0.148 C 
BRANCH  12  13
ATOM     13  N   UNL A   1      31.878  25.725  22.316  1.00  0.00    -0.386 N 
ATOM     14  H   UNL A   1      31.308  25.015  21.943  1.00  0.00     0.160 HD
BRANCH  13  15
ATOM     15  C   UNL A   1      31.465  27.021  22.113  1.00  0.00     0.086 C 
ATOM     16  O   UNL A   1      26.773  29.396  23.483  1.00  0.00    -0.282 OA
ATOM     17  C   UNL A   1      27.870  28.934  23.197  1.00  0.00     0.255 C 
ATOM     18  C   UNL A   1      28.161  27.532  23.611  1.00  0.00     0.060 C 
ATOM     19  C   UNL A   1      28.947  29.640  22.456  1.00  0.00     0.316 C 
ATOM     20  C   UNL A   1      29.310  26.929  23.277  1.00  0.00     0.014 C 
ATOM     21  C   UNL A   1      30.101  29.022  22.140  1.00  0.00     0.099 C 
ATOM     22  C   UNL A   1      30.324  27.624  22.499  1.00  0.00    -0.003 C 
BRANCH  19  23
ATOM     23  N   UNL A   1      28.771  31.016  22.020  1.00  0.00     0.067 N 
ATOM     24  O   UNL A   1      28.504  31.211  20.823  1.00  0.00    -0.258 OA
ATOM     25  O   UNL A   1      28.870  31.923  22.852  1.00  0.00    -0.258 OA
ENDBRANCH  19  23
ENDBRANCH  13  15
ENDBRANCH  12  13
ENDBRANCH   7  12
ENDBRANCH   3   6
ENDBRANCH   1   2
BRANCH   1  26
ATOM     26  C   UNL A   1      31.698  32.169  26.851  1.00  0.00     0.042 C 
BRANCH  26  27
ATOM     27  C   UNL A   1      32.999  32.907  27.157  1.00  0.00     0.118 C 
BRANCH  27  28
ATOM     28  N   UNL A   1      32.752  34.203  27.771  1.00  0.00    -0.352 N 
ATOM     29  C   UNL A   1      33.250  34.741  28.931  1.00  0.00     0.251 C 
ATOM     30  H   UNL A   1      32.132  34.785  27.276  1.00  0.00     0.163 HD
ATOM     31  O   UNL A   1      32.713  35.743  29.395  1.00  0.00    -0.269 OA
BRANCH  29  32
ATOM     32  C   UNL A   1      34.405  34.124  29.624  1.00  0.00     0.039 A 
ATOM     33  C   UNL A   1      34.160  33.211  30.654  1.00  0.00     0.014 A 
ATOM     34  C   UNL A   1      35.719  34.480  29.308  1.00  0.00     0.014 A 
ATOM     35  C   UNL A   1      35.230  32.623  31.332  1.00  0.00     0.010 A 
ATOM     36  C   UNL A   1      36.785  33.838  29.935  1.00  0.00     0.010 A 
ATOM     37  C   UNL A   1      36.553  32.911  30.961  1.00  0.00    -0.014 A 
BRANCH  37  38
ATOM     38  C   UNL A   1      37.698  32.257  31.644  1.00  0.00     0.031 A 
ATOM     39  C   UNL A   1      38.454  31.145  30.970  1.00  0.00     0.074 A 
ATOM     40  C   UNL A   1      38.025  32.632  32.895  1.00  0.00     0.049 A 
ATOM     41  N   UNL A   1      39.460  30.434  31.415  1.00  0.00    -0.248 NA
ATOM     42  C   UNL A   1      37.995  30.763  29.627  1.00  0.00     0.031 C 
ATOM     43  C   UNL A   1      37.343  33.673  33.669  1.00  0.00     0.029 A 
ATOM     44  N   UNL A   1      39.013  32.188  33.737  1.00  0.00    -0.354 N 
ATOM     45  C   UNL A   1      39.746  29.512  30.412  1.00  0.00     0.074 A 
ATOM     46  C   UNL A   1      38.758  29.712  29.372  1.00  0.00     0.031 C 
ATOM     47  C   UNL A   1      37.959  33.815  34.853  1.00  0.00     0.029 A 
ATOM     48  C   UNL A   1      39.049  32.848  34.942  1.00  0.00     0.049 A 
ATOM     49  H   UNL A   1      39.636  31.464  33.500  1.00  0.00     0.167 HD
ATOM     50  C   UNL A   1      40.753  28.603  30.354  1.00  0.00     0.034 A 
ATOM     51  C   UNL A   1      39.868  32.693  35.999  1.00  0.00     0.034 A 
ATOM     52  C   UNL A   1      41.726  28.419  31.405  1.00  0.00     0.049 A 
ATOM     53  C   UNL A   1      40.954  31.652  35.934  1.00  0.00     0.074 A 
ATOM     54  C   UNL A   1      42.822  27.573  31.433  1.00  0.00     0.029 A 
ATOM     55  N   UNL A   1      41.713  29.084  32.627  1.00  0.00    -0.354 N 
ATOM     56  N   UNL A   1      41.251  30.825  34.957  1.00  0.00    -0.248 NA
ATOM     57  C   UNL A   1      41.818  31.530  37.112  1.00  0.00     0.031 C 
ATOM     58  C   UNL A   1      43.423  27.671  32.694  1.00  0.00     0.029 A 
ATOM     59  C   UNL A   1      42.754  28.637  33.429  1.00  0.00     0.049 A 
ATOM     60  H   UNL A   1      41.058  29.772  32.887  1.00  0.00     0.167 HD
ATOM     61  C   UNL A   1      42.357  30.104  35.395  1.00  0.00     0.074 A 
ATOM     62  C   UNL A   1      42.681  30.607  36.716  1.00  0.00     0.031 C 
ATOM     63  C   UNL A   1      43.049  29.124  34.759  1.00  0.00     0.034 A 
BRANCH  50  64
ATOM     64  C   UNL A   1      40.813  27.721  29.125  1.00  0.00     0.023 A 
ATOM     65  C   UNL A   1      41.743  27.952  28.095  1.00  0.00     0.031 A 
ATOM     66  C   UNL A   1      39.886  26.679  28.944  1.00  0.00     0.131 A 
ATOM     67  C   UNL A   1      41.653  27.238  26.891  1.00  0.00     0.055 A 
ATOM     68  C   UNL A   1      39.867  25.902  27.782  1.00  0.00     0.041 A 
ATOM     69  F   UNL A   1      38.961  26.416  29.879  1.00  0.00    -0.206 F 
ATOM     70  C   UNL A   1      40.737  26.195  26.736  1.00  0.00     0.022 A 
BRANCH  67  71
ATOM     71  S   UNL A   1      42.610  27.824  25.465  1.00  0.00     0.124 S 
ATOM     72  O   UNL A   1      42.744  26.601  24.676  1.00  0.00    -0.237 OA
ATOM     73  O   UNL A   1      41.743  28.853  24.906  1.00  0.00    -0.237 OA
ATOM     74  O   UNL A   1      43.853  28.309  26.062  1.00  0.00    -0.744 OA
ENDBRANCH  67  71
ENDBRANCH  50  64
BRANCH  51  75
ATOM     75  C   UNL A   1      39.710  33.558  37.201  1.00  0.00     0.023 A 
ATOM     76  C   UNL A   1      40.536  34.676  37.390  1.00  0.00     0.031 A 
ATOM     77  C   UNL A   1      38.742  33.277  38.180  1.00  0.00     0.131 A 
ATOM     78  C   UNL A   1      40.401  35.457  38.548  1.00  0.00     0.055 A 
ATOM     79  C   UNL A   1      38.581  34.082  39.310  1.00  0.00     0.041 A 
ATOM     80  F   UNL A   1      37.920  32.225  38.040  1.00  0.00    -0.206 F 
ATOM     81  C   UNL A   1      39.420  35.175  39.502  1.00  0.00     0.022 A 
BRANCH  78  82
ATOM     82  S   UNL A   1      41.562  36.825  38.812  1.00  0.00     0.124 S 
ATOM     83  O   UNL A   1      42.136  36.989  37.482  1.00  0.00    -0.237 OA
ATOM     84  O   UNL A   1      40.676  37.892  39.267  1.00  0.00    -0.237 OA
ATOM     85  O   UNL A   1      42.476  36.303  39.828  1.00  0.00    -0.744 OA
ENDBRANCH  78  82
ENDBRANCH  51  75
BRANCH  63  86
ATOM     86  C   UNL A   1      44.247  28.556  35.486  1.00  0.00     0.023 A 
ATOM     87  C   UNL A   1      44.120  27.515  36.421  1.00  0.00     0.031 A 
ATOM     88  C   UNL A   1      45.529  29.092  35.265  1.00  0.00     0.131 A 
ATOM     89  C   UNL A   1      45.240  27.088  37.150  1.00  0.00     0.055 A 
ATOM     90  C   UNL A   1      46.651  28.617  35.944  1.00  0.00     0.041 A 
ATOM     91  F   UNL A   1      45.710  30.092  34.387  1.00  0.00    -0.206 F 
ATOM     92  C   UNL A   1      46.509  27.619  36.904  1.00  0.00     0.022 A 
BRANCH  89  93
ATOM     93  S   UNL A   1      44.999  25.905  38.504  1.00  0.00     0.124 S 
ATOM     94  O   UNL A   1      44.303  26.717  39.496  1.00  0.00    -0.237 OA
ATOM     95  O   UNL A   1      44.207  24.858  37.866  1.00  0.00    -0.237 OA
ATOM     96  O   UNL A   1      46.361  25.516  38.867  1.00  0.00    -0.744 OA
ENDBRANCH  89  93
ENDBRANCH  63  86
ENDBRANCH  37  38
ENDBRANCH  29  32
ENDBRANCH  27  28
ENDBRANCH  26  27
ENDBRANCH   1  26
TORSDOF 17
ENDMDL
MODEL 3
REMARK VINA RESULT:     -12.0      2.999      8.398
REMARK SMILES O=C1C=C/C(=C\NCc2ccc(C(=O)NCCCNC(=O)c3ccc(-c4c5nc(c(-c6cc(S(=O)(=O)[O-])ccc6F)c6ccc([nH]6)c(-c6cc(S(=O)(=O)[O-])ccc6F)c6nc(c(-c7cc(S(=O)(=O)[O-])ccc7F)c7ccc4[nH]7)C=C6)C=C5)cc3)cc2)C=C1[N+](=O)[O-]
REMARK SMILES IDX 16 1 15 2 13 3 14 4 12 6 9 7 10 8 86 9 11 10 85 11 8 12 7 13
REMARK SMILES IDX 6 15 1 16 2 17 3 18 88 19 4 20 87 21 5 22 89 23 90 24 91 25
REMARK SMILES IDX 17 26 18 27 19 28 20 29 21 31 22 32 23 33 84 34 24 35 83 36
REMARK SMILES IDX 25 37 26 38 27 39 77 40 28 41 82 42 76 43 78 44 29 45 81 46
REMARK SMILES IDX 75 47 74 48 30 50 62 51 42 52 61 53 43 54 46 55 60 56 79 57
REMARK SMILES IDX 44 58 45 59 59 61 80 62 47 63 31 64 32 65 40 66 33 67 39 68
REMARK SMILES IDX 41 69 38 70 34 71 35 72 36 73 37 74 63 75 64 76 72 77 65 78
REMARK SMILES IDX 71 79 73 80 70 81 66 82 67 83 68 84 69 85 48 86 49 87 57 88
REMARK SMILES IDX 50 89 56 90 58 91 55 92 51 93 52 94 53 95 54 96
REMARK H PARENT 15 5 7 14 19 30 78 49 46 60
REMARK Flexibility Score: inf
ROOT
ATOM      1  C   UNL A   1      32.998  28.800  24.672  1.00  0.00     0.118 C 
ENDROOT
BRANCH   1   2
ATOM      2  N   UNL A   1      31.947  27.924  24.187  1.00  0.00    -0.352 N 
ATOM      3  C   UNL A   1      31.803  26.562  24.215  1.00  0.00     0.251 C 
ATOM      4  O   UNL A   1      30.745  26.087  23.803  1.00  0.00    -0.269 OA
ATOM      5  H   UNL A   1      31.199  28.398  23.756  1.00  0.00     0.163 HD
BRANCH   3   6
ATOM      6  C   UNL A   1      32.839  25.643  24.761  1.00  0.00     0.039 A 
ATOM      7  C   UNL A   1      34.669  23.833  25.919  1.00  0.00    -0.029 A 
ATOM      8  C   UNL A   1      33.426  24.061  26.518  1.00  0.00     0.006 A 
ATOM      9  C   UNL A   1      34.974  24.490  24.721  1.00  0.00     0.006 A 
ATOM     10  C   UNL A   1      32.522  24.961  25.946  1.00  0.00     0.014 A 
ATOM     11  C   UNL A   1      34.057  25.369  24.137  1.00  0.00     0.014 A 
BRANCH   7  12
ATOM     12  C   UNL A   1      35.629  22.819  26.488  1.00  0.00     0.148 C 
BRANCH  12  13
ATOM     13  N   UNL A   1      36.314  22.173  25.386  1.00  0.00    -0.386 N 
ATOM     14  H   UNL A   1      36.906  22.738  24.840  1.00  0.00     0.160 HD
BRANCH  13  15
ATOM     15  C   UNL A   1      36.219  20.849  25.028  1.00  0.00     0.086 C 
ATOM     16  O   UNL A   1      31.856  17.611  24.924  1.00  0.00    -0.282 OA
ATOM     17  C   UNL A   1      32.865  18.303  24.874  1.00  0.00     0.255 C 
ATOM     18  C   UNL A   1      32.728  19.751  25.194  1.00  0.00     0.060 C 
ATOM     19  C   UNL A   1      34.231  17.829  24.533  1.00  0.00     0.316 C 
ATOM     20  C   UNL A   1      33.793  20.563  25.231  1.00  0.00     0.014 C 
ATOM     21  C   UNL A   1      35.289  18.662  24.562  1.00  0.00     0.099 C 
ATOM     22  C   UNL A   1      35.129  20.061  24.951  1.00  0.00    -0.003 C 
BRANCH  19  23
ATOM     23  N   UNL A   1      34.471  16.437  24.189  1.00  0.00     0.067 N 
ATOM     24  O   UNL A   1      35.028  15.721  25.037  1.00  0.00    -0.258 OA
ATOM     25  O   UNL A   1      34.096  16.020  23.089  1.00  0.00    -0.258 OA
ENDBRANCH  19  23
ENDBRANCH  13  15
ENDBRANCH  12  13
ENDBRANCH   7  12
ENDBRANCH   3   6
ENDBRANCH   1   2
BRANCH   1  26
ATOM     26  C   UNL A   1      32.594  29.486  25.976  1.00  0.00     0.042 C 
BRANCH  26  27
ATOM     27  C   UNL A   1      33.779  29.843  26.869  1.00  0.00     0.118 C 
BRANCH  27  28
ATOM     28  N   UNL A   1      33.690  31.209  27.361  1.00  0.00    -0.352 N 
ATOM     29  C   UNL A   1      34.448  31.862  28.301  1.00  0.00     0.251 C 
ATOM     30  H   UNL A   1      32.975  31.751  26.955  1.00  0.00     0.163 HD
ATOM     31  O   UNL A   1      34.041  32.929  28.751  1.00  0.00    -0.269 OA
BRANCH  29  32
ATOM     32  C   UNL A   1      35.729  31.291  28.779  1.00  0.00     0.039 A 
ATOM     33  C   UNL A   1      35.691  30.234  29.694  1.00  0.00     0.014 A 
ATOM     34  C   UNL A   1      36.958  31.822  28.379  1.00  0.00     0.014 A 
ATOM     35  C   UNL A   1      36.884  29.684  30.170  1.00  0.00     0.010 A 
ATOM     36  C   UNL A   1      38.145  31.225  28.798  1.00  0.00     0.010 A 
ATOM     37  C   UNL A   1      38.122  30.157  29.706  1.00  0.00    -0.014 A 
BRANCH  37  38
ATOM     38  C   UNL A   1      39.395  29.549  30.170  1.00  0.00     0.031 A 
ATOM     39  C   UNL A   1      40.105  30.094  31.379  1.00  0.00     0.074 A 
ATOM     40  C   UNL A   1      39.938  28.534  29.470  1.00  0.00     0.049 A 
ATOM     41  N   UNL A   1      41.237  29.718  31.919  1.00  0.00    -0.248 NA
ATOM     42  C   UNL A   1      39.469  31.236  32.051  1.00  0.00     0.031 C 
ATOM     43  C   UNL A   1      39.363  27.943  28.259  1.00  0.00     0.029 A 
ATOM     44  N   UNL A   1      41.090  27.818  29.674  1.00  0.00    -0.354 N 
ATOM     45  C   UNL A   1      41.455  30.584  32.985  1.00  0.00     0.074 A 
ATOM     46  C   UNL A   1      40.373  31.546  32.965  1.00  0.00     0.031 C 
ATOM     47  C   UNL A   1      40.143  26.929  27.853  1.00  0.00     0.029 A 
ATOM     48  C   UNL A   1      41.293  26.825  28.746  1.00  0.00     0.049 A 
ATOM     49  H   UNL A   1      41.712  28.000  30.415  1.00  0.00     0.167 HD
ATOM     50  C   UNL A   1      42.450  30.563  33.909  1.00  0.00     0.034 A 
ATOM     51  C   UNL A   1      42.293  25.932  28.627  1.00  0.00     0.034 A 
ATOM     52  C   UNL A   1      43.521  29.594  33.909  1.00  0.00     0.049 A 
ATOM     53  C   UNL A   1      43.410  25.948  29.637  1.00  0.00     0.074 A 
ATOM     54  C   UNL A   1      44.549  29.438  34.824  1.00  0.00     0.029 A 
ATOM     55  N   UNL A   1      43.714  28.620  32.934  1.00  0.00    -0.354 N 
ATOM     56  N   UNL A   1      43.575  26.736  30.675  1.00  0.00    -0.248 NA
ATOM     57  C   UNL A   1      44.469  24.950  29.460  1.00  0.00     0.031 C 
ATOM     58  C   UNL A   1      45.400  28.426  34.363  1.00  0.00     0.029 A 
ATOM     59  C   UNL A   1      44.864  27.891  33.203  1.00  0.00     0.049 A 
ATOM     60  H   UNL A   1      43.121  28.472  32.162  1.00  0.00     0.167 HD
ATOM     61  C   UNL A   1      44.746  26.306  31.293  1.00  0.00     0.074 A 
ATOM     62  C   UNL A   1      45.233  25.181  30.517  1.00  0.00     0.031 C 
ATOM     63  C   UNL A   1      45.357  26.790  32.405  1.00  0.00     0.034 A 
BRANCH  50  64
ATOM     64  C   UNL A   1      42.432  31.648  34.965  1.00  0.00     0.023 A 
ATOM     65  C   UNL A   1      41.518  31.623  36.035  1.00  0.00     0.031 A 
ATOM     66  C   UNL A   1      43.289  32.758  34.866  1.00  0.00     0.131 A 
ATOM     67  C   UNL A   1      41.402  32.730  36.888  1.00  0.00     0.055 A 
ATOM     68  C   UNL A   1      43.237  33.814  35.780  1.00  0.00     0.041 A 
ATOM     69  F   UNL A   1      44.172  32.854  33.860  1.00  0.00    -0.206 F 
ATOM     70  C   UNL A   1      42.273  33.817  36.785  1.00  0.00     0.022 A 
BRANCH  67  71
ATOM     71  S   UNL A   1      39.969  32.818  37.998  1.00  0.00     0.124 S 
ATOM     72  O   UNL A   1      39.039  31.893  37.353  1.00  0.00    -0.237 OA
ATOM     73  O   UNL A   1      40.529  32.379  39.270  1.00  0.00    -0.237 OA
ATOM     74  O   UNL A   1      39.576  34.224  37.940  1.00  0.00    -0.744 OA
ENDBRANCH  67  71
ENDBRANCH  50  64
BRANCH  51  75
ATOM     75  C   UNL A   1      42.274  24.930  27.524  1.00  0.00     0.023 A 
ATOM     76  C   UNL A   1      41.495  23.767  27.629  1.00  0.00     0.031 A 
ATOM     77  C   UNL A   1      43.038  25.114  26.360  1.00  0.00     0.131 A 
ATOM     78  C   UNL A   1      41.521  22.815  26.598  1.00  0.00     0.055 A 
ATOM     79  C   UNL A   1      43.027  24.184  25.317  1.00  0.00     0.041 A 
ATOM     80  F   UNL A   1      43.791  26.215  26.207  1.00  0.00    -0.206 F 
ATOM     81  C   UNL A   1      42.270  23.022  25.438  1.00  0.00     0.022 A 
BRANCH  78  82
ATOM     82  S   UNL A   1      40.592  21.274  26.820  1.00  0.00     0.124 S 
ATOM     83  O   UNL A   1      39.253  21.670  26.398  1.00  0.00    -0.237 OA
ATOM     84  O   UNL A   1      41.302  20.361  25.930  1.00  0.00    -0.237 OA
ATOM     85  O   UNL A   1      40.740  20.990  28.246  1.00  0.00    -0.744 OA
ENDBRANCH  78  82
ENDBRANCH  51  75
BRANCH  63  86
ATOM     86  C   UNL A   1      46.608  26.074  32.858  1.00  0.00     0.023 A 
ATOM     87  C   UNL A   1      46.557  24.981  33.741  1.00  0.00     0.031 A 
ATOM     88  C   UNL A   1      47.873  26.517  32.429  1.00  0.00     0.131 A 
ATOM     89  C   UNL A   1      47.747  24.411  34.218  1.00  0.00     0.055 A 
ATOM     90  C   UNL A   1      49.051  25.902  32.854  1.00  0.00     0.041 A 
ATOM     91  F   UNL A   1      47.983  27.559  31.589  1.00  0.00    -0.206 F 
ATOM     92  C   UNL A   1      48.994  24.852  33.766  1.00  0.00     0.022 A 
BRANCH  89  93
ATOM     93  S   UNL A   1      47.648  23.156  35.525  1.00  0.00     0.124 S 
ATOM     94  O   UNL A   1      47.577  21.920  34.753  1.00  0.00    -0.237 OA
ATOM     95  O   UNL A   1      48.887  23.377  36.264  1.00  0.00    -0.237 OA
ATOM     96  O   UNL A   1      46.426  23.507  36.247  1.00  0.00    -0.744 OA
ENDBRANCH  89  93
ENDBRANCH  63  86
ENDBRANCH  37  38
ENDBRANCH  29  32
ENDBRANCH  27  28
ENDBRANCH  26  27
ENDBRANCH   1  26
TORSDOF 17
ENDMDL
