MODEL 1
REMARK VINA RESULT:     -13.0      0.000      0.000
REMARK SMILES Cc1cccc(CC(=O)N2CCCC[C@@H]2C(=O)NCCCNC(=O)c2ccc(-c3c4nc(c(-c5cc(S(=O)(=O)[O-])ccc5F)c5ccc([nH]5)c(-c5cc(S(=O)(=O)[O-])ccc5F)c5nc(c(-c6cc(S(=O)(=O)[O-])ccc6F)c6ccc3[nH]6)C=C5)C=C4)cc2)c1
REMARK SMILES IDX 20 1 19 2 18 3 16 4 17 5 15 7 10 8 11 9 12 10 14 11 13 12
REMARK SMILES IDX 8 13 9 14 7 15 6 16 1 17 2 18 3 19 88 20 4 21 5 22 21 23
REMARK SMILES IDX 22 24 23 25 24 27 25 28 26 29 87 30 27 31 86 32 28 33 29 34
REMARK SMILES IDX 30 35 80 36 31 37 85 38 79 39 81 40 32 41 84 42 78 43 77 44
REMARK SMILES IDX 33 46 65 47 45 48 64 49 46 50 49 51 63 52 82 53 47 54 48 55
REMARK SMILES IDX 62 57 83 58 50 59 34 60 35 61 43 62 36 63 42 64 44 65 41 66
REMARK SMILES IDX 37 67 38 68 39 69 40 70 66 71 67 72 75 73 68 74 74 75 76 76
REMARK SMILES IDX 73 77 69 78 70 79 71 80 72 81 51 82 52 83 60 84 53 85 59 86
REMARK SMILES IDX 61 87 58 88 54 89 55 90 56 91 57 92
REMARK H PARENT 18 6 22 26 81 45 49 56
REMARK Flexibility Score: inf
ROOT
ATOM      1  C   UNL A   1      33.119  31.129  27.258  1.00  0.00     0.042 C 
ENDROOT
BRANCH   1   2
ATOM      2  C   UNL A   1      32.245  30.018  26.701  1.00  0.00     0.117 C 
BRANCH   2   3
ATOM      3  N   UNL A   1      32.446  29.839  25.270  1.00  0.00    -0.354 N 
ATOM      4  C   UNL A   1      31.987  28.867  24.428  1.00  0.00     0.242 C 
ATOM      5  O   UNL A   1      32.412  28.875  23.264  1.00  0.00    -0.273 OA
ATOM      6  H   UNL A   1      33.002  30.529  24.842  1.00  0.00     0.163 HD
BRANCH   4   7
ATOM      7  C   UNL A   1      31.236  27.618  24.951  1.00  0.00     0.174 C 
ATOM      8  N   UNL A   1      31.975  26.332  25.054  1.00  0.00    -0.330 N 
ATOM      9  C   UNL A   1      31.239  25.102  24.749  1.00  0.00     0.120 C 
ATOM     10  C   UNL A   1      30.343  25.185  23.533  1.00  0.00     0.022 C 
ATOM     11  C   UNL A   1      30.037  27.596  23.947  1.00  0.00     0.035 C 
ATOM     12  C   UNL A   1      29.322  26.277  23.753  1.00  0.00     0.004 C 
BRANCH   8  13
ATOM     13  C   UNL A   1      33.171  26.099  25.751  1.00  0.00     0.227 C 
ATOM     14  O   UNL A   1      33.952  27.050  25.918  1.00  0.00    -0.275 OA
BRANCH  13  15
ATOM     15  C   UNL A   1      33.711  24.713  26.075  1.00  0.00     0.135 C 
BRANCH  15  16
ATOM     16  C   UNL A   1      34.772  24.051  25.250  1.00  0.00    -0.038 A 
ATOM     17  C   UNL A   1      38.169  22.398  25.791  1.00  0.00     0.044 C 
ATOM     18  C   UNL A   1      36.924  22.897  25.128  1.00  0.00    -0.051 A 
ATOM     19  C   UNL A   1      36.765  22.771  23.747  1.00  0.00     0.003 A 
ATOM     20  C   UNL A   1      35.931  23.553  25.867  1.00  0.00     0.007 A 
ATOM     21  C   UNL A   1      35.604  23.236  23.134  1.00  0.00     0.001 A 
ATOM     22  C   UNL A   1      34.593  23.835  23.882  1.00  0.00     0.004 A 
ENDBRANCH  15  16
ENDBRANCH  13  15
ENDBRANCH   8  13
ENDBRANCH   4   7
ENDBRANCH   2   3
ENDBRANCH   1   2
BRANCH   1  23
ATOM     23  C   UNL A   1      34.492  30.629  27.681  1.00  0.00     0.118 C 
BRANCH  23  24
ATOM     24  N   UNL A   1      35.080  31.388  28.776  1.00  0.00    -0.352 N 
ATOM     25  C   UNL A   1      36.153  31.061  29.592  1.00  0.00     0.251 C 
ATOM     26  H   UNL A   1      34.656  32.257  28.964  1.00  0.00     0.163 HD
ATOM     27  O   UNL A   1      36.496  31.777  30.508  1.00  0.00    -0.269 OA
BRANCH  25  28
ATOM     28  C   UNL A   1      36.975  29.878  29.228  1.00  0.00     0.039 A 
ATOM     29  C   UNL A   1      37.254  28.962  30.250  1.00  0.00     0.014 A 
ATOM     30  C   UNL A   1      37.639  29.800  28.008  1.00  0.00     0.014 A 
ATOM     31  C   UNL A   1      38.353  28.119  30.131  1.00  0.00     0.010 A 
ATOM     32  C   UNL A   1      38.792  29.045  27.929  1.00  0.00     0.010 A 
ATOM     33  C   UNL A   1      39.182  28.254  29.014  1.00  0.00    -0.014 A 
BRANCH  33  34
ATOM     34  C   UNL A   1      40.543  27.735  28.984  1.00  0.00     0.031 A 
ATOM     35  C   UNL A   1      40.822  26.366  28.524  1.00  0.00     0.074 A 
ATOM     36  C   UNL A   1      41.565  28.535  29.357  1.00  0.00     0.049 A 
ATOM     37  N   UNL A   1      41.804  25.643  28.944  1.00  0.00    -0.248 NA
ATOM     38  C   UNL A   1      39.962  25.683  27.567  1.00  0.00     0.031 C 
ATOM     39  C   UNL A   1      42.995  28.297  29.188  1.00  0.00     0.029 A 
ATOM     40  N   UNL A   1      41.501  29.657  30.175  1.00  0.00    -0.354 N 
ATOM     41  C   UNL A   1      41.878  24.537  28.128  1.00  0.00     0.074 A 
ATOM     42  C   UNL A   1      40.668  24.575  27.338  1.00  0.00     0.031 C 
ATOM     43  C   UNL A   1      43.658  29.035  30.094  1.00  0.00     0.029 A 
ATOM     44  C   UNL A   1      42.664  29.663  30.952  1.00  0.00     0.049 A 
ATOM     45  H   UNL A   1      40.775  30.322  30.202  1.00  0.00     0.167 HD
ATOM     46  C   UNL A   1      43.020  23.789  28.096  1.00  0.00     0.034 A 
ATOM     47  C   UNL A   1      42.659  29.658  32.314  1.00  0.00     0.034 A 
ATOM     48  C   UNL A   1      44.030  24.301  29.024  1.00  0.00     0.049 A 
ATOM     49  C   UNL A   1      43.396  28.458  32.870  1.00  0.00     0.074 A 
ATOM     50  C   UNL A   1      45.146  25.101  28.836  1.00  0.00     0.029 A 
ATOM     51  N   UNL A   1      43.806  24.260  30.398  1.00  0.00    -0.354 N 
ATOM     52  N   UNL A   1      43.708  27.403  32.166  1.00  0.00    -0.248 NA
ATOM     53  C   UNL A   1      43.795  28.334  34.268  1.00  0.00     0.031 C 
ATOM     54  C   UNL A   1      45.542  25.608  30.101  1.00  0.00     0.029 A 
ATOM     55  C   UNL A   1      44.694  25.087  31.064  1.00  0.00     0.049 A 
ATOM     56  H   UNL A   1      43.111  23.717  30.836  1.00  0.00     0.167 HD
ATOM     57  C   UNL A   1      44.291  26.466  32.977  1.00  0.00     0.074 A 
ATOM     58  C   UNL A   1      44.351  27.111  34.279  1.00  0.00     0.031 C 
ATOM     59  C   UNL A   1      44.652  25.230  32.515  1.00  0.00     0.034 A 
BRANCH  46  60
ATOM     60  C   UNL A   1      43.326  22.828  26.966  1.00  0.00     0.023 A 
ATOM     61  C   UNL A   1      42.811  21.516  27.003  1.00  0.00     0.031 A 
ATOM     62  C   UNL A   1      44.158  23.116  25.867  1.00  0.00     0.131 A 
ATOM     63  C   UNL A   1      43.223  20.539  26.076  1.00  0.00     0.055 A 
ATOM     64  C   UNL A   1      44.631  22.129  24.990  1.00  0.00     0.041 A 
ATOM     65  F   UNL A   1      44.509  24.375  25.567  1.00  0.00    -0.206 F 
ATOM     66  C   UNL A   1      44.178  20.825  25.106  1.00  0.00     0.022 A 
BRANCH  63  67
ATOM     67  S   UNL A   1      42.480  18.886  26.145  1.00  0.00     0.124 S 
ATOM     68  O   UNL A   1      41.110  19.139  25.711  1.00  0.00    -0.237 OA
ATOM     69  O   UNL A   1      43.322  18.133  25.221  1.00  0.00    -0.237 OA
ATOM     70  O   UNL A   1      42.621  18.508  27.551  1.00  0.00    -0.744 OA
ENDBRANCH  63  67
ENDBRANCH  46  60
BRANCH  47  71
ATOM     71  C   UNL A   1      41.444  30.270  32.926  1.00  0.00     0.023 A 
ATOM     72  C   UNL A   1      41.351  31.679  32.960  1.00  0.00     0.031 A 
ATOM     73  C   UNL A   1      40.266  29.528  33.106  1.00  0.00     0.131 A 
ATOM     74  C   UNL A   1      40.094  32.298  33.033  1.00  0.00     0.055 A 
ATOM     75  C   UNL A   1      39.021  30.155  33.230  1.00  0.00     0.041 A 
ATOM     76  F   UNL A   1      40.283  28.190  33.027  1.00  0.00    -0.206 F 
ATOM     77  C   UNL A   1      38.927  31.543  33.163  1.00  0.00     0.022 A 
BRANCH  74  78
ATOM     78  S   UNL A   1      39.934  34.095  32.816  1.00  0.00     0.124 S 
ATOM     79  O   UNL A   1      41.287  34.486  32.434  1.00  0.00    -0.237 OA
ATOM     80  O   UNL A   1      38.927  34.220  31.766  1.00  0.00    -0.237 OA
ATOM     81  O   UNL A   1      39.501  34.518  34.146  1.00  0.00    -0.744 OA
ENDBRANCH  74  78
ENDBRANCH  47  71
BRANCH  59  82
ATOM     82  C   UNL A   1      45.087  24.078  33.392  1.00  0.00     0.023 A 
ATOM     83  C   UNL A   1      46.384  23.964  33.917  1.00  0.00     0.031 A 
ATOM     84  C   UNL A   1      44.169  23.082  33.799  1.00  0.00     0.131 A 
ATOM     85  C   UNL A   1      46.755  22.861  34.705  1.00  0.00     0.055 A 
ATOM     86  C   UNL A   1      44.517  22.033  34.656  1.00  0.00     0.041 A 
ATOM     87  F   UNL A   1      42.894  23.088  33.385  1.00  0.00    -0.206 F 
ATOM     88  C   UNL A   1      45.825  21.905  35.098  1.00  0.00     0.022 A 
BRANCH  85  89
ATOM     89  S   UNL A   1      48.505  22.668  35.134  1.00  0.00     0.124 S 
ATOM     90  O   UNL A   1      49.089  23.876  34.555  1.00  0.00    -0.237 OA
ATOM     91  O   UNL A   1      48.468  22.618  36.592  1.00  0.00    -0.237 OA
ATOM     92  O   UNL A   1      48.886  21.419  34.478  1.00  0.00    -0.744 OA
ENDBRANCH  85  89
ENDBRANCH  59  82
ENDBRANCH  33  34
ENDBRANCH  25  28
ENDBRANCH  23  24
ENDBRANCH   1  23
TORSDOF 16
ENDMDL
MODEL 2
REMARK VINA RESULT:     -12.8      4.617     10.726
REMARK SMILES Cc1cccc(CC(=O)N2CCCC[C@@H]2C(=O)NCCCNC(=O)c2ccc(-c3c4nc(c(-c5cc(S(=O)(=O)[O-])ccc5F)c5ccc([nH]5)c(-c5cc(S(=O)(=O)[O-])ccc5F)c5nc(c(-c6cc(S(=O)(=O)[O-])ccc6F)c6ccc3[nH]6)C=C5)C=C4)cc2)c1
REMARK SMILES IDX 20 1 19 2 18 3 16 4 17 5 15 7 10 8 11 9 12 10 14 11 13 12
REMARK SMILES IDX 8 13 9 14 7 15 6 16 1 17 2 18 3 19 88 20 4 21 5 22 21 23
REMARK SMILES IDX 22 24 23 25 24 27 25 28 26 29 87 30 27 31 86 32 28 33 29 34
REMARK SMILES IDX 30 35 80 36 31 37 85 38 79 39 81 40 32 41 84 42 78 43 77 44
REMARK SMILES IDX 33 46 65 47 45 48 64 49 46 50 49 51 63 52 82 53 47 54 48 55
REMARK SMILES IDX 62 57 83 58 50 59 34 60 35 61 43 62 36 63 42 64 44 65 41 66
REMARK SMILES IDX 37 67 38 68 39 69 40 70 66 71 67 72 75 73 68 74 74 75 76 76
REMARK SMILES IDX 73 77 69 78 70 79 71 80 72 81 51 82 52 83 60 84 53 85 59 86
REMARK SMILES IDX 61 87 58 88 54 89 55 90 56 91 57 92
REMARK H PARENT 18 6 22 26 81 45 49 56
REMARK Flexibility Score: inf
ROOT
ATOM      1  C   UNL A   1      38.001  21.739  25.616  1.00  0.00     0.042 C 
ENDROOT
BRANCH   1   2
ATOM      2  C   UNL A   1      36.517  21.772  25.284  1.00  0.00     0.117 C 
BRANCH   2   3
ATOM      3  N   UNL A   1      35.696  21.525  26.461  1.00  0.00    -0.354 N 
ATOM      4  C   UNL A   1      34.405  21.882  26.728  1.00  0.00     0.242 C 
ATOM      5  O   UNL A   1      33.977  21.657  27.869  1.00  0.00    -0.273 OA
ATOM      6  H   UNL A   1      36.143  21.021  27.178  1.00  0.00     0.163 HD
BRANCH   4   7
ATOM      7  C   UNL A   1      33.602  22.814  25.788  1.00  0.00     0.174 C 
ATOM      8  N   UNL A   1      33.332  22.364  24.397  1.00  0.00    -0.330 N 
ATOM      9  C   UNL A   1      33.345  23.381  23.341  1.00  0.00     0.120 C 
ATOM     10  C   UNL A   1      34.473  24.384  23.442  1.00  0.00     0.022 C 
ATOM     11  C   UNL A   1      34.477  24.106  25.891  1.00  0.00     0.035 C 
ATOM     12  C   UNL A   1      34.367  25.107  24.764  1.00  0.00     0.004 C 
BRANCH   8  13
ATOM     13  C   UNL A   1      32.711  21.169  24.000  1.00  0.00     0.227 C 
ATOM     14  O   UNL A   1      32.202  21.115  22.868  1.00  0.00    -0.275 OA
BRANCH  13  15
ATOM     15  C   UNL A   1      32.370  20.031  24.951  1.00  0.00     0.135 C 
BRANCH  15  16
ATOM     16  C   UNL A   1      33.089  18.717  24.922  1.00  0.00    -0.038 A 
ATOM     17  C   UNL A   1      32.322  15.044  25.622  1.00  0.00     0.044 C 
ATOM     18  C   UNL A   1      33.046  16.290  25.218  1.00  0.00    -0.051 A 
ATOM     19  C   UNL A   1      34.389  16.232  24.842  1.00  0.00     0.003 A 
ATOM     20  C   UNL A   1      32.410  17.538  25.271  1.00  0.00     0.007 A 
ATOM     21  C   UNL A   1      35.058  17.394  24.466  1.00  0.00     0.001 A 
ATOM     22  C   UNL A   1      34.405  18.624  24.464  1.00  0.00     0.004 A 
ENDBRANCH  15  16
ENDBRANCH  13  15
ENDBRANCH   8  13
ENDBRANCH   4   7
ENDBRANCH   2   3
ENDBRANCH   1   2
BRANCH   1  23
ATOM     23  C   UNL A   1      38.512  23.083  26.111  1.00  0.00     0.118 C 
BRANCH  23  24
ATOM     24  N   UNL A   1      39.947  23.107  26.364  1.00  0.00    -0.352 N 
ATOM     25  C   UNL A   1      40.757  24.176  26.715  1.00  0.00     0.251 C 
ATOM     26  H   UNL A   1      40.407  22.241  26.272  1.00  0.00     0.163 HD
ATOM     27  O   UNL A   1      41.956  24.051  26.838  1.00  0.00    -0.269 OA
BRANCH  25  28
ATOM     28  C   UNL A   1      40.103  25.458  27.086  1.00  0.00     0.039 A 
ATOM     29  C   UNL A   1      40.558  26.612  26.435  1.00  0.00     0.014 A 
ATOM     30  C   UNL A   1      39.261  25.554  28.189  1.00  0.00     0.014 A 
ATOM     31  C   UNL A   1      40.354  27.854  27.025  1.00  0.00     0.010 A 
ATOM     32  C   UNL A   1      39.150  26.769  28.834  1.00  0.00     0.010 A 
ATOM     33  C   UNL A   1      39.750  27.906  28.284  1.00  0.00    -0.014 A 
BRANCH  33  34
ATOM     34  C   UNL A   1      39.858  29.070  29.155  1.00  0.00     0.031 A 
ATOM     35  C   UNL A   1      38.809  30.100  29.176  1.00  0.00     0.074 A 
ATOM     36  C   UNL A   1      40.924  29.186  29.975  1.00  0.00     0.049 A 
ATOM     37  N   UNL A   1      39.017  31.345  29.438  1.00  0.00    -0.248 NA
ATOM     38  C   UNL A   1      37.422  29.796  28.849  1.00  0.00     0.031 C 
ATOM     39  C   UNL A   1      41.112  30.134  31.069  1.00  0.00     0.029 A 
ATOM     40  N   UNL A   1      42.168  28.583  29.830  1.00  0.00    -0.354 N 
ATOM     41  C   UNL A   1      37.787  31.944  29.594  1.00  0.00     0.074 A 
ATOM     42  C   UNL A   1      36.832  30.955  29.146  1.00  0.00     0.031 C 
ATOM     43  C   UNL A   1      42.430  30.265  31.295  1.00  0.00     0.029 A 
ATOM     44  C   UNL A   1      43.124  29.507  30.265  1.00  0.00     0.049 A 
ATOM     45  H   UNL A   1      42.344  27.677  29.487  1.00  0.00     0.167 HD
ATOM     46  C   UNL A   1      37.692  33.150  30.226  1.00  0.00     0.034 A 
ATOM     47  C   UNL A   1      44.144  29.959  29.483  1.00  0.00     0.034 A 
ATOM     48  C   UNL A   1      39.005  33.659  30.625  1.00  0.00     0.049 A 
ATOM     49  C   UNL A   1      44.101  31.465  29.325  1.00  0.00     0.074 A 
ATOM     50  C   UNL A   1      39.679  33.644  31.836  1.00  0.00     0.029 A 
ATOM     51  N   UNL A   1      39.943  34.015  29.660  1.00  0.00    -0.354 N 
ATOM     52  N   UNL A   1      43.059  32.199  29.614  1.00  0.00    -0.248 NA
ATOM     53  C   UNL A   1      45.206  32.250  28.788  1.00  0.00     0.031 C 
ATOM     54  C   UNL A   1      41.049  33.914  31.579  1.00  0.00     0.029 A 
ATOM     55  C   UNL A   1      41.203  34.132  30.221  1.00  0.00     0.049 A 
ATOM     56  H   UNL A   1      39.738  34.164  28.708  1.00  0.00     0.167 HD
ATOM     57  C   UNL A   1      43.312  33.503  29.282  1.00  0.00     0.074 A 
ATOM     58  C   UNL A   1      44.682  33.488  28.797  1.00  0.00     0.031 C 
ATOM     59  C   UNL A   1      42.363  34.481  29.410  1.00  0.00     0.034 A 
BRANCH  46  60
ATOM     60  C   UNL A   1      36.382  33.670  30.783  1.00  0.00     0.023 A 
ATOM     61  C   UNL A   1      35.480  34.347  29.938  1.00  0.00     0.031 A 
ATOM     62  C   UNL A   1      35.994  33.587  32.134  1.00  0.00     0.131 A 
ATOM     63  C   UNL A   1      34.348  35.008  30.452  1.00  0.00     0.055 A 
ATOM     64  C   UNL A   1      34.912  34.307  32.661  1.00  0.00     0.041 A 
ATOM     65  F   UNL A   1      36.617  32.766  32.992  1.00  0.00    -0.206 F 
ATOM     66  C   UNL A   1      34.092  35.041  31.819  1.00  0.00     0.022 A 
BRANCH  63  67
ATOM     67  S   UNL A   1      33.197  35.813  29.304  1.00  0.00     0.124 S 
ATOM     68  O   UNL A   1      34.097  36.545  28.418  1.00  0.00    -0.237 OA
ATOM     69  O   UNL A   1      32.500  34.673  28.719  1.00  0.00    -0.237 OA
ATOM     70  O   UNL A   1      32.377  36.652  30.178  1.00  0.00    -0.744 OA
ENDBRANCH  63  67
ENDBRANCH  46  60
BRANCH  47  71
ATOM     71  C   UNL A   1      44.573  29.004  28.421  1.00  0.00     0.023 A 
ATOM     72  C   UNL A   1      45.337  27.879  28.804  1.00  0.00     0.031 A 
ATOM     73  C   UNL A   1      43.942  28.975  27.167  1.00  0.00     0.131 A 
ATOM     74  C   UNL A   1      45.338  26.726  28.005  1.00  0.00     0.055 A 
ATOM     75  C   UNL A   1      43.991  27.838  26.352  1.00  0.00     0.041 A 
ATOM     76  F   UNL A   1      43.158  29.988  26.774  1.00  0.00    -0.206 F 
ATOM     77  C   UNL A   1      44.664  26.697  26.783  1.00  0.00     0.022 A 
BRANCH  74  78
ATOM     78  S   UNL A   1      46.096  25.187  28.604  1.00  0.00     0.124 S 
ATOM     79  O   UNL A   1      45.355  24.930  29.834  1.00  0.00    -0.237 OA
ATOM     80  O   UNL A   1      45.849  24.244  27.517  1.00  0.00    -0.237 OA
ATOM     81  O   UNL A   1      47.491  25.589  28.774  1.00  0.00    -0.744 OA
ENDBRANCH  74  78
ENDBRANCH  47  71
BRANCH  59  82
ATOM     82  C   UNL A   1      42.495  35.882  28.858  1.00  0.00     0.023 A 
ATOM     83  C   UNL A   1      43.149  36.917  29.544  1.00  0.00     0.031 A 
ATOM     84  C   UNL A   1      42.023  36.205  27.563  1.00  0.00     0.131 A 
ATOM     85  C   UNL A   1      43.223  38.214  29.007  1.00  0.00     0.055 A 
ATOM     86  C   UNL A   1      42.176  37.473  26.994  1.00  0.00     0.041 A 
ATOM     87  F   UNL A   1      41.397  35.301  26.796  1.00  0.00    -0.206 F 
ATOM     88  C   UNL A   1      42.761  38.495  27.725  1.00  0.00     0.022 A 
BRANCH  85  89
ATOM     89  S   UNL A   1      43.866  39.539  30.061  1.00  0.00     0.124 S 
ATOM     90  O   UNL A   1      42.928  40.625  29.782  1.00  0.00    -0.237 OA
ATOM     91  O   UNL A   1      43.779  38.953  31.394  1.00  0.00    -0.237 OA
ATOM     92  O   UNL A   1      45.223  39.750  29.561  1.00  0.00    -0.744 OA
ENDBRANCH  85  89
ENDBRANCH  59  82
ENDBRANCH  33  34
ENDBRANCH  25  28
ENDBRANCH  23  24
ENDBRANCH   1  23
TORSDOF 16
ENDMDL
MODEL 3
REMARK VINA RESULT:     -12.8      1.165      3.318
REMARK SMILES Cc1cccc(CC(=O)N2CCCC[C@@H]2C(=O)NCCCNC(=O)c2ccc(-c3c4nc(c(-c5cc(S(=O)(=O)[O-])ccc5F)c5ccc([nH]5)c(-c5cc(S(=O)(=O)[O-])ccc5F)c5nc(c(-c6cc(S(=O)(=O)[O-])ccc6F)c6ccc3[nH]6)C=C5)C=C4)cc2)c1
REMARK SMILES IDX 20 1 19 2 18 3 16 4 17 5 15 7 10 8 11 9 12 10 14 11 13 12
REMARK SMILES IDX 8 13 9 14 7 15 6 16 1 17 2 18 3 19 88 20 4 21 5 22 21 23
REMARK SMILES IDX 22 24 23 25 24 27 25 28 26 29 87 30 27 31 86 32 28 33 29 34
REMARK SMILES IDX 30 35 80 36 31 37 85 38 79 39 81 40 32 41 84 42 78 43 77 44
REMARK SMILES IDX 33 46 65 47 45 48 64 49 46 50 49 51 63 52 82 53 47 54 48 55
REMARK SMILES IDX 62 57 83 58 50 59 34 60 35 61 43 62 36 63 42 64 44 65 41 66
REMARK SMILES IDX 37 67 38 68 39 69 40 70 66 71 67 72 75 73 68 74 74 75 76 76
REMARK SMILES IDX 73 77 69 78 70 79 71 80 72 81 51 82 52 83 60 84 53 85 59 86
REMARK SMILES IDX 61 87 58 88 54 89 55 90 56 91 57 92
REMARK H PARENT 18 6 22 26 81 45 49 56
REMARK Flexibility Score: inf
ROOT
ATOM      1  C   UNL A   1      32.937  30.887  27.295  1.00  0.00     0.042 C 
ENDROOT
BRANCH   1   2
ATOM      2  C   UNL A   1      32.453  30.188  26.035  1.00  0.00     0.117 C 
BRANCH   2   3
ATOM      3  N   UNL A   1      31.645  29.016  26.345  1.00  0.00    -0.354 N 
ATOM      4  C   UNL A   1      31.865  27.696  26.076  1.00  0.00     0.242 C 
ATOM      5  O   UNL A   1      30.950  26.902  26.338  1.00  0.00    -0.273 OA
ATOM      6  H   UNL A   1      30.808  29.207  26.825  1.00  0.00     0.163 HD
BRANCH   4   7
ATOM      7  C   UNL A   1      33.046  27.226  25.191  1.00  0.00     0.174 C 
ATOM      8  N   UNL A   1      32.806  27.006  23.740  1.00  0.00    -0.330 N 
ATOM      9  C   UNL A   1      33.517  25.897  23.097  1.00  0.00     0.120 C 
ATOM     10  C   UNL A   1      33.554  24.617  23.902  1.00  0.00     0.022 C 
ATOM     11  C   UNL A   1      33.467  25.942  25.979  1.00  0.00     0.035 C 
ATOM     12  C   UNL A   1      34.241  24.889  25.220  1.00  0.00     0.004 C 
BRANCH   8  13
ATOM     13  C   UNL A   1      32.279  27.927  22.822  1.00  0.00     0.227 C 
ATOM     14  O   UNL A   1      32.809  29.048  22.739  1.00  0.00    -0.275 OA
BRANCH  13  15
ATOM     15  C   UNL A   1      30.940  27.757  22.119  1.00  0.00     0.135 C 
BRANCH  15  16
ATOM     16  C   UNL A   1      29.750  28.609  22.440  1.00  0.00    -0.038 A 
ATOM     17  C   UNL A   1      28.564  32.183  21.813  1.00  0.00     0.044 C 
ATOM     18  C   UNL A   1      28.589  30.753  22.256  1.00  0.00    -0.051 A 
ATOM     19  C   UNL A   1      27.524  30.226  22.988  1.00  0.00     0.003 A 
ATOM     20  C   UNL A   1      29.704  29.943  22.003  1.00  0.00     0.007 A 
ATOM     21  C   UNL A   1      27.551  28.895  23.397  1.00  0.00     0.001 A 
ATOM     22  C   UNL A   1      28.635  28.077  23.092  1.00  0.00     0.004 A 
ENDBRANCH  15  16
ENDBRANCH  13  15
ENDBRANCH   8  13
ENDBRANCH   4   7
ENDBRANCH   2   3
ENDBRANCH   1   2
BRANCH   1  23
ATOM     23  C   UNL A   1      34.302  30.387  27.746  1.00  0.00     0.118 C 
BRANCH  23  24
ATOM     24  N   UNL A   1      34.977  31.284  28.674  1.00  0.00    -0.352 N 
ATOM     25  C   UNL A   1      36.147  31.084  29.391  1.00  0.00     0.251 C 
ATOM     26  H   UNL A   1      34.541  32.157  28.812  1.00  0.00     0.163 HD
ATOM     27  O   UNL A   1      36.560  31.910  30.175  1.00  0.00    -0.269 OA
BRANCH  25  28
ATOM     28  C   UNL A   1      36.971  29.891  29.068  1.00  0.00     0.039 A 
ATOM     29  C   UNL A   1      37.258  29.015  30.123  1.00  0.00     0.014 A 
ATOM     30  C   UNL A   1      37.630  29.769  27.849  1.00  0.00     0.014 A 
ATOM     31  C   UNL A   1      38.360  28.172  30.030  1.00  0.00     0.010 A 
ATOM     32  C   UNL A   1      38.785  29.015  27.792  1.00  0.00     0.010 A 
ATOM     33  C   UNL A   1      39.182  28.267  28.905  1.00  0.00    -0.014 A 
BRANCH  33  34
ATOM     34  C   UNL A   1      40.546  27.751  28.888  1.00  0.00     0.031 A 
ATOM     35  C   UNL A   1      40.830  26.378  28.445  1.00  0.00     0.074 A 
ATOM     36  C   UNL A   1      41.563  28.558  29.257  1.00  0.00     0.049 A 
ATOM     37  N   UNL A   1      41.812  25.662  28.878  1.00  0.00    -0.248 NA
ATOM     38  C   UNL A   1      39.977  25.682  27.491  1.00  0.00     0.031 C 
ATOM     39  C   UNL A   1      42.994  28.322  29.099  1.00  0.00     0.029 A 
ATOM     40  N   UNL A   1      41.492  29.689  30.063  1.00  0.00    -0.354 N 
ATOM     41  C   UNL A   1      41.894  24.547  28.075  1.00  0.00     0.074 A 
ATOM     42  C   UNL A   1      40.688  24.573  27.277  1.00  0.00     0.031 C 
ATOM     43  C   UNL A   1      43.650  29.072  30.000  1.00  0.00     0.029 A 
ATOM     44  C   UNL A   1      42.650  29.707  30.846  1.00  0.00     0.049 A 
ATOM     45  H   UNL A   1      40.764  30.352  30.078  1.00  0.00     0.167 HD
ATOM     46  C   UNL A   1      43.038  23.803  28.057  1.00  0.00     0.034 A 
ATOM     47  C   UNL A   1      42.638  29.717  32.208  1.00  0.00     0.034 A 
ATOM     48  C   UNL A   1      44.041  24.328  28.985  1.00  0.00     0.049 A 
ATOM     49  C   UNL A   1      43.375  28.525  32.781  1.00  0.00     0.074 A 
ATOM     50  C   UNL A   1      45.157  25.129  28.794  1.00  0.00     0.029 A 
ATOM     51  N   UNL A   1      43.810  24.301  30.358  1.00  0.00    -0.354 N 
ATOM     52  N   UNL A   1      43.693  27.463  32.090  1.00  0.00    -0.248 NA
ATOM     53  C   UNL A   1      43.767  28.418  34.182  1.00  0.00     0.031 C 
ATOM     54  C   UNL A   1      45.544  25.650  30.056  1.00  0.00     0.029 A 
ATOM     55  C   UNL A   1      44.692  25.138  31.019  1.00  0.00     0.049 A 
ATOM     56  H   UNL A   1      43.114  23.761  30.798  1.00  0.00     0.167 HD
ATOM     57  C   UNL A   1      44.275  26.537  32.915  1.00  0.00     0.074 A 
ATOM     58  C   UNL A   1      44.326  27.196  34.210  1.00  0.00     0.031 C 
ATOM     59  C   UNL A   1      44.642  25.297  32.468  1.00  0.00     0.034 A 
BRANCH  46  60
ATOM     60  C   UNL A   1      43.353  22.830  26.939  1.00  0.00     0.023 A 
ATOM     61  C   UNL A   1      42.828  21.522  26.980  1.00  0.00     0.031 A 
ATOM     62  C   UNL A   1      44.201  23.103  25.849  1.00  0.00     0.131 A 
ATOM     63  C   UNL A   1      43.246  20.535  26.067  1.00  0.00     0.055 A 
ATOM     64  C   UNL A   1      44.680  22.106  24.988  1.00  0.00     0.041 A 
ATOM     65  F   UNL A   1      44.565  24.358  25.544  1.00  0.00    -0.206 F 
ATOM     66  C   UNL A   1      44.216  20.805  25.108  1.00  0.00     0.022 A 
BRANCH  63  67
ATOM     67  S   UNL A   1      42.491  18.887  26.140  1.00  0.00     0.124 S 
ATOM     68  O   UNL A   1      41.122  19.149  25.706  1.00  0.00    -0.237 OA
ATOM     69  O   UNL A   1      43.327  18.126  25.217  1.00  0.00    -0.237 OA
ATOM     70  O   UNL A   1      42.630  18.511  27.546  1.00  0.00    -0.744 OA
ENDBRANCH  63  67
ENDBRANCH  46  60
BRANCH  47  71
ATOM     71  C   UNL A   1      41.418  30.332  32.806  1.00  0.00     0.023 A 
ATOM     72  C   UNL A   1      41.322  31.741  32.827  1.00  0.00     0.031 A 
ATOM     73  C   UNL A   1      40.240  29.589  32.986  1.00  0.00     0.131 A 
ATOM     74  C   UNL A   1      40.064  32.358  32.887  1.00  0.00     0.055 A 
ATOM     75  C   UNL A   1      38.993  30.215  33.096  1.00  0.00     0.041 A 
ATOM     76  F   UNL A   1      40.260  28.251  32.918  1.00  0.00    -0.206 F 
ATOM     77  C   UNL A   1      38.897  31.603  33.016  1.00  0.00     0.022 A 
BRANCH  74  78
ATOM     78  S   UNL A   1      39.902  34.153  32.652  1.00  0.00     0.124 S 
ATOM     79  O   UNL A   1      39.934  34.652  34.023  1.00  0.00    -0.237 OA
ATOM     80  O   UNL A   1      41.062  34.493  31.835  1.00  0.00    -0.237 OA
ATOM     81  O   UNL A   1      38.612  34.248  31.971  1.00  0.00    -0.744 OA
ENDBRANCH  74  78
ENDBRANCH  47  71
BRANCH  59  82
ATOM     82  C   UNL A   1      45.076  24.156  33.361  1.00  0.00     0.023 A 
ATOM     83  C   UNL A   1      46.357  24.072  33.926  1.00  0.00     0.031 A 
ATOM     84  C   UNL A   1      44.168  23.139  33.739  1.00  0.00     0.131 A 
ATOM     85  C   UNL A   1      46.729  22.978  34.727  1.00  0.00     0.055 A 
ATOM     86  C   UNL A   1      44.513  22.099  34.609  1.00  0.00     0.041 A 
ATOM     87  F   UNL A   1      42.907  23.115  33.285  1.00  0.00    -0.206 F 
ATOM     88  C   UNL A   1      45.808  22.001  35.092  1.00  0.00     0.022 A 
BRANCH  85  89
ATOM     89  S   UNL A   1      48.467  22.826  35.213  1.00  0.00     0.124 S 
ATOM     90  O   UNL A   1      48.462  23.439  36.539  1.00  0.00    -0.237 OA
ATOM     91  O   UNL A   1      48.678  21.383  35.182  1.00  0.00    -0.237 OA
ATOM     92  O   UNL A   1      49.180  23.581  34.184  1.00  0.00    -0.744 OA
ENDBRANCH  85  89
ENDBRANCH  59  82
ENDBRANCH  33  34
ENDBRANCH  25  28
ENDBRANCH  23  24
ENDBRANCH   1  23
TORSDOF 16
ENDMDL
