MODEL 1
REMARK VINA RESULT:      -9.6      0.000      0.000
REMARK SMILES COc1ccccc1C(=O)N/C(=C/c1ccc2c(c1)OCO2)C(=O)Nc1ccc(C(=O)NCCCNC(=O)c2ccc(-c3c4nc(c(-c5cc(S(=O)(=O)[O-])ccc5F)c5ccc([nH]5)c(-c5cc(S(=O)(=O)[O-])ccc5F)c5nc(c(-c6cc(S(=O)(=O)[O-])ccc6F)c6ccc3[nH]6)C=C5)C=C4)cc2)cc1
REMARK SMILES IDX 33 1 32 2 30 3 31 4 29 6 26 7 27 8 103 9 28 10 102 11 25 12
REMARK SMILES IDX 23 13 24 14 12 16 13 17 11 18 9 19 10 20 8 22 3 23 4 24 5 25
REMARK SMILES IDX 7 26 6 27 2 28 1 29 14 30 15 31 19 32 16 33 18 34 17 35
REMARK SMILES IDX 20 36 22 37 21 38 34 39 35 40 36 41 37 42 38 44 39 45 40 46
REMARK SMILES IDX 101 47 41 48 100 49 42 50 43 51 44 52 94 53 45 54 99 55
REMARK SMILES IDX 93 56 95 57 46 58 98 59 92 60 91 61 47 63 79 64 59 65 78 66
REMARK SMILES IDX 60 67 63 68 77 69 96 70 61 71 62 72 76 74 97 75 64 76 48 77
REMARK SMILES IDX 49 78 57 79 50 80 56 81 58 82 55 83 51 84 52 85 53 86 54 87
REMARK SMILES IDX 80 88 81 89 89 90 82 91 88 92 90 93 87 94 83 95 84 96 85 97
REMARK SMILES IDX 86 98 65 99 66 100 74 101 67 102 73 103 75 104 72 105 68 106
REMARK SMILES IDX 69 107 70 108 71 109
REMARK H PARENT 32 5 25 15 11 21 36 43 95 62 63 73
REMARK Flexibility Score: inf
ROOT
ATOM      1  C   UNL A   1      40.371  33.018  38.374  1.00  0.00     0.118 C 
ENDROOT
BRANCH   1   2
ATOM      2  N   UNL A   1      39.101  32.327  38.247  1.00  0.00    -0.352 N 
ATOM      3  C   UNL A   1      38.298  32.047  37.169  1.00  0.00     0.251 C 
ATOM      4  O   UNL A   1      37.212  31.512  37.396  1.00  0.00    -0.269 OA
ATOM      5  H   UNL A   1      38.744  31.995  39.102  1.00  0.00     0.163 HD
BRANCH   3   6
ATOM      6  C   UNL A   1      38.740  32.228  35.756  1.00  0.00     0.039 A 
ATOM      7  C   UNL A   1      38.934  32.524  32.961  1.00  0.00     0.041 A 
ATOM      8  C   UNL A   1      38.477  33.580  33.757  1.00  0.00     0.027 A 
ATOM      9  C   UNL A   1      39.482  31.408  33.588  1.00  0.00     0.027 A 
ATOM     10  C   UNL A   1      38.353  33.423  35.140  1.00  0.00     0.016 A 
ATOM     11  C   UNL A   1      39.418  31.279  34.987  1.00  0.00     0.016 A 
BRANCH   7  12
ATOM     12  N   UNL A   1      38.725  32.662  31.580  1.00  0.00    -0.321 N 
ATOM     13  C   UNL A   1      37.841  32.122  30.687  1.00  0.00     0.272 C 
ATOM     14  O   UNL A   1      37.865  32.553  29.528  1.00  0.00    -0.267 OA
ATOM     15  H   UNL A   1      39.357  33.290  31.160  1.00  0.00     0.170 HD
BRANCH  13  16
ATOM     16  C   UNL A   1      36.749  31.152  31.059  1.00  0.00     0.108 C 
ATOM     17  C   UNL A   1      36.926  29.816  30.910  1.00  0.00     0.040 C 
BRANCH  16  18
ATOM     18  N   UNL A   1      35.644  31.570  31.784  1.00  0.00    -0.317 N 
ATOM     19  C   UNL A   1      34.672  32.527  31.588  1.00  0.00     0.259 C 
ATOM     20  O   UNL A   1      33.924  32.792  32.534  1.00  0.00    -0.269 OA
ATOM     21  H   UNL A   1      35.527  31.073  32.626  1.00  0.00     0.170 HD
BRANCH  19  22
ATOM     22  C   UNL A   1      34.466  33.265  30.328  1.00  0.00     0.082 A 
ATOM     23  C   UNL A   1      34.411  32.662  29.067  1.00  0.00     0.131 A 
ATOM     24  C   UNL A   1      34.315  33.466  27.926  1.00  0.00     0.047 A 
ATOM     25  C   UNL A   1      34.168  34.850  28.039  1.00  0.00     0.004 A 
ATOM     26  C   UNL A   1      34.275  34.654  30.439  1.00  0.00     0.018 A 
ATOM     27  C   UNL A   1      34.123  35.443  29.298  1.00  0.00     0.001 A 
BRANCH  23  28
ATOM     28  O   UNL A   1      34.518  31.319  28.823  1.00  0.00    -0.496 OA
ATOM     29  C   UNL A   1      35.267  30.995  27.654  1.00  0.00     0.278 C 
ENDBRANCH  23  28
ENDBRANCH  19  22
ENDBRANCH  16  18
BRANCH  17  30
ATOM     30  C   UNL A   1      38.116  29.170  30.336  1.00  0.00    -0.019 A 
ATOM     31  C   UNL A   1      39.135  28.711  31.199  1.00  0.00     0.012 A 
ATOM     32  C   UNL A   1      38.166  28.868  28.969  1.00  0.00     0.058 A 
ATOM     33  C   UNL A   1      40.098  27.804  30.743  1.00  0.00     0.051 A 
ATOM     34  C   UNL A   1      39.075  27.919  28.569  1.00  0.00     0.166 A 
ATOM     35  C   UNL A   1      39.997  27.381  29.436  1.00  0.00     0.165 A 
ATOM     36  O   UNL A   1      39.091  27.311  27.352  1.00  0.00    -0.454 OA
ATOM     37  O   UNL A   1      40.690  26.357  28.868  1.00  0.00    -0.454 OA
ATOM     38  C   UNL A   1      39.931  26.180  27.654  1.00  0.00     0.468 C 
ENDBRANCH  17  30
ENDBRANCH  13  16
ENDBRANCH   7  12
ENDBRANCH   3   6
ENDBRANCH   1   2
BRANCH   1  39
ATOM     39  C   UNL A   1      40.268  34.114  39.430  1.00  0.00     0.042 C 
BRANCH  39  40
ATOM     40  C   UNL A   1      39.625  35.382  38.878  1.00  0.00     0.118 C 
BRANCH  40  41
ATOM     41  N   UNL A   1      40.442  36.559  39.143  1.00  0.00    -0.352 N 
ATOM     42  C   UNL A   1      41.590  36.981  38.507  1.00  0.00     0.251 C 
ATOM     43  H   UNL A   1      40.132  37.133  39.880  1.00  0.00     0.163 HD
ATOM     44  O   UNL A   1      42.270  37.865  39.004  1.00  0.00    -0.269 OA
BRANCH  42  45
ATOM     45  C   UNL A   1      42.001  36.329  37.242  1.00  0.00     0.039 A 
ATOM     46  C   UNL A   1      43.309  35.853  37.116  1.00  0.00     0.014 A 
ATOM     47  C   UNL A   1      41.087  36.160  36.199  1.00  0.00     0.014 A 
ATOM     48  C   UNL A   1      43.670  35.122  35.982  1.00  0.00     0.010 A 
ATOM     49  C   UNL A   1      41.426  35.367  35.107  1.00  0.00     0.010 A 
ATOM     50  C   UNL A   1      42.716  34.828  34.993  1.00  0.00    -0.014 A 
BRANCH  50  51
ATOM     51  C   UNL A   1      43.028  33.927  33.854  1.00  0.00     0.031 A 
ATOM     52  C   UNL A   1      43.198  34.486  32.470  1.00  0.00     0.074 A 
ATOM     53  C   UNL A   1      43.060  32.594  34.053  1.00  0.00     0.049 A 
ATOM     54  N   UNL A   1      43.364  33.856  31.335  1.00  0.00    -0.248 NA
ATOM     55  C   UNL A   1      43.144  35.948  32.346  1.00  0.00     0.031 C 
ATOM     56  C   UNL A   1      42.875  31.928  35.344  1.00  0.00     0.029 A 
ATOM     57  N   UNL A   1      43.249  31.560  33.171  1.00  0.00    -0.354 N 
ATOM     58  C   UNL A   1      43.422  34.844  30.358  1.00  0.00     0.074 A 
ATOM     59  C   UNL A   1      43.204  36.108  31.033  1.00  0.00     0.031 C 
ATOM     60  C   UNL A   1      42.987  30.601  35.174  1.00  0.00     0.029 A 
ATOM     61  C   UNL A   1      43.196  30.318  33.758  1.00  0.00     0.049 A 
ATOM     62  H   UNL A   1      43.407  31.694  32.209  1.00  0.00     0.167 HD
ATOM     63  C   UNL A   1      43.659  34.712  29.029  1.00  0.00     0.034 A 
ATOM     64  C   UNL A   1      43.286  29.088  33.216  1.00  0.00     0.034 A 
ATOM     65  C   UNL A   1      43.871  33.442  28.376  1.00  0.00     0.049 A 
ATOM     66  C   UNL A   1      43.468  28.958  31.728  1.00  0.00     0.074 A 
ATOM     67  C   UNL A   1      44.192  33.193  27.053  1.00  0.00     0.029 A 
ATOM     68  N   UNL A   1      43.759  32.202  28.995  1.00  0.00    -0.354 N 
ATOM     69  N   UNL A   1      43.579  29.902  30.824  1.00  0.00    -0.248 NA
ATOM     70  C   UNL A   1      43.530  27.594  31.188  1.00  0.00     0.031 C 
ATOM     71  C   UNL A   1      44.199  31.806  26.856  1.00  0.00     0.029 A 
ATOM     72  C   UNL A   1      43.953  31.185  28.070  1.00  0.00     0.049 A 
ATOM     73  H   UNL A   1      43.568  32.065  29.951  1.00  0.00     0.167 HD
ATOM     74  C   UNL A   1      43.742  29.247  29.608  1.00  0.00     0.074 A 
ATOM     75  C   UNL A   1      43.728  27.826  29.897  1.00  0.00     0.031 C 
ATOM     76  C   UNL A   1      43.897  29.772  28.365  1.00  0.00     0.034 A 
BRANCH  63  77
ATOM     77  C   UNL A   1      43.665  35.978  28.203  1.00  0.00     0.023 A 
ATOM     78  C   UNL A   1      44.849  36.703  27.976  1.00  0.00     0.031 A 
ATOM     79  C   UNL A   1      42.466  36.505  27.690  1.00  0.00     0.131 A 
ATOM     80  C   UNL A   1      44.794  37.961  27.357  1.00  0.00     0.055 A 
ATOM     81  C   UNL A   1      42.433  37.713  26.990  1.00  0.00     0.041 A 
ATOM     82  F   UNL A   1      41.301  35.870  27.887  1.00  0.00    -0.206 F 
ATOM     83  C   UNL A   1      43.598  38.460  26.841  1.00  0.00     0.022 A 
BRANCH  80  84
ATOM     84  S   UNL A   1      46.272  39.013  27.414  1.00  0.00     0.124 S 
ATOM     85  O   UNL A   1      47.301  38.057  27.816  1.00  0.00    -0.237 OA
ATOM     86  O   UNL A   1      46.359  39.508  26.046  1.00  0.00    -0.237 OA
ATOM     87  O   UNL A   1      45.938  40.017  28.424  1.00  0.00    -0.744 OA
ENDBRANCH  80  84
ENDBRANCH  63  77
BRANCH  64  88
ATOM     88  C   UNL A   1      43.194  27.881  34.084  1.00  0.00     0.023 A 
ATOM     89  C   UNL A   1      44.353  27.271  34.586  1.00  0.00     0.031 A 
ATOM     90  C   UNL A   1      41.950  27.319  34.420  1.00  0.00     0.131 A 
ATOM     91  C   UNL A   1      44.248  26.118  35.378  1.00  0.00     0.055 A 
ATOM     92  C   UNL A   1      41.848  26.196  35.244  1.00  0.00     0.041 A 
ATOM     93  F   UNL A   1      40.812  27.871  33.972  1.00  0.00    -0.206 F 
ATOM     94  C   UNL A   1      43.003  25.585  35.723  1.00  0.00     0.022 A 
BRANCH  91  95
ATOM     95  S   UNL A   1      45.770  25.300  35.927  1.00  0.00     0.124 S 
ATOM     96  O   UNL A   1      46.626  25.448  34.755  1.00  0.00    -0.237 OA
ATOM     97  O   UNL A   1      46.137  26.093  37.096  1.00  0.00    -0.237 OA
ATOM     98  O   UNL A   1      45.337  23.935  36.216  1.00  0.00    -0.744 OA
ENDBRANCH  91  95
ENDBRANCH  64  88
BRANCH  76  99
ATOM     99  C   UNL A   1      44.078  28.795  27.230  1.00  0.00     0.023 A 
ATOM    100  C   UNL A   1      45.347  28.301  26.880  1.00  0.00     0.031 A 
ATOM    101  C   UNL A   1      42.969  28.359  26.485  1.00  0.00     0.131 A 
ATOM    102  C   UNL A   1      45.482  27.434  25.785  1.00  0.00     0.055 A 
ATOM    103  C   UNL A   1      43.101  27.452  25.432  1.00  0.00     0.041 A 
ATOM    104  F   UNL A   1      41.735  28.803  26.773  1.00  0.00    -0.206 F 
ATOM    105  C   UNL A   1      44.365  26.993  25.070  1.00  0.00     0.022 A 
BRANCH 102 106
ATOM    106  S   UNL A   1      47.147  26.943  25.259  1.00  0.00     0.124 S 
ATOM    107  O   UNL A   1      47.733  26.475  26.511  1.00  0.00    -0.237 OA
ATOM    108  O   UNL A   1      46.872  25.916  24.260  1.00  0.00    -0.237 OA
ATOM    109  O   UNL A   1      47.719  28.181  24.733  1.00  0.00    -0.744 OA
ENDBRANCH 102 106
ENDBRANCH  76  99
ENDBRANCH  50  51
ENDBRANCH  42  45
ENDBRANCH  40  41
ENDBRANCH  39  40
ENDBRANCH   1  39
TORSDOF 19
ENDMDL
MODEL 2
REMARK VINA RESULT:      -9.5      5.654     11.167
REMARK SMILES COc1ccccc1C(=O)N/C(=C/c1ccc2c(c1)OCO2)C(=O)Nc1ccc(C(=O)NCCCNC(=O)c2ccc(-c3c4nc(c(-c5cc(S(=O)(=O)[O-])ccc5F)c5ccc([nH]5)c(-c5cc(S(=O)(=O)[O-])ccc5F)c5nc(c(-c6cc(S(=O)(=O)[O-])ccc6F)c6ccc3[nH]6)C=C5)C=C4)cc2)cc1
REMARK SMILES IDX 33 1 32 2 30 3 31 4 29 6 26 7 27 8 103 9 28 10 102 11 25 12
REMARK SMILES IDX 23 13 24 14 12 16 13 17 11 18 9 19 10 20 8 22 3 23 4 24 5 25
REMARK SMILES IDX 7 26 6 27 2 28 1 29 14 30 15 31 19 32 16 33 18 34 17 35
REMARK SMILES IDX 20 36 22 37 21 38 34 39 35 40 36 41 37 42 38 44 39 45 40 46
REMARK SMILES IDX 101 47 41 48 100 49 42 50 43 51 44 52 94 53 45 54 99 55
REMARK SMILES IDX 93 56 95 57 46 58 98 59 92 60 91 61 47 63 79 64 59 65 78 66
REMARK SMILES IDX 60 67 63 68 77 69 96 70 61 71 62 72 76 74 97 75 64 76 48 77
REMARK SMILES IDX 49 78 57 79 50 80 56 81 58 82 55 83 51 84 52 85 53 86 54 87
REMARK SMILES IDX 80 88 81 89 89 90 82 91 88 92 90 93 87 94 83 95 84 96 85 97
REMARK SMILES IDX 86 98 65 99 66 100 74 101 67 102 73 103 75 104 72 105 68 106
REMARK SMILES IDX 69 107 70 108 71 109
REMARK H PARENT 32 5 25 15 11 21 36 43 95 62 63 73
REMARK Flexibility Score: inf
ROOT
ATOM      1  C   UNL A   1      38.855  24.404  26.934  1.00  0.00     0.118 C 
ENDROOT
BRANCH   1   2
ATOM      2  N   UNL A   1      38.896  23.086  26.327  1.00  0.00    -0.352 N 
ATOM      3  C   UNL A   1      37.970  22.358  25.621  1.00  0.00     0.251 C 
ATOM      4  O   UNL A   1      38.276  21.208  25.306  1.00  0.00    -0.269 OA
ATOM      5  H   UNL A   1      39.756  22.622  26.446  1.00  0.00     0.163 HD
BRANCH   3   6
ATOM      6  C   UNL A   1      36.698  22.941  25.105  1.00  0.00     0.039 A 
ATOM      7  C   UNL A   1      34.697  24.369  23.729  1.00  0.00     0.041 A 
ATOM      8  C   UNL A   1      35.338  23.283  23.123  1.00  0.00     0.027 A 
ATOM      9  C   UNL A   1      34.916  24.598  25.084  1.00  0.00     0.027 A 
ATOM     10  C   UNL A   1      36.351  22.594  23.794  1.00  0.00     0.016 A 
ATOM     11  C   UNL A   1      35.890  23.859  25.779  1.00  0.00     0.016 A 
BRANCH   7  12
ATOM     12  N   UNL A   1      33.934  25.183  22.877  1.00  0.00    -0.321 N 
ATOM     13  C   UNL A   1      32.608  25.242  22.544  1.00  0.00     0.272 C 
ATOM     14  O   UNL A   1      32.242  26.178  21.822  1.00  0.00    -0.267 OA
ATOM     15  H   UNL A   1      34.475  25.865  22.416  1.00  0.00     0.170 HD
BRANCH  13  16
ATOM     16  C   UNL A   1      31.551  24.336  23.120  1.00  0.00     0.108 C 
ATOM     17  C   UNL A   1      30.496  24.846  23.802  1.00  0.00     0.040 C 
BRANCH  16  18
ATOM     18  N   UNL A   1      31.490  22.998  22.763  1.00  0.00    -0.317 N 
ATOM     19  C   UNL A   1      31.945  21.830  23.336  1.00  0.00     0.259 C 
ATOM     20  O   UNL A   1      31.903  20.799  22.657  1.00  0.00    -0.269 OA
ATOM     21  H   UNL A   1      31.018  22.848  21.912  1.00  0.00     0.170 HD
BRANCH  19  22
ATOM     22  C   UNL A   1      32.488  21.724  24.703  1.00  0.00     0.082 A 
ATOM     23  C   UNL A   1      33.482  20.816  25.083  1.00  0.00     0.131 A 
ATOM     24  C   UNL A   1      33.853  20.728  26.429  1.00  0.00     0.047 A 
ATOM     25  C   UNL A   1      33.318  21.605  27.374  1.00  0.00     0.004 A 
ATOM     26  C   UNL A   1      31.984  22.634  25.650  1.00  0.00     0.018 A 
ATOM     27  C   UNL A   1      32.401  22.576  26.980  1.00  0.00     0.001 A 
BRANCH  23  28
ATOM     28  O   UNL A   1      34.101  19.921  24.251  1.00  0.00    -0.496 OA
ATOM     29  C   UNL A   1      34.028  18.567  24.691  1.00  0.00     0.278 C 
ENDBRANCH  23  28
ENDBRANCH  19  22
ENDBRANCH  16  18
BRANCH  17  30
ATOM     30  C   UNL A   1      30.285  26.268  24.114  1.00  0.00    -0.019 A 
ATOM     31  C   UNL A   1      31.228  26.945  24.918  1.00  0.00     0.012 A 
ATOM     32  C   UNL A   1      29.253  26.982  23.493  1.00  0.00     0.058 A 
ATOM     33  C   UNL A   1      31.257  28.343  24.956  1.00  0.00     0.051 A 
ATOM     34  C   UNL A   1      29.353  28.352  23.487  1.00  0.00     0.166 A 
ATOM     35  C   UNL A   1      30.343  29.014  24.175  1.00  0.00     0.165 A 
ATOM     36  O   UNL A   1      28.604  29.190  22.720  1.00  0.00    -0.454 OA
ATOM     37  O   UNL A   1      30.342  30.348  23.906  1.00  0.00    -0.454 OA
ATOM     38  C   UNL A   1      29.406  30.384  22.809  1.00  0.00     0.468 C 
ENDBRANCH  17  30
ENDBRANCH  13  16
ENDBRANCH   7  12
ENDBRANCH   3   6
ENDBRANCH   1   2
BRANCH   1  39
ATOM     39  C   UNL A   1      40.095  25.200  26.543  1.00  0.00     0.042 C 
BRANCH  39  40
ATOM     40  C   UNL A   1      41.365  24.618  27.155  1.00  0.00     0.118 C 
BRANCH  40  41
ATOM     41  N   UNL A   1      42.500  24.730  26.248  1.00  0.00    -0.352 N 
ATOM     42  C   UNL A   1      43.268  25.836  25.950  1.00  0.00     0.251 C 
ATOM     43  H   UNL A   1      42.753  23.901  25.782  1.00  0.00     0.163 HD
ATOM     44  O   UNL A   1      44.034  25.805  24.999  1.00  0.00    -0.269 OA
BRANCH  42  45
ATOM     45  C   UNL A   1      43.127  27.061  26.770  1.00  0.00     0.039 A 
ATOM     46  C   UNL A   1      43.819  27.152  27.981  1.00  0.00     0.014 A 
ATOM     47  C   UNL A   1      42.340  28.127  26.328  1.00  0.00     0.014 A 
ATOM     48  C   UNL A   1      43.798  28.350  28.699  1.00  0.00     0.010 A 
ATOM     49  C   UNL A   1      42.382  29.343  27.004  1.00  0.00     0.010 A 
ATOM     50  C   UNL A   1      43.123  29.471  28.189  1.00  0.00    -0.014 A 
BRANCH  50  51
ATOM     51  C   UNL A   1      43.208  30.799  28.850  1.00  0.00     0.031 A 
ATOM     52  C   UNL A   1      44.268  31.782  28.444  1.00  0.00     0.074 A 
ATOM     53  C   UNL A   1      42.388  31.078  29.883  1.00  0.00     0.049 A 
ATOM     54  N   UNL A   1      44.572  32.940  28.973  1.00  0.00    -0.248 NA
ATOM     55  C   UNL A   1      45.118  31.393  27.311  1.00  0.00     0.031 C 
ATOM     56  C   UNL A   1      41.341  30.190  30.394  1.00  0.00     0.029 A 
ATOM     57  N   UNL A   1      42.314  32.179  30.697  1.00  0.00    -0.354 N 
ATOM     58  C   UNL A   1      45.658  33.415  28.244  1.00  0.00     0.074 A 
ATOM     59  C   UNL A   1      45.997  32.384  27.284  1.00  0.00     0.031 C 
ATOM     60  C   UNL A   1      40.711  30.794  31.414  1.00  0.00     0.029 A 
ATOM     61  C   UNL A   1      41.344  32.084  31.667  1.00  0.00     0.049 A 
ATOM     62  H   UNL A   1      42.899  32.964  30.597  1.00  0.00     0.167 HD
ATOM     63  C   UNL A   1      46.295  34.608  28.350  1.00  0.00     0.034 A 
ATOM     64  C   UNL A   1      41.013  32.931  32.662  1.00  0.00     0.034 A 
ATOM     65  C   UNL A   1      45.943  35.621  29.317  1.00  0.00     0.049 A 
ATOM     66  C   UNL A   1      41.784  34.214  32.814  1.00  0.00     0.074 A 
ATOM     67  C   UNL A   1      46.468  36.893  29.468  1.00  0.00     0.029 A 
ATOM     68  N   UNL A   1      44.989  35.468  30.317  1.00  0.00    -0.354 N 
ATOM     69  N   UNL A   1      42.770  34.677  32.083  1.00  0.00    -0.248 NA
ATOM     70  C   UNL A   1      41.400  35.085  33.932  1.00  0.00     0.031 C 
ATOM     71  C   UNL A   1      45.888  37.477  30.601  1.00  0.00     0.029 A 
ATOM     72  C   UNL A   1      44.947  36.600  31.118  1.00  0.00     0.049 A 
ATOM     73  H   UNL A   1      44.425  34.670  30.440  1.00  0.00     0.167 HD
ATOM     74  C   UNL A   1      43.115  35.903  32.642  1.00  0.00     0.074 A 
ATOM     75  C   UNL A   1      42.221  36.113  33.764  1.00  0.00     0.031 C 
ATOM     76  C   UNL A   1      44.078  36.780  32.258  1.00  0.00     0.034 A 
BRANCH  63  77
ATOM     77  C   UNL A   1      47.456  34.852  27.413  1.00  0.00     0.023 A 
ATOM     78  C   UNL A   1      48.773  34.513  27.771  1.00  0.00     0.031 A 
ATOM     79  C   UNL A   1      47.257  35.491  26.176  1.00  0.00     0.131 A 
ATOM     80  C   UNL A   1      49.845  34.911  26.958  1.00  0.00     0.055 A 
ATOM     81  C   UNL A   1      48.322  35.798  25.327  1.00  0.00     0.041 A 
ATOM     82  F   UNL A   1      46.026  35.854  25.784  1.00  0.00    -0.206 F 
ATOM     83  C   UNL A   1      49.628  35.530  25.726  1.00  0.00     0.022 A 
BRANCH  80  84
ATOM     84  S   UNL A   1      51.528  34.782  27.628  1.00  0.00     0.124 S 
ATOM     85  O   UNL A   1      52.281  35.621  26.699  1.00  0.00    -0.237 OA
ATOM     86  O   UNL A   1      51.370  35.308  28.979  1.00  0.00    -0.237 OA
ATOM     87  O   UNL A   1      51.822  33.353  27.542  1.00  0.00    -0.744 OA
ENDBRANCH  80  84
ENDBRANCH  63  77
BRANCH  64  88
ATOM     88  C   UNL A   1      39.906  32.588  33.597  1.00  0.00     0.023 A 
ATOM     89  C   UNL A   1      38.640  33.175  33.453  1.00  0.00     0.031 A 
ATOM     90  C   UNL A   1      40.097  31.674  34.648  1.00  0.00     0.131 A 
ATOM     91  C   UNL A   1      37.617  32.861  34.360  1.00  0.00     0.055 A 
ATOM     92  C   UNL A   1      39.064  31.332  35.523  1.00  0.00     0.041 A 
ATOM     93  F   UNL A   1      41.287  31.079  34.822  1.00  0.00    -0.206 F 
ATOM     94  C   UNL A   1      37.816  31.933  35.385  1.00  0.00     0.022 A 
BRANCH  91  95
ATOM     95  S   UNL A   1      36.024  33.714  34.203  1.00  0.00     0.124 S 
ATOM     96  O   UNL A   1      35.616  33.839  35.598  1.00  0.00    -0.237 OA
ATOM     97  O   UNL A   1      36.408  34.951  33.531  1.00  0.00    -0.237 OA
ATOM     98  O   UNL A   1      35.225  32.794  33.398  1.00  0.00    -0.744 OA
ENDBRANCH  91  95
ENDBRANCH  64  88
BRANCH  76  99
ATOM     99  C   UNL A   1      44.197  38.054  33.057  1.00  0.00     0.023 A 
ATOM    100  C   UNL A   1      43.401  39.177  32.773  1.00  0.00     0.031 A 
ATOM    101  C   UNL A   1      45.125  38.148  34.110  1.00  0.00     0.131 A 
ATOM    102  C   UNL A   1      43.578  40.362  33.505  1.00  0.00     0.055 A 
ATOM    103  C   UNL A   1      45.257  39.310  34.871  1.00  0.00     0.041 A 
ATOM    104  F   UNL A   1      45.914  37.107  34.419  1.00  0.00    -0.206 F 
ATOM    105  C   UNL A   1      44.489  40.429  34.563  1.00  0.00     0.022 A 
BRANCH 102 106
ATOM    106  S   UNL A   1      42.652  41.841  33.010  1.00  0.00     0.124 S 
ATOM    107  O   UNL A   1      41.824  41.328  31.922  1.00  0.00    -0.237 OA
ATOM    108  O   UNL A   1      41.946  42.195  34.236  1.00  0.00    -0.237 OA
ATOM    109  O   UNL A   1      43.696  42.780  32.603  1.00  0.00    -0.744 OA
ENDBRANCH 102 106
ENDBRANCH  76  99
ENDBRANCH  50  51
ENDBRANCH  42  45
ENDBRANCH  40  41
ENDBRANCH  39  40
ENDBRANCH   1  39
TORSDOF 19
ENDMDL
MODEL 3
REMARK VINA RESULT:      -9.3      3.424     11.291
REMARK SMILES COc1ccccc1C(=O)N/C(=C/c1ccc2c(c1)OCO2)C(=O)Nc1ccc(C(=O)NCCCNC(=O)c2ccc(-c3c4nc(c(-c5cc(S(=O)(=O)[O-])ccc5F)c5ccc([nH]5)c(-c5cc(S(=O)(=O)[O-])ccc5F)c5nc(c(-c6cc(S(=O)(=O)[O-])ccc6F)c6ccc3[nH]6)C=C5)C=C4)cc2)cc1
REMARK SMILES IDX 33 1 32 2 30 3 31 4 29 6 26 7 27 8 103 9 28 10 102 11 25 12
REMARK SMILES IDX 23 13 24 14 12 16 13 17 11 18 9 19 10 20 8 22 3 23 4 24 5 25
REMARK SMILES IDX 7 26 6 27 2 28 1 29 14 30 15 31 19 32 16 33 18 34 17 35
REMARK SMILES IDX 20 36 22 37 21 38 34 39 35 40 36 41 37 42 38 44 39 45 40 46
REMARK SMILES IDX 101 47 41 48 100 49 42 50 43 51 44 52 94 53 45 54 99 55
REMARK SMILES IDX 93 56 95 57 46 58 98 59 92 60 91 61 47 63 79 64 59 65 78 66
REMARK SMILES IDX 60 67 63 68 77 69 96 70 61 71 62 72 76 74 97 75 64 76 48 77
REMARK SMILES IDX 49 78 57 79 50 80 56 81 58 82 55 83 51 84 52 85 53 86 54 87
REMARK SMILES IDX 80 88 81 89 89 90 82 91 88 92 90 93 87 94 83 95 84 96 85 97
REMARK SMILES IDX 86 98 65 99 66 100 74 101 67 102 73 103 75 104 72 105 68 106
REMARK SMILES IDX 69 107 70 108 71 109
REMARK H PARENT 32 5 25 15 11 21 36 43 95 62 63 73
REMARK Flexibility Score: inf
ROOT
ATOM      1  C   UNL A   1      42.449  22.872  26.633  1.00  0.00     0.118 C 
ENDROOT
BRANCH   1   2
ATOM      2  N   UNL A   1      43.848  22.536  26.434  1.00  0.00    -0.352 N 
ATOM      3  C   UNL A   1      45.007  23.009  26.997  1.00  0.00     0.251 C 
ATOM      4  O   UNL A   1      46.070  22.581  26.547  1.00  0.00    -0.269 OA
ATOM      5  H   UNL A   1      43.993  21.831  25.762  1.00  0.00     0.163 HD
BRANCH   3   6
ATOM      6  C   UNL A   1      45.027  23.890  28.201  1.00  0.00     0.039 A 
ATOM      7  C   UNL A   1      45.572  25.173  30.648  1.00  0.00     0.041 A 
ATOM      8  C   UNL A   1      46.397  25.384  29.537  1.00  0.00     0.027 A 
ATOM      9  C   UNL A   1      44.373  24.490  30.466  1.00  0.00     0.027 A 
ATOM     10  C   UNL A   1      46.143  24.723  28.332  1.00  0.00     0.016 A 
ATOM     11  C   UNL A   1      44.085  23.881  29.232  1.00  0.00     0.016 A 
BRANCH   7  12
ATOM     12  N   UNL A   1      46.078  25.619  31.880  1.00  0.00    -0.321 N 
ATOM     13  C   UNL A   1      45.535  26.250  32.965  1.00  0.00     0.272 C 
ATOM     14  O   UNL A   1      46.259  26.406  33.956  1.00  0.00    -0.267 OA
ATOM     15  H   UNL A   1      47.040  25.434  31.986  1.00  0.00     0.170 HD
BRANCH  13  16
ATOM     16  C   UNL A   1      44.081  26.629  33.084  1.00  0.00     0.108 C 
ATOM     17  C   UNL A   1      43.238  25.909  33.865  1.00  0.00     0.040 C 
BRANCH  16  18
ATOM     18  N   UNL A   1      43.622  27.846  32.607  1.00  0.00    -0.317 N 
ATOM     19  C   UNL A   1      43.448  29.094  33.167  1.00  0.00     0.259 C 
ATOM     20  O   UNL A   1      42.821  29.936  32.517  1.00  0.00    -0.269 OA
ATOM     21  H   UNL A   1      43.361  27.813  31.658  1.00  0.00     0.170 HD
BRANCH  19  22
ATOM     22  C   UNL A   1      43.953  29.493  34.493  1.00  0.00     0.082 A 
ATOM     23  C   UNL A   1      43.205  29.413  35.673  1.00  0.00     0.131 A 
ATOM     24  C   UNL A   1      43.744  29.915  36.862  1.00  0.00     0.047 A 
ATOM     25  C   UNL A   1      45.054  30.397  36.904  1.00  0.00     0.004 A 
ATOM     26  C   UNL A   1      45.286  29.939  34.548  1.00  0.00     0.018 A 
ATOM     27  C   UNL A   1      45.835  30.385  35.751  1.00  0.00     0.001 A 
BRANCH  23  28
ATOM     28  O   UNL A   1      41.924  28.941  35.770  1.00  0.00    -0.496 OA
ATOM     29  C   UNL A   1      40.923  29.957  35.743  1.00  0.00     0.278 C 
ENDBRANCH  23  28
ENDBRANCH  19  22
ENDBRANCH  16  18
BRANCH  17  30
ATOM     30  C   UNL A   1      43.592  24.690  34.609  1.00  0.00    -0.019 A 
ATOM     31  C   UNL A   1      43.688  23.463  33.917  1.00  0.00     0.012 A 
ATOM     32  C   UNL A   1      43.984  24.771  35.951  1.00  0.00     0.058 A 
ATOM     33  C   UNL A   1      44.341  22.370  34.496  1.00  0.00     0.051 A 
ATOM     34  C   UNL A   1      44.687  23.708  36.464  1.00  0.00     0.166 A 
ATOM     35  C   UNL A   1      44.886  22.551  35.748  1.00  0.00     0.165 A 
ATOM     36  O   UNL A   1      45.370  23.714  37.641  1.00  0.00    -0.454 OA
ATOM     37  O   UNL A   1      45.733  21.698  36.386  1.00  0.00    -0.454 OA
ATOM     38  C   UNL A   1      46.207  22.558  37.443  1.00  0.00     0.468 C 
ENDBRANCH  17  30
ENDBRANCH  13  16
ENDBRANCH   7  12
ENDBRANCH   3   6
ENDBRANCH   1   2
BRANCH   1  39
ATOM     39  C   UNL A   1      41.564  21.711  26.192  1.00  0.00     0.042 C 
BRANCH  39  40
ATOM     40  C   UNL A   1      40.305  21.596  27.046  1.00  0.00     0.118 C 
BRANCH  40  41
ATOM     41  N   UNL A   1      39.119  22.028  26.318  1.00  0.00    -0.352 N 
ATOM     42  C   UNL A   1      38.509  23.265  26.308  1.00  0.00     0.251 C 
ATOM     43  H   UNL A   1      38.693  21.342  25.755  1.00  0.00     0.163 HD
ATOM     44  O   UNL A   1      37.396  23.389  25.820  1.00  0.00    -0.269 OA
BRANCH  42  45
ATOM     45  C   UNL A   1      39.201  24.421  26.922  1.00  0.00     0.039 A 
ATOM     46  C   UNL A   1      39.921  25.296  26.103  1.00  0.00     0.014 A 
ATOM     47  C   UNL A   1      39.110  24.658  28.296  1.00  0.00     0.014 A 
ATOM     48  C   UNL A   1      40.468  26.459  26.650  1.00  0.00     0.010 A 
ATOM     49  C   UNL A   1      39.589  25.853  28.823  1.00  0.00     0.010 A 
ATOM     50  C   UNL A   1      40.260  26.773  28.004  1.00  0.00    -0.014 A 
BRANCH  50  51
ATOM     51  C   UNL A   1      40.697  28.072  28.578  1.00  0.00     0.031 A 
ATOM     52  C   UNL A   1      42.160  28.377  28.736  1.00  0.00     0.074 A 
ATOM     53  C   UNL A   1      39.773  28.934  29.044  1.00  0.00     0.049 A 
ATOM     54  N   UNL A   1      42.735  29.402  29.312  1.00  0.00    -0.248 NA
ATOM     55  C   UNL A   1      43.095  27.379  28.203  1.00  0.00     0.031 C 
ATOM     56  C   UNL A   1      38.323  28.735  28.979  1.00  0.00     0.029 A 
ATOM     57  N   UNL A   1      39.912  30.144  29.676  1.00  0.00    -0.354 N 
ATOM     58  C   UNL A   1      44.103  29.168  29.221  1.00  0.00     0.074 A 
ATOM     59  C   UNL A   1      44.261  27.870  28.595  1.00  0.00     0.031 C 
ATOM     60  C   UNL A   1      37.708  29.798  29.522  1.00  0.00     0.029 A 
ATOM     61  C   UNL A   1      38.716  30.727  30.023  1.00  0.00     0.049 A 
ATOM     62  H   UNL A   1      40.786  30.556  29.863  1.00  0.00     0.167 HD
ATOM     63  C   UNL A   1      45.129  29.969  29.600  1.00  0.00     0.034 A 
ATOM     64  C   UNL A   1      38.458  31.870  30.687  1.00  0.00     0.034 A 
ATOM     65  C   UNL A   1      44.950  31.258  30.225  1.00  0.00     0.049 A 
ATOM     66  C   UNL A   1      39.611  32.708  31.172  1.00  0.00     0.074 A 
ATOM     67  C   UNL A   1      45.911  32.188  30.584  1.00  0.00     0.029 A 
ATOM     68  N   UNL A   1      43.724  31.792  30.607  1.00  0.00    -0.354 N 
ATOM     69  N   UNL A   1      40.898  32.503  31.028  1.00  0.00    -0.248 NA
ATOM     70  C   UNL A   1      39.272  33.928  31.915  1.00  0.00     0.031 C 
ATOM     71  C   UNL A   1      45.275  33.244  31.249  1.00  0.00     0.029 A 
ATOM     72  C   UNL A   1      43.909  33.012  31.243  1.00  0.00     0.049 A 
ATOM     73  H   UNL A   1      42.851  31.366  30.451  1.00  0.00     0.167 HD
ATOM     74  C   UNL A   1      41.525  33.579  31.648  1.00  0.00     0.074 A 
ATOM     75  C   UNL A   1      40.473  34.437  32.156  1.00  0.00     0.031 C 
ATOM     76  C   UNL A   1      42.852  33.838  31.779  1.00  0.00     0.034 A 
BRANCH  63  77
ATOM     77  C   UNL A   1      46.530  29.446  29.374  1.00  0.00     0.023 A 
ATOM     78  C   UNL A   1      47.096  29.392  28.088  1.00  0.00     0.031 A 
ATOM     79  C   UNL A   1      47.286  28.936  30.444  1.00  0.00     0.131 A 
ATOM     80  C   UNL A   1      48.323  28.742  27.888  1.00  0.00     0.055 A 
ATOM     81  C   UNL A   1      48.551  28.376  30.251  1.00  0.00     0.041 A 
ATOM     82  F   UNL A   1      46.796  28.944  31.693  1.00  0.00    -0.206 F 
ATOM     83  C   UNL A   1      49.066  28.255  28.964  1.00  0.00     0.022 A 
BRANCH  80  84
ATOM     84  S   UNL A   1      48.834  28.372  26.186  1.00  0.00     0.124 S 
ATOM     85  O   UNL A   1      49.006  26.921  26.238  1.00  0.00    -0.237 OA
ATOM     86  O   UNL A   1      47.701  28.853  25.405  1.00  0.00    -0.237 OA
ATOM     87  O   UNL A   1      50.073  29.132  26.028  1.00  0.00    -0.744 OA
ENDBRANCH  80  84
ENDBRANCH  63  77
BRANCH  64  88
ATOM     88  C   UNL A   1      37.051  32.285  30.941  1.00  0.00     0.023 A 
ATOM     89  C   UNL A   1      36.277  32.856  29.920  1.00  0.00     0.031 A 
ATOM     90  C   UNL A   1      36.461  32.120  32.207  1.00  0.00     0.131 A 
ATOM     91  C   UNL A   1      34.962  33.267  30.186  1.00  0.00     0.055 A 
ATOM     92  C   UNL A   1      35.138  32.491  32.456  1.00  0.00     0.041 A 
ATOM     93  F   UNL A   1      37.156  31.570  33.215  1.00  0.00    -0.206 F 
ATOM     94  C   UNL A   1      34.383  33.075  31.443  1.00  0.00     0.022 A 
BRANCH  91  95
ATOM     95  S   UNL A   1      34.026  34.091  28.870  1.00  0.00     0.124 S 
ATOM     96  O   UNL A   1      33.739  32.980  27.970  1.00  0.00    -0.237 OA
ATOM     97  O   UNL A   1      32.889  34.636  29.603  1.00  0.00    -0.237 OA
ATOM     98  O   UNL A   1      34.966  35.085  28.357  1.00  0.00    -0.744 OA
ENDBRANCH  91  95
ENDBRANCH  64  88
BRANCH  76  99
ATOM     99  C   UNL A   1      43.230  35.113  32.491  1.00  0.00     0.023 A 
ATOM    100  C   UNL A   1      43.441  36.313  31.789  1.00  0.00     0.031 A 
ATOM    101  C   UNL A   1      43.389  35.127  33.888  1.00  0.00     0.131 A 
ATOM    102  C   UNL A   1      43.843  37.466  32.480  1.00  0.00     0.055 A 
ATOM    103  C   UNL A   1      43.733  36.291  34.577  1.00  0.00     0.041 A 
ATOM    104  F   UNL A   1      43.205  34.008  34.607  1.00  0.00    -0.206 F 
ATOM    105  C   UNL A   1      43.973  37.466  33.872  1.00  0.00     0.022 A 
BRANCH 102 106
ATOM    106  S   UNL A   1      44.263  38.952  31.529  1.00  0.00     0.124 S 
ATOM    107  O   UNL A   1      44.167  38.469  30.155  1.00  0.00    -0.237 OA
ATOM    108  O   UNL A   1      43.232  39.896  31.947  1.00  0.00    -0.237 OA
ATOM    109  O   UNL A   1      45.616  39.276  31.978  1.00  0.00    -0.744 OA
ENDBRANCH 102 106
ENDBRANCH  76  99
ENDBRANCH  50  51
ENDBRANCH  42  45
ENDBRANCH  40  41
ENDBRANCH  39  40
ENDBRANCH   1  39
TORSDOF 19
ENDMDL
