MODEL 1
REMARK VINA RESULT:     -12.9      0.000      0.000
REMARK SMILES Cc1cccc(NC(=O)COc2ccc(N3C[C@@H](C(=O)NCCCNC(=O)c4ccc(-c5c6nc(c(-c7cc(S(=O)(=O)[O-])ccc7F)c7ccc([nH]7)c(-c7cc(S(=O)(=O)[O-])ccc7F)c7nc(c(-c8cc(S(=O)(=O)[O-])ccc8F)c8ccc5[nH]8)C=C7)C=C6)cc4)CC3=O)cc2)c1
REMARK SMILES IDX 22 1 21 2 19 3 20 4 18 6 16 7 17 8 92 9 91 10 93 11 15 12
REMARK SMILES IDX 12 13 13 14 95 15 14 16 94 17 11 18 10 19 8 20 7 21 9 23
REMARK SMILES IDX 6 24 1 25 2 26 3 27 96 28 4 29 5 30 23 31 24 32 25 33 26 34
REMARK SMILES IDX 27 36 28 37 29 38 90 39 30 40 89 41 31 42 32 43 33 44 83 45
REMARK SMILES IDX 34 46 88 47 82 48 84 49 35 50 87 51 81 52 80 53 36 55 68 56
REMARK SMILES IDX 48 57 67 58 49 59 52 60 66 61 85 62 50 63 51 64 65 66 86 67
REMARK SMILES IDX 53 68 37 69 38 70 46 71 39 72 45 73 47 74 44 75 40 76 41 77
REMARK SMILES IDX 42 78 43 79 69 80 70 81 78 82 71 83 77 84 79 85 76 86 72 87
REMARK SMILES IDX 73 88 74 89 75 90 54 91 55 92 63 93 56 94 62 95 64 96 61 97
REMARK SMILES IDX 57 98 58 99 59 100 60 101
REMARK H PARENT 21 5 7 22 25 35 84 54 52 65
REMARK Flexibility Score: inf
ROOT
ATOM      1  C   UNL A   1      36.101  22.405  24.800  1.00  0.00     0.117 C 
ENDROOT
BRANCH   1   2
ATOM      2  N   UNL A   1      35.480  21.090  24.889  1.00  0.00    -0.356 N 
ATOM      3  C   UNL A   1      34.199  20.658  24.785  1.00  0.00     0.225 C 
ATOM      4  O   UNL A   1      33.979  19.448  24.909  1.00  0.00    -0.275 OA
ATOM      5  H   UNL A   1      36.123  20.364  25.058  1.00  0.00     0.163 HD
BRANCH   3   6
ATOM      6  C   UNL A   1      33.014  21.575  24.529  1.00  0.00     0.107 C 
ATOM      7  N   UNL A   1      32.585  23.668  25.537  1.00  0.00    -0.312 N 
ATOM      8  C   UNL A   1      33.357  23.049  24.481  1.00  0.00     0.139 C 
ATOM      9  C   UNL A   1      31.730  22.764  26.169  1.00  0.00     0.227 C 
ATOM     10  C   UNL A   1      31.856  21.425  25.493  1.00  0.00     0.116 C 
ATOM     11  O   UNL A   1      30.928  22.974  27.069  1.00  0.00    -0.274 OA
BRANCH   7  12
ATOM     12  C   UNL A   1      32.746  25.035  25.879  1.00  0.00     0.044 A 
ATOM     13  C   UNL A   1      33.077  27.752  26.565  1.00  0.00     0.120 A 
ATOM     14  C   UNL A   1      34.049  27.091  25.820  1.00  0.00     0.048 A 
ATOM     15  C   UNL A   1      31.933  27.067  26.957  1.00  0.00     0.048 A 
ATOM     16  C   UNL A   1      33.899  25.736  25.504  1.00  0.00     0.030 A 
ATOM     17  C   UNL A   1      31.767  25.723  26.604  1.00  0.00     0.030 A 
BRANCH  13  18
ATOM     18  O   UNL A   1      33.293  29.081  26.783  1.00  0.00    -0.484 OA
BRANCH  18  19
ATOM     19  C   UNL A   1      32.149  29.852  27.105  1.00  0.00     0.329 C 
BRANCH  19  20
ATOM     20  C   UNL A   1      31.540  30.784  26.057  1.00  0.00     0.262 C 
ATOM     21  N   UNL A   1      31.159  30.384  24.813  1.00  0.00    -0.323 N 
ATOM     22  H   UNL A   1      30.678  31.086  24.320  1.00  0.00     0.170 HD
ATOM     23  O   UNL A   1      31.364  31.980  26.326  1.00  0.00    -0.271 OA
BRANCH  21  24
ATOM     24  C   UNL A   1      31.295  29.201  24.071  1.00  0.00     0.041 A 
ATOM     25  C   UNL A   1      29.172  26.041  23.703  1.00  0.00     0.044 C 
ATOM     26  C   UNL A   1      30.278  27.039  23.529  1.00  0.00    -0.049 A 
ATOM     27  C   UNL A   1      31.347  26.760  22.675  1.00  0.00     0.003 A 
ATOM     28  C   UNL A   1      30.262  28.261  24.217  1.00  0.00     0.029 A 
ATOM     29  C   UNL A   1      32.365  27.694  22.504  1.00  0.00     0.002 A 
ATOM     30  C   UNL A   1      32.333  28.914  23.189  1.00  0.00     0.026 A 
ENDBRANCH  21  24
ENDBRANCH  19  20
ENDBRANCH  18  19
ENDBRANCH  13  18
ENDBRANCH   7  12
ENDBRANCH   3   6
ENDBRANCH   1   2
BRANCH   1  31
ATOM     31  C   UNL A   1      37.617  22.361  24.967  1.00  0.00     0.042 C 
BRANCH  31  32
ATOM     32  C   UNL A   1      38.144  23.306  26.046  1.00  0.00     0.118 C 
BRANCH  32  33
ATOM     33  N   UNL A   1      39.582  23.190  26.271  1.00  0.00    -0.352 N 
ATOM     34  C   UNL A   1      40.473  24.127  26.780  1.00  0.00     0.251 C 
ATOM     35  H   UNL A   1      39.979  22.321  26.028  1.00  0.00     0.163 HD
ATOM     36  O   UNL A   1      41.657  23.903  26.880  1.00  0.00    -0.269 OA
BRANCH  34  37
ATOM     37  C   UNL A   1      39.909  25.384  27.335  1.00  0.00     0.039 A 
ATOM     38  C   UNL A   1      40.143  26.558  26.609  1.00  0.00     0.014 A 
ATOM     39  C   UNL A   1      39.401  25.436  28.628  1.00  0.00     0.014 A 
ATOM     40  C   UNL A   1      40.097  27.783  27.265  1.00  0.00     0.010 A 
ATOM     41  C   UNL A   1      39.442  26.642  29.304  1.00  0.00     0.010 A 
ATOM     42  C   UNL A   1      39.857  27.803  28.641  1.00  0.00    -0.014 A 
BRANCH  42  43
ATOM     43  C   UNL A   1      40.207  28.946  29.480  1.00  0.00     0.031 A 
ATOM     44  C   UNL A   1      39.224  29.980  29.840  1.00  0.00     0.074 A 
ATOM     45  C   UNL A   1      41.457  29.052  29.984  1.00  0.00     0.049 A 
ATOM     46  N   UNL A   1      39.537  31.210  30.086  1.00  0.00    -0.248 NA
ATOM     47  C   UNL A   1      37.794  29.714  29.938  1.00  0.00     0.031 C 
ATOM     48  C   UNL A   1      41.923  29.973  31.015  1.00  0.00     0.029 A 
ATOM     49  N   UNL A   1      42.622  28.497  29.461  1.00  0.00    -0.354 N 
ATOM     50  C   UNL A   1      38.444  31.796  30.672  1.00  0.00     0.074 A 
ATOM     51  C   UNL A   1      37.360  30.856  30.479  1.00  0.00     0.031 C 
ATOM     52  C   UNL A   1      43.246  30.139  30.879  1.00  0.00     0.029 A 
ATOM     53  C   UNL A   1      43.653  29.432  29.680  1.00  0.00     0.049 A 
ATOM     54  H   UNL A   1      42.709  27.620  29.023  1.00  0.00     0.167 HD
ATOM     55  C   UNL A   1      38.582  32.935  31.405  1.00  0.00     0.034 A 
ATOM     56  C   UNL A   1      44.354  29.956  28.632  1.00  0.00     0.034 A 
ATOM     57  C   UNL A   1      39.962  33.415  31.468  1.00  0.00     0.049 A 
ATOM     58  C   UNL A   1      44.247  31.465  28.507  1.00  0.00     0.074 A 
ATOM     59  C   UNL A   1      40.944  33.416  32.446  1.00  0.00     0.029 A 
ATOM     60  N   UNL A   1      40.599  33.794  30.298  1.00  0.00    -0.354 N 
ATOM     61  N   UNL A   1      43.553  32.227  29.309  1.00  0.00    -0.248 NA
ATOM     62  C   UNL A   1      44.834  32.224  27.405  1.00  0.00     0.031 C 
ATOM     63  C   UNL A   1      42.174  33.818  31.849  1.00  0.00     0.029 A 
ATOM     64  C   UNL A   1      41.935  34.072  30.512  1.00  0.00     0.049 A 
ATOM     65  H   UNL A   1      40.153  33.857  29.422  1.00  0.00     0.167 HD
ATOM     66  C   UNL A   1      43.511  33.506  28.810  1.00  0.00     0.074 A 
ATOM     67  C   UNL A   1      44.339  33.455  27.620  1.00  0.00     0.031 C 
ATOM     68  C   UNL A   1      42.752  34.490  29.381  1.00  0.00     0.034 A 
BRANCH  55  69
ATOM     69  C   UNL A   1      37.475  33.435  32.294  1.00  0.00     0.023 A 
ATOM     70  C   UNL A   1      36.344  34.051  31.731  1.00  0.00     0.031 A 
ATOM     71  C   UNL A   1      37.501  33.360  33.700  1.00  0.00     0.131 A 
ATOM     72  C   UNL A   1      35.366  34.656  32.539  1.00  0.00     0.055 A 
ATOM     73  C   UNL A   1      36.563  34.016  34.507  1.00  0.00     0.041 A 
ATOM     74  F   UNL A   1      38.433  32.637  34.341  1.00  0.00    -0.206 F 
ATOM     75  C   UNL A   1      35.495  34.685  33.925  1.00  0.00     0.022 A 
BRANCH  72  76
ATOM     76  S   UNL A   1      33.916  35.402  31.746  1.00  0.00     0.124 S 
ATOM     77  O   UNL A   1      34.079  36.817  32.063  1.00  0.00    -0.237 OA
ATOM     78  O   UNL A   1      34.105  35.028  30.349  1.00  0.00    -0.237 OA
ATOM     79  O   UNL A   1      32.791  34.747  32.413  1.00  0.00    -0.744 OA
ENDBRANCH  72  76
ENDBRANCH  55  69
BRANCH  56  80
ATOM     80  C   UNL A   1      44.507  28.981  27.507  1.00  0.00     0.023 A 
ATOM     81  C   UNL A   1      45.403  27.908  27.717  1.00  0.00     0.031 A 
ATOM     82  C   UNL A   1      43.557  28.847  26.488  1.00  0.00     0.131 A 
ATOM     83  C   UNL A   1      45.200  26.681  27.071  1.00  0.00     0.055 A 
ATOM     84  C   UNL A   1      43.431  27.654  25.764  1.00  0.00     0.041 A 
ATOM     85  F   UNL A   1      42.651  29.810  26.260  1.00  0.00    -0.206 F 
ATOM     86  C   UNL A   1      44.220  26.547  26.089  1.00  0.00     0.022 A 
BRANCH  83  87
ATOM     87  S   UNL A   1      46.003  25.208  27.774  1.00  0.00     0.124 S 
ATOM     88  O   UNL A   1      46.908  24.807  26.704  1.00  0.00    -0.237 OA
ATOM     89  O   UNL A   1      46.636  25.734  28.985  1.00  0.00    -0.237 OA
ATOM     90  O   UNL A   1      44.896  24.293  28.041  1.00  0.00    -0.744 OA
ENDBRANCH  83  87
ENDBRANCH  56  80
BRANCH  68  91
ATOM     91  C   UNL A   1      42.675  35.921  28.891  1.00  0.00     0.023 A 
ATOM     92  C   UNL A   1      43.184  37.005  29.626  1.00  0.00     0.031 A 
ATOM     93  C   UNL A   1      42.014  36.258  27.684  1.00  0.00     0.131 A 
ATOM     94  C   UNL A   1      43.126  38.318  29.120  1.00  0.00     0.055 A 
ATOM     95  C   UNL A   1      41.894  37.571  27.218  1.00  0.00     0.041 A 
ATOM     96  F   UNL A   1      41.472  35.329  26.885  1.00  0.00    -0.206 F 
ATOM     97  C   UNL A   1      42.470  38.611  27.927  1.00  0.00     0.022 A 
BRANCH  94  98
ATOM     98  S   UNL A   1      43.977  39.634  30.026  1.00  0.00     0.124 S 
ATOM     99  O   UNL A   1      44.763  40.281  28.981  1.00  0.00    -0.237 OA
ATOM    100  O   UNL A   1      42.855  40.409  30.548  1.00  0.00    -0.237 OA
ATOM    101  O   UNL A   1      44.755  38.915  31.033  1.00  0.00    -0.744 OA
ENDBRANCH  94  98
ENDBRANCH  68  91
ENDBRANCH  42  43
ENDBRANCH  34  37
ENDBRANCH  32  33
ENDBRANCH  31  32
ENDBRANCH   1  31
TORSDOF 18
ENDMDL
MODEL 2
REMARK VINA RESULT:     -12.9      3.842     10.001
REMARK SMILES Cc1cccc(NC(=O)COc2ccc(N3C[C@@H](C(=O)NCCCNC(=O)c4ccc(-c5c6nc(c(-c7cc(S(=O)(=O)[O-])ccc7F)c7ccc([nH]7)c(-c7cc(S(=O)(=O)[O-])ccc7F)c7nc(c(-c8cc(S(=O)(=O)[O-])ccc8F)c8ccc5[nH]8)C=C7)C=C6)cc4)CC3=O)cc2)c1
REMARK SMILES IDX 22 1 21 2 19 3 20 4 18 6 16 7 17 8 92 9 91 10 93 11 15 12
REMARK SMILES IDX 12 13 13 14 95 15 14 16 94 17 11 18 10 19 8 20 7 21 9 23
REMARK SMILES IDX 6 24 1 25 2 26 3 27 96 28 4 29 5 30 23 31 24 32 25 33 26 34
REMARK SMILES IDX 27 36 28 37 29 38 90 39 30 40 89 41 31 42 32 43 33 44 83 45
REMARK SMILES IDX 34 46 88 47 82 48 84 49 35 50 87 51 81 52 80 53 36 55 68 56
REMARK SMILES IDX 48 57 67 58 49 59 52 60 66 61 85 62 50 63 51 64 65 66 86 67
REMARK SMILES IDX 53 68 37 69 38 70 46 71 39 72 45 73 47 74 44 75 40 76 41 77
REMARK SMILES IDX 42 78 43 79 69 80 70 81 78 82 71 83 77 84 79 85 76 86 72 87
REMARK SMILES IDX 73 88 74 89 75 90 54 91 55 92 63 93 56 94 62 95 64 96 61 97
REMARK SMILES IDX 57 98 58 99 59 100 60 101
REMARK H PARENT 21 5 7 22 25 35 84 54 52 65
REMARK Flexibility Score: inf
ROOT
ATOM      1  C   UNL A   1      32.492  33.266  27.536  1.00  0.00     0.117 C 
ENDROOT
BRANCH   1   2
ATOM      2  N   UNL A   1      33.605  32.335  27.668  1.00  0.00    -0.356 N 
ATOM      3  C   UNL A   1      33.717  30.992  27.526  1.00  0.00     0.225 C 
ATOM      4  O   UNL A   1      34.825  30.475  27.708  1.00  0.00    -0.275 OA
ATOM      5  H   UNL A   1      34.453  32.773  27.912  1.00  0.00     0.163 HD
BRANCH   3   6
ATOM      6  C   UNL A   1      32.558  30.080  27.157  1.00  0.00     0.107 C 
ATOM      7  N   UNL A   1      32.686  27.913  26.228  1.00  0.00    -0.312 N 
ATOM      8  C   UNL A   1      32.776  28.619  27.487  1.00  0.00     0.139 C 
ATOM      9  C   UNL A   1      32.340  28.755  25.170  1.00  0.00     0.227 C 
ATOM     10  C   UNL A   1      32.117  30.142  25.711  1.00  0.00     0.116 C 
ATOM     11  O   UNL A   1      32.152  28.468  23.996  1.00  0.00    -0.274 OA
BRANCH   7  12
ATOM     12  C   UNL A   1      32.967  26.526  26.125  1.00  0.00     0.044 A 
ATOM     13  C   UNL A   1      33.526  23.769  25.906  1.00  0.00     0.120 A 
ATOM     14  C   UNL A   1      34.423  24.710  25.408  1.00  0.00     0.048 A 
ATOM     15  C   UNL A   1      32.359  24.197  26.526  1.00  0.00     0.048 A 
ATOM     16  C   UNL A   1      34.133  26.077  25.490  1.00  0.00     0.030 A 
ATOM     17  C   UNL A   1      32.091  25.566  26.644  1.00  0.00     0.030 A 
BRANCH  13  18
ATOM     18  O   UNL A   1      33.920  22.465  25.819  1.00  0.00    -0.484 OA
BRANCH  18  19
ATOM     19  C   UNL A   1      32.895  21.497  25.948  1.00  0.00     0.329 C 
BRANCH  19  20
ATOM     20  C   UNL A   1      32.378  20.765  24.709  1.00  0.00     0.262 C 
ATOM     21  N   UNL A   1      32.145  21.369  23.512  1.00  0.00    -0.323 N 
ATOM     22  H   UNL A   1      31.933  20.725  22.799  1.00  0.00     0.170 HD
ATOM     23  O   UNL A   1      32.152  19.549  24.764  1.00  0.00    -0.271 OA
BRANCH  21  24
ATOM     24  C   UNL A   1      32.137  22.697  23.060  1.00  0.00     0.041 A 
ATOM     25  C   UNL A   1      29.800  25.673  23.617  1.00  0.00     0.044 C 
ATOM     26  C   UNL A   1      30.948  24.838  23.134  1.00  0.00    -0.049 A 
ATOM     27  C   UNL A   1      31.915  25.395  22.295  1.00  0.00     0.003 A 
ATOM     28  C   UNL A   1      31.071  23.493  23.512  1.00  0.00     0.029 A 
ATOM     29  C   UNL A   1      32.989  24.622  21.859  1.00  0.00     0.002 A 
ATOM     30  C   UNL A   1      33.106  23.283  22.251  1.00  0.00     0.026 A 
ENDBRANCH  21  24
ENDBRANCH  19  20
ENDBRANCH  18  19
ENDBRANCH  13  18
ENDBRANCH   7  12
ENDBRANCH   3   6
ENDBRANCH   1   2
BRANCH   1  31
ATOM     31  C   UNL A   1      32.708  34.568  28.300  1.00  0.00     0.042 C 
BRANCH  31  32
ATOM     32  C   UNL A   1      34.174  34.861  28.613  1.00  0.00     0.118 C 
BRANCH  32  33
ATOM     33  N   UNL A   1      34.446  35.016  30.040  1.00  0.00    -0.352 N 
ATOM     34  C   UNL A   1      35.173  34.193  30.892  1.00  0.00     0.251 C 
ATOM     35  H   UNL A   1      34.058  35.819  30.459  1.00  0.00     0.163 HD
ATOM     36  O   UNL A   1      35.288  34.429  32.073  1.00  0.00    -0.269 OA
BRANCH  34  37
ATOM     37  C   UNL A   1      35.933  33.071  30.285  1.00  0.00     0.039 A 
ATOM     38  C   UNL A   1      35.960  31.866  30.998  1.00  0.00     0.014 A 
ATOM     39  C   UNL A   1      36.781  33.277  29.203  1.00  0.00     0.014 A 
ATOM     40  C   UNL A   1      37.002  30.970  30.778  1.00  0.00     0.010 A 
ATOM     41  C   UNL A   1      37.865  32.433  29.045  1.00  0.00     0.010 A 
ATOM     42  C   UNL A   1      38.012  31.317  29.878  1.00  0.00    -0.014 A 
BRANCH  42  43
ATOM     43  C   UNL A   1      39.326  30.681  29.894  1.00  0.00     0.031 A 
ATOM     44  C   UNL A   1      39.532  29.304  29.416  1.00  0.00     0.074 A 
ATOM     45  C   UNL A   1      40.405  31.376  30.319  1.00  0.00     0.049 A 
ATOM     46  N   UNL A   1      40.457  28.522  29.866  1.00  0.00    -0.248 NA
ATOM     47  C   UNL A   1      38.694  28.687  28.395  1.00  0.00     0.031 C 
ATOM     48  C   UNL A   1      41.809  31.003  30.186  1.00  0.00     0.029 A 
ATOM     49  N   UNL A   1      40.414  32.459  31.193  1.00  0.00    -0.354 N 
ATOM     50  C   UNL A   1      40.546  27.462  29.000  1.00  0.00     0.074 A 
ATOM     51  C   UNL A   1      39.375  27.563  28.155  1.00  0.00     0.031 C 
ATOM     52  C   UNL A   1      42.515  31.635  31.135  1.00  0.00     0.029 A 
ATOM     53  C   UNL A   1      41.571  32.334  31.987  1.00  0.00     0.049 A 
ATOM     54  H   UNL A   1      39.741  33.176  31.246  1.00  0.00     0.167 HD
ATOM     55  C   UNL A   1      41.670  26.693  28.964  1.00  0.00     0.034 A 
ATOM     56  C   UNL A   1      41.478  32.229  33.346  1.00  0.00     0.034 A 
ATOM     57  C   UNL A   1      42.693  27.124  29.915  1.00  0.00     0.049 A 
ATOM     58  C   UNL A   1      42.051  30.941  33.909  1.00  0.00     0.074 A 
ATOM     59  C   UNL A   1      43.903  27.790  29.802  1.00  0.00     0.029 A 
ATOM     60  N   UNL A   1      42.411  27.088  31.271  1.00  0.00    -0.354 N 
ATOM     61  N   UNL A   1      42.590  29.994  33.191  1.00  0.00    -0.248 NA
ATOM     62  C   UNL A   1      41.970  30.577  35.322  1.00  0.00     0.031 C 
ATOM     63  C   UNL A   1      44.352  28.135  31.110  1.00  0.00     0.029 A 
ATOM     64  C   UNL A   1      43.419  27.669  32.017  1.00  0.00     0.049 A 
ATOM     65  H   UNL A   1      41.593  26.696  31.655  1.00  0.00     0.167 HD
ATOM     66  C   UNL A   1      42.832  28.895  33.979  1.00  0.00     0.074 A 
ATOM     67  C   UNL A   1      42.435  29.315  35.311  1.00  0.00     0.031 C 
ATOM     68  C   UNL A   1      43.281  27.710  33.466  1.00  0.00     0.034 A 
BRANCH  55  69
ATOM     69  C   UNL A   1      41.920  25.722  27.841  1.00  0.00     0.023 A 
ATOM     70  C   UNL A   1      41.265  24.478  27.829  1.00  0.00     0.031 A 
ATOM     71  C   UNL A   1      42.818  25.957  26.782  1.00  0.00     0.131 A 
ATOM     72  C   UNL A   1      41.586  23.496  26.876  1.00  0.00     0.055 A 
ATOM     73  C   UNL A   1      43.186  24.959  25.871  1.00  0.00     0.041 A 
ATOM     74  F   UNL A   1      43.359  27.170  26.586  1.00  0.00    -0.206 F 
ATOM     75  C   UNL A   1      42.581  23.711  25.927  1.00  0.00     0.022 A 
BRANCH  72  76
ATOM     76  S   UNL A   1      40.676  21.927  26.898  1.00  0.00     0.124 S 
ATOM     77  O   UNL A   1      39.343  22.332  26.464  1.00  0.00    -0.237 OA
ATOM     78  O   UNL A   1      41.442  21.117  25.957  1.00  0.00    -0.237 OA
ATOM     79  O   UNL A   1      40.767  21.502  28.294  1.00  0.00    -0.744 OA
ENDBRANCH  72  76
ENDBRANCH  55  69
BRANCH  56  80
ATOM     80  C   UNL A   1      40.320  33.001  33.896  1.00  0.00     0.023 A 
ATOM     81  C   UNL A   1      39.442  32.301  34.754  1.00  0.00     0.031 A 
ATOM     82  C   UNL A   1      40.297  34.400  33.939  1.00  0.00     0.131 A 
ATOM     83  C   UNL A   1      38.739  32.984  35.756  1.00  0.00     0.055 A 
ATOM     84  C   UNL A   1      39.504  35.085  34.870  1.00  0.00     0.041 A 
ATOM     85  F   UNL A   1      41.129  35.127  33.180  1.00  0.00    -0.206 F 
ATOM     86  C   UNL A   1      38.760  34.376  35.817  1.00  0.00     0.022 A 
BRANCH  83  87
ATOM     87  S   UNL A   1      38.090  32.012  37.151  1.00  0.00     0.124 S 
ATOM     88  O   UNL A   1      39.136  32.173  38.154  1.00  0.00    -0.237 OA
ATOM     89  O   UNL A   1      36.817  32.675  37.440  1.00  0.00    -0.237 OA
ATOM     90  O   UNL A   1      37.939  30.665  36.606  1.00  0.00    -0.744 OA
ENDBRANCH  83  87
ENDBRANCH  56  80
BRANCH  68  91
ATOM     91  C   UNL A   1      43.581  26.470  34.282  1.00  0.00     0.023 A 
ATOM     92  C   UNL A   1      44.879  25.953  34.429  1.00  0.00     0.031 A 
ATOM     93  C   UNL A   1      42.549  25.713  34.890  1.00  0.00     0.131 A 
ATOM     94  C   UNL A   1      45.123  24.818  35.226  1.00  0.00     0.055 A 
ATOM     95  C   UNL A   1      42.786  24.545  35.621  1.00  0.00     0.041 A 
ATOM     96  F   UNL A   1      41.262  26.081  34.824  1.00  0.00    -0.206 F 
ATOM     97  C   UNL A   1      44.083  24.099  35.811  1.00  0.00     0.022 A 
BRANCH  94  98
ATOM     98  S   UNL A   1      46.839  24.326  35.532  1.00  0.00     0.124 S 
ATOM     99  O   UNL A   1      47.503  25.609  35.742  1.00  0.00    -0.237 OA
ATOM    100  O   UNL A   1      46.700  23.483  36.715  1.00  0.00    -0.237 OA
ATOM    101  O   UNL A   1      47.221  23.621  34.310  1.00  0.00    -0.744 OA
ENDBRANCH  94  98
ENDBRANCH  68  91
ENDBRANCH  42  43
ENDBRANCH  34  37
ENDBRANCH  32  33
ENDBRANCH  31  32
ENDBRANCH   1  31
TORSDOF 18
ENDMDL
MODEL 3
REMARK VINA RESULT:     -12.7      3.863     10.355
REMARK SMILES Cc1cccc(NC(=O)COc2ccc(N3C[C@@H](C(=O)NCCCNC(=O)c4ccc(-c5c6nc(c(-c7cc(S(=O)(=O)[O-])ccc7F)c7ccc([nH]7)c(-c7cc(S(=O)(=O)[O-])ccc7F)c7nc(c(-c8cc(S(=O)(=O)[O-])ccc8F)c8ccc5[nH]8)C=C7)C=C6)cc4)CC3=O)cc2)c1
REMARK SMILES IDX 22 1 21 2 19 3 20 4 18 6 16 7 17 8 92 9 91 10 93 11 15 12
REMARK SMILES IDX 12 13 13 14 95 15 14 16 94 17 11 18 10 19 8 20 7 21 9 23
REMARK SMILES IDX 6 24 1 25 2 26 3 27 96 28 4 29 5 30 23 31 24 32 25 33 26 34
REMARK SMILES IDX 27 36 28 37 29 38 90 39 30 40 89 41 31 42 32 43 33 44 83 45
REMARK SMILES IDX 34 46 88 47 82 48 84 49 35 50 87 51 81 52 80 53 36 55 68 56
REMARK SMILES IDX 48 57 67 58 49 59 52 60 66 61 85 62 50 63 51 64 65 66 86 67
REMARK SMILES IDX 53 68 37 69 38 70 46 71 39 72 45 73 47 74 44 75 40 76 41 77
REMARK SMILES IDX 42 78 43 79 69 80 70 81 78 82 71 83 77 84 79 85 76 86 72 87
REMARK SMILES IDX 73 88 74 89 75 90 54 91 55 92 63 93 56 94 62 95 64 96 61 97
REMARK SMILES IDX 57 98 58 99 59 100 60 101
REMARK H PARENT 21 5 7 22 25 35 84 54 52 65
REMARK Flexibility Score: inf
ROOT
ATOM      1  C   UNL A   1      33.928  33.536  28.045  1.00  0.00     0.117 C 
ENDROOT
BRANCH   1   2
ATOM      2  N   UNL A   1      35.093  32.674  27.894  1.00  0.00    -0.356 N 
ATOM      3  C   UNL A   1      35.249  31.334  27.762  1.00  0.00     0.225 C 
ATOM      4  O   UNL A   1      36.395  30.887  27.650  1.00  0.00    -0.275 OA
ATOM      5  H   UNL A   1      35.945  33.168  27.884  1.00  0.00     0.163 HD
BRANCH   3   6
ATOM      6  C   UNL A   1      34.094  30.345  27.750  1.00  0.00     0.107 C 
ATOM      7  N   UNL A   1      33.564  28.791  26.052  1.00  0.00    -0.312 N 
ATOM      8  C   UNL A   1      34.438  28.982  27.189  1.00  0.00     0.139 C 
ATOM      9  C   UNL A   1      32.650  29.836  25.904  1.00  0.00     0.227 C 
ATOM     10  C   UNL A   1      32.846  30.812  27.033  1.00  0.00     0.116 C 
ATOM     11  O   UNL A   1      31.762  29.960  25.072  1.00  0.00    -0.274 OA
BRANCH   7  12
ATOM     12  C   UNL A   1      33.687  27.669  25.192  1.00  0.00     0.044 A 
ATOM     13  C   UNL A   1      33.920  25.441  23.477  1.00  0.00     0.120 A 
ATOM     14  C   UNL A   1      33.676  26.709  22.955  1.00  0.00     0.048 A 
ATOM     15  C   UNL A   1      34.063  25.283  24.849  1.00  0.00     0.048 A 
ATOM     16  C   UNL A   1      33.532  27.810  23.807  1.00  0.00     0.030 A 
ATOM     17  C   UNL A   1      33.959  26.393  25.697  1.00  0.00     0.030 A 
BRANCH  13  18
ATOM     18  O   UNL A   1      34.089  24.443  22.562  1.00  0.00    -0.484 OA
BRANCH  18  19
ATOM     19  C   UNL A   1      33.769  23.136  23.005  1.00  0.00     0.329 C 
BRANCH  19  20
ATOM     20  C   UNL A   1      32.414  22.523  22.651  1.00  0.00     0.262 C 
ATOM     21  N   UNL A   1      31.220  23.028  23.065  1.00  0.00    -0.323 N 
ATOM     22  H   UNL A   1      30.453  22.578  22.644  1.00  0.00     0.170 HD
ATOM     23  O   UNL A   1      32.365  21.509  21.942  1.00  0.00    -0.271 OA
BRANCH  21  24
ATOM     24  C   UNL A   1      30.830  24.040  23.955  1.00  0.00     0.041 A 
ATOM     25  C   UNL A   1      29.554  27.617  23.509  1.00  0.00     0.044 C 
ATOM     26  C   UNL A   1      29.993  26.334  24.148  1.00  0.00    -0.049 A 
ATOM     27  C   UNL A   1      29.994  26.209  25.539  1.00  0.00     0.003 A 
ATOM     28  C   UNL A   1      30.409  25.245  23.369  1.00  0.00     0.029 A 
ATOM     29  C   UNL A   1      30.387  25.010  26.131  1.00  0.00     0.002 A 
ATOM     30  C   UNL A   1      30.792  23.927  25.342  1.00  0.00     0.026 A 
ENDBRANCH  21  24
ENDBRANCH  19  20
ENDBRANCH  18  19
ENDBRANCH  13  18
ENDBRANCH   7  12
ENDBRANCH   3   6
ENDBRANCH   1   2
BRANCH   1  31
ATOM     31  C   UNL A   1      33.967  34.375  29.319  1.00  0.00     0.042 C 
BRANCH  31  32
ATOM     32  C   UNL A   1      34.422  33.598  30.553  1.00  0.00     0.118 C 
BRANCH  32  33
ATOM     33  N   UNL A   1      35.306  34.362  31.429  1.00  0.00    -0.352 N 
ATOM     34  C   UNL A   1      36.602  34.073  31.842  1.00  0.00     0.251 C 
ATOM     35  H   UNL A   1      34.930  35.203  31.779  1.00  0.00     0.163 HD
ATOM     36  O   UNL A   1      37.209  34.787  32.606  1.00  0.00    -0.269 OA
BRANCH  34  37
ATOM     37  C   UNL A   1      37.287  32.919  31.206  1.00  0.00     0.039 A 
ATOM     38  C   UNL A   1      37.325  31.725  31.935  1.00  0.00     0.014 A 
ATOM     39  C   UNL A   1      38.068  33.083  30.067  1.00  0.00     0.014 A 
ATOM     40  C   UNL A   1      38.323  30.795  31.663  1.00  0.00     0.010 A 
ATOM     41  C   UNL A   1      39.114  32.204  29.853  1.00  0.00     0.010 A 
ATOM     42  C   UNL A   1      39.283  31.098  30.694  1.00  0.00    -0.014 A 
BRANCH  42  43
ATOM     43  C   UNL A   1      40.575  30.422  30.635  1.00  0.00     0.031 A 
ATOM     44  C   UNL A   1      40.765  29.164  29.893  1.00  0.00     0.074 A 
ATOM     45  C   UNL A   1      41.651  30.974  31.238  1.00  0.00     0.049 A 
ATOM     46  N   UNL A   1      41.644  28.273  30.212  1.00  0.00    -0.248 NA
ATOM     47  C   UNL A   1      39.962  28.801  28.732  1.00  0.00     0.031 C 
ATOM     48  C   UNL A   1      43.049  30.582  31.092  1.00  0.00     0.029 A 
ATOM     49  N   UNL A   1      41.648  31.855  32.316  1.00  0.00    -0.354 N 
ATOM     50  C   UNL A   1      41.746  27.408  29.152  1.00  0.00     0.074 A 
ATOM     51  C   UNL A   1      40.622  27.724  28.296  1.00  0.00     0.031 C 
ATOM     52  C   UNL A   1      43.724  30.981  32.180  1.00  0.00     0.029 A 
ATOM     53  C   UNL A   1      42.760  31.526  33.116  1.00  0.00     0.049 A 
ATOM     54  H   UNL A   1      40.994  32.571  32.487  1.00  0.00     0.167 HD
ATOM     55  C   UNL A   1      42.848  26.621  29.006  1.00  0.00     0.034 A 
ATOM     56  C   UNL A   1      42.596  31.150  34.419  1.00  0.00     0.034 A 
ATOM     57  C   UNL A   1      43.834  26.809  30.068  1.00  0.00     0.049 A 
ATOM     58  C   UNL A   1      43.104  29.754  34.730  1.00  0.00     0.074 A 
ATOM     59  C   UNL A   1      45.067  27.437  30.146  1.00  0.00     0.029 A 
ATOM     60  N   UNL A   1      43.484  26.508  31.375  1.00  0.00    -0.354 N 
ATOM     61  N   UNL A   1      43.651  28.953  33.856  1.00  0.00    -0.248 NA
ATOM     62  C   UNL A   1      42.943  29.113  36.033  1.00  0.00     0.031 C 
ATOM     63  C   UNL A   1      45.460  27.491  31.515  1.00  0.00     0.029 A 
ATOM     64  C   UNL A   1      44.470  26.886  32.266  1.00  0.00     0.049 A 
ATOM     65  H   UNL A   1      42.638  26.078  31.635  1.00  0.00     0.167 HD
ATOM     66  C   UNL A   1      43.822  27.709  34.411  1.00  0.00     0.074 A 
ATOM     67  C   UNL A   1      43.372  27.863  35.783  1.00  0.00     0.031 C 
ATOM     68  C   UNL A   1      44.262  26.637  33.686  1.00  0.00     0.034 A 
BRANCH  55  69
ATOM     69  C   UNL A   1      43.125  25.890  27.720  1.00  0.00     0.023 A 
ATOM     70  C   UNL A   1      42.617  24.594  27.524  1.00  0.00     0.031 A 
ATOM     71  C   UNL A   1      43.911  26.409  26.673  1.00  0.00     0.131 A 
ATOM     72  C   UNL A   1      42.979  23.832  26.399  1.00  0.00     0.055 A 
ATOM     73  C   UNL A   1      44.324  25.631  25.584  1.00  0.00     0.041 A 
ATOM     74  F   UNL A   1      44.295  27.696  26.664  1.00  0.00    -0.206 F 
ATOM     75  C   UNL A   1      43.871  24.327  25.452  1.00  0.00     0.022 A 
BRANCH  72  76
ATOM     76  S   UNL A   1      42.259  22.181  26.193  1.00  0.00     0.124 S 
ATOM     77  O   UNL A   1      40.833  22.473  26.086  1.00  0.00    -0.237 OA
ATOM     78  O   UNL A   1      42.914  21.711  24.977  1.00  0.00    -0.237 OA
ATOM     79  O   UNL A   1      42.654  21.483  27.416  1.00  0.00    -0.744 OA
ENDBRANCH  72  76
ENDBRANCH  55  69
BRANCH  56  80
ATOM     80  C   UNL A   1      41.436  31.837  35.066  1.00  0.00     0.023 A 
ATOM     81  C   UNL A   1      41.649  33.163  35.508  1.00  0.00     0.031 A 
ATOM     82  C   UNL A   1      40.112  31.416  34.889  1.00  0.00     0.131 A 
ATOM     83  C   UNL A   1      40.585  34.074  35.556  1.00  0.00     0.055 A 
ATOM     84  C   UNL A   1      39.039  32.303  35.048  1.00  0.00     0.041 A 
ATOM     85  F   UNL A   1      39.837  30.184  34.434  1.00  0.00    -0.206 F 
ATOM     86  C   UNL A   1      39.276  33.650  35.332  1.00  0.00     0.022 A 
BRANCH  83  87
ATOM     87  S   UNL A   1      40.986  35.848  35.578  1.00  0.00     0.124 S 
ATOM     88  O   UNL A   1      41.780  35.971  36.794  1.00  0.00    -0.237 OA
ATOM     89  O   UNL A   1      41.711  36.030  34.319  1.00  0.00    -0.237 OA
ATOM     90  O   UNL A   1      39.683  36.507  35.605  1.00  0.00    -0.744 OA
ENDBRANCH  83  87
ENDBRANCH  56  80
BRANCH  68  91
ATOM     91  C   UNL A   1      44.486  25.246  34.242  1.00  0.00     0.023 A 
ATOM     92  C   UNL A   1      45.752  24.639  34.285  1.00  0.00     0.031 A 
ATOM     93  C   UNL A   1      43.408  24.442  34.688  1.00  0.00     0.131 A 
ATOM     94  C   UNL A   1      45.926  23.358  34.843  1.00  0.00     0.055 A 
ATOM     95  C   UNL A   1      43.573  23.142  35.175  1.00  0.00     0.041 A 
ATOM     96  F   UNL A   1      42.143  24.886  34.695  1.00  0.00    -0.206 F 
ATOM     97  C   UNL A   1      44.842  22.597  35.275  1.00  0.00     0.022 A 
BRANCH  94  98
ATOM     98  S   UNL A   1      47.609  22.723  35.047  1.00  0.00     0.124 S 
ATOM     99  O   UNL A   1      47.500  21.362  34.532  1.00  0.00    -0.237 OA
ATOM    100  O   UNL A   1      48.379  23.652  34.226  1.00  0.00    -0.237 OA
ATOM    101  O   UNL A   1      47.846  22.825  36.486  1.00  0.00    -0.744 OA
ENDBRANCH  94  98
ENDBRANCH  68  91
ENDBRANCH  42  43
ENDBRANCH  34  37
ENDBRANCH  32  33
ENDBRANCH  31  32
ENDBRANCH   1  31
TORSDOF 18
ENDMDL
