MODEL 1
REMARK VINA RESULT:     -11.0      0.000      0.000
REMARK SMILES O=C(C[C@H]1CN(c2nc(C3CC3)ns2)CCO1)NCCCNC(=O)c1ccc(-c2c3nc(c(-c4cc(S(=O)(=O)[O-])ccc4F)c4ccc([nH]4)c(-c4cc(S(=O)(=O)[O-])ccc4F)c4nc(c(-c5cc(S(=O)(=O)[O-])ccc5F)c5ccc2[nH]5)C=C4)C=C3)cc1
REMARK SMILES IDX 20 1 19 2 18 3 1 4 2 5 3 7 4 8 5 9 17 10 6 11 16 12 15 13
REMARK SMILES IDX 7 14 8 15 14 16 9 17 13 18 10 19 11 20 12 21 21 22 22 23
REMARK SMILES IDX 23 24 24 26 25 27 26 28 87 29 27 30 86 31 28 32 29 33 30 34
REMARK SMILES IDX 80 35 31 36 85 37 79 38 81 39 32 40 84 41 78 42 77 43 33 45
REMARK SMILES IDX 65 46 45 47 64 48 46 49 49 50 63 51 82 52 47 53 48 54 62 56
REMARK SMILES IDX 83 57 50 58 34 59 35 60 43 61 36 62 42 63 44 64 41 65 37 66
REMARK SMILES IDX 38 67 39 68 40 69 66 70 67 71 75 72 68 73 74 74 76 75 73 76
REMARK SMILES IDX 69 77 70 78 71 79 72 80 51 81 52 82 60 83 53 84 59 85 61 86
REMARK SMILES IDX 58 87 54 88 55 89 56 90 57 91
REMARK H PARENT 18 6 22 25 81 44 49 55
REMARK Flexibility Score: inf
ROOT
ATOM      1  C   UNL A   1      35.123  33.449  28.051  1.00  0.00     0.042 C 
ENDROOT
BRANCH   1   2
ATOM      2  C   UNL A   1      34.500  34.799  27.728  1.00  0.00     0.117 C 
BRANCH   2   3
ATOM      3  N   UNL A   1      34.465  35.687  28.873  1.00  0.00    -0.356 N 
ATOM      4  O   UNL A   1      32.229  36.147  28.713  1.00  0.00    -0.275 OA
ATOM      5  C   UNL A   1      33.296  36.257  29.313  1.00  0.00     0.222 C 
ATOM      6  H   UNL A   1      35.303  35.887  29.348  1.00  0.00     0.163 HD
BRANCH   5   7
ATOM      7  C   UNL A   1      33.398  37.086  30.574  1.00  0.00     0.133 C 
BRANCH   7   8
ATOM      8  C   UNL A   1      32.553  36.596  31.756  1.00  0.00     0.147 C 
ATOM      9  C   UNL A   1      32.813  35.109  32.079  1.00  0.00     0.151 C 
ATOM     10  O   UNL A   1      32.677  37.406  32.943  1.00  0.00    -0.374 OA
ATOM     11  N   UNL A   1      34.049  34.932  32.841  1.00  0.00    -0.342 N 
ATOM     12  C   UNL A   1      33.959  37.265  33.576  1.00  0.00     0.182 C 
ATOM     13  C   UNL A   1      34.222  35.811  33.994  1.00  0.00     0.147 C 
BRANCH  11  14
ATOM     14  C   UNL A   1      35.075  34.209  32.330  1.00  0.00     0.205 A 
ATOM     15  N   UNL A   1      36.156  34.714  31.779  1.00  0.00    -0.203 NA
ATOM     16  S   UNL A   1      35.094  32.476  32.251  1.00  0.00     0.004 S 
ATOM     17  C   UNL A   1      36.959  33.677  31.315  1.00  0.00     0.147 A 
ATOM     18  N   UNL A   1      36.532  32.417  31.412  1.00  0.00    -0.174 NA
BRANCH  17  19
ATOM     19  C   UNL A   1      38.328  33.957  30.696  1.00  0.00     0.059 C 
ATOM     20  C   UNL A   1      38.855  33.050  29.606  1.00  0.00     0.012 C 
ATOM     21  C   UNL A   1      38.383  34.420  29.255  1.00  0.00     0.012 C 
ENDBRANCH  17  19
ENDBRANCH  11  14
ENDBRANCH   7   8
ENDBRANCH   5   7
ENDBRANCH   2   3
ENDBRANCH   1   2
BRANCH   1  22
ATOM     22  C   UNL A   1      34.180  32.479  28.756  1.00  0.00     0.118 C 
BRANCH  22  23
ATOM     23  N   UNL A   1      33.763  31.369  27.910  1.00  0.00    -0.352 N 
ATOM     24  C   UNL A   1      34.455  30.250  27.511  1.00  0.00     0.251 C 
ATOM     25  H   UNL A   1      32.840  31.428  27.570  1.00  0.00     0.163 HD
ATOM     26  O   UNL A   1      33.962  29.507  26.667  1.00  0.00    -0.269 OA
BRANCH  24  27
ATOM     27  C   UNL A   1      35.795  29.959  28.067  1.00  0.00     0.039 A 
ATOM     28  C   UNL A   1      35.891  29.449  29.365  1.00  0.00     0.014 A 
ATOM     29  C   UNL A   1      36.954  30.184  27.319  1.00  0.00     0.014 A 
ATOM     30  C   UNL A   1      37.139  29.083  29.878  1.00  0.00     0.010 A 
ATOM     31  C   UNL A   1      38.187  29.750  27.801  1.00  0.00     0.010 A 
ATOM     32  C   UNL A   1      38.291  29.185  29.083  1.00  0.00    -0.014 A 
BRANCH  32  33
ATOM     33  C   UNL A   1      39.610  28.685  29.558  1.00  0.00     0.031 A 
ATOM     34  C   UNL A   1      40.320  29.375  30.691  1.00  0.00     0.074 A 
ATOM     35  C   UNL A   1      40.202  27.656  28.918  1.00  0.00     0.049 A 
ATOM     36  N   UNL A   1      41.516  29.159  31.174  1.00  0.00    -0.248 NA
ATOM     37  C   UNL A   1      39.594  30.472  31.349  1.00  0.00     0.031 C 
ATOM     38  C   UNL A   1      39.630  26.922  27.787  1.00  0.00     0.029 A 
ATOM     39  N   UNL A   1      41.422  27.056  29.116  1.00  0.00    -0.354 N 
ATOM     40  C   UNL A   1      41.695  30.100  32.183  1.00  0.00     0.074 A 
ATOM     41  C   UNL A   1      40.504  30.923  32.201  1.00  0.00     0.031 C 
ATOM     42  C   UNL A   1      40.487  25.963  27.405  1.00  0.00     0.029 A 
ATOM     43  C   UNL A   1      41.693  26.044  28.222  1.00  0.00     0.049 A 
ATOM     44  H   UNL A   1      42.044  27.325  29.830  1.00  0.00     0.167 HD
ATOM     45  C   UNL A   1      42.745  30.249  33.027  1.00  0.00     0.034 A 
ATOM     46  C   UNL A   1      42.795  25.284  28.063  1.00  0.00     0.034 A 
ATOM     47  C   UNL A   1      43.924  29.415  32.999  1.00  0.00     0.049 A 
ATOM     48  C   UNL A   1      43.971  25.501  28.982  1.00  0.00     0.074 A 
ATOM     49  C   UNL A   1      45.021  29.446  33.843  1.00  0.00     0.029 A 
ATOM     50  N   UNL A   1      44.167  28.408  32.073  1.00  0.00    -0.354 N 
ATOM     51  N   UNL A   1      44.105  26.366  29.961  1.00  0.00    -0.248 NA
ATOM     52  C   UNL A   1      45.141  24.637  28.777  1.00  0.00     0.031 C 
ATOM     53  C   UNL A   1      45.957  28.514  33.383  1.00  0.00     0.029 A 
ATOM     54  C   UNL A   1      45.411  27.839  32.302  1.00  0.00     0.049 A 
ATOM     55  H   UNL A   1      43.546  28.137  31.359  1.00  0.00     0.167 HD
ATOM     56  C   UNL A   1      45.363  26.125  30.509  1.00  0.00     0.074 A 
ATOM     57  C   UNL A   1      45.938  25.028  29.760  1.00  0.00     0.031 C 
ATOM     58  C   UNL A   1      45.982  26.752  31.542  1.00  0.00     0.034 A 
BRANCH  45  59
ATOM     59  C   UNL A   1      42.677  31.376  34.032  1.00  0.00     0.023 A 
ATOM     60  C   UNL A   1      41.806  31.332  35.134  1.00  0.00     0.031 A 
ATOM     61  C   UNL A   1      43.480  32.519  33.875  1.00  0.00     0.131 A 
ATOM     62  C   UNL A   1      41.702  32.439  35.990  1.00  0.00     0.055 A 
ATOM     63  C   UNL A   1      43.436  33.582  34.780  1.00  0.00     0.041 A 
ATOM     64  F   UNL A   1      44.317  32.630  32.832  1.00  0.00    -0.206 F 
ATOM     65  C   UNL A   1      42.530  33.553  35.837  1.00  0.00     0.022 A 
BRANCH  62  66
ATOM     66  S   UNL A   1      40.365  32.461  37.216  1.00  0.00     0.124 S 
ATOM     67  O   UNL A   1      41.107  32.294  38.463  1.00  0.00    -0.237 OA
ATOM     68  O   UNL A   1      39.762  33.771  37.001  1.00  0.00    -0.237 OA
ATOM     69  O   UNL A   1      39.534  31.320  36.837  1.00  0.00    -0.744 OA
ENDBRANCH  62  66
ENDBRANCH  45  59
BRANCH  46  70
ATOM     70  C   UNL A   1      42.858  24.262  26.978  1.00  0.00     0.023 A 
ATOM     71  C   UNL A   1      42.209  23.024  27.112  1.00  0.00     0.031 A 
ATOM     72  C   UNL A   1      43.607  24.488  25.809  1.00  0.00     0.131 A 
ATOM     73  C   UNL A   1      42.361  22.042  26.120  1.00  0.00     0.055 A 
ATOM     74  C   UNL A   1      43.707  23.530  24.799  1.00  0.00     0.041 A 
ATOM     75  F   UNL A   1      44.248  25.654  25.628  1.00  0.00    -0.206 F 
ATOM     76  C   UNL A   1      43.093  22.292  24.958  1.00  0.00     0.022 A 
BRANCH  73  77
ATOM     77  S   UNL A   1      41.663  20.394  26.417  1.00  0.00     0.124 S 
ATOM     78  O   UNL A   1      42.147  20.105  27.762  1.00  0.00    -0.237 OA
ATOM     79  O   UNL A   1      40.231  20.644  26.290  1.00  0.00    -0.237 OA
ATOM     80  O   UNL A   1      42.248  19.581  25.353  1.00  0.00    -0.744 OA
ENDBRANCH  73  77
ENDBRANCH  46  70
BRANCH  58  81
ATOM     81  C   UNL A   1      47.338  26.228  31.953  1.00  0.00     0.023 A 
ATOM     82  C   UNL A   1      47.488  25.292  32.991  1.00  0.00     0.031 A 
ATOM     83  C   UNL A   1      48.496  26.676  31.293  1.00  0.00     0.131 A 
ATOM     84  C   UNL A   1      48.773  24.872  33.371  1.00  0.00     0.055 A 
ATOM     85  C   UNL A   1      49.765  26.208  31.635  1.00  0.00     0.041 A 
ATOM     86  F   UNL A   1      48.411  27.573  30.298  1.00  0.00    -0.206 F 
ATOM     87  C   UNL A   1      49.910  25.309  32.688  1.00  0.00     0.022 A 
BRANCH  84  88
ATOM     88  S   UNL A   1      48.946  23.807  34.831  1.00  0.00     0.124 S 
ATOM     89  O   UNL A   1      50.329  23.357  34.714  1.00  0.00    -0.237 OA
ATOM     90  O   UNL A   1      48.665  24.729  35.926  1.00  0.00    -0.237 OA
ATOM     91  O   UNL A   1      47.937  22.771  34.620  1.00  0.00    -0.744 OA
ENDBRANCH  84  88
ENDBRANCH  58  81
ENDBRANCH  32  33
ENDBRANCH  24  27
ENDBRANCH  22  23
ENDBRANCH   1  22
TORSDOF 16
ENDMDL
MODEL 2
REMARK VINA RESULT:     -10.9      4.537     10.747
REMARK SMILES O=C(C[C@H]1CN(c2nc(C3CC3)ns2)CCO1)NCCCNC(=O)c1ccc(-c2c3nc(c(-c4cc(S(=O)(=O)[O-])ccc4F)c4ccc([nH]4)c(-c4cc(S(=O)(=O)[O-])ccc4F)c4nc(c(-c5cc(S(=O)(=O)[O-])ccc5F)c5ccc2[nH]5)C=C4)C=C3)cc1
REMARK SMILES IDX 20 1 19 2 18 3 1 4 2 5 3 7 4 8 5 9 17 10 6 11 16 12 15 13
REMARK SMILES IDX 7 14 8 15 14 16 9 17 13 18 10 19 11 20 12 21 21 22 22 23
REMARK SMILES IDX 23 24 24 26 25 27 26 28 87 29 27 30 86 31 28 32 29 33 30 34
REMARK SMILES IDX 80 35 31 36 85 37 79 38 81 39 32 40 84 41 78 42 77 43 33 45
REMARK SMILES IDX 65 46 45 47 64 48 46 49 49 50 63 51 82 52 47 53 48 54 62 56
REMARK SMILES IDX 83 57 50 58 34 59 35 60 43 61 36 62 42 63 44 64 41 65 37 66
REMARK SMILES IDX 38 67 39 68 40 69 66 70 67 71 75 72 68 73 74 74 76 75 73 76
REMARK SMILES IDX 69 77 70 78 71 79 72 80 51 81 52 82 60 83 53 84 59 85 61 86
REMARK SMILES IDX 58 87 54 88 55 89 56 90 57 91
REMARK H PARENT 18 6 22 25 81 44 49 55
REMARK Flexibility Score: inf
ROOT
ATOM      1  C   UNL A   1      31.956  28.115  25.250  1.00  0.00     0.042 C 
ENDROOT
BRANCH   1   2
ATOM      2  C   UNL A   1      31.960  27.189  26.458  1.00  0.00     0.117 C 
BRANCH   2   3
ATOM      3  N   UNL A   1      32.582  25.910  26.179  1.00  0.00    -0.356 N 
ATOM      4  O   UNL A   1      30.819  24.654  26.918  1.00  0.00    -0.275 OA
ATOM      5  C   UNL A   1      31.924  24.724  26.386  1.00  0.00     0.222 C 
ATOM      6  H   UNL A   1      33.503  25.892  25.832  1.00  0.00     0.163 HD
BRANCH   5   7
ATOM      7  C   UNL A   1      32.664  23.474  25.962  1.00  0.00     0.133 C 
BRANCH   7   8
ATOM      8  C   UNL A   1      34.138  23.405  26.380  1.00  0.00     0.147 C 
ATOM      9  C   UNL A   1      34.634  21.949  26.522  1.00  0.00     0.151 C 
ATOM     10  O   UNL A   1      35.024  24.167  25.535  1.00  0.00    -0.374 OA
ATOM     11  N   UNL A   1      34.936  21.355  25.220  1.00  0.00    -0.342 N 
ATOM     12  C   UNL A   1      35.185  23.581  24.233  1.00  0.00     0.182 C 
ATOM     13  C   UNL A   1      35.761  22.160  24.324  1.00  0.00     0.147 C 
BRANCH  11  14
ATOM     14  C   UNL A   1      34.251  20.270  24.783  1.00  0.00     0.205 A 
ATOM     15  N   UNL A   1      34.727  19.046  24.728  1.00  0.00    -0.203 NA
ATOM     16  S   UNL A   1      32.639  20.335  24.147  1.00  0.00     0.004 S 
ATOM     17  C   UNL A   1      33.766  18.208  24.173  1.00  0.00     0.147 A 
ATOM     18  N   UNL A   1      32.614  18.720  23.737  1.00  0.00    -0.174 NA
BRANCH  17  19
ATOM     19  C   UNL A   1      34.006  16.703  24.057  1.00  0.00     0.059 C 
ATOM     20  C   UNL A   1      34.873  16.003  25.081  1.00  0.00     0.012 C 
ATOM     21  C   UNL A   1      33.397  15.795  25.107  1.00  0.00     0.012 C 
ENDBRANCH  17  19
ENDBRANCH  11  14
ENDBRANCH   7   8
ENDBRANCH   5   7
ENDBRANCH   2   3
ENDBRANCH   1   2
BRANCH   1  22
ATOM     22  C   UNL A   1      32.990  29.236  25.320  1.00  0.00     0.118 C 
BRANCH  22  23
ATOM     23  N   UNL A   1      32.471  30.457  25.922  1.00  0.00    -0.352 N 
ATOM     24  C   UNL A   1      32.962  31.209  26.963  1.00  0.00     0.251 C 
ATOM     25  H   UNL A   1      31.639  30.798  25.521  1.00  0.00     0.163 HD
ATOM     26  O   UNL A   1      32.283  32.127  27.415  1.00  0.00    -0.269 OA
BRANCH  24  27
ATOM     27  C   UNL A   1      34.281  30.896  27.558  1.00  0.00     0.039 A 
ATOM     28  C   UNL A   1      35.196  31.935  27.751  1.00  0.00     0.014 A 
ATOM     29  C   UNL A   1      34.618  29.591  27.927  1.00  0.00     0.014 A 
ATOM     30  C   UNL A   1      36.412  31.679  28.393  1.00  0.00     0.010 A 
ATOM     31  C   UNL A   1      35.796  29.352  28.632  1.00  0.00     0.010 A 
ATOM     32  C   UNL A   1      36.701  30.396  28.882  1.00  0.00    -0.014 A 
BRANCH  32  33
ATOM     33  C   UNL A   1      37.928  30.126  29.679  1.00  0.00     0.031 A 
ATOM     34  C   UNL A   1      38.991  29.203  29.146  1.00  0.00     0.074 A 
ATOM     35  C   UNL A   1      38.051  30.653  30.914  1.00  0.00     0.049 A 
ATOM     36  N   UNL A   1      40.074  28.759  29.733  1.00  0.00    -0.248 NA
ATOM     37  C   UNL A   1      38.793  28.691  27.782  1.00  0.00     0.031 C 
ATOM     38  C   UNL A   1      37.076  31.538  31.555  1.00  0.00     0.029 A 
ATOM     39  N   UNL A   1      39.037  30.511  31.860  1.00  0.00    -0.354 N 
ATOM     40  C   UNL A   1      40.680  27.907  28.816  1.00  0.00     0.074 A 
ATOM     41  C   UNL A   1      39.812  27.853  27.659  1.00  0.00     0.031 C 
ATOM     42  C   UNL A   1      37.520  31.874  32.776  1.00  0.00     0.029 A 
ATOM     43  C   UNL A   1      38.782  31.186  33.032  1.00  0.00     0.049 A 
ATOM     44  H   UNL A   1      39.850  29.975  31.713  1.00  0.00     0.167 HD
ATOM     45  C   UNL A   1      41.859  27.246  28.924  1.00  0.00     0.034 A 
ATOM     46  C   UNL A   1      39.472  31.230  34.189  1.00  0.00     0.034 A 
ATOM     47  C   UNL A   1      42.717  27.316  30.084  1.00  0.00     0.049 A 
ATOM     48  C   UNL A   1      40.756  30.448  34.304  1.00  0.00     0.074 A 
ATOM     49  C   UNL A   1      43.957  26.731  30.274  1.00  0.00     0.029 A 
ATOM     50  N   UNL A   1      42.420  28.001  31.255  1.00  0.00    -0.354 N 
ATOM     51  N   UNL A   1      41.339  29.682  33.410  1.00  0.00    -0.248 NA
ATOM     52  C   UNL A   1      41.478  30.541  35.579  1.00  0.00     0.031 C 
ATOM     53  C   UNL A   1      44.373  26.997  31.583  1.00  0.00     0.029 A 
ATOM     54  C   UNL A   1      43.434  27.821  32.184  1.00  0.00     0.049 A 
ATOM     55  H   UNL A   1      41.608  28.538  31.404  1.00  0.00     0.167 HD
ATOM     56  C   UNL A   1      42.513  29.229  34.007  1.00  0.00     0.074 A 
ATOM     57  C   UNL A   1      42.560  29.818  35.329  1.00  0.00     0.031 C 
ATOM     58  C   UNL A   1      43.467  28.405  33.505  1.00  0.00     0.034 A 
BRANCH  45  59
ATOM     59  C   UNL A   1      42.275  26.369  27.766  1.00  0.00     0.023 A 
ATOM     60  C   UNL A   1      41.807  25.049  27.633  1.00  0.00     0.031 A 
ATOM     61  C   UNL A   1      43.167  26.850  26.791  1.00  0.00     0.131 A 
ATOM     62  C   UNL A   1      42.291  24.235  26.598  1.00  0.00     0.055 A 
ATOM     63  C   UNL A   1      43.577  26.063  25.713  1.00  0.00     0.041 A 
ATOM     64  F   UNL A   1      43.665  28.094  26.874  1.00  0.00    -0.206 F 
ATOM     65  C   UNL A   1      43.152  24.740  25.621  1.00  0.00     0.022 A 
BRANCH  62  66
ATOM     66  S   UNL A   1      41.895  22.466  26.633  1.00  0.00     0.124 S 
ATOM     67  O   UNL A   1      42.657  22.017  27.795  1.00  0.00    -0.237 OA
ATOM     68  O   UNL A   1      40.445  22.469  26.781  1.00  0.00    -0.237 OA
ATOM     69  O   UNL A   1      42.391  21.978  25.347  1.00  0.00    -0.744 OA
ENDBRANCH  62  66
ENDBRANCH  45  59
BRANCH  46  70
ATOM     70  C   UNL A   1      38.959  32.020  35.346  1.00  0.00     0.023 A 
ATOM     71  C   UNL A   1      38.407  31.384  36.469  1.00  0.00     0.031 A 
ATOM     72  C   UNL A   1      38.970  33.427  35.326  1.00  0.00     0.131 A 
ATOM     73  C   UNL A   1      37.845  32.151  37.503  1.00  0.00     0.055 A 
ATOM     74  C   UNL A   1      38.463  34.184  36.382  1.00  0.00     0.041 A 
ATOM     75  F   UNL A   1      39.486  34.087  34.277  1.00  0.00    -0.206 F 
ATOM     76  C   UNL A   1      37.883  33.546  37.475  1.00  0.00     0.022 A 
BRANCH  73  77
ATOM     77  S   UNL A   1      36.977  31.293  38.846  1.00  0.00     0.124 S 
ATOM     78  O   UNL A   1      36.877  29.938  38.315  1.00  0.00    -0.237 OA
ATOM     79  O   UNL A   1      37.894  31.478  39.965  1.00  0.00    -0.237 OA
ATOM     80  O   UNL A   1      35.713  32.019  38.951  1.00  0.00    -0.744 OA
ENDBRANCH  73  77
ENDBRANCH  46  70
BRANCH  58  81
ATOM     81  C   UNL A   1      44.671  28.132  34.376  1.00  0.00     0.023 A 
ATOM     82  C   UNL A   1      44.643  27.173  35.402  1.00  0.00     0.031 A 
ATOM     83  C   UNL A   1      45.864  28.848  34.172  1.00  0.00     0.131 A 
ATOM     84  C   UNL A   1      45.770  26.990  36.218  1.00  0.00     0.055 A 
ATOM     85  C   UNL A   1      47.001  28.619  34.948  1.00  0.00     0.041 A 
ATOM     86  F   UNL A   1      45.946  29.781  33.209  1.00  0.00    -0.206 F 
ATOM     87  C   UNL A   1      46.955  27.693  35.986  1.00  0.00     0.022 A 
BRANCH  84  88
ATOM     88  S   UNL A   1      45.642  25.878  37.647  1.00  0.00     0.124 S 
ATOM     89  O   UNL A   1      46.992  25.330  37.726  1.00  0.00    -0.237 OA
ATOM     90  O   UNL A   1      45.259  26.789  38.720  1.00  0.00    -0.237 OA
ATOM     91  O   UNL A   1      44.608  24.925  37.247  1.00  0.00    -0.744 OA
ENDBRANCH  84  88
ENDBRANCH  58  81
ENDBRANCH  32  33
ENDBRANCH  24  27
ENDBRANCH  22  23
ENDBRANCH   1  22
TORSDOF 16
ENDMDL
MODEL 3
REMARK VINA RESULT:     -10.8      4.379     10.504
REMARK SMILES O=C(C[C@H]1CN(c2nc(C3CC3)ns2)CCO1)NCCCNC(=O)c1ccc(-c2c3nc(c(-c4cc(S(=O)(=O)[O-])ccc4F)c4ccc([nH]4)c(-c4cc(S(=O)(=O)[O-])ccc4F)c4nc(c(-c5cc(S(=O)(=O)[O-])ccc5F)c5ccc2[nH]5)C=C4)C=C3)cc1
REMARK SMILES IDX 20 1 19 2 18 3 1 4 2 5 3 7 4 8 5 9 17 10 6 11 16 12 15 13
REMARK SMILES IDX 7 14 8 15 14 16 9 17 13 18 10 19 11 20 12 21 21 22 22 23
REMARK SMILES IDX 23 24 24 26 25 27 26 28 87 29 27 30 86 31 28 32 29 33 30 34
REMARK SMILES IDX 80 35 31 36 85 37 79 38 81 39 32 40 84 41 78 42 77 43 33 45
REMARK SMILES IDX 65 46 45 47 64 48 46 49 49 50 63 51 82 52 47 53 48 54 62 56
REMARK SMILES IDX 83 57 50 58 34 59 35 60 43 61 36 62 42 63 44 64 41 65 37 66
REMARK SMILES IDX 38 67 39 68 40 69 66 70 67 71 75 72 68 73 74 74 76 75 73 76
REMARK SMILES IDX 69 77 70 78 71 79 72 80 51 81 52 82 60 83 53 84 59 85 61 86
REMARK SMILES IDX 58 87 54 88 55 89 56 90 57 91
REMARK H PARENT 18 6 22 25 81 44 49 55
REMARK Flexibility Score: inf
ROOT
ATOM      1  C   UNL A   1      31.838  31.687  26.883  1.00  0.00     0.042 C 
ENDROOT
BRANCH   1   2
ATOM      2  C   UNL A   1      32.095  30.189  26.952  1.00  0.00     0.117 C 
BRANCH   2   3
ATOM      3  N   UNL A   1      32.413  29.616  25.659  1.00  0.00    -0.356 N 
ATOM      4  O   UNL A   1      34.151  28.337  26.418  1.00  0.00    -0.275 OA
ATOM      5  C   UNL A   1      33.401  28.677  25.505  1.00  0.00     0.222 C 
ATOM      6  H   UNL A   1      31.906  29.911  24.868  1.00  0.00     0.163 HD
BRANCH   5   7
ATOM      7  C   UNL A   1      33.557  28.102  24.114  1.00  0.00     0.133 C 
BRANCH   7   8
ATOM      8  C   UNL A   1      33.494  26.572  24.021  1.00  0.00     0.147 C 
ATOM      9  C   UNL A   1      32.069  26.034  24.276  1.00  0.00     0.151 C 
ATOM     10  O   UNL A   1      34.032  26.036  22.796  1.00  0.00    -0.374 OA
ATOM     11  N   UNL A   1      31.221  26.178  23.093  1.00  0.00    -0.342 N 
ATOM     12  C   UNL A   1      33.200  26.313  21.659  1.00  0.00     0.182 C 
ATOM     13  C   UNL A   1      31.795  25.717  21.832  1.00  0.00     0.147 C 
BRANCH  11  14
ATOM     14  C   UNL A   1      30.109  26.952  23.134  1.00  0.00     0.205 A 
ATOM     15  N   UNL A   1      30.036  28.196  22.713  1.00  0.00    -0.203 NA
ATOM     16  S   UNL A   1      28.601  26.446  23.826  1.00  0.00     0.004 S 
ATOM     17  C   UNL A   1      28.762  28.690  22.968  1.00  0.00     0.147 A 
ATOM     18  N   UNL A   1      27.876  27.932  23.616  1.00  0.00    -0.174 NA
BRANCH  17  19
ATOM     19  C   UNL A   1      28.354  30.090  22.513  1.00  0.00     0.059 C 
ATOM     20  C   UNL A   1      27.583  30.988  23.456  1.00  0.00     0.012 C 
ATOM     21  C   UNL A   1      29.017  31.282  23.174  1.00  0.00     0.012 C 
ENDBRANCH  17  19
ENDBRANCH  11  14
ENDBRANCH   7   8
ENDBRANCH   5   7
ENDBRANCH   2   3
ENDBRANCH   1   2
BRANCH   1  22
ATOM     22  C   UNL A   1      33.034  32.544  27.285  1.00  0.00     0.118 C 
BRANCH  22  23
ATOM     23  N   UNL A   1      32.665  33.904  27.657  1.00  0.00    -0.352 N 
ATOM     24  C   UNL A   1      33.165  34.719  28.645  1.00  0.00     0.251 C 
ATOM     25  H   UNL A   1      31.945  34.302  27.116  1.00  0.00     0.163 HD
ATOM     26  O   UNL A   1      32.603  35.784  28.887  1.00  0.00    -0.269 OA
BRANCH  24  27
ATOM     27  C   UNL A   1      34.347  34.305  29.432  1.00  0.00     0.039 A 
ATOM     28  C   UNL A   1      34.150  33.641  30.647  1.00  0.00     0.014 A 
ATOM     29  C   UNL A   1      35.645  34.564  28.982  1.00  0.00     0.014 A 
ATOM     30  C   UNL A   1      35.249  33.162  31.364  1.00  0.00     0.010 A 
ATOM     31  C   UNL A   1      36.735  34.021  29.658  1.00  0.00     0.010 A 
ATOM     32  C   UNL A   1      36.549  33.305  30.852  1.00  0.00    -0.014 A 
BRANCH  32  33
ATOM     33  C   UNL A   1      37.723  32.693  31.530  1.00  0.00     0.031 A 
ATOM     34  C   UNL A   1      38.440  31.528  30.904  1.00  0.00     0.074 A 
ATOM     35  C   UNL A   1      38.097  33.140  32.747  1.00  0.00     0.049 A 
ATOM     36  N   UNL A   1      39.409  30.793  31.388  1.00  0.00    -0.248 NA
ATOM     37  C   UNL A   1      37.985  31.119  29.566  1.00  0.00     0.031 C 
ATOM     38  C   UNL A   1      37.465  34.243  33.473  1.00  0.00     0.029 A 
ATOM     39  N   UNL A   1      39.090  32.714  33.596  1.00  0.00    -0.354 N 
ATOM     40  C   UNL A   1      39.673  29.828  30.422  1.00  0.00     0.074 A 
ATOM     41  C   UNL A   1      38.721  30.038  29.351  1.00  0.00     0.031 C 
ATOM     42  C   UNL A   1      38.094  34.418  34.645  1.00  0.00     0.029 A 
ATOM     43  C   UNL A   1      39.137  33.408  34.784  1.00  0.00     0.049 A 
ATOM     44  H   UNL A   1      39.708  31.980  33.376  1.00  0.00     0.167 HD
ATOM     45  C   UNL A   1      40.632  28.869  30.420  1.00  0.00     0.034 A 
ATOM     46  C   UNL A   1      39.915  33.236  35.872  1.00  0.00     0.034 A 
ATOM     47  C   UNL A   1      41.578  28.677  31.495  1.00  0.00     0.049 A 
ATOM     48  C   UNL A   1      40.942  32.131  35.868  1.00  0.00     0.074 A 
ATOM     49  C   UNL A   1      42.623  27.772  31.570  1.00  0.00     0.029 A 
ATOM     50  N   UNL A   1      41.588  29.391  32.686  1.00  0.00    -0.354 N 
ATOM     51  N   UNL A   1      41.209  31.255  34.926  1.00  0.00    -0.248 NA
ATOM     52  C   UNL A   1      41.776  31.996  37.069  1.00  0.00     0.031 C 
ATOM     53  C   UNL A   1      43.213  27.886  32.833  1.00  0.00     0.029 A 
ATOM     54  C   UNL A   1      42.595  28.921  33.516  1.00  0.00     0.049 A 
ATOM     55  H   UNL A   1      40.970  30.126  32.909  1.00  0.00     0.167 HD
ATOM     56  C   UNL A   1      42.264  30.487  35.412  1.00  0.00     0.074 A 
ATOM     57  C   UNL A   1      42.591  31.012  36.721  1.00  0.00     0.031 C 
ATOM     58  C   UNL A   1      42.907  29.445  34.825  1.00  0.00     0.034 A 
BRANCH  45  59
ATOM     59  C   UNL A   1      40.684  27.937  29.232  1.00  0.00     0.023 A 
ATOM     60  C   UNL A   1      41.599  28.127  28.182  1.00  0.00     0.031 A 
ATOM     61  C   UNL A   1      39.792  26.853  29.138  1.00  0.00     0.131 A 
ATOM     62  C   UNL A   1      41.551  27.298  27.052  1.00  0.00     0.055 A 
ATOM     63  C   UNL A   1      39.808  25.978  28.049  1.00  0.00     0.041 A 
ATOM     64  F   UNL A   1      38.881  26.631  30.098  1.00  0.00    -0.206 F 
ATOM     65  C   UNL A   1      40.680  26.208  26.989  1.00  0.00     0.022 A 
BRANCH  62  66
ATOM     66  S   UNL A   1      42.540  27.755  25.602  1.00  0.00     0.124 S 
ATOM     67  O   UNL A   1      43.850  27.993  26.203  1.00  0.00    -0.237 OA
ATOM     68  O   UNL A   1      42.430  26.572  24.758  1.00  0.00    -0.237 OA
ATOM     69  O   UNL A   1      41.871  28.951  25.094  1.00  0.00    -0.744 OA
ENDBRANCH  62  66
ENDBRANCH  45  59
BRANCH  46  70
ATOM     70  C   UNL A   1      39.746  34.111  37.068  1.00  0.00     0.023 A 
ATOM     71  C   UNL A   1      39.146  33.625  38.241  1.00  0.00     0.031 A 
ATOM     72  C   UNL A   1      40.140  35.461  37.042  1.00  0.00     0.131 A 
ATOM     73  C   UNL A   1      38.912  34.493  39.320  1.00  0.00     0.055 A 
ATOM     74  C   UNL A   1      39.958  36.305  38.138  1.00  0.00     0.041 A 
ATOM     75  F   UNL A   1      40.719  35.979  35.946  1.00  0.00    -0.206 F 
ATOM     76  C   UNL A   1      39.328  35.825  39.282  1.00  0.00     0.022 A 
BRANCH  73  77
ATOM     77  S   UNL A   1      37.969  33.875  40.741  1.00  0.00     0.124 S 
ATOM     78  O   UNL A   1      37.584  35.116  41.403  1.00  0.00    -0.237 OA
ATOM     79  O   UNL A   1      36.895  33.132  40.091  1.00  0.00    -0.237 OA
ATOM     80  O   UNL A   1      38.941  33.056  41.463  1.00  0.00    -0.744 OA
ENDBRANCH  73  77
ENDBRANCH  46  70
BRANCH  58  81
ATOM     81  C   UNL A   1      44.065  28.836  35.581  1.00  0.00     0.023 A 
ATOM     82  C   UNL A   1      43.901  27.717  36.414  1.00  0.00     0.031 A 
ATOM     83  C   UNL A   1      45.352  29.388  35.461  1.00  0.00     0.131 A 
ATOM     84  C   UNL A   1      44.996  27.217  37.136  1.00  0.00     0.055 A 
ATOM     85  C   UNL A   1      46.450  28.849  36.133  1.00  0.00     0.041 A 
ATOM     86  F   UNL A   1      45.566  30.461  34.682  1.00  0.00    -0.206 F 
ATOM     87  C   UNL A   1      46.273  27.763  36.985  1.00  0.00     0.022 A 
BRANCH  84  88
ATOM     88  S   UNL A   1      44.715  25.890  38.342  1.00  0.00     0.124 S 
ATOM     89  O   UNL A   1      46.057  25.340  38.505  1.00  0.00    -0.237 OA
ATOM     90  O   UNL A   1      44.178  26.616  39.487  1.00  0.00    -0.237 OA
ATOM     91  O   UNL A   1      43.763  25.009  37.666  1.00  0.00    -0.744 OA
ENDBRANCH  84  88
ENDBRANCH  58  81
ENDBRANCH  32  33
ENDBRANCH  24  27
ENDBRANCH  22  23
ENDBRANCH   1  22
TORSDOF 16
ENDMDL
