MODEL 1
REMARK VINA RESULT:     -12.2      0.000      0.000
REMARK SMILES O=C(NCCCNC(=O)[C@@H]1CCC[C@@H](C(=O)N2CCN3C(=O)NC[C@@H]3C2)C1)c1ccc(-c2c3nc(c(-c4cc(S(=O)(=O)[O-])ccc4F)c4ccc([nH]4)c(-c4cc(S(=O)(=O)[O-])ccc4F)c4nc(c(-c5cc(S(=O)(=O)[O-])ccc5F)c5ccc2[nH]5)C=C4)C=C3)cc1
REMARK SMILES IDX 4 1 3 2 1 3 2 4 28 6 29 7 90 8 30 9 89 10 31 11 32 12 33 13
REMARK SMILES IDX 83 14 34 15 88 16 82 17 84 18 35 19 87 20 81 21 80 22 36 24
REMARK SMILES IDX 68 25 48 26 67 27 49 28 52 29 66 30 85 31 50 32 51 33 65 35
REMARK SMILES IDX 86 36 53 37 37 38 38 39 46 40 39 41 45 42 47 43 44 44 40 45
REMARK SMILES IDX 41 46 42 47 43 48 69 49 70 50 78 51 71 52 77 53 79 54 76 55
REMARK SMILES IDX 72 56 73 57 74 58 75 59 54 60 55 61 63 62 56 63 62 64 64 65
REMARK SMILES IDX 61 66 57 67 58 68 59 69 60 70 5 71 6 72 7 73 8 74 9 76 10 77
REMARK SMILES IDX 11 78 27 79 12 80 14 81 13 82 15 83 16 84 17 85 18 86 26 87
REMARK SMILES IDX 19 88 25 89 20 90 24 91 21 92 23 93 22 94
REMARK H PARENT 3 5 84 23 52 34 7 75 23 95
REMARK Flexibility Score: inf
ROOT
ATOM      1  C   UNL A   1      33.827  28.787  25.265  1.00  0.00     0.118 C 
ENDROOT
BRANCH   1   2
ATOM      2  N   UNL A   1      33.135  30.015  25.648  1.00  0.00    -0.352 N 
ATOM      3  O   UNL A   1      32.439  31.559  27.132  1.00  0.00    -0.269 OA
ATOM      4  C   UNL A   1      33.317  30.785  26.768  1.00  0.00     0.251 C 
ATOM      5  H   UNL A   1      32.446  30.331  25.019  1.00  0.00     0.163 HD
BRANCH   4   6
ATOM      6  C   UNL A   1      34.588  30.670  27.502  1.00  0.00     0.039 A 
ATOM      7  C   UNL A   1      34.920  29.451  28.099  1.00  0.00     0.014 A 
ATOM      8  C   UNL A   1      35.453  31.762  27.586  1.00  0.00     0.014 A 
ATOM      9  C   UNL A   1      36.029  29.368  28.916  1.00  0.00     0.010 A 
ATOM     10  C   UNL A   1      36.649  31.629  28.296  1.00  0.00     0.010 A 
ATOM     11  C   UNL A   1      36.935  30.435  28.975  1.00  0.00    -0.014 A 
BRANCH  11  12
ATOM     12  C   UNL A   1      38.221  30.216  29.675  1.00  0.00     0.031 A 
ATOM     13  C   UNL A   1      38.463  30.774  31.043  1.00  0.00     0.074 A 
ATOM     14  C   UNL A   1      39.148  29.454  29.059  1.00  0.00     0.049 A 
ATOM     15  N   UNL A   1      39.532  30.678  31.790  1.00  0.00    -0.248 NA
ATOM     16  C   UNL A   1      37.371  31.549  31.651  1.00  0.00     0.031 C 
ATOM     17  C   UNL A   1      38.996  28.858  27.726  1.00  0.00     0.029 A 
ATOM     18  N   UNL A   1      40.380  29.023  29.470  1.00  0.00    -0.354 N 
ATOM     19  C   UNL A   1      39.250  31.383  32.952  1.00  0.00     0.074 A 
ATOM     20  C   UNL A   1      37.923  31.942  32.791  1.00  0.00     0.031 C 
ATOM     21  C   UNL A   1      40.059  28.090  27.460  1.00  0.00     0.029 A 
ATOM     22  C   UNL A   1      41.016  28.223  28.549  1.00  0.00     0.049 A 
ATOM     23  H   UNL A   1      40.774  29.262  30.340  1.00  0.00     0.167 HD
ATOM     24  C   UNL A   1      40.027  31.535  34.053  1.00  0.00     0.034 A 
ATOM     25  C   UNL A   1      42.249  27.686  28.561  1.00  0.00     0.034 A 
ATOM     26  C   UNL A   1      41.353  30.973  34.176  1.00  0.00     0.049 A 
ATOM     27  C   UNL A   1      43.118  27.943  29.761  1.00  0.00     0.074 A 
ATOM     28  C   UNL A   1      42.233  31.067  35.239  1.00  0.00     0.029 A 
ATOM     29  N   UNL A   1      41.993  30.219  33.198  1.00  0.00    -0.354 N 
ATOM     30  N   UNL A   1      42.838  28.616  30.853  1.00  0.00    -0.248 NA
ATOM     31  C   UNL A   1      44.466  27.366  29.732  1.00  0.00     0.031 C 
ATOM     32  C   UNL A   1      43.429  30.437  34.876  1.00  0.00     0.029 A 
ATOM     33  C   UNL A   1      43.265  29.869  33.623  1.00  0.00     0.049 A 
ATOM     34  H   UNL A   1      41.599  29.969  32.331  1.00  0.00     0.167 HD
ATOM     35  C   UNL A   1      43.969  28.519  31.655  1.00  0.00     0.074 A 
ATOM     36  C   UNL A   1      44.920  27.700  30.930  1.00  0.00     0.031 C 
ATOM     37  C   UNL A   1      44.204  29.058  32.879  1.00  0.00     0.034 A 
BRANCH  24  38
ATOM     38  C   UNL A   1      39.477  32.373  35.183  1.00  0.00     0.023 A 
ATOM     39  C   UNL A   1      38.888  31.788  36.318  1.00  0.00     0.031 A 
ATOM     40  C   UNL A   1      39.524  33.776  35.118  1.00  0.00     0.131 A 
ATOM     41  C   UNL A   1      38.308  32.600  37.304  1.00  0.00     0.055 A 
ATOM     42  C   UNL A   1      39.021  34.580  36.144  1.00  0.00     0.041 A 
ATOM     43  F   UNL A   1      40.049  34.395  34.048  1.00  0.00    -0.206 F 
ATOM     44  C   UNL A   1      38.396  33.992  37.240  1.00  0.00     0.022 A 
BRANCH  41  45
ATOM     45  S   UNL A   1      37.309  31.811  38.597  1.00  0.00     0.124 S 
ATOM     46  O   UNL A   1      37.162  30.456  38.071  1.00  0.00    -0.237 OA
ATOM     47  O   UNL A   1      38.153  31.950  39.778  1.00  0.00    -0.237 OA
ATOM     48  O   UNL A   1      36.079  32.601  38.611  1.00  0.00    -0.744 OA
ENDBRANCH  41  45
ENDBRANCH  24  38
BRANCH  25  49
ATOM     49  C   UNL A   1      42.748  26.910  27.391  1.00  0.00     0.023 A 
ATOM     50  C   UNL A   1      42.631  25.513  27.346  1.00  0.00     0.031 A 
ATOM     51  C   UNL A   1      43.398  27.550  26.319  1.00  0.00     0.131 A 
ATOM     52  C   UNL A   1      43.210  24.798  26.288  1.00  0.00     0.055 A 
ATOM     53  C   UNL A   1      43.905  26.840  25.231  1.00  0.00     0.041 A 
ATOM     54  F   UNL A   1      43.538  28.885  26.307  1.00  0.00    -0.206 F 
ATOM     55  C   UNL A   1      43.830  25.452  25.221  1.00  0.00     0.022 A 
BRANCH  52  56
ATOM     56  S   UNL A   1      43.252  22.989  26.391  1.00  0.00     0.124 S 
ATOM     57  O   UNL A   1      42.411  22.741  27.558  1.00  0.00    -0.237 OA
ATOM     58  O   UNL A   1      42.692  22.599  25.102  1.00  0.00    -0.237 OA
ATOM     59  O   UNL A   1      44.671  22.692  26.570  1.00  0.00    -0.744 OA
ENDBRANCH  52  56
ENDBRANCH  25  49
BRANCH  37  60
ATOM     60  C   UNL A   1      45.528  28.725  33.522  1.00  0.00     0.023 A 
ATOM     61  C   UNL A   1      45.687  27.600  34.349  1.00  0.00     0.031 A 
ATOM     62  C   UNL A   1      46.637  29.567  33.327  1.00  0.00     0.131 A 
ATOM     63  C   UNL A   1      46.906  27.385  35.008  1.00  0.00     0.055 A 
ATOM     64  C   UNL A   1      47.870  29.306  33.926  1.00  0.00     0.041 A 
ATOM     65  F   UNL A   1      46.540  30.660  32.554  1.00  0.00    -0.206 F 
ATOM     66  C   UNL A   1      48.005  28.220  34.785  1.00  0.00     0.022 A 
BRANCH  63  67
ATOM     67  S   UNL A   1      47.002  26.069  36.252  1.00  0.00     0.124 S 
ATOM     68  O   UNL A   1      45.673  25.474  36.164  1.00  0.00    -0.237 OA
ATOM     69  O   UNL A   1      48.101  25.249  35.754  1.00  0.00    -0.237 OA
ATOM     70  O   UNL A   1      47.280  26.789  37.493  1.00  0.00    -0.744 OA
ENDBRANCH  63  67
ENDBRANCH  37  60
ENDBRANCH  11  12
ENDBRANCH   4   6
ENDBRANCH   1   2
BRANCH   1  71
ATOM     71  C   UNL A   1      33.856  28.641  23.757  1.00  0.00     0.042 C 
BRANCH  71  72
ATOM     72  C   UNL A   1      32.456  28.371  23.227  1.00  0.00     0.117 C 
BRANCH  72  73
ATOM     73  N   UNL A   1      32.534  27.598  22.007  1.00  0.00    -0.356 N 
ATOM     74  C   UNL A   1      32.909  26.307  21.807  1.00  0.00     0.223 C 
ATOM     75  H   UNL A   1      32.273  28.083  21.191  1.00  0.00     0.163 HD
ATOM     76  O   UNL A   1      33.275  26.020  20.662  1.00  0.00    -0.275 OA
BRANCH  74  77
ATOM     77  C   UNL A   1      32.647  25.211  22.849  1.00  0.00     0.079 C 
ATOM     78  C   UNL A   1      31.268  25.093  23.504  1.00  0.00     0.013 C 
ATOM     79  C   UNL A   1      33.792  25.156  23.870  1.00  0.00     0.027 C 
ATOM     80  C   UNL A   1      31.121  24.164  24.703  1.00  0.00     0.002 C 
ATOM     81  C   UNL A   1      33.631  24.146  25.006  1.00  0.00     0.079 C 
ATOM     82  C   UNL A   1      32.266  24.273  25.683  1.00  0.00     0.013 C 
BRANCH  81  83
ATOM     83  C   UNL A   1      34.033  22.665  24.794  1.00  0.00     0.225 C 
ATOM     84  O   UNL A   1      33.410  21.991  23.965  1.00  0.00    -0.275 OA
BRANCH  83  85
ATOM     85  N   UNL A   1      35.208  22.162  25.324  1.00  0.00    -0.339 N 
ATOM     86  C   UNL A   1      35.733  20.818  25.078  1.00  0.00     0.141 C 
ATOM     87  C   UNL A   1      36.058  23.071  26.091  1.00  0.00     0.146 C 
ATOM     88  C   UNL A   1      37.250  20.574  25.178  1.00  0.00     0.143 C 
ATOM     89  C   UNL A   1      37.484  23.059  25.567  1.00  0.00     0.125 C 
ATOM     90  N   UNL A   1      38.026  21.715  25.578  1.00  0.00    -0.317 N 
ATOM     91  C   UNL A   1      38.485  23.816  26.435  1.00  0.00     0.144 C 
ATOM     92  C   UNL A   1      39.349  21.695  25.976  1.00  0.00     0.317 C 
ATOM     93  N   UNL A   1      39.659  22.978  26.405  1.00  0.00    -0.336 N 
ATOM     94  O   UNL A   1      40.102  20.745  25.996  1.00  0.00    -0.249 OA
ATOM     95  H   UNL A   1      40.562  23.277  26.657  1.00  0.00     0.165 HD
ENDBRANCH  83  85
ENDBRANCH  81  83
ENDBRANCH  74  77
ENDBRANCH  72  73
ENDBRANCH  71  72
ENDBRANCH   1  71
TORSDOF 15
ENDMDL
MODEL 2
REMARK VINA RESULT:     -12.1      3.033      9.053
REMARK SMILES O=C(NCCCNC(=O)[C@@H]1CCC[C@@H](C(=O)N2CCN3C(=O)NC[C@@H]3C2)C1)c1ccc(-c2c3nc(c(-c4cc(S(=O)(=O)[O-])ccc4F)c4ccc([nH]4)c(-c4cc(S(=O)(=O)[O-])ccc4F)c4nc(c(-c5cc(S(=O)(=O)[O-])ccc5F)c5ccc2[nH]5)C=C4)C=C3)cc1
REMARK SMILES IDX 4 1 3 2 1 3 2 4 28 6 29 7 90 8 30 9 89 10 31 11 32 12 33 13
REMARK SMILES IDX 83 14 34 15 88 16 82 17 84 18 35 19 87 20 81 21 80 22 36 24
REMARK SMILES IDX 68 25 48 26 67 27 49 28 52 29 66 30 85 31 50 32 51 33 65 35
REMARK SMILES IDX 86 36 53 37 37 38 38 39 46 40 39 41 45 42 47 43 44 44 40 45
REMARK SMILES IDX 41 46 42 47 43 48 69 49 70 50 78 51 71 52 77 53 79 54 76 55
REMARK SMILES IDX 72 56 73 57 74 58 75 59 54 60 55 61 63 62 56 63 62 64 64 65
REMARK SMILES IDX 61 66 57 67 58 68 59 69 60 70 5 71 6 72 7 73 8 74 9 76 10 77
REMARK SMILES IDX 11 78 27 79 12 80 14 81 13 82 15 83 16 84 17 85 18 86 26 87
REMARK SMILES IDX 19 88 25 89 20 90 24 91 21 92 23 93 22 94
REMARK H PARENT 3 5 84 23 52 34 7 75 23 95
REMARK Flexibility Score: inf
ROOT
ATOM      1  C   UNL A   1      32.907  32.835  27.258  1.00  0.00     0.118 C 
ENDROOT
BRANCH   1   2
ATOM      2  N   UNL A   1      32.680  34.190  27.752  1.00  0.00    -0.352 N 
ATOM      3  O   UNL A   1      32.587  35.760  29.363  1.00  0.00    -0.269 OA
ATOM      4  C   UNL A   1      33.141  34.767  28.907  1.00  0.00     0.251 C 
ATOM      5  H   UNL A   1      32.122  34.765  27.179  1.00  0.00     0.163 HD
BRANCH   4   6
ATOM      6  C   UNL A   1      34.319  34.178  29.567  1.00  0.00     0.039 A 
ATOM      7  C   UNL A   1      34.128  33.297  30.634  1.00  0.00     0.014 A 
ATOM      8  C   UNL A   1      35.604  34.487  29.119  1.00  0.00     0.014 A 
ATOM      9  C   UNL A   1      35.216  32.856  31.360  1.00  0.00     0.010 A 
ATOM     10  C   UNL A   1      36.704  33.921  29.768  1.00  0.00     0.010 A 
ATOM     11  C   UNL A   1      36.515  33.113  30.900  1.00  0.00    -0.014 A 
BRANCH  11  12
ATOM     12  C   UNL A   1      37.639  32.428  31.576  1.00  0.00     0.031 A 
ATOM     13  C   UNL A   1      38.365  31.296  30.916  1.00  0.00     0.074 A 
ATOM     14  C   UNL A   1      38.022  32.892  32.783  1.00  0.00     0.049 A 
ATOM     15  N   UNL A   1      39.365  30.589  31.372  1.00  0.00    -0.248 NA
ATOM     16  C   UNL A   1      37.904  30.897  29.578  1.00  0.00     0.031 C 
ATOM     17  C   UNL A   1      37.379  34.001  33.500  1.00  0.00     0.029 A 
ATOM     18  N   UNL A   1      39.049  32.523  33.609  1.00  0.00    -0.354 N 
ATOM     19  C   UNL A   1      39.654  29.656  30.385  1.00  0.00     0.074 A 
ATOM     20  C   UNL A   1      38.689  29.859  29.323  1.00  0.00     0.031 C 
ATOM     21  C   UNL A   1      38.064  34.260  34.620  1.00  0.00     0.029 A 
ATOM     22  C   UNL A   1      39.125  33.273  34.758  1.00  0.00     0.049 A 
ATOM     23  H   UNL A   1      39.673  31.790  33.400  1.00  0.00     0.167 HD
ATOM     24  C   UNL A   1      40.642  28.727  30.368  1.00  0.00     0.034 A 
ATOM     25  C   UNL A   1      39.935  33.157  35.826  1.00  0.00     0.034 A 
ATOM     26  C   UNL A   1      41.580  28.543  31.451  1.00  0.00     0.049 A 
ATOM     27  C   UNL A   1      40.966  32.063  35.813  1.00  0.00     0.074 A 
ATOM     28  C   UNL A   1      42.616  27.632  31.548  1.00  0.00     0.029 A 
ATOM     29  N   UNL A   1      41.591  29.280  32.630  1.00  0.00    -0.354 N 
ATOM     30  N   UNL A   1      41.224  31.184  34.871  1.00  0.00    -0.248 NA
ATOM     31  C   UNL A   1      41.815  31.946  37.002  1.00  0.00     0.031 C 
ATOM     32  C   UNL A   1      43.203  27.765  32.811  1.00  0.00     0.029 A 
ATOM     33  C   UNL A   1      42.595  28.823  33.470  1.00  0.00     0.049 A 
ATOM     34  H   UNL A   1      40.975  30.020  32.839  1.00  0.00     0.167 HD
ATOM     35  C   UNL A   1      42.289  30.426  35.347  1.00  0.00     0.074 A 
ATOM     36  C   UNL A   1      42.637  30.972  36.644  1.00  0.00     0.031 C 
ATOM     37  C   UNL A   1      42.921  29.374  34.766  1.00  0.00     0.034 A 
BRANCH  24  38
ATOM     38  C   UNL A   1      40.723  27.820  29.164  1.00  0.00     0.023 A 
ATOM     39  C   UNL A   1      41.665  28.031  28.141  1.00  0.00     0.031 A 
ATOM     40  C   UNL A   1      39.836  26.738  29.024  1.00  0.00     0.131 A 
ATOM     41  C   UNL A   1      41.650  27.221  26.995  1.00  0.00     0.055 A 
ATOM     42  C   UNL A   1      39.883  25.882  27.921  1.00  0.00     0.041 A 
ATOM     43  F   UNL A   1      38.896  26.499  29.954  1.00  0.00    -0.206 F 
ATOM     44  C   UNL A   1      40.785  26.130  26.891  1.00  0.00     0.022 A 
BRANCH  41  45
ATOM     45  S   UNL A   1      42.678  27.704  25.581  1.00  0.00     0.124 S 
ATOM     46  O   UNL A   1      41.947  28.860  25.066  1.00  0.00    -0.237 OA
ATOM     47  O   UNL A   1      43.964  27.990  26.206  1.00  0.00    -0.237 OA
ATOM     48  O   UNL A   1      42.651  26.525  24.717  1.00  0.00    -0.744 OA
ENDBRANCH  41  45
ENDBRANCH  24  38
BRANCH  25  49
ATOM     49  C   UNL A   1      39.768  34.056  37.003  1.00  0.00     0.023 A 
ATOM     50  C   UNL A   1      39.209  33.585  38.199  1.00  0.00     0.031 A 
ATOM     51  C   UNL A   1      40.118  35.417  36.933  1.00  0.00     0.131 A 
ATOM     52  C   UNL A   1      38.957  34.478  39.252  1.00  0.00     0.055 A 
ATOM     53  C   UNL A   1      39.936  36.285  38.009  1.00  0.00     0.041 A 
ATOM     54  F   UNL A   1      40.659  35.924  35.812  1.00  0.00    -0.206 F 
ATOM     55  C   UNL A   1      39.334  35.820  39.172  1.00  0.00     0.022 A 
BRANCH  52  56
ATOM     56  S   UNL A   1      38.013  33.883  40.679  1.00  0.00     0.124 S 
ATOM     57  O   UNL A   1      36.927  33.154  40.033  1.00  0.00    -0.237 OA
ATOM     58  O   UNL A   1      39.003  33.072  41.380  1.00  0.00    -0.237 OA
ATOM     59  O   UNL A   1      37.619  35.113  41.362  1.00  0.00    -0.744 OA
ENDBRANCH  52  56
ENDBRANCH  25  49
BRANCH  37  60
ATOM     60  C   UNL A   1      44.089  28.788  35.521  1.00  0.00     0.023 A 
ATOM     61  C   UNL A   1      43.935  27.693  36.388  1.00  0.00     0.031 A 
ATOM     62  C   UNL A   1      45.368  29.357  35.392  1.00  0.00     0.131 A 
ATOM     63  C   UNL A   1      45.025  27.245  37.147  1.00  0.00     0.055 A 
ATOM     64  C   UNL A   1      46.466  28.859  36.094  1.00  0.00     0.041 A 
ATOM     65  F   UNL A   1      45.571  30.409  34.584  1.00  0.00    -0.206 F 
ATOM     66  C   UNL A   1      46.295  27.808  36.990  1.00  0.00     0.022 A 
BRANCH  63  67
ATOM     67  S   UNL A   1      44.738  25.996  38.430  1.00  0.00     0.124 S 
ATOM     68  O   UNL A   1      43.786  25.105  37.775  1.00  0.00    -0.237 OA
ATOM     69  O   UNL A   1      46.076  25.453  38.642  1.00  0.00    -0.237 OA
ATOM     70  O   UNL A   1      44.199  26.769  39.547  1.00  0.00    -0.744 OA
ENDBRANCH  63  67
ENDBRANCH  37  60
ENDBRANCH  11  12
ENDBRANCH   4   6
ENDBRANCH   1   2
BRANCH   1  71
ATOM     71  C   UNL A   1      31.612  32.227  26.757  1.00  0.00     0.042 C 
BRANCH  71  72
ATOM     72  C   UNL A   1      31.813  30.756  26.425  1.00  0.00     0.117 C 
BRANCH  72  73
ATOM     73  N   UNL A   1      33.144  30.344  26.813  1.00  0.00    -0.356 N 
ATOM     74  C   UNL A   1      33.697  29.104  26.876  1.00  0.00     0.223 C 
ATOM     75  H   UNL A   1      33.747  31.078  27.071  1.00  0.00     0.163 HD
ATOM     76  O   UNL A   1      34.685  28.988  27.608  1.00  0.00    -0.275 OA
BRANCH  74  77
ATOM     77  C   UNL A   1      33.299  27.983  25.906  1.00  0.00     0.079 C 
ATOM     78  C   UNL A   1      33.234  26.534  26.399  1.00  0.00     0.013 C 
ATOM     79  C   UNL A   1      34.063  28.122  24.582  1.00  0.00     0.027 C 
ATOM     80  C   UNL A   1      33.083  25.430  25.359  1.00  0.00     0.002 C 
ATOM     81  C   UNL A   1      33.809  27.031  23.542  1.00  0.00     0.079 C 
ATOM     82  C   UNL A   1      33.959  25.634  24.144  1.00  0.00     0.013 C 
BRANCH  81  83
ATOM     83  C   UNL A   1      32.584  27.124  22.599  1.00  0.00     0.225 C 
ATOM     84  O   UNL A   1      32.500  26.334  21.650  1.00  0.00    -0.275 OA
BRANCH  83  85
ATOM     85  N   UNL A   1      31.484  27.895  22.932  1.00  0.00    -0.339 N 
ATOM     86  C   UNL A   1      31.264  29.277  22.500  1.00  0.00     0.141 C 
ATOM     87  C   UNL A   1      30.396  27.254  23.669  1.00  0.00     0.146 C 
ATOM     88  C   UNL A   1      29.824  29.809  22.390  1.00  0.00     0.143 C 
ATOM     89  C   UNL A   1      29.063  27.472  22.974  1.00  0.00     0.125 C 
ATOM     90  N   UNL A   1      28.800  28.885  22.795  1.00  0.00    -0.317 N 
ATOM     91  C   UNL A   1      27.848  27.019  23.778  1.00  0.00     0.144 C 
ATOM     92  C   UNL A   1      27.474  29.198  23.024  1.00  0.00     0.317 C 
ATOM     93  N   UNL A   1      26.873  28.052  23.528  1.00  0.00    -0.336 N 
ATOM     94  O   UNL A   1      26.926  30.267  22.863  1.00  0.00    -0.249 OA
ATOM     95  H   UNL A   1      25.907  27.958  23.693  1.00  0.00     0.165 HD
ENDBRANCH  83  85
ENDBRANCH  81  83
ENDBRANCH  74  77
ENDBRANCH  72  73
ENDBRANCH  71  72
ENDBRANCH   1  71
TORSDOF 15
ENDMDL
MODEL 3
REMARK VINA RESULT:     -12.1      5.250      8.278
REMARK SMILES O=C(NCCCNC(=O)[C@@H]1CCC[C@@H](C(=O)N2CCN3C(=O)NC[C@@H]3C2)C1)c1ccc(-c2c3nc(c(-c4cc(S(=O)(=O)[O-])ccc4F)c4ccc([nH]4)c(-c4cc(S(=O)(=O)[O-])ccc4F)c4nc(c(-c5cc(S(=O)(=O)[O-])ccc5F)c5ccc2[nH]5)C=C4)C=C3)cc1
REMARK SMILES IDX 4 1 3 2 1 3 2 4 28 6 29 7 90 8 30 9 89 10 31 11 32 12 33 13
REMARK SMILES IDX 83 14 34 15 88 16 82 17 84 18 35 19 87 20 81 21 80 22 36 24
REMARK SMILES IDX 68 25 48 26 67 27 49 28 52 29 66 30 85 31 50 32 51 33 65 35
REMARK SMILES IDX 86 36 53 37 37 38 38 39 46 40 39 41 45 42 47 43 44 44 40 45
REMARK SMILES IDX 41 46 42 47 43 48 69 49 70 50 78 51 71 52 77 53 79 54 76 55
REMARK SMILES IDX 72 56 73 57 74 58 75 59 54 60 55 61 63 62 56 63 62 64 64 65
REMARK SMILES IDX 61 66 57 67 58 68 59 69 60 70 5 71 6 72 7 73 8 74 9 76 10 77
REMARK SMILES IDX 11 78 27 79 12 80 14 81 13 82 15 83 16 84 17 85 18 86 26 87
REMARK SMILES IDX 19 88 25 89 20 90 24 91 21 92 23 93 22 94
REMARK H PARENT 3 5 84 23 52 34 7 75 23 95
REMARK Flexibility Score: inf
ROOT
ATOM      1  C   UNL A   1      39.404  20.157  26.061  1.00  0.00     0.118 C 
ENDROOT
BRANCH   1   2
ATOM      2  N   UNL A   1      40.496  19.187  26.105  1.00  0.00    -0.352 N 
ATOM      3  O   UNL A   1      42.606  18.507  25.711  1.00  0.00    -0.269 OA
ATOM      4  C   UNL A   1      41.845  19.416  26.023  1.00  0.00     0.251 C 
ATOM      5  H   UNL A   1      40.227  18.246  26.207  1.00  0.00     0.163 HD
BRANCH   4   6
ATOM      6  C   UNL A   1      42.351  20.764  26.334  1.00  0.00     0.039 A 
ATOM      7  C   UNL A   1      42.590  21.657  25.287  1.00  0.00     0.014 A 
ATOM      8  C   UNL A   1      42.573  21.144  27.658  1.00  0.00     0.014 A 
ATOM      9  C   UNL A   1      43.206  22.865  25.545  1.00  0.00     0.010 A 
ATOM     10  C   UNL A   1      43.062  22.424  27.925  1.00  0.00     0.010 A 
ATOM     11  C   UNL A   1      43.393  23.287  26.868  1.00  0.00    -0.014 A 
BRANCH  11  12
ATOM     12  C   UNL A   1      43.839  24.679  27.098  1.00  0.00     0.031 A 
ATOM     13  C   UNL A   1      42.901  25.713  27.640  1.00  0.00     0.074 A 
ATOM     14  C   UNL A   1      45.132  24.972  26.851  1.00  0.00     0.049 A 
ATOM     15  N   UNL A   1      43.132  26.975  27.894  1.00  0.00    -0.248 NA
ATOM     16  C   UNL A   1      41.524  25.283  27.924  1.00  0.00     0.031 C 
ATOM     17  C   UNL A   1      46.125  24.023  26.330  1.00  0.00     0.029 A 
ATOM     18  N   UNL A   1      45.846  26.126  27.028  1.00  0.00    -0.354 N 
ATOM     19  C   UNL A   1      41.932  27.495  28.362  1.00  0.00     0.074 A 
ATOM     20  C   UNL A   1      40.962  26.419  28.311  1.00  0.00     0.031 C 
ATOM     21  C   UNL A   1      47.325  24.613  26.292  1.00  0.00     0.029 A 
ATOM     22  C   UNL A   1      47.171  26.008  26.680  1.00  0.00     0.049 A 
ATOM     23  H   UNL A   1      45.450  26.959  27.370  1.00  0.00     0.167 HD
ATOM     24  C   UNL A   1      41.676  28.752  28.802  1.00  0.00     0.034 A 
ATOM     25  C   UNL A   1      48.150  26.931  26.640  1.00  0.00     0.034 A 
ATOM     26  C   UNL A   1      42.664  29.805  28.827  1.00  0.00     0.049 A 
ATOM     27  C   UNL A   1      47.812  28.335  27.055  1.00  0.00     0.074 A 
ATOM     28  C   UNL A   1      42.517  31.115  29.244  1.00  0.00     0.029 A 
ATOM     29  N   UNL A   1      43.984  29.669  28.408  1.00  0.00    -0.354 N 
ATOM     30  N   UNL A   1      46.669  28.813  27.492  1.00  0.00    -0.248 NA
ATOM     31  C   UNL A   1      48.893  29.323  26.974  1.00  0.00     0.031 C 
ATOM     32  C   UNL A   1      43.721  31.789  29.008  1.00  0.00     0.029 A 
ATOM     33  C   UNL A   1      44.650  30.879  28.530  1.00  0.00     0.049 A 
ATOM     34  H   UNL A   1      44.387  28.834  28.075  1.00  0.00     0.167 HD
ATOM     35  C   UNL A   1      46.904  30.156  27.766  1.00  0.00     0.074 A 
ATOM     36  C   UNL A   1      48.302  30.399  27.470  1.00  0.00     0.031 C 
ATOM     37  C   UNL A   1      46.044  31.104  28.220  1.00  0.00     0.034 A 
BRANCH  24  38
ATOM     38  C   UNL A   1      40.265  29.058  29.247  1.00  0.00     0.023 A 
ATOM     39  C   UNL A   1      39.886  28.993  30.599  1.00  0.00     0.031 A 
ATOM     40  C   UNL A   1      39.279  29.403  28.305  1.00  0.00     0.131 A 
ATOM     41  C   UNL A   1      38.546  29.196  30.963  1.00  0.00     0.055 A 
ATOM     42  C   UNL A   1      37.965  29.690  28.683  1.00  0.00     0.041 A 
ATOM     43  F   UNL A   1      39.572  29.457  26.996  1.00  0.00    -0.206 F 
ATOM     44  C   UNL A   1      37.589  29.573  30.018  1.00  0.00     0.022 A 
BRANCH  41  45
ATOM     45  S   UNL A   1      38.044  28.818  32.665  1.00  0.00     0.124 S 
ATOM     46  O   UNL A   1      39.069  29.517  33.437  1.00  0.00    -0.237 OA
ATOM     47  O   UNL A   1      36.701  29.381  32.731  1.00  0.00    -0.237 OA
ATOM     48  O   UNL A   1      38.114  27.360  32.728  1.00  0.00    -0.744 OA
ENDBRANCH  41  45
ENDBRANCH  24  38
BRANCH  25  49
ATOM     49  C   UNL A   1      49.508  26.571  26.143  1.00  0.00     0.023 A 
ATOM     50  C   UNL A   1      49.983  27.056  24.916  1.00  0.00     0.031 A 
ATOM     51  C   UNL A   1      50.336  25.692  26.866  1.00  0.00     0.131 A 
ATOM     52  C   UNL A   1      51.216  26.612  24.419  1.00  0.00     0.055 A 
ATOM     53  C   UNL A   1      51.596  25.312  26.403  1.00  0.00     0.041 A 
ATOM     54  F   UNL A   1      49.935  25.196  28.048  1.00  0.00    -0.206 F 
ATOM     55  C   UNL A   1      52.034  25.757  25.162  1.00  0.00     0.022 A 
BRANCH  52  56
ATOM     56  S   UNL A   1      51.678  27.067  22.727  1.00  0.00     0.124 S 
ATOM     57  O   UNL A   1      50.417  26.887  22.018  1.00  0.00    -0.237 OA
ATOM     58  O   UNL A   1      52.129  28.444  22.898  1.00  0.00    -0.237 OA
ATOM     59  O   UNL A   1      52.727  26.106  22.391  1.00  0.00    -0.744 OA
ENDBRANCH  52  56
ENDBRANCH  25  49
BRANCH  37  60
ATOM     60  C   UNL A   1      46.621  32.476  28.469  1.00  0.00     0.023 A 
ATOM     61  C   UNL A   1      46.771  33.416  27.435  1.00  0.00     0.031 A 
ATOM     62  C   UNL A   1      47.056  32.834  29.758  1.00  0.00     0.131 A 
ATOM     63  C   UNL A   1      47.405  34.639  27.691  1.00  0.00     0.055 A 
ATOM     64  C   UNL A   1      47.618  34.082  30.021  1.00  0.00     0.041 A 
ATOM     65  F   UNL A   1      46.944  31.973  30.782  1.00  0.00    -0.206 F 
ATOM     66  C   UNL A   1      47.811  34.987  28.982  1.00  0.00     0.022 A 
BRANCH  63  67
ATOM     67  S   UNL A   1      47.800  35.723  26.291  1.00  0.00     0.124 S 
ATOM     68  O   UNL A   1      49.119  36.226  26.663  1.00  0.00    -0.237 OA
ATOM     69  O   UNL A   1      47.767  34.799  25.162  1.00  0.00    -0.237 OA
ATOM     70  O   UNL A   1      46.728  36.715  26.311  1.00  0.00    -0.744 OA
ENDBRANCH  63  67
ENDBRANCH  37  60
ENDBRANCH  11  12
ENDBRANCH   4   6
ENDBRANCH   1   2
BRANCH   1  71
ATOM     71  C   UNL A   1      38.378  19.756  25.020  1.00  0.00     0.042 C 
BRANCH  71  72
ATOM     72  C   UNL A   1      37.219  20.740  25.016  1.00  0.00     0.117 C 
BRANCH  72  73
ATOM     73  N   UNL A   1      37.558  21.900  25.811  1.00  0.00    -0.356 N 
ATOM     74  C   UNL A   1      37.017  23.147  25.821  1.00  0.00     0.223 C 
ATOM     75  H   UNL A   1      38.297  21.765  26.447  1.00  0.00     0.163 HD
ATOM     76  O   UNL A   1      37.733  24.044  26.279  1.00  0.00    -0.275 OA
BRANCH  74  77
ATOM     77  C   UNL A   1      35.529  23.394  25.538  1.00  0.00     0.079 C 
ATOM     78  C   UNL A   1      35.099  24.620  24.727  1.00  0.00     0.013 C 
ATOM     79  C   UNL A   1      34.701  23.213  26.818  1.00  0.00     0.027 C 
ATOM     80  C   UNL A   1      33.615  24.964  24.682  1.00  0.00     0.002 C 
ATOM     81  C   UNL A   1      33.204  23.490  26.694  1.00  0.00     0.079 C 
ATOM     82  C   UNL A   1      32.934  24.838  26.025  1.00  0.00     0.013 C 
BRANCH  81  83
ATOM     83  C   UNL A   1      32.248  22.387  26.175  1.00  0.00     0.225 C 
ATOM     84  O   UNL A   1      31.027  22.548  26.303  1.00  0.00    -0.275 OA
BRANCH  83  85
ATOM     85  N   UNL A   1      32.711  21.363  25.368  1.00  0.00    -0.339 N 
ATOM     86  C   UNL A   1      33.209  20.074  25.851  1.00  0.00     0.141 C 
ATOM     87  C   UNL A   1      32.587  21.522  23.920  1.00  0.00     0.146 C 
ATOM     88  C   UNL A   1      33.113  18.841  24.934  1.00  0.00     0.143 C 
ATOM     89  C   UNL A   1      31.887  20.325  23.298  1.00  0.00     0.125 C 
ATOM     90  N   UNL A   1      32.581  19.095  23.623  1.00  0.00    -0.317 N 
ATOM     91  C   UNL A   1      31.900  20.307  21.773  1.00  0.00     0.144 C 
ATOM     92  C   UNL A   1      32.624  18.227  22.550  1.00  0.00     0.317 C 
ATOM     93  N   UNL A   1      32.128  18.919  21.454  1.00  0.00    -0.336 N 
ATOM     94  O   UNL A   1      33.046  17.090  22.534  1.00  0.00    -0.249 OA
ATOM     95  H   UNL A   1      31.956  18.514  20.573  1.00  0.00     0.165 HD
ENDBRANCH  83  85
ENDBRANCH  81  83
ENDBRANCH  74  77
ENDBRANCH  72  73
ENDBRANCH  71  72
ENDBRANCH   1  71
TORSDOF 15
ENDMDL
