MODEL 1
REMARK VINA RESULT:     -13.5      0.000      0.000
REMARK SMILES NS(=O)(=O)c1ccc(-n2ccnc2-c2ccc(O)c(C(=O)NCCCNC(=O)c3ccc(-c4c5nc(c(-c6cc(S(=O)(=O)[O-])ccc6F)c6ccc([nH]6)c(-c6cc(S(=O)(=O)[O-])ccc6F)c6nc(c(-c7cc(S(=O)(=O)[O-])ccc7F)c7ccc4[nH]7)C=C6)C=C5)cc3)c2)cc1
REMARK SMILES IDX 23 1 22 2 20 3 21 4 19 6 14 7 15 8 92 9 16 10 17 11 13 12
REMARK SMILES IDX 9 13 10 14 11 15 12 16 8 17 5 18 6 19 94 20 7 21 93 22 2 23
REMARK SMILES IDX 3 24 4 25 1 26 18 29 24 31 25 32 26 33 27 34 28 36 29 37
REMARK SMILES IDX 30 38 91 39 31 40 90 41 32 42 33 43 34 44 84 45 35 46 89 47
REMARK SMILES IDX 83 48 85 49 36 50 88 51 82 52 81 53 37 55 69 56 49 57 68 58
REMARK SMILES IDX 50 59 53 60 67 61 86 62 51 63 52 64 66 66 87 67 54 68 38 69
REMARK SMILES IDX 39 70 47 71 40 72 46 73 48 74 45 75 41 76 42 77 43 78 44 79
REMARK SMILES IDX 70 80 71 81 79 82 72 83 78 84 80 85 77 86 73 87 74 88 75 89
REMARK SMILES IDX 76 90 55 91 56 92 64 93 57 94 63 95 65 96 62 97 58 98 59 99
REMARK SMILES IDX 60 100 61 101
REMARK H PARENT 22 5 1 27 1 28 18 30 26 35 85 54 53 65
REMARK Flexibility Score: inf
ROOT
ATOM      1  C   UNL A   1      33.496  29.295  25.528  1.00  0.00     0.118 C 
ENDROOT
BRANCH   1   2
ATOM      2  N   UNL A   1      32.269  29.833  24.963  1.00  0.00    -0.352 N 
ATOM      3  C   UNL A   1      31.145  29.253  24.423  1.00  0.00     0.255 C 
ATOM      4  O   UNL A   1      30.185  29.993  24.189  1.00  0.00    -0.269 OA
ATOM      5  H   UNL A   1      32.235  30.817  24.969  1.00  0.00     0.163 HD
BRANCH   3   6
ATOM      6  C   UNL A   1      30.980  27.797  24.125  1.00  0.00     0.082 A 
ATOM      7  C   UNL A   1      30.663  25.464  24.820  1.00  0.00     0.019 A 
ATOM      8  C   UNL A   1      30.637  25.053  23.491  1.00  0.00     0.016 A 
ATOM      9  C   UNL A   1      30.905  26.818  25.113  1.00  0.00     0.029 A 
ATOM     10  C   UNL A   1      30.776  26.002  22.476  1.00  0.00     0.048 A 
ATOM     11  C   UNL A   1      30.927  27.358  22.791  1.00  0.00     0.128 A 
BRANCH   7  12
ATOM     12  C   UNL A   1      30.467  24.526  25.933  1.00  0.00     0.144 A 
ATOM     13  N   UNL A   1      31.293  23.427  26.194  1.00  0.00    -0.300 N 
ATOM     14  C   UNL A   1      30.559  22.577  26.990  1.00  0.00     0.113 A 
ATOM     15  C   UNL A   1      29.424  23.272  27.327  1.00  0.00     0.132 A 
ATOM     16  N   UNL A   1      29.390  24.486  26.698  1.00  0.00    -0.236 NA
BRANCH  13  17
ATOM     17  C   UNL A   1      32.606  23.180  25.702  1.00  0.00     0.047 A 
ATOM     18  C   UNL A   1      35.159  22.810  24.635  1.00  0.00     0.082 A 
ATOM     19  C   UNL A   1      34.970  23.718  25.680  1.00  0.00     0.024 A 
ATOM     20  C   UNL A   1      34.083  22.073  24.129  1.00  0.00     0.024 A 
ATOM     21  C   UNL A   1      33.692  23.907  26.211  1.00  0.00     0.028 A 
ATOM     22  C   UNL A   1      32.807  22.240  24.679  1.00  0.00     0.028 A 
BRANCH  18  23
ATOM     23  S   UNL A   1      36.782  22.642  23.946  1.00  0.00     0.238 S 
ATOM     24  O   UNL A   1      36.750  23.131  22.598  1.00  0.00    -0.207 OA
ATOM     25  O   UNL A   1      37.287  21.326  24.295  1.00  0.00    -0.207 OA
BRANCH  23  26
ATOM     26  N   UNL A   1      37.718  23.719  24.830  1.00  0.00    -0.225 NA
ATOM     27  H   UNL A   1      37.513  24.673  24.531  1.00  0.00     0.137 HD
ATOM     28  H   UNL A   1      38.705  23.518  24.675  1.00  0.00     0.137 HD
ENDBRANCH  23  26
ENDBRANCH  18  23
ENDBRANCH  13  17
ENDBRANCH   7  12
BRANCH  11  29
ATOM     29  O   UNL A   1      31.027  28.203  21.715  1.00  0.00    -0.507 OA
ATOM     30  H   UNL A   1      30.415  28.905  21.612  1.00  0.00     0.293 HD
ENDBRANCH  11  29
ENDBRANCH   3   6
ENDBRANCH   1   2
BRANCH   1  31
ATOM     31  C   UNL A   1      33.678  29.646  27.012  1.00  0.00     0.042 C 
BRANCH  31  32
ATOM     32  C   UNL A   1      35.077  29.342  27.526  1.00  0.00     0.118 C 
BRANCH  32  33
ATOM     33  N   UNL A   1      35.381  30.088  28.746  1.00  0.00    -0.352 N 
ATOM     34  C   UNL A   1      36.439  29.931  29.617  1.00  0.00     0.251 C 
ATOM     35  H   UNL A   1      34.742  30.801  28.979  1.00  0.00     0.163 HD
ATOM     36  O   UNL A   1      36.364  30.390  30.752  1.00  0.00    -0.269 OA
BRANCH  34  37
ATOM     37  C   UNL A   1      37.631  29.182  29.177  1.00  0.00     0.039 A 
ATOM     38  C   UNL A   1      38.268  29.514  27.980  1.00  0.00     0.014 A 
ATOM     39  C   UNL A   1      38.145  28.183  30.001  1.00  0.00     0.014 A 
ATOM     40  C   UNL A   1      39.490  28.915  27.681  1.00  0.00     0.010 A 
ATOM     41  C   UNL A   1      39.410  27.687  29.767  1.00  0.00     0.010 A 
ATOM     42  C   UNL A   1      40.088  28.036  28.603  1.00  0.00    -0.014 A 
BRANCH  42  43
ATOM     43  C   UNL A   1      41.490  27.641  28.425  1.00  0.00     0.031 A 
ATOM     44  C   UNL A   1      41.676  26.378  27.662  1.00  0.00     0.074 A 
ATOM     45  C   UNL A   1      42.566  28.403  28.721  1.00  0.00     0.049 A 
ATOM     46  N   UNL A   1      42.056  25.233  28.126  1.00  0.00    -0.248 NA
ATOM     47  C   UNL A   1      41.240  26.330  26.257  1.00  0.00     0.031 C 
ATOM     48  C   UNL A   1      42.585  29.783  29.215  1.00  0.00     0.029 A 
ATOM     49  N   UNL A   1      43.893  28.133  28.537  1.00  0.00    -0.354 N 
ATOM     50  C   UNL A   1      42.176  24.397  27.021  1.00  0.00     0.074 A 
ATOM     51  C   UNL A   1      41.454  25.045  25.960  1.00  0.00     0.031 C 
ATOM     52  C   UNL A   1      43.823  30.301  29.071  1.00  0.00     0.029 A 
ATOM     53  C   UNL A   1      44.725  29.246  28.642  1.00  0.00     0.049 A 
ATOM     54  H   UNL A   1      44.233  27.229  28.348  1.00  0.00     0.167 HD
ATOM     55  C   UNL A   1      43.091  23.388  27.008  1.00  0.00     0.034 A 
ATOM     56  C   UNL A   1      46.059  29.316  28.398  1.00  0.00     0.034 A 
ATOM     57  C   UNL A   1      43.556  23.089  28.348  1.00  0.00     0.049 A 
ATOM     58  C   UNL A   1      46.599  27.948  28.573  1.00  0.00     0.074 A 
ATOM     59  C   UNL A   1      42.930  22.781  29.543  1.00  0.00     0.029 A 
ATOM     60  N   UNL A   1      44.831  23.476  28.698  1.00  0.00    -0.354 N 
ATOM     61  N   UNL A   1      46.606  27.323  29.719  1.00  0.00    -0.248 NA
ATOM     62  C   UNL A   1      46.715  27.093  27.403  1.00  0.00     0.031 C 
ATOM     63  C   UNL A   1      43.663  23.499  30.536  1.00  0.00     0.029 A 
ATOM     64  C   UNL A   1      44.747  24.118  29.910  1.00  0.00     0.049 A 
ATOM     65  H   UNL A   1      45.651  23.321  28.177  1.00  0.00     0.167 HD
ATOM     66  C   UNL A   1      46.266  26.016  29.411  1.00  0.00     0.074 A 
ATOM     67  C   UNL A   1      46.463  25.908  27.967  1.00  0.00     0.031 C 
ATOM     68  C   UNL A   1      45.592  25.230  30.304  1.00  0.00     0.034 A 
BRANCH  55  69
ATOM     69  C   UNL A   1      43.859  22.945  25.778  1.00  0.00     0.023 A 
ATOM     70  C   UNL A   1      43.947  21.561  25.539  1.00  0.00     0.031 A 
ATOM     71  C   UNL A   1      44.742  23.752  25.024  1.00  0.00     0.131 A 
ATOM     72  C   UNL A   1      44.944  21.033  24.699  1.00  0.00     0.055 A 
ATOM     73  C   UNL A   1      45.680  23.226  24.131  1.00  0.00     0.041 A 
ATOM     74  F   UNL A   1      44.822  25.079  25.172  1.00  0.00    -0.206 F 
ATOM     75  C   UNL A   1      45.812  21.858  23.991  1.00  0.00     0.022 A 
BRANCH  72  76
ATOM     76  S   UNL A   1      45.212  19.243  24.711  1.00  0.00     0.124 S 
ATOM     77  O   UNL A   1      46.612  19.165  25.119  1.00  0.00    -0.237 OA
ATOM     78  O   UNL A   1      44.229  18.799  25.694  1.00  0.00    -0.237 OA
ATOM     79  O   UNL A   1      44.939  18.850  23.332  1.00  0.00    -0.744 OA
ENDBRANCH  72  76
ENDBRANCH  55  69
BRANCH  56  80
ATOM     80  C   UNL A   1      46.820  30.438  27.782  1.00  0.00     0.023 A 
ATOM     81  C   UNL A   1      46.197  31.478  27.059  1.00  0.00     0.031 A 
ATOM     82  C   UNL A   1      48.179  30.631  28.119  1.00  0.00     0.131 A 
ATOM     83  C   UNL A   1      46.922  32.644  26.715  1.00  0.00     0.055 A 
ATOM     84  C   UNL A   1      48.891  31.780  27.774  1.00  0.00     0.041 A 
ATOM     85  F   UNL A   1      48.840  29.741  28.879  1.00  0.00    -0.206 F 
ATOM     86  C   UNL A   1      48.262  32.799  27.079  1.00  0.00     0.022 A 
BRANCH  83  87
ATOM     87  S   UNL A   1      46.096  34.036  25.878  1.00  0.00     0.124 S 
ATOM     88  O   UNL A   1      45.561  34.798  27.000  1.00  0.00    -0.237 OA
ATOM     89  O   UNL A   1      47.190  34.652  25.136  1.00  0.00    -0.237 OA
ATOM     90  O   UNL A   1      45.086  33.382  25.043  1.00  0.00    -0.744 OA
ENDBRANCH  83  87
ENDBRANCH  56  80
BRANCH  68  91
ATOM     91  C   UNL A   1      45.545  25.650  31.760  1.00  0.00     0.023 A 
ATOM     92  C   UNL A   1      46.545  25.385  32.725  1.00  0.00     0.031 A 
ATOM     93  C   UNL A   1      44.461  26.456  32.155  1.00  0.00     0.131 A 
ATOM     94  C   UNL A   1      46.425  25.912  34.029  1.00  0.00     0.055 A 
ATOM     95  C   UNL A   1      44.357  26.993  33.437  1.00  0.00     0.041 A 
ATOM     96  F   UNL A   1      43.488  26.765  31.281  1.00  0.00    -0.206 F 
ATOM     97  C   UNL A   1      45.336  26.716  34.382  1.00  0.00     0.022 A 
BRANCH  94  98
ATOM     98  S   UNL A   1      47.671  25.543  35.306  1.00  0.00     0.124 S 
ATOM     99  O   UNL A   1      47.252  26.355  36.443  1.00  0.00    -0.237 OA
ATOM    100  O   UNL A   1      47.538  24.098  35.470  1.00  0.00    -0.237 OA
ATOM    101  O   UNL A   1      48.928  25.968  34.687  1.00  0.00    -0.744 OA
ENDBRANCH  94  98
ENDBRANCH  68  91
ENDBRANCH  42  43
ENDBRANCH  34  37
ENDBRANCH  32  33
ENDBRANCH  31  32
ENDBRANCH   1  31
TORSDOF 18
ENDMDL
MODEL 2
REMARK VINA RESULT:     -13.2      2.057      6.934
REMARK SMILES NS(=O)(=O)c1ccc(-n2ccnc2-c2ccc(O)c(C(=O)NCCCNC(=O)c3ccc(-c4c5nc(c(-c6cc(S(=O)(=O)[O-])ccc6F)c6ccc([nH]6)c(-c6cc(S(=O)(=O)[O-])ccc6F)c6nc(c(-c7cc(S(=O)(=O)[O-])ccc7F)c7ccc4[nH]7)C=C6)C=C5)cc3)c2)cc1
REMARK SMILES IDX 23 1 22 2 20 3 21 4 19 6 14 7 15 8 92 9 16 10 17 11 13 12
REMARK SMILES IDX 9 13 10 14 11 15 12 16 8 17 5 18 6 19 94 20 7 21 93 22 2 23
REMARK SMILES IDX 3 24 4 25 1 26 18 29 24 31 25 32 26 33 27 34 28 36 29 37
REMARK SMILES IDX 30 38 91 39 31 40 90 41 32 42 33 43 34 44 84 45 35 46 89 47
REMARK SMILES IDX 83 48 85 49 36 50 88 51 82 52 81 53 37 55 69 56 49 57 68 58
REMARK SMILES IDX 50 59 53 60 67 61 86 62 51 63 52 64 66 66 87 67 54 68 38 69
REMARK SMILES IDX 39 70 47 71 40 72 46 73 48 74 45 75 41 76 42 77 43 78 44 79
REMARK SMILES IDX 70 80 71 81 79 82 72 83 78 84 80 85 77 86 73 87 74 88 75 89
REMARK SMILES IDX 76 90 55 91 56 92 64 93 57 94 63 95 65 96 62 97 58 98 59 99
REMARK SMILES IDX 60 100 61 101
REMARK H PARENT 22 5 1 27 1 28 18 30 26 35 85 54 53 65
REMARK Flexibility Score: inf
ROOT
ATOM      1  C   UNL A   1      32.747  29.877  25.924  1.00  0.00     0.118 C 
ENDROOT
BRANCH   1   2
ATOM      2  N   UNL A   1      31.623  30.320  25.116  1.00  0.00    -0.352 N 
ATOM      3  C   UNL A   1      30.683  29.655  24.363  1.00  0.00     0.255 C 
ATOM      4  O   UNL A   1      29.735  30.319  23.931  1.00  0.00    -0.269 OA
ATOM      5  H   UNL A   1      31.511  31.298  25.105  1.00  0.00     0.163 HD
BRANCH   3   6
ATOM      6  C   UNL A   1      30.699  28.193  24.052  1.00  0.00     0.082 A 
ATOM      7  C   UNL A   1      30.602  25.833  24.720  1.00  0.00     0.019 A 
ATOM      8  C   UNL A   1      30.700  25.435  23.390  1.00  0.00     0.016 A 
ATOM      9  C   UNL A   1      30.675  27.203  25.031  1.00  0.00     0.029 A 
ATOM     10  C   UNL A   1      30.792  26.403  22.388  1.00  0.00     0.048 A 
ATOM     11  C   UNL A   1      30.772  27.764  22.715  1.00  0.00     0.128 A 
BRANCH   7  12
ATOM     12  C   UNL A   1      30.447  24.869  25.817  1.00  0.00     0.144 A 
ATOM     13  N   UNL A   1      31.291  23.773  26.030  1.00  0.00    -0.300 N 
ATOM     14  C   UNL A   1      30.587  22.898  26.827  1.00  0.00     0.113 A 
ATOM     15  C   UNL A   1      29.455  23.573  27.210  1.00  0.00     0.132 A 
ATOM     16  N   UNL A   1      29.392  24.800  26.610  1.00  0.00    -0.236 NA
BRANCH  13  17
ATOM     17  C   UNL A   1      32.591  23.551  25.496  1.00  0.00     0.047 A 
ATOM     18  C   UNL A   1      35.159  23.001  24.547  1.00  0.00     0.082 A 
ATOM     19  C   UNL A   1      34.059  22.342  23.992  1.00  0.00     0.024 A 
ATOM     20  C   UNL A   1      34.982  23.948  25.563  1.00  0.00     0.024 A 
ATOM     21  C   UNL A   1      32.775  22.613  24.469  1.00  0.00     0.028 A 
ATOM     22  C   UNL A   1      33.694  24.241  26.022  1.00  0.00     0.028 A 
BRANCH  18  23
ATOM     23  S   UNL A   1      36.777  22.586  23.959  1.00  0.00     0.238 S 
ATOM     24  O   UNL A   1      36.876  22.998  22.589  1.00  0.00    -0.207 OA
ATOM     25  O   UNL A   1      37.086  21.238  24.401  1.00  0.00    -0.207 OA
BRANCH  23  26
ATOM     26  N   UNL A   1      37.802  23.581  24.840  1.00  0.00    -0.225 NA
ATOM     27  H   UNL A   1      37.508  23.594  25.817  1.00  0.00     0.137 HD
ATOM     28  H   UNL A   1      37.767  24.527  24.462  1.00  0.00     0.137 HD
ENDBRANCH  23  26
ENDBRANCH  18  23
ENDBRANCH  13  17
ENDBRANCH   7  12
BRANCH  11  29
ATOM     29  O   UNL A   1      30.841  28.625  21.650  1.00  0.00    -0.507 OA
ATOM     30  H   UNL A   1      30.968  29.542  21.796  1.00  0.00     0.293 HD
ENDBRANCH  11  29
ENDBRANCH   3   6
ENDBRANCH   1   2
BRANCH   1  31
ATOM     31  C   UNL A   1      32.917  30.693  27.215  1.00  0.00     0.042 C 
BRANCH  31  32
ATOM     32  C   UNL A   1      34.369  31.032  27.515  1.00  0.00     0.118 C 
BRANCH  32  33
ATOM     33  N   UNL A   1      34.494  31.883  28.697  1.00  0.00    -0.352 N 
ATOM     34  C   UNL A   1      35.438  31.838  29.702  1.00  0.00     0.251 C 
ATOM     35  H   UNL A   1      33.810  32.586  28.789  1.00  0.00     0.163 HD
ATOM     36  O   UNL A   1      35.207  32.383  30.776  1.00  0.00    -0.269 OA
BRANCH  34  37
ATOM     37  C   UNL A   1      36.698  31.106  29.476  1.00  0.00     0.039 A 
ATOM     38  C   UNL A   1      37.922  31.697  29.790  1.00  0.00     0.014 A 
ATOM     39  C   UNL A   1      36.643  29.796  29.003  1.00  0.00     0.014 A 
ATOM     40  C   UNL A   1      39.077  30.919  29.739  1.00  0.00     0.010 A 
ATOM     41  C   UNL A   1      37.764  28.996  29.074  1.00  0.00     0.010 A 
ATOM     42  C   UNL A   1      38.990  29.549  29.428  1.00  0.00    -0.014 A 
BRANCH  42  43
ATOM     43  C   UNL A   1      40.149  28.678  29.658  1.00  0.00     0.031 A 
ATOM     44  C   UNL A   1      40.496  28.490  31.092  1.00  0.00     0.074 A 
ATOM     45  C   UNL A   1      40.765  27.924  28.721  1.00  0.00     0.049 A 
ATOM     46  N   UNL A   1      41.516  28.976  31.720  1.00  0.00    -0.248 NA
ATOM     47  C   UNL A   1      39.524  27.822  31.974  1.00  0.00     0.031 C 
ATOM     48  C   UNL A   1      40.394  27.757  27.313  1.00  0.00     0.029 A 
ATOM     49  N   UNL A   1      41.808  27.053  28.862  1.00  0.00    -0.354 N 
ATOM     50  C   UNL A   1      41.461  28.443  33.003  1.00  0.00     0.074 A 
ATOM     51  C   UNL A   1      40.122  27.943  33.162  1.00  0.00     0.031 C 
ATOM     52  C   UNL A   1      41.035  26.686  26.798  1.00  0.00     0.029 A 
ATOM     53  C   UNL A   1      41.991  26.198  27.777  1.00  0.00     0.049 A 
ATOM     54  H   UNL A   1      42.382  27.031  29.661  1.00  0.00     0.167 HD
ATOM     55  C   UNL A   1      42.602  28.214  33.711  1.00  0.00     0.034 A 
ATOM     56  C   UNL A   1      42.858  25.158  27.671  1.00  0.00     0.034 A 
ATOM     57  C   UNL A   1      43.720  28.943  33.147  1.00  0.00     0.049 A 
ATOM     58  C   UNL A   1      43.963  25.424  28.620  1.00  0.00     0.074 A 
ATOM     59  C   UNL A   1      43.946  30.268  32.820  1.00  0.00     0.029 A 
ATOM     60  N   UNL A   1      44.681  28.234  32.459  1.00  0.00    -0.354 N 
ATOM     61  N   UNL A   1      44.788  26.428  28.494  1.00  0.00    -0.248 NA
ATOM     62  C   UNL A   1      43.883  24.856  29.956  1.00  0.00     0.031 C 
ATOM     63  C   UNL A   1      44.649  30.225  31.579  1.00  0.00     0.029 A 
ATOM     64  C   UNL A   1      44.901  28.887  31.270  1.00  0.00     0.049 A 
ATOM     65  H   UNL A   1      45.128  27.411  32.763  1.00  0.00     0.167 HD
ATOM     66  C   UNL A   1      44.970  26.900  29.783  1.00  0.00     0.074 A 
ATOM     67  C   UNL A   1      44.488  25.826  30.648  1.00  0.00     0.031 C 
ATOM     68  C   UNL A   1      45.230  28.221  30.023  1.00  0.00     0.034 A 
BRANCH  55  69
ATOM     69  C   UNL A   1      42.804  27.043  34.653  1.00  0.00     0.023 A 
ATOM     70  C   UNL A   1      43.589  25.971  34.186  1.00  0.00     0.031 A 
ATOM     71  C   UNL A   1      42.045  26.782  35.817  1.00  0.00     0.131 A 
ATOM     72  C   UNL A   1      43.504  24.700  34.781  1.00  0.00     0.055 A 
ATOM     73  C   UNL A   1      42.024  25.536  36.450  1.00  0.00     0.041 A 
ATOM     74  F   UNL A   1      41.208  27.675  36.355  1.00  0.00    -0.206 F 
ATOM     75  C   UNL A   1      42.728  24.474  35.913  1.00  0.00     0.022 A 
BRANCH  72  76
ATOM     76  S   UNL A   1      44.270  23.302  33.922  1.00  0.00     0.124 S 
ATOM     77  O   UNL A   1      43.260  22.995  32.915  1.00  0.00    -0.237 OA
ATOM     78  O   UNL A   1      45.510  23.895  33.431  1.00  0.00    -0.237 OA
ATOM     79  O   UNL A   1      44.429  22.303  34.975  1.00  0.00    -0.744 OA
ENDBRANCH  72  76
ENDBRANCH  55  69
BRANCH  56  80
ATOM     80  C   UNL A   1      42.644  23.851  26.990  1.00  0.00     0.023 A 
ATOM     81  C   UNL A   1      43.654  23.201  26.249  1.00  0.00     0.031 A 
ATOM     82  C   UNL A   1      41.486  23.093  27.278  1.00  0.00     0.131 A 
ATOM     83  C   UNL A   1      43.487  21.856  25.840  1.00  0.00     0.055 A 
ATOM     84  C   UNL A   1      41.324  21.769  26.868  1.00  0.00     0.041 A 
ATOM     85  F   UNL A   1      40.504  23.589  28.049  1.00  0.00    -0.206 F 
ATOM     86  C   UNL A   1      42.331  21.140  26.156  1.00  0.00     0.022 A 
BRANCH  83  87
ATOM     87  S   UNL A   1      44.830  20.977  24.977  1.00  0.00     0.124 S 
ATOM     88  O   UNL A   1      46.018  21.482  25.657  1.00  0.00    -0.237 OA
ATOM     89  O   UNL A   1      44.493  19.577  25.213  1.00  0.00    -0.237 OA
ATOM     90  O   UNL A   1      44.687  21.412  23.587  1.00  0.00    -0.744 OA
ENDBRANCH  83  87
ENDBRANCH  56  80
BRANCH  68  91
ATOM     91  C   UNL A   1      45.693  29.097  28.875  1.00  0.00     0.023 A 
ATOM     92  C   UNL A   1      44.969  30.179  28.321  1.00  0.00     0.031 A 
ATOM     93  C   UNL A   1      46.996  28.874  28.389  1.00  0.00     0.131 A 
ATOM     94  C   UNL A   1      45.552  30.976  27.313  1.00  0.00     0.055 A 
ATOM     95  C   UNL A   1      47.576  29.677  27.409  1.00  0.00     0.041 A 
ATOM     96  F   UNL A   1      47.746  27.877  28.888  1.00  0.00    -0.206 F 
ATOM     97  C   UNL A   1      46.852  30.728  26.862  1.00  0.00     0.022 A 
BRANCH  94  98
ATOM     98  S   UNL A   1      44.621  32.342  26.546  1.00  0.00     0.124 S 
ATOM     99  O   UNL A   1      43.605  31.664  25.749  1.00  0.00    -0.237 OA
ATOM    100  O   UNL A   1      44.134  33.083  27.706  1.00  0.00    -0.237 OA
ATOM    101  O   UNL A   1      45.637  33.047  25.761  1.00  0.00    -0.744 OA
ENDBRANCH  94  98
ENDBRANCH  68  91
ENDBRANCH  42  43
ENDBRANCH  34  37
ENDBRANCH  32  33
ENDBRANCH  31  32
ENDBRANCH   1  31
TORSDOF 18
ENDMDL
MODEL 3
REMARK VINA RESULT:     -13.0      4.487     10.382
REMARK SMILES NS(=O)(=O)c1ccc(-n2ccnc2-c2ccc(O)c(C(=O)NCCCNC(=O)c3ccc(-c4c5nc(c(-c6cc(S(=O)(=O)[O-])ccc6F)c6ccc([nH]6)c(-c6cc(S(=O)(=O)[O-])ccc6F)c6nc(c(-c7cc(S(=O)(=O)[O-])ccc7F)c7ccc4[nH]7)C=C6)C=C5)cc3)c2)cc1
REMARK SMILES IDX 23 1 22 2 20 3 21 4 19 6 14 7 15 8 92 9 16 10 17 11 13 12
REMARK SMILES IDX 9 13 10 14 11 15 12 16 8 17 5 18 6 19 94 20 7 21 93 22 2 23
REMARK SMILES IDX 3 24 4 25 1 26 18 29 24 31 25 32 26 33 27 34 28 36 29 37
REMARK SMILES IDX 30 38 91 39 31 40 90 41 32 42 33 43 34 44 84 45 35 46 89 47
REMARK SMILES IDX 83 48 85 49 36 50 88 51 82 52 81 53 37 55 69 56 49 57 68 58
REMARK SMILES IDX 50 59 53 60 67 61 86 62 51 63 52 64 66 66 87 67 54 68 38 69
REMARK SMILES IDX 39 70 47 71 40 72 46 73 48 74 45 75 41 76 42 77 43 78 44 79
REMARK SMILES IDX 70 80 71 81 79 82 72 83 78 84 80 85 77 86 73 87 74 88 75 89
REMARK SMILES IDX 76 90 55 91 56 92 64 93 57 94 63 95 65 96 62 97 58 98 59 99
REMARK SMILES IDX 60 100 61 101
REMARK H PARENT 22 5 1 27 1 28 18 30 26 35 85 54 53 65
REMARK Flexibility Score: inf
ROOT
ATOM      1  C   UNL A   1      36.572  23.325  26.470  1.00  0.00     0.118 C 
ENDROOT
BRANCH   1   2
ATOM      2  N   UNL A   1      36.577  21.926  26.075  1.00  0.00    -0.352 N 
ATOM      3  C   UNL A   1      35.748  21.167  25.282  1.00  0.00     0.255 C 
ATOM      4  O   UNL A   1      36.128  20.028  24.996  1.00  0.00    -0.269 OA
ATOM      5  H   UNL A   1      37.329  21.415  26.453  1.00  0.00     0.163 HD
BRANCH   3   6
ATOM      6  C   UNL A   1      34.440  21.619  24.715  1.00  0.00     0.082 A 
ATOM      7  C   UNL A   1      33.099  22.998  23.191  1.00  0.00     0.019 A 
ATOM      8  C   UNL A   1      31.929  22.406  23.657  1.00  0.00     0.016 A 
ATOM      9  C   UNL A   1      34.326  22.643  23.779  1.00  0.00     0.029 A 
ATOM     10  C   UNL A   1      32.003  21.421  24.644  1.00  0.00     0.048 A 
ATOM     11  C   UNL A   1      33.245  21.020  25.151  1.00  0.00     0.128 A 
BRANCH   7  12
ATOM     12  C   UNL A   1      33.095  23.999  22.116  1.00  0.00     0.144 A 
ATOM     13  N   UNL A   1      32.713  25.336  22.283  1.00  0.00    -0.300 N 
ATOM     14  C   UNL A   1      32.416  25.809  21.025  1.00  0.00     0.113 A 
ATOM     15  C   UNL A   1      32.811  24.822  20.155  1.00  0.00     0.132 A 
ATOM     16  N   UNL A   1      33.258  23.723  20.834  1.00  0.00    -0.236 NA
BRANCH  13  17
ATOM     17  C   UNL A   1      32.587  26.066  23.499  1.00  0.00     0.047 A 
ATOM     18  C   UNL A   1      32.307  27.622  25.800  1.00  0.00     0.082 A 
ATOM     19  C   UNL A   1      31.188  26.991  25.250  1.00  0.00     0.024 A 
ATOM     20  C   UNL A   1      33.570  27.467  25.216  1.00  0.00     0.024 A 
ATOM     21  C   UNL A   1      31.326  26.216  24.097  1.00  0.00     0.028 A 
ATOM     22  C   UNL A   1      33.714  26.668  24.077  1.00  0.00     0.028 A 
BRANCH  18  23
ATOM     23  S   UNL A   1      32.083  28.646  27.227  1.00  0.00     0.238 S 
ATOM     24  O   UNL A   1      31.305  27.917  28.185  1.00  0.00    -0.207 OA
ATOM     25  O   UNL A   1      31.728  29.980  26.774  1.00  0.00    -0.207 OA
BRANCH  23  26
ATOM     26  N   UNL A   1      33.625  28.799  27.871  1.00  0.00    -0.225 NA
ATOM     27  H   UNL A   1      33.582  28.701  28.885  1.00  0.00     0.137 HD
ATOM     28  H   UNL A   1      34.004  29.715  27.633  1.00  0.00     0.137 HD
ENDBRANCH  23  26
ENDBRANCH  18  23
ENDBRANCH  13  17
ENDBRANCH   7  12
BRANCH  11  29
ATOM     29  O   UNL A   1      33.201  20.027  26.096  1.00  0.00    -0.507 OA
ATOM     30  H   UNL A   1      33.133  20.248  27.004  1.00  0.00     0.293 HD
ENDBRANCH  11  29
ENDBRANCH   3   6
ENDBRANCH   1   2
BRANCH   1  31
ATOM     31  C   UNL A   1      37.797  24.097  25.956  1.00  0.00     0.042 C 
BRANCH  31  32
ATOM     32  C   UNL A   1      39.045  23.852  26.791  1.00  0.00     0.118 C 
BRANCH  32  33
ATOM     33  N   UNL A   1      40.257  24.273  26.091  1.00  0.00    -0.352 N 
ATOM     34  C   UNL A   1      40.830  25.526  26.026  1.00  0.00     0.251 C 
ATOM     35  H   UNL A   1      40.731  23.564  25.597  1.00  0.00     0.163 HD
ATOM     36  O   UNL A   1      41.632  25.781  25.134  1.00  0.00    -0.269 OA
BRANCH  34  37
ATOM     37  C   UNL A   1      40.440  26.550  27.013  1.00  0.00     0.039 A 
ATOM     38  C   UNL A   1      40.061  26.175  28.304  1.00  0.00     0.014 A 
ATOM     39  C   UNL A   1      40.515  27.895  26.659  1.00  0.00     0.014 A 
ATOM     40  C   UNL A   1      39.876  27.168  29.264  1.00  0.00     0.010 A 
ATOM     41  C   UNL A   1      40.455  28.865  27.637  1.00  0.00     0.010 A 
ATOM     42  C   UNL A   1      40.124  28.515  28.942  1.00  0.00    -0.014 A 
BRANCH  42  43
ATOM     43  C   UNL A   1      40.214  29.513  30.014  1.00  0.00     0.031 A 
ATOM     44  C   UNL A   1      38.955  30.269  30.252  1.00  0.00     0.074 A 
ATOM     45  C   UNL A   1      41.243  29.647  30.880  1.00  0.00     0.049 A 
ATOM     46  N   UNL A   1      38.720  31.506  29.961  1.00  0.00    -0.248 NA
ATOM     47  C   UNL A   1      37.766  29.535  30.715  1.00  0.00     0.031 C 
ATOM     48  C   UNL A   1      42.445  28.815  30.987  1.00  0.00     0.029 A 
ATOM     49  N   UNL A   1      41.380  30.509  31.931  1.00  0.00    -0.354 N 
ATOM     50  C   UNL A   1      37.452  31.779  30.462  1.00  0.00     0.074 A 
ATOM     51  C   UNL A   1      36.841  30.499  30.698  1.00  0.00     0.031 C 
ATOM     52  C   UNL A   1      43.060  29.055  32.165  1.00  0.00     0.029 A 
ATOM     53  C   UNL A   1      42.404  30.175  32.816  1.00  0.00     0.049 A 
ATOM     54  H   UNL A   1      40.805  31.299  32.054  1.00  0.00     0.167 HD
ATOM     55  C   UNL A   1      37.129  33.030  30.896  1.00  0.00     0.034 A 
ATOM     56  C   UNL A   1      42.707  30.764  34.002  1.00  0.00     0.034 A 
ATOM     57  C   UNL A   1      38.070  34.013  30.397  1.00  0.00     0.049 A 
ATOM     58  C   UNL A   1      42.180  32.147  33.940  1.00  0.00     0.074 A 
ATOM     59  C   UNL A   1      38.543  34.349  29.142  1.00  0.00     0.029 A 
ATOM     60  N   UNL A   1      38.976  34.557  31.281  1.00  0.00    -0.354 N 
ATOM     61  N   UNL A   1      42.632  33.048  33.112  1.00  0.00    -0.248 NA
ATOM     62  C   UNL A   1      40.851  32.407  34.471  1.00  0.00     0.031 C 
ATOM     63  C   UNL A   1      39.938  34.591  29.328  1.00  0.00     0.029 A 
ATOM     64  C   UNL A   1      40.216  34.489  30.693  1.00  0.00     0.049 A 
ATOM     65  H   UNL A   1      38.773  34.926  32.171  1.00  0.00     0.167 HD
ATOM     66  C   UNL A   1      41.504  33.720  32.670  1.00  0.00     0.074 A 
ATOM     67  C   UNL A   1      40.457  33.364  33.626  1.00  0.00     0.031 C 
ATOM     68  C   UNL A   1      41.452  34.272  31.421  1.00  0.00     0.034 A 
BRANCH  55  69
ATOM     69  C   UNL A   1      36.221  33.318  32.075  1.00  0.00     0.023 A 
ATOM     70  C   UNL A   1      35.085  34.113  31.833  1.00  0.00     0.031 A 
ATOM     71  C   UNL A   1      36.554  33.129  33.437  1.00  0.00     0.131 A 
ATOM     72  C   UNL A   1      34.423  34.770  32.885  1.00  0.00     0.055 A 
ATOM     73  C   UNL A   1      35.844  33.722  34.485  1.00  0.00     0.041 A 
ATOM     74  F   UNL A   1      37.633  32.446  33.834  1.00  0.00    -0.206 F 
ATOM     75  C   UNL A   1      34.794  34.578  34.212  1.00  0.00     0.022 A 
BRANCH  72  76
ATOM     76  S   UNL A   1      33.198  36.036  32.467  1.00  0.00     0.124 S 
ATOM     77  O   UNL A   1      31.952  35.293  32.627  1.00  0.00    -0.237 OA
ATOM     78  O   UNL A   1      33.472  37.060  33.469  1.00  0.00    -0.237 OA
ATOM     79  O   UNL A   1      33.540  36.397  31.094  1.00  0.00    -0.744 OA
ENDBRANCH  72  76
ENDBRANCH  55  69
BRANCH  56  80
ATOM     80  C   UNL A   1      43.191  30.114  35.251  1.00  0.00     0.023 A 
ATOM     81  C   UNL A   1      42.695  28.873  35.708  1.00  0.00     0.031 A 
ATOM     82  C   UNL A   1      44.352  30.603  35.891  1.00  0.00     0.131 A 
ATOM     83  C   UNL A   1      43.358  28.178  36.748  1.00  0.00     0.055 A 
ATOM     84  C   UNL A   1      44.999  29.917  36.919  1.00  0.00     0.041 A 
ATOM     85  F   UNL A   1      44.952  31.731  35.475  1.00  0.00    -0.206 F 
ATOM     86  C   UNL A   1      44.511  28.693  37.345  1.00  0.00     0.022 A 
BRANCH  83  87
ATOM     87  S   UNL A   1      42.789  26.527  37.268  1.00  0.00     0.124 S 
ATOM     88  O   UNL A   1      41.349  26.720  37.392  1.00  0.00    -0.237 OA
ATOM     89  O   UNL A   1      43.238  25.678  36.169  1.00  0.00    -0.237 OA
ATOM     90  O   UNL A   1      43.490  26.306  38.533  1.00  0.00    -0.744 OA
ENDBRANCH  83  87
ENDBRANCH  56  80
BRANCH  68  91
ATOM     91  C   UNL A   1      42.747  34.483  30.659  1.00  0.00     0.023 A 
ATOM     92  C   UNL A   1      43.244  33.644  29.634  1.00  0.00     0.031 A 
ATOM     93  C   UNL A   1      43.459  35.667  30.929  1.00  0.00     0.131 A 
ATOM     94  C   UNL A   1      44.418  34.000  28.938  1.00  0.00     0.055 A 
ATOM     95  C   UNL A   1      44.605  36.027  30.223  1.00  0.00     0.041 A 
ATOM     96  F   UNL A   1      43.028  36.519  31.874  1.00  0.00    -0.206 F 
ATOM     97  C   UNL A   1      45.094  35.189  29.229  1.00  0.00     0.022 A 
BRANCH  94  98
ATOM     98  S   UNL A   1      45.110  32.912  27.650  1.00  0.00     0.124 S 
ATOM     99  O   UNL A   1      46.329  32.390  28.257  1.00  0.00    -0.237 OA
ATOM    100  O   UNL A   1      44.035  31.945  27.442  1.00  0.00    -0.237 OA
ATOM    101  O   UNL A   1      45.334  33.819  26.522  1.00  0.00    -0.744 OA
ENDBRANCH  94  98
ENDBRANCH  68  91
ENDBRANCH  42  43
ENDBRANCH  34  37
ENDBRANCH  32  33
ENDBRANCH  31  32
ENDBRANCH   1  31
TORSDOF 18
ENDMDL
