MODEL 1
REMARK VINA RESULT:     -10.2      0.000      0.000
REMARK SMILES CC[C@@](C)(NC(=O)N(C)[C@@H](C)C(C)C)C(=O)NCCCNC(=O)c1ccc(-c2c3nc(c(-c4cc(S(=O)(=O)[O-])ccc4F)c4ccc([nH]4)c(-c4cc(S(=O)(=O)[O-])ccc4F)c4nc(c(-c5cc(S(=O)(=O)[O-])ccc5F)c5ccc2[nH]5)C=C4)C=C3)cc1
REMARK SMILES IDX 18 1 17 2 15 3 16 4 3 6 4 7 2 8 1 9 5 10 6 11 7 13 8 14 9 15
REMARK SMILES IDX 10 16 11 17 12 18 13 19 14 20 19 21 20 22 21 23 22 24 23 26
REMARK SMILES IDX 24 27 25 28 86 29 26 30 85 31 27 32 28 33 29 34 79 35 30 36
REMARK SMILES IDX 84 37 78 38 80 39 31 40 83 41 77 42 76 43 32 45 64 46 44 47
REMARK SMILES IDX 63 48 45 49 48 50 62 51 81 52 46 53 47 54 61 56 82 57 49 58
REMARK SMILES IDX 33 59 34 60 42 61 35 62 41 63 43 64 40 65 36 66 37 67 38 68
REMARK SMILES IDX 39 69 65 70 66 71 74 72 67 73 73 74 75 75 72 76 68 77 69 78
REMARK SMILES IDX 70 79 71 80 50 81 51 82 59 83 52 84 58 85 60 86 57 87 53 88
REMARK SMILES IDX 54 89 55 90 56 91
REMARK H PARENT 17 5 5 12 21 25 80 44 48 55
REMARK Flexibility Score: inf
ROOT
ATOM      1  C   UNL A   1      30.945  30.293  25.605  1.00  0.00     0.117 C 
ENDROOT
BRANCH   1   2
ATOM      2  N   UNL A   1      31.996  29.840  24.708  1.00  0.00    -0.354 N 
ATOM      3  C   UNL A   1      32.949  28.868  24.770  1.00  0.00     0.245 C 
ATOM      4  O   UNL A   1      33.597  28.720  23.726  1.00  0.00    -0.272 OA
ATOM      5  H   UNL A   1      32.026  30.351  23.868  1.00  0.00     0.163 HD
BRANCH   3   6
ATOM      6  C   UNL A   1      33.160  27.918  25.994  1.00  0.00     0.117 C 
ATOM      7  C   UNL A   1      34.304  26.947  25.585  1.00  0.00     0.045 C 
BRANCH   6   8
ATOM      8  C   UNL A   1      33.649  28.628  27.302  1.00  0.00     0.035 C 
ATOM      9  C   UNL A   1      34.890  29.513  27.204  1.00  0.00     0.007 C 
ENDBRANCH   6   8
BRANCH   6  10
ATOM     10  N   UNL A   1      31.971  27.093  26.343  1.00  0.00    -0.324 N 
ATOM     11  C   UNL A   1      31.077  26.274  25.747  1.00  0.00     0.318 C 
ATOM     12  H   UNL A   1      31.776  27.167  27.305  1.00  0.00     0.166 HD
ATOM     13  O   UNL A   1      30.040  26.117  26.399  1.00  0.00    -0.249 OA
BRANCH  11  14
ATOM     14  N   UNL A   1      31.330  25.560  24.607  1.00  0.00    -0.325 N 
ATOM     15  C   UNL A   1      31.386  26.096  23.257  1.00  0.00     0.149 C 
BRANCH  14  16
ATOM     16  C   UNL A   1      31.569  24.084  24.688  1.00  0.00     0.086 C 
ATOM     17  C   UNL A   1      31.031  23.280  23.482  1.00  0.00     0.031 C 
BRANCH  16  18
ATOM     18  C   UNL A   1      33.044  23.666  24.971  1.00  0.00     0.005 C 
ATOM     19  C   UNL A   1      33.366  23.432  26.447  1.00  0.00     0.009 C 
ATOM     20  C   UNL A   1      33.387  22.380  24.199  1.00  0.00     0.009 C 
ENDBRANCH  16  18
ENDBRANCH  14  16
ENDBRANCH  11  14
ENDBRANCH   6  10
ENDBRANCH   3   6
ENDBRANCH   1   2
BRANCH   1  21
ATOM     21  C   UNL A   1      31.055  31.747  26.043  1.00  0.00     0.042 C 
BRANCH  21  22
ATOM     22  C   UNL A   1      32.294  32.114  26.856  1.00  0.00     0.118 C 
BRANCH  22  23
ATOM     23  N   UNL A   1      32.303  33.506  27.263  1.00  0.00    -0.352 N 
ATOM     24  C   UNL A   1      33.088  34.170  28.176  1.00  0.00     0.251 C 
ATOM     25  H   UNL A   1      31.637  34.070  26.808  1.00  0.00     0.163 HD
ATOM     26  O   UNL A   1      32.756  35.308  28.502  1.00  0.00    -0.269 OA
BRANCH  24  27
ATOM     27  C   UNL A   1      34.294  33.553  28.790  1.00  0.00     0.039 A 
ATOM     28  C   UNL A   1      34.101  32.589  29.786  1.00  0.00     0.014 A 
ATOM     29  C   UNL A   1      35.596  33.969  28.490  1.00  0.00     0.014 A 
ATOM     30  C   UNL A   1      35.198  32.016  30.443  1.00  0.00     0.010 A 
ATOM     31  C   UNL A   1      36.695  33.353  29.106  1.00  0.00     0.010 A 
ATOM     32  C   UNL A   1      36.510  32.372  30.094  1.00  0.00    -0.014 A 
BRANCH  32  33
ATOM     33  C   UNL A   1      37.680  31.727  30.760  1.00  0.00     0.031 A 
ATOM     34  C   UNL A   1      38.494  30.678  30.046  1.00  0.00     0.074 A 
ATOM     35  C   UNL A   1      38.003  32.065  32.024  1.00  0.00     0.049 A 
ATOM     36  N   UNL A   1      39.507  29.972  30.486  1.00  0.00    -0.248 NA
ATOM     37  C   UNL A   1      38.109  30.373  28.661  1.00  0.00     0.031 C 
ATOM     38  C   UNL A   1      37.299  33.059  32.837  1.00  0.00     0.029 A 
ATOM     39  N   UNL A   1      39.002  31.610  32.853  1.00  0.00    -0.354 N 
ATOM     40  C   UNL A   1      39.876  29.134  29.438  1.00  0.00     0.074 A 
ATOM     41  C   UNL A   1      38.943  29.390  28.358  1.00  0.00     0.031 C 
ATOM     42  C   UNL A   1      37.895  33.148  34.036  1.00  0.00     0.029 A 
ATOM     43  C   UNL A   1      38.991  32.186  34.103  1.00  0.00     0.049 A 
ATOM     44  H   UNL A   1      39.663  30.935  32.578  1.00  0.00     0.167 HD
ATOM     45  C   UNL A   1      40.902  28.248  29.373  1.00  0.00     0.034 A 
ATOM     46  C   UNL A   1      39.756  31.954  35.190  1.00  0.00     0.034 A 
ATOM     47  C   UNL A   1      41.833  28.003  30.451  1.00  0.00     0.049 A 
ATOM     48  C   UNL A   1      40.851  30.919  35.116  1.00  0.00     0.074 A 
ATOM     49  C   UNL A   1      42.936  27.165  30.464  1.00  0.00     0.029 A 
ATOM     50  N   UNL A   1      41.766  28.581  31.713  1.00  0.00    -0.354 N 
ATOM     51  N   UNL A   1      41.206  30.163  34.104  1.00  0.00    -0.248 NA
ATOM     52  C   UNL A   1      41.651  30.711  36.331  1.00  0.00     0.031 C 
ATOM     53  C   UNL A   1      43.487  27.177  31.750  1.00  0.00     0.029 A 
ATOM     54  C   UNL A   1      42.782  28.086  32.520  1.00  0.00     0.049 A 
ATOM     55  H   UNL A   1      41.096  29.245  31.994  1.00  0.00     0.167 HD
ATOM     56  C   UNL A   1      42.290  29.412  34.554  1.00  0.00     0.074 A 
ATOM     57  C   UNL A   1      42.537  29.815  35.922  1.00  0.00     0.031 C 
ATOM     58  C   UNL A   1      43.018  28.478  33.890  1.00  0.00     0.034 A 
BRANCH  45  59
ATOM     59  C   UNL A   1      41.056  27.447  28.100  1.00  0.00     0.023 A 
ATOM     60  C   UNL A   1      40.676  26.096  28.025  1.00  0.00     0.031 A 
ATOM     61  C   UNL A   1      41.594  28.043  26.945  1.00  0.00     0.131 A 
ATOM     62  C   UNL A   1      40.906  25.368  26.847  1.00  0.00     0.055 A 
ATOM     63  C   UNL A   1      41.746  27.335  25.751  1.00  0.00     0.041 A 
ATOM     64  F   UNL A   1      41.990  29.326  26.959  1.00  0.00    -0.206 F 
ATOM     65  C   UNL A   1      41.415  25.984  25.702  1.00  0.00     0.022 A 
BRANCH  62  66
ATOM     66  S   UNL A   1      40.663  23.570  26.878  1.00  0.00     0.124 S 
ATOM     67  O   UNL A   1      41.680  23.118  25.933  1.00  0.00    -0.237 OA
ATOM     68  O   UNL A   1      40.901  23.244  28.279  1.00  0.00    -0.237 OA
ATOM     69  O   UNL A   1      39.283  23.403  26.423  1.00  0.00    -0.744 OA
ENDBRANCH  62  66
ENDBRANCH  45  59
BRANCH  46  70
ATOM     70  C   UNL A   1      39.498  32.688  36.463  1.00  0.00     0.023 A 
ATOM     71  C   UNL A   1      38.562  32.217  37.396  1.00  0.00     0.031 A 
ATOM     72  C   UNL A   1      40.152  33.902  36.740  1.00  0.00     0.131 A 
ATOM     73  C   UNL A   1      38.271  32.978  38.540  1.00  0.00     0.055 A 
ATOM     74  C   UNL A   1      39.901  34.626  37.906  1.00  0.00     0.041 A 
ATOM     75  F   UNL A   1      41.056  34.398  35.880  1.00  0.00    -0.206 F 
ATOM     76  C   UNL A   1      38.945  34.172  38.808  1.00  0.00     0.022 A 
BRANCH  73  77
ATOM     77  S   UNL A   1      36.932  32.427  39.633  1.00  0.00     0.124 S 
ATOM     78  O   UNL A   1      37.252  31.014  39.805  1.00  0.00    -0.237 OA
ATOM     79  O   UNL A   1      37.126  33.276  40.803  1.00  0.00    -0.237 OA
ATOM     80  O   UNL A   1      35.725  32.704  38.857  1.00  0.00    -0.744 OA
ENDBRANCH  73  77
ENDBRANCH  46  70
BRANCH  58  81
ATOM     81  C   UNL A   1      44.183  27.859  34.625  1.00  0.00     0.023 A 
ATOM     82  C   UNL A   1      44.066  26.635  35.309  1.00  0.00     0.031 A 
ATOM     83  C   UNL A   1      45.430  28.508  34.645  1.00  0.00     0.131 A 
ATOM     84  C   UNL A   1      45.161  26.124  36.023  1.00  0.00     0.055 A 
ATOM     85  C   UNL A   1      46.532  27.966  35.309  1.00  0.00     0.041 A 
ATOM     86  F   UNL A   1      45.601  29.681  34.013  1.00  0.00    -0.206 F 
ATOM     87  C   UNL A   1      46.398  26.774  36.013  1.00  0.00     0.022 A 
BRANCH  84  88
ATOM     88  S   UNL A   1      44.929  24.635  37.035  1.00  0.00     0.124 S 
ATOM     89  O   UNL A   1      44.084  25.131  38.116  1.00  0.00    -0.237 OA
ATOM     90  O   UNL A   1      44.290  23.717  36.096  1.00  0.00    -0.237 OA
ATOM     91  O   UNL A   1      46.289  24.270  37.427  1.00  0.00    -0.744 OA
ENDBRANCH  84  88
ENDBRANCH  58  81
ENDBRANCH  32  33
ENDBRANCH  24  27
ENDBRANCH  22  23
ENDBRANCH  21  22
ENDBRANCH   1  21
TORSDOF 18
ENDMDL
MODEL 2
REMARK VINA RESULT:     -10.0      1.827      3.111
REMARK SMILES CC[C@@](C)(NC(=O)N(C)[C@@H](C)C(C)C)C(=O)NCCCNC(=O)c1ccc(-c2c3nc(c(-c4cc(S(=O)(=O)[O-])ccc4F)c4ccc([nH]4)c(-c4cc(S(=O)(=O)[O-])ccc4F)c4nc(c(-c5cc(S(=O)(=O)[O-])ccc5F)c5ccc2[nH]5)C=C4)C=C3)cc1
REMARK SMILES IDX 18 1 17 2 15 3 16 4 3 6 4 7 2 8 1 9 5 10 6 11 7 13 8 14 9 15
REMARK SMILES IDX 10 16 11 17 12 18 13 19 14 20 19 21 20 22 21 23 22 24 23 26
REMARK SMILES IDX 24 27 25 28 86 29 26 30 85 31 27 32 28 33 29 34 79 35 30 36
REMARK SMILES IDX 84 37 78 38 80 39 31 40 83 41 77 42 76 43 32 45 64 46 44 47
REMARK SMILES IDX 63 48 45 49 48 50 62 51 81 52 46 53 47 54 61 56 82 57 49 58
REMARK SMILES IDX 33 59 34 60 42 61 35 62 41 63 43 64 40 65 36 66 37 67 38 68
REMARK SMILES IDX 39 69 65 70 66 71 74 72 67 73 73 74 75 75 72 76 68 77 69 78
REMARK SMILES IDX 70 79 71 80 50 81 51 82 59 83 52 84 58 85 60 86 57 87 53 88
REMARK SMILES IDX 54 89 55 90 56 91
REMARK H PARENT 17 5 5 12 21 25 80 44 48 55
REMARK Flexibility Score: inf
ROOT
ATOM      1  C   UNL A   1      34.065  27.887  22.606  1.00  0.00     0.117 C 
ENDROOT
BRANCH   1   2
ATOM      2  N   UNL A   1      33.052  27.242  21.785  1.00  0.00    -0.354 N 
ATOM      3  C   UNL A   1      32.117  26.276  22.007  1.00  0.00     0.245 C 
ATOM      4  O   UNL A   1      31.350  26.079  21.056  1.00  0.00    -0.272 OA
ATOM      5  H   UNL A   1      33.041  27.578  20.860  1.00  0.00     0.163 HD
BRANCH   3   6
ATOM      6  C   UNL A   1      31.921  25.537  23.371  1.00  0.00     0.117 C 
ATOM      7  C   UNL A   1      30.798  24.489  23.127  1.00  0.00     0.045 C 
BRANCH   6   8
ATOM      8  C   UNL A   1      33.165  24.724  23.865  1.00  0.00     0.035 C 
ATOM      9  C   UNL A   1      33.970  25.302  25.027  1.00  0.00     0.007 C 
ENDBRANCH   6   8
BRANCH   6  10
ATOM     10  N   UNL A   1      31.481  26.419  24.488  1.00  0.00    -0.324 N 
ATOM     11  C   UNL A   1      30.756  27.541  24.689  1.00  0.00     0.318 C 
ATOM     12  H   UNL A   1      31.825  26.077  25.345  1.00  0.00     0.166 HD
ATOM     13  O   UNL A   1      30.989  28.093  25.768  1.00  0.00    -0.249 OA
BRANCH  11  14
ATOM     14  N   UNL A   1      29.752  27.964  23.861  1.00  0.00    -0.325 N 
ATOM     15  C   UNL A   1      28.566  27.205  23.497  1.00  0.00     0.149 C 
BRANCH  14  16
ATOM     16  C   UNL A   1      29.825  29.320  23.231  1.00  0.00     0.086 C 
ATOM     17  C   UNL A   1      30.363  29.326  21.781  1.00  0.00     0.031 C 
BRANCH  16  18
ATOM     18  C   UNL A   1      28.510  30.154  23.297  1.00  0.00     0.005 C 
ATOM     19  C   UNL A   1      28.673  31.554  23.890  1.00  0.00     0.009 C 
ATOM     20  C   UNL A   1      27.904  30.300  21.890  1.00  0.00     0.009 C 
ENDBRANCH  16  18
ENDBRANCH  14  16
ENDBRANCH  11  14
ENDBRANCH   6  10
ENDBRANCH   3   6
ENDBRANCH   1   2
BRANCH   1  21
ATOM     21  C   UNL A   1      33.607  29.151  23.318  1.00  0.00     0.042 C 
BRANCH  21  22
ATOM     22  C   UNL A   1      33.717  29.145  24.840  1.00  0.00     0.118 C 
BRANCH  22  23
ATOM     23  N   UNL A   1      33.049  30.277  25.454  1.00  0.00    -0.352 N 
ATOM     24  C   UNL A   1      33.298  30.934  26.636  1.00  0.00     0.251 C 
ATOM     25  H   UNL A   1      32.292  30.635  24.937  1.00  0.00     0.163 HD
ATOM     26  O   UNL A   1      32.454  31.729  27.042  1.00  0.00    -0.269 OA
BRANCH  24  27
ATOM     27  C   UNL A   1      34.528  30.697  27.437  1.00  0.00     0.039 A 
ATOM     28  C   UNL A   1      34.655  29.468  28.095  1.00  0.00     0.014 A 
ATOM     29  C   UNL A   1      35.502  31.680  27.643  1.00  0.00     0.014 A 
ATOM     30  C   UNL A   1      35.763  29.210  28.913  1.00  0.00     0.010 A 
ATOM     31  C   UNL A   1      36.639  31.400  28.414  1.00  0.00     0.010 A 
ATOM     32  C   UNL A   1      36.782  30.163  29.063  1.00  0.00    -0.014 A 
BRANCH  32  33
ATOM     33  C   UNL A   1      37.986  29.870  29.896  1.00  0.00     0.031 A 
ATOM     34  C   UNL A   1      39.074  28.958  29.388  1.00  0.00     0.074 A 
ATOM     35  C   UNL A   1      38.096  30.405  31.128  1.00  0.00     0.049 A 
ATOM     36  N   UNL A   1      40.161  28.547  29.992  1.00  0.00    -0.248 NA
ATOM     37  C   UNL A   1      38.909  28.428  28.027  1.00  0.00     0.031 C 
ATOM     38  C   UNL A   1      37.116  31.298  31.749  1.00  0.00     0.029 A 
ATOM     39  N   UNL A   1      39.076  30.276  32.084  1.00  0.00    -0.354 N 
ATOM     40  C   UNL A   1      40.807  27.705  29.092  1.00  0.00     0.074 A 
ATOM     41  C   UNL A   1      39.960  27.629  27.918  1.00  0.00     0.031 C 
ATOM     42  C   UNL A   1      37.550  31.647  32.970  1.00  0.00     0.029 A 
ATOM     43  C   UNL A   1      38.813  30.966  33.245  1.00  0.00     0.049 A 
ATOM     44  H   UNL A   1      39.891  29.740  31.950  1.00  0.00     0.167 HD
ATOM     45  C   UNL A   1      41.999  27.069  29.222  1.00  0.00     0.034 A 
ATOM     46  C   UNL A   1      39.491  31.028  34.410  1.00  0.00     0.034 A 
ATOM     47  C   UNL A   1      42.843  27.154  30.393  1.00  0.00     0.049 A 
ATOM     48  C   UNL A   1      40.783  30.262  34.555  1.00  0.00     0.074 A 
ATOM     49  C   UNL A   1      44.091  26.589  30.599  1.00  0.00     0.029 A 
ATOM     50  N   UNL A   1      42.523  27.835  31.561  1.00  0.00    -0.354 N 
ATOM     51  N   UNL A   1      41.394  29.500  33.679  1.00  0.00    -0.248 NA
ATOM     52  C   UNL A   1      41.477  30.369  35.846  1.00  0.00     0.031 C 
ATOM     53  C   UNL A   1      44.489  26.862  31.912  1.00  0.00     0.029 A 
ATOM     54  C   UNL A   1      43.530  27.668  32.502  1.00  0.00     0.049 A 
ATOM     55  H   UNL A   1      41.702  28.359  31.701  1.00  0.00     0.167 HD
ATOM     56  C   UNL A   1      42.559  29.062  34.305  1.00  0.00     0.074 A 
ATOM     57  C   UNL A   1      42.571  29.655  35.625  1.00  0.00     0.031 C 
ATOM     58  C   UNL A   1      43.533  28.248  33.825  1.00  0.00     0.034 A 
BRANCH  45  59
ATOM     59  C   UNL A   1      42.451  26.190  28.077  1.00  0.00     0.023 A 
ATOM     60  C   UNL A   1      41.927  24.900  27.883  1.00  0.00     0.031 A 
ATOM     61  C   UNL A   1      43.424  26.648  27.170  1.00  0.00     0.131 A 
ATOM     62  C   UNL A   1      42.430  24.088  26.854  1.00  0.00     0.055 A 
ATOM     63  C   UNL A   1      43.861  25.865  26.100  1.00  0.00     0.041 A 
ATOM     64  F   UNL A   1      43.973  27.864  27.313  1.00  0.00    -0.206 F 
ATOM     65  C   UNL A   1      43.374  24.570  25.945  1.00  0.00     0.022 A 
BRANCH  62  66
ATOM     66  S   UNL A   1      41.933  22.343  26.807  1.00  0.00     0.124 S 
ATOM     67  O   UNL A   1      42.434  21.930  25.498  1.00  0.00    -0.237 OA
ATOM     68  O   UNL A   1      42.627  21.787  27.962  1.00  0.00    -0.237 OA
ATOM     69  O   UNL A   1      40.476  22.398  26.918  1.00  0.00    -0.744 OA
ENDBRANCH  62  66
ENDBRANCH  45  59
BRANCH  46  70
ATOM     70  C   UNL A   1      38.952  31.819  35.555  1.00  0.00     0.023 A 
ATOM     71  C   UNL A   1      38.350  31.187  36.654  1.00  0.00     0.031 A 
ATOM     72  C   UNL A   1      38.988  33.225  35.540  1.00  0.00     0.131 A 
ATOM     73  C   UNL A   1      37.767  31.960  37.671  1.00  0.00     0.055 A 
ATOM     74  C   UNL A   1      38.458  33.988  36.581  1.00  0.00     0.041 A 
ATOM     75  F   UNL A   1      39.551  33.879  34.511  1.00  0.00    -0.206 F 
ATOM     76  C   UNL A   1      37.830  33.355  37.649  1.00  0.00     0.022 A 
BRANCH  73  77
ATOM     77  S   UNL A   1      36.845  31.114  38.985  1.00  0.00     0.124 S 
ATOM     78  O   UNL A   1      35.629  31.915  39.056  1.00  0.00    -0.237 OA
ATOM     79  O   UNL A   1      36.698  29.771  38.436  1.00  0.00    -0.237 OA
ATOM     80  O   UNL A   1      37.731  31.220  40.143  1.00  0.00    -0.744 OA
ENDBRANCH  73  77
ENDBRANCH  46  70
BRANCH  58  81
ATOM     81  C   UNL A   1      44.720  27.987  34.722  1.00  0.00     0.023 A 
ATOM     82  C   UNL A   1      44.702  26.980  35.705  1.00  0.00     0.031 A 
ATOM     83  C   UNL A   1      45.886  28.762  34.594  1.00  0.00     0.131 A 
ATOM     84  C   UNL A   1      45.808  26.809  36.552  1.00  0.00     0.055 A 
ATOM     85  C   UNL A   1      47.005  28.549  35.402  1.00  0.00     0.041 A 
ATOM     86  F   UNL A   1      45.959  29.740  33.676  1.00  0.00    -0.206 F 
ATOM     87  C   UNL A   1      46.966  27.576  36.395  1.00  0.00     0.022 A 
BRANCH  84  88
ATOM     88  S   UNL A   1      45.689  25.621  37.919  1.00  0.00     0.124 S 
ATOM     89  O   UNL A   1      44.510  24.846  37.545  1.00  0.00    -0.237 OA
ATOM     90  O   UNL A   1      46.966  24.919  37.835  1.00  0.00    -0.237 OA
ATOM     91  O   UNL A   1      45.526  26.469  39.098  1.00  0.00    -0.744 OA
ENDBRANCH  84  88
ENDBRANCH  58  81
ENDBRANCH  32  33
ENDBRANCH  24  27
ENDBRANCH  22  23
ENDBRANCH  21  22
ENDBRANCH   1  21
TORSDOF 18
ENDMDL
MODEL 3
REMARK VINA RESULT:     -10.0      3.026      8.483
REMARK SMILES CC[C@@](C)(NC(=O)N(C)[C@@H](C)C(C)C)C(=O)NCCCNC(=O)c1ccc(-c2c3nc(c(-c4cc(S(=O)(=O)[O-])ccc4F)c4ccc([nH]4)c(-c4cc(S(=O)(=O)[O-])ccc4F)c4nc(c(-c5cc(S(=O)(=O)[O-])ccc5F)c5ccc2[nH]5)C=C4)C=C3)cc1
REMARK SMILES IDX 18 1 17 2 15 3 16 4 3 6 4 7 2 8 1 9 5 10 6 11 7 13 8 14 9 15
REMARK SMILES IDX 10 16 11 17 12 18 13 19 14 20 19 21 20 22 21 23 22 24 23 26
REMARK SMILES IDX 24 27 25 28 86 29 26 30 85 31 27 32 28 33 29 34 79 35 30 36
REMARK SMILES IDX 84 37 78 38 80 39 31 40 83 41 77 42 76 43 32 45 64 46 44 47
REMARK SMILES IDX 63 48 45 49 48 50 62 51 81 52 46 53 47 54 61 56 82 57 49 58
REMARK SMILES IDX 33 59 34 60 42 61 35 62 41 63 43 64 40 65 36 66 37 67 38 68
REMARK SMILES IDX 39 69 65 70 66 71 74 72 67 73 73 74 75 75 72 76 68 77 69 78
REMARK SMILES IDX 70 79 71 80 50 81 51 82 59 83 52 84 58 85 60 86 57 87 53 88
REMARK SMILES IDX 54 89 55 90 56 91
REMARK H PARENT 17 5 5 12 21 25 80 44 48 55
REMARK Flexibility Score: inf
ROOT
ATOM      1  C   UNL A   1      31.620  26.708  26.158  1.00  0.00     0.117 C 
ENDROOT
BRANCH   1   2
ATOM      2  N   UNL A   1      32.303  26.828  24.880  1.00  0.00    -0.354 N 
ATOM      3  C   UNL A   1      33.155  26.031  24.175  1.00  0.00     0.245 C 
ATOM      4  O   UNL A   1      33.434  26.454  23.046  1.00  0.00    -0.272 OA
ATOM      5  H   UNL A   1      32.109  27.677  24.422  1.00  0.00     0.163 HD
BRANCH   3   6
ATOM      6  C   UNL A   1      33.666  24.637  24.666  1.00  0.00     0.117 C 
ATOM      7  C   UNL A   1      34.353  23.981  23.435  1.00  0.00     0.045 C 
BRANCH   6   8
ATOM      8  C   UNL A   1      34.758  24.692  25.787  1.00  0.00     0.035 C 
ATOM      9  C   UNL A   1      36.102  24.029  25.496  1.00  0.00     0.007 C 
ENDBRANCH   6   8
BRANCH   6  10
ATOM     10  N   UNL A   1      32.589  23.716  25.126  1.00  0.00    -0.324 N 
ATOM     11  C   UNL A   1      32.401  22.406  25.395  1.00  0.00     0.318 C 
ATOM     12  H   UNL A   1      31.757  24.218  25.282  1.00  0.00     0.166 HD
ATOM     13  O   UNL A   1      31.215  22.065  25.393  1.00  0.00    -0.249 OA
BRANCH  11  14
ATOM     14  N   UNL A   1      33.399  21.550  25.779  1.00  0.00    -0.325 N 
ATOM     15  C   UNL A   1      33.935  21.411  27.123  1.00  0.00     0.149 C 
BRANCH  14  16
ATOM     16  C   UNL A   1      34.047  20.657  24.768  1.00  0.00     0.086 C 
ATOM     17  C   UNL A   1      35.569  20.467  24.961  1.00  0.00     0.031 C 
BRANCH  16  18
ATOM     18  C   UNL A   1      33.372  19.264  24.586  1.00  0.00     0.005 C 
ATOM     19  C   UNL A   1      32.430  19.165  23.385  1.00  0.00     0.009 C 
ATOM     20  C   UNL A   1      34.445  18.170  24.440  1.00  0.00     0.009 C 
ENDBRANCH  16  18
ENDBRANCH  14  16
ENDBRANCH  11  14
ENDBRANCH   6  10
ENDBRANCH   3   6
ENDBRANCH   1   2
BRANCH   1  21
ATOM     21  C   UNL A   1      31.812  27.883  27.105  1.00  0.00     0.042 C 
BRANCH  21  22
ATOM     22  C   UNL A   1      33.237  28.411  27.243  1.00  0.00     0.118 C 
BRANCH  22  23
ATOM     23  N   UNL A   1      33.290  29.856  27.358  1.00  0.00    -0.352 N 
ATOM     24  C   UNL A   1      34.253  30.680  27.890  1.00  0.00     0.251 C 
ATOM     25  H   UNL A   1      32.506  30.324  26.992  1.00  0.00     0.163 HD
ATOM     26  O   UNL A   1      33.967  31.863  28.065  1.00  0.00    -0.269 OA
BRANCH  24  27
ATOM     27  C   UNL A   1      35.602  30.187  28.276  1.00  0.00     0.039 A 
ATOM     28  C   UNL A   1      35.772  29.698  29.576  1.00  0.00     0.014 A 
ATOM     29  C   UNL A   1      36.717  30.289  27.438  1.00  0.00     0.014 A 
ATOM     30  C   UNL A   1      37.033  29.275  30.018  1.00  0.00     0.010 A 
ATOM     31  C   UNL A   1      37.966  29.811  27.860  1.00  0.00     0.010 A 
ATOM     32  C   UNL A   1      38.141  29.302  29.157  1.00  0.00    -0.014 A 
BRANCH  32  33
ATOM     33  C   UNL A   1      39.474  28.807  29.611  1.00  0.00     0.031 A 
ATOM     34  C   UNL A   1      40.242  29.529  30.689  1.00  0.00     0.074 A 
ATOM     35  C   UNL A   1      40.015  27.714  29.036  1.00  0.00     0.049 A 
ATOM     36  N   UNL A   1      41.435  29.276  31.170  1.00  0.00    -0.248 NA
ATOM     37  C   UNL A   1      39.588  30.696  31.296  1.00  0.00     0.031 C 
ATOM     38  C   UNL A   1      39.387  26.922  27.976  1.00  0.00     0.029 A 
ATOM     39  N   UNL A   1      41.216  27.079  29.254  1.00  0.00    -0.354 N 
ATOM     40  C   UNL A   1      41.679  30.255  32.128  1.00  0.00     0.074 A 
ATOM     41  C   UNL A   1      40.526  31.134  32.123  1.00  0.00     0.031 C 
ATOM     42  C   UNL A   1      40.198  25.903  27.650  1.00  0.00     0.029 A 
ATOM     43  C   UNL A   1      41.426  25.993  28.435  1.00  0.00     0.049 A 
ATOM     44  H   UNL A   1      41.865  27.375  29.933  1.00  0.00     0.167 HD
ATOM     45  C   UNL A   1      42.752  30.400  32.946  1.00  0.00     0.034 A 
ATOM     46  C   UNL A   1      42.491  25.175  28.309  1.00  0.00     0.034 A 
ATOM     47  C   UNL A   1      43.896  29.517  32.951  1.00  0.00     0.049 A 
ATOM     48  C   UNL A   1      43.700  25.394  29.185  1.00  0.00     0.074 A 
ATOM     49  C   UNL A   1      45.008  29.550  33.777  1.00  0.00     0.029 A 
ATOM     50  N   UNL A   1      44.086  28.449  32.082  1.00  0.00    -0.354 N 
ATOM     51  N   UNL A   1      43.896  26.304  30.110  1.00  0.00    -0.248 NA
ATOM     52  C   UNL A   1      44.829  24.470  29.002  1.00  0.00     0.031 C 
ATOM     53  C   UNL A   1      45.900  28.557  33.361  1.00  0.00     0.029 A 
ATOM     54  C   UNL A   1      45.312  27.846  32.327  1.00  0.00     0.049 A 
ATOM     55  H   UNL A   1      43.444  28.162  31.394  1.00  0.00     0.167 HD
ATOM     56  C   UNL A   1      45.158  26.042  30.637  1.00  0.00     0.074 A 
ATOM     57  C   UNL A   1      45.671  24.883  29.937  1.00  0.00     0.031 C 
ATOM     58  C   UNL A   1      45.829  26.699  31.617  1.00  0.00     0.034 A 
BRANCH  45  59
ATOM     59  C   UNL A   1      42.758  31.584  33.887  1.00  0.00     0.023 A 
ATOM     60  C   UNL A   1      42.406  31.455  35.242  1.00  0.00     0.031 A 
ATOM     61  C   UNL A   1      43.118  32.862  33.421  1.00  0.00     0.131 A 
ATOM     62  C   UNL A   1      42.350  32.592  36.063  1.00  0.00     0.055 A 
ATOM     63  C   UNL A   1      43.138  33.976  34.263  1.00  0.00     0.041 A 
ATOM     64  F   UNL A   1      43.448  33.051  32.134  1.00  0.00    -0.206 F 
ATOM     65  C   UNL A   1      42.738  33.847  35.590  1.00  0.00     0.022 A 
BRANCH  62  66
ATOM     66  S   UNL A   1      41.627  32.431  37.719  1.00  0.00     0.124 S 
ATOM     67  O   UNL A   1      40.219  32.202  37.405  1.00  0.00    -0.237 OA
ATOM     68  O   UNL A   1      42.354  31.294  38.270  1.00  0.00    -0.237 OA
ATOM     69  O   UNL A   1      41.915  33.720  38.346  1.00  0.00    -0.744 OA
ENDBRANCH  62  66
ENDBRANCH  45  59
BRANCH  46  70
ATOM     70  C   UNL A   1      42.487  24.086  27.288  1.00  0.00     0.023 A 
ATOM     71  C   UNL A   1      41.897  22.842  27.557  1.00  0.00     0.031 A 
ATOM     72  C   UNL A   1      43.121  24.261  26.045  1.00  0.00     0.131 A 
ATOM     73  C   UNL A   1      41.991  21.805  26.614  1.00  0.00     0.055 A 
ATOM     74  C   UNL A   1      43.163  23.246  25.089  1.00  0.00     0.041 A 
ATOM     75  F   UNL A   1      43.703  25.432  25.738  1.00  0.00    -0.206 F 
ATOM     76  C   UNL A   1      42.607  22.004  25.376  1.00  0.00     0.022 A 
BRANCH  73  77
ATOM     77  S   UNL A   1      41.372  20.161  27.066  1.00  0.00     0.124 S 
ATOM     78  O   UNL A   1      40.446  19.883  25.974  1.00  0.00    -0.237 OA
ATOM     79  O   UNL A   1      42.597  19.370  27.085  1.00  0.00    -0.237 OA
ATOM     80  O   UNL A   1      40.751  20.378  28.371  1.00  0.00    -0.744 OA
ENDBRANCH  73  77
ENDBRANCH  46  70
BRANCH  58  81
ATOM     81  C   UNL A   1      47.176  26.149  32.022  1.00  0.00     0.023 A 
ATOM     82  C   UNL A   1      47.321  25.259  33.102  1.00  0.00     0.031 A 
ATOM     83  C   UNL A   1      48.333  26.526  31.318  1.00  0.00     0.131 A 
ATOM     84  C   UNL A   1      48.599  24.814  33.476  1.00  0.00     0.055 A 
ATOM     85  C   UNL A   1      49.595  26.036  31.659  1.00  0.00     0.041 A 
ATOM     86  F   UNL A   1      48.256  27.376  30.281  1.00  0.00    -0.206 F 
ATOM     87  C   UNL A   1      49.735  25.185  32.750  1.00  0.00     0.022 A 
BRANCH  84  88
ATOM     88  S   UNL A   1      48.772  23.807  34.976  1.00  0.00     0.124 S 
ATOM     89  O   UNL A   1      47.940  22.650  34.661  1.00  0.00    -0.237 OA
ATOM     90  O   UNL A   1      50.211  23.564  35.025  1.00  0.00    -0.237 OA
ATOM     91  O   UNL A   1      48.255  24.673  36.034  1.00  0.00    -0.744 OA
ENDBRANCH  84  88
ENDBRANCH  58  81
ENDBRANCH  32  33
ENDBRANCH  24  27
ENDBRANCH  22  23
ENDBRANCH  21  22
ENDBRANCH   1  21
TORSDOF 18
ENDMDL
