MODEL 1
REMARK VINA RESULT:     -11.5      0.000      0.000
REMARK SMILES O=C(/C=C/C(=O)Nc1ccc2[nH]ncc2c1)NCCCNC(=O)c1ccc(-c2c3nc(c(-c4cc(S(=O)(=O)[O-])ccc4F)c4ccc([nH]4)c(-c4cc(S(=O)(=O)[O-])ccc4F)c4nc(c(-c5cc(S(=O)(=O)[O-])ccc5F)c5ccc2[nH]5)C=C4)C=C3)cc1
REMARK SMILES IDX 19 1 18 2 17 3 1 4 2 5 3 7 4 8 5 9 6 10 7 11 8 13 9 14 16 15
REMARK SMILES IDX 10 16 15 17 11 18 14 19 12 20 13 21 20 23 21 24 22 25 23 27
REMARK SMILES IDX 24 28 25 29 86 30 26 31 85 32 27 33 28 34 29 35 79 36 30 37
REMARK SMILES IDX 84 38 78 39 80 40 31 41 83 42 77 43 76 44 32 46 64 47 44 48
REMARK SMILES IDX 63 49 45 50 48 51 62 52 81 53 46 54 47 55 61 57 82 58 49 59
REMARK SMILES IDX 33 60 34 61 42 62 35 63 41 64 43 65 40 66 36 67 37 68 38 69
REMARK SMILES IDX 39 70 65 71 66 72 74 73 67 74 73 75 75 76 72 77 68 78 69 79
REMARK SMILES IDX 70 80 71 81 50 82 51 83 59 84 52 85 58 86 60 87 57 88 53 89
REMARK SMILES IDX 54 90 55 91 56 92
REMARK H PARENT 17 6 7 12 12 22 21 26 80 45 48 56
REMARK Flexibility Score: inf
ROOT
ATOM      1  C   UNL A   1      35.076  33.964  27.653  1.00  0.00     0.042 C 
ENDROOT
BRANCH   1   2
ATOM      2  C   UNL A   1      34.402  35.289  27.998  1.00  0.00     0.118 C 
BRANCH   2   3
ATOM      3  N   UNL A   1      34.219  35.451  29.425  1.00  0.00    -0.352 N 
ATOM      4  O   UNL A   1      32.161  36.451  29.254  1.00  0.00    -0.270 OA
ATOM      5  C   UNL A   1      33.100  36.045  29.933  1.00  0.00     0.244 C 
ATOM      6  H   UNL A   1      34.915  35.126  30.041  1.00  0.00     0.163 HD
BRANCH   5   7
ATOM      7  C   UNL A   1      33.068  36.227  31.397  1.00  0.00     0.077 C 
ATOM      8  C   UNL A   1      34.113  36.625  32.140  1.00  0.00     0.077 C 
BRANCH   8   9
ATOM      9  C   UNL A   1      34.029  36.592  33.620  1.00  0.00     0.248 C 
ATOM     10  O   UNL A   1      33.598  37.574  34.218  1.00  0.00    -0.270 OA
ATOM     11  N   UNL A   1      34.383  35.452  34.298  1.00  0.00    -0.322 N 
ATOM     12  H   UNL A   1      34.106  35.418  35.242  1.00  0.00     0.170 HD
BRANCH  11  13
ATOM     13  C   UNL A   1      35.086  34.324  33.833  1.00  0.00     0.042 A 
ATOM     14  C   UNL A   1      34.620  33.540  32.771  1.00  0.00     0.028 A 
ATOM     15  C   UNL A   1      36.254  33.964  34.519  1.00  0.00     0.038 A 
ATOM     16  C   UNL A   1      35.208  32.313  32.454  1.00  0.00     0.030 A 
ATOM     17  C   UNL A   1      36.837  32.716  34.235  1.00  0.00     0.022 A 
ATOM     18  C   UNL A   1      36.292  31.918  33.236  1.00  0.00     0.065 A 
ATOM     19  C   UNL A   1      37.904  31.949  34.752  1.00  0.00     0.143 A 
ATOM     20  N   UNL A   1      37.025  30.761  33.256  1.00  0.00    -0.278 N 
ATOM     21  N   UNL A   1      38.033  30.766  34.147  1.00  0.00    -0.183 NA
ATOM     22  H   UNL A   1      36.830  29.993  32.671  1.00  0.00     0.190 HD
ENDBRANCH  11  13
ENDBRANCH   8   9
ENDBRANCH   5   7
ENDBRANCH   2   3
ENDBRANCH   1   2
BRANCH   1  23
ATOM     23  C   UNL A   1      34.800  32.845  28.654  1.00  0.00     0.118 C 
BRANCH  23  24
ATOM     24  N   UNL A   1      34.081  31.727  28.065  1.00  0.00    -0.352 N 
ATOM     25  C   UNL A   1      34.510  30.459  27.768  1.00  0.00     0.251 C 
ATOM     26  H   UNL A   1      33.138  31.909  27.844  1.00  0.00     0.163 HD
ATOM     27  O   UNL A   1      33.767  29.719  27.124  1.00  0.00    -0.269 OA
BRANCH  25  28
ATOM     28  C   UNL A   1      35.851  29.988  28.185  1.00  0.00     0.039 A 
ATOM     29  C   UNL A   1      36.912  30.127  27.286  1.00  0.00     0.014 A 
ATOM     30  C   UNL A   1      36.065  29.378  29.424  1.00  0.00     0.014 A 
ATOM     31  C   UNL A   1      38.191  29.696  27.645  1.00  0.00     0.010 A 
ATOM     32  C   UNL A   1      37.354  29.011  29.808  1.00  0.00     0.010 A 
ATOM     33  C   UNL A   1      38.429  29.155  28.918  1.00  0.00    -0.014 A 
BRANCH  33  34
ATOM     34  C   UNL A   1      39.795  28.720  29.315  1.00  0.00     0.031 A 
ATOM     35  C   UNL A   1      40.529  29.438  30.417  1.00  0.00     0.074 A 
ATOM     36  C   UNL A   1      40.385  27.700  28.663  1.00  0.00     0.049 A 
ATOM     37  N   UNL A   1      41.731  29.223  30.890  1.00  0.00    -0.248 NA
ATOM     38  C   UNL A   1      39.829  30.565  31.049  1.00  0.00     0.031 C 
ATOM     39  C   UNL A   1      39.794  26.956  27.548  1.00  0.00     0.029 A 
ATOM     40  N   UNL A   1      41.612  27.112  28.840  1.00  0.00    -0.354 N 
ATOM     41  C   UNL A   1      41.934  30.192  31.865  1.00  0.00     0.074 A 
ATOM     42  C   UNL A   1      40.756  31.034  31.869  1.00  0.00     0.031 C 
ATOM     43  C   UNL A   1      40.648  25.995  27.160  1.00  0.00     0.029 A 
ATOM     44  C   UNL A   1      41.858  26.074  27.972  1.00  0.00     0.049 A 
ATOM     45  H   UNL A   1      42.256  27.406  29.523  1.00  0.00     0.167 HD
ATOM     46  C   UNL A   1      42.995  30.352  32.698  1.00  0.00     0.034 A 
ATOM     47  C   UNL A   1      42.936  25.275  27.844  1.00  0.00     0.034 A 
ATOM     48  C   UNL A   1      44.158  29.499  32.690  1.00  0.00     0.049 A 
ATOM     49  C   UNL A   1      44.097  25.465  28.786  1.00  0.00     0.074 A 
ATOM     50  C   UNL A   1      45.271  29.545  33.513  1.00  0.00     0.029 A 
ATOM     51  N   UNL A   1      44.364  28.442  31.810  1.00  0.00    -0.354 N 
ATOM     52  N   UNL A   1      44.255  26.357  29.737  1.00  0.00    -0.248 NA
ATOM     53  C   UNL A   1      45.216  24.524  28.650  1.00  0.00     0.031 C 
ATOM     54  C   UNL A   1      46.171  28.556  33.095  1.00  0.00     0.029 A 
ATOM     55  C   UNL A   1      45.590  27.843  32.058  1.00  0.00     0.049 A 
ATOM     56  H   UNL A   1      43.730  28.158  31.111  1.00  0.00     0.167 HD
ATOM     57  C   UNL A   1      45.478  26.060  30.334  1.00  0.00     0.074 A 
ATOM     58  C   UNL A   1      46.002  24.898  29.647  1.00  0.00     0.031 C 
ATOM     59  C   UNL A   1      46.109  26.690  31.359  1.00  0.00     0.034 A 
BRANCH  46  60
ATOM     60  C   UNL A   1      42.944  31.512  33.666  1.00  0.00     0.023 A 
ATOM     61  C   UNL A   1      42.499  31.349  34.991  1.00  0.00     0.031 A 
ATOM     62  C   UNL A   1      43.310  32.805  33.253  1.00  0.00     0.131 A 
ATOM     63  C   UNL A   1      42.351  32.468  35.824  1.00  0.00     0.055 A 
ATOM     64  C   UNL A   1      43.242  33.902  34.114  1.00  0.00     0.041 A 
ATOM     65  F   UNL A   1      43.725  33.029  31.995  1.00  0.00    -0.206 F 
ATOM     66  C   UNL A   1      42.743  33.741  35.404  1.00  0.00     0.022 A 
BRANCH  63  67
ATOM     67  S   UNL A   1      41.496  32.259  37.411  1.00  0.00     0.124 S 
ATOM     68  O   UNL A   1      40.235  31.654  36.988  1.00  0.00    -0.237 OA
ATOM     69  O   UNL A   1      42.406  31.391  38.148  1.00  0.00    -0.237 OA
ATOM     70  O   UNL A   1      41.383  33.623  37.921  1.00  0.00    -0.744 OA
ENDBRANCH  63  67
ENDBRANCH  46  60
BRANCH  47  71
ATOM     71  C   UNL A   1      42.972  24.218  26.795  1.00  0.00     0.023 A 
ATOM     72  C   UNL A   1      42.301  22.997  26.975  1.00  0.00     0.031 A 
ATOM     73  C   UNL A   1      43.715  24.396  25.615  1.00  0.00     0.131 A 
ATOM     74  C   UNL A   1      42.426  21.982  26.014  1.00  0.00     0.055 A 
ATOM     75  C   UNL A   1      43.795  23.401  24.638  1.00  0.00     0.041 A 
ATOM     76  F   UNL A   1      44.367  25.547  25.391  1.00  0.00    -0.206 F 
ATOM     77  C   UNL A   1      43.159  22.180  24.842  1.00  0.00     0.022 A 
BRANCH  74  78
ATOM     78  S   UNL A   1      41.681  20.365  26.357  1.00  0.00     0.124 S 
ATOM     79  O   UNL A   1      42.075  20.144  27.744  1.00  0.00    -0.237 OA
ATOM     80  O   UNL A   1      40.264  20.630  26.126  1.00  0.00    -0.237 OA
ATOM     81  O   UNL A   1      42.314  19.483  25.380  1.00  0.00    -0.744 OA
ENDBRANCH  74  78
ENDBRANCH  47  71
BRANCH  59  82
ATOM     82  C   UNL A   1      47.415  26.092  31.824  1.00  0.00     0.023 A 
ATOM     83  C   UNL A   1      47.479  25.206  32.913  1.00  0.00     0.031 A 
ATOM     84  C   UNL A   1      48.619  26.450  31.192  1.00  0.00     0.131 A 
ATOM     85  C   UNL A   1      48.724  24.764  33.383  1.00  0.00     0.055 A 
ATOM     86  C   UNL A   1      49.851  25.954  31.623  1.00  0.00     0.041 A 
ATOM     87  F   UNL A   1      48.619  27.293  30.147  1.00  0.00    -0.206 F 
ATOM     88  C   UNL A   1      49.910  25.120  32.735  1.00  0.00     0.022 A 
BRANCH  85  89
ATOM     89  S   UNL A   1      48.784  23.811  34.926  1.00  0.00     0.124 S 
ATOM     90  O   UNL A   1      50.198  23.464  35.016  1.00  0.00    -0.237 OA
ATOM     91  O   UNL A   1      48.301  24.778  35.906  1.00  0.00    -0.237 OA
ATOM     92  O   UNL A   1      47.884  22.686  34.670  1.00  0.00    -0.744 OA
ENDBRANCH  85  89
ENDBRANCH  59  82
ENDBRANCH  33  34
ENDBRANCH  25  28
ENDBRANCH  23  24
ENDBRANCH   1  23
TORSDOF 15
ENDMDL
MODEL 2
REMARK VINA RESULT:     -11.5      4.344     10.643
REMARK SMILES O=C(/C=C/C(=O)Nc1ccc2[nH]ncc2c1)NCCCNC(=O)c1ccc(-c2c3nc(c(-c4cc(S(=O)(=O)[O-])ccc4F)c4ccc([nH]4)c(-c4cc(S(=O)(=O)[O-])ccc4F)c4nc(c(-c5cc(S(=O)(=O)[O-])ccc5F)c5ccc2[nH]5)C=C4)C=C3)cc1
REMARK SMILES IDX 19 1 18 2 17 3 1 4 2 5 3 7 4 8 5 9 6 10 7 11 8 13 9 14 16 15
REMARK SMILES IDX 10 16 15 17 11 18 14 19 12 20 13 21 20 23 21 24 22 25 23 27
REMARK SMILES IDX 24 28 25 29 86 30 26 31 85 32 27 33 28 34 29 35 79 36 30 37
REMARK SMILES IDX 84 38 78 39 80 40 31 41 83 42 77 43 76 44 32 46 64 47 44 48
REMARK SMILES IDX 63 49 45 50 48 51 62 52 81 53 46 54 47 55 61 57 82 58 49 59
REMARK SMILES IDX 33 60 34 61 42 62 35 63 41 64 43 65 40 66 36 67 37 68 38 69
REMARK SMILES IDX 39 70 65 71 66 72 74 73 67 74 73 75 75 76 72 77 68 78 69 79
REMARK SMILES IDX 70 80 71 81 50 82 51 83 59 84 52 85 58 86 60 87 57 88 53 89
REMARK SMILES IDX 54 90 55 91 56 92
REMARK H PARENT 17 6 7 12 12 22 21 26 80 45 48 56
REMARK Flexibility Score: inf
ROOT
ATOM      1  C   UNL A   1      31.657  32.082  26.912  1.00  0.00     0.042 C 
ENDROOT
BRANCH   1   2
ATOM      2  C   UNL A   1      31.852  30.621  27.310  1.00  0.00     0.118 C 
BRANCH   2   3
ATOM      3  N   UNL A   1      32.091  29.773  26.161  1.00  0.00    -0.352 N 
ATOM      4  O   UNL A   1      34.302  29.395  26.644  1.00  0.00    -0.270 OA
ATOM      5  C   UNL A   1      33.323  29.239  25.918  1.00  0.00     0.244 C 
ATOM      6  H   UNL A   1      31.349  29.576  25.544  1.00  0.00     0.163 HD
BRANCH   5   7
ATOM      7  C   UNL A   1      33.461  28.460  24.673  1.00  0.00     0.077 C 
ATOM      8  C   UNL A   1      33.406  28.980  23.437  1.00  0.00     0.077 C 
BRANCH   8   9
ATOM      9  C   UNL A   1      33.365  28.087  22.254  1.00  0.00     0.248 C 
ATOM     10  O   UNL A   1      34.332  28.048  21.498  1.00  0.00    -0.270 OA
ATOM     11  N   UNL A   1      32.275  27.279  22.048  1.00  0.00    -0.322 N 
ATOM     12  H   UNL A   1      32.398  26.566  21.380  1.00  0.00     0.170 HD
BRANCH  11  13
ATOM     13  C   UNL A   1      31.007  27.325  22.657  1.00  0.00     0.042 A 
ATOM     14  C   UNL A   1      30.481  26.242  23.371  1.00  0.00     0.028 A 
ATOM     15  C   UNL A   1      30.243  28.485  22.468  1.00  0.00     0.038 A 
ATOM     16  C   UNL A   1      29.149  26.218  23.790  1.00  0.00     0.030 A 
ATOM     17  C   UNL A   1      28.891  28.464  22.854  1.00  0.00     0.022 A 
ATOM     18  C   UNL A   1      28.374  27.334  23.478  1.00  0.00     0.065 A 
ATOM     19  C   UNL A   1      27.786  29.338  22.744  1.00  0.00     0.143 A 
ATOM     20  N   UNL A   1      27.041  27.594  23.654  1.00  0.00    -0.278 N 
ATOM     21  N   UNL A   1      26.663  28.819  23.246  1.00  0.00    -0.183 NA
ATOM     22  H   UNL A   1      26.415  26.941  24.043  1.00  0.00     0.190 HD
ENDBRANCH  11  13
ENDBRANCH   8   9
ENDBRANCH   5   7
ENDBRANCH   2   3
ENDBRANCH   1   2
BRANCH   1  23
ATOM     23  C   UNL A   1      32.904  32.946  27.078  1.00  0.00     0.118 C 
BRANCH  23  24
ATOM     24  N   UNL A   1      32.617  34.242  27.669  1.00  0.00    -0.352 N 
ATOM     25  C   UNL A   1      33.157  34.848  28.775  1.00  0.00     0.251 C 
ATOM     26  H   UNL A   1      31.926  34.768  27.204  1.00  0.00     0.163 HD
ATOM     27  O   UNL A   1      32.648  35.889  29.187  1.00  0.00    -0.269 OA
BRANCH  25  28
ATOM     28  C   UNL A   1      34.312  34.252  29.485  1.00  0.00     0.039 A 
ATOM     29  C   UNL A   1      34.061  33.374  30.543  1.00  0.00     0.014 A 
ATOM     30  C   UNL A   1      35.630  34.579  29.151  1.00  0.00     0.014 A 
ATOM     31  C   UNL A   1      35.125  32.792  31.234  1.00  0.00     0.010 A 
ATOM     32  C   UNL A   1      36.692  33.946  29.797  1.00  0.00     0.010 A 
ATOM     33  C   UNL A   1      36.450  33.054  30.853  1.00  0.00    -0.014 A 
BRANCH  33  34
ATOM     34  C   UNL A   1      37.587  32.415  31.569  1.00  0.00     0.031 A 
ATOM     35  C   UNL A   1      38.342  31.278  30.931  1.00  0.00     0.074 A 
ATOM     36  C   UNL A   1      37.919  32.838  32.804  1.00  0.00     0.049 A 
ATOM     37  N   UNL A   1      39.343  30.579  31.403  1.00  0.00    -0.248 NA
ATOM     38  C   UNL A   1      37.889  30.853  29.599  1.00  0.00     0.031 C 
ATOM     39  C   UNL A   1      37.234  33.899  33.546  1.00  0.00     0.029 A 
ATOM     40  N   UNL A   1      38.913  32.427  33.655  1.00  0.00    -0.354 N 
ATOM     41  C   UNL A   1      39.633  29.627  30.433  1.00  0.00     0.074 A 
ATOM     42  C   UNL A   1      38.659  29.799  29.376  1.00  0.00     0.031 C 
ATOM     43  C   UNL A   1      37.845  34.074  34.728  1.00  0.00     0.029 A 
ATOM     44  C   UNL A   1      38.941  33.117  34.845  1.00  0.00     0.049 A 
ATOM     45  H   UNL A   1      39.546  31.707  33.437  1.00  0.00     0.167 HD
ATOM     46  C   UNL A   1      40.634  28.710  30.413  1.00  0.00     0.034 A 
ATOM     47  C   UNL A   1      39.758  32.994  35.910  1.00  0.00     0.034 A 
ATOM     48  C   UNL A   1      41.604  28.557  31.470  1.00  0.00     0.049 A 
ATOM     49  C   UNL A   1      40.868  31.975  35.861  1.00  0.00     0.074 A 
ATOM     50  C   UNL A   1      42.681  27.689  31.537  1.00  0.00     0.029 A 
ATOM     51  N   UNL A   1      41.616  29.289  32.652  1.00  0.00    -0.354 N 
ATOM     52  N   UNL A   1      41.160  31.114  34.914  1.00  0.00    -0.248 NA
ATOM     53  C   UNL A   1      41.772  31.931  37.018  1.00  0.00     0.031 C 
ATOM     54  C   UNL A   1      43.307  27.856  32.779  1.00  0.00     0.029 A 
ATOM     55  C   UNL A   1      42.666  28.879  33.460  1.00  0.00     0.049 A 
ATOM     56  H   UNL A   1      40.971  29.996  32.883  1.00  0.00     0.167 HD
ATOM     57  C   UNL A   1      42.303  30.447  35.349  1.00  0.00     0.074 A 
ATOM     58  C   UNL A   1      42.654  31.022  36.632  1.00  0.00     0.031 C 
ATOM     59  C   UNL A   1      43.001  29.452  34.743  1.00  0.00     0.034 A 
BRANCH  46  60
ATOM     60  C   UNL A   1      40.703  27.789  29.216  1.00  0.00     0.023 A 
ATOM     61  C   UNL A   1      41.621  28.003  28.172  1.00  0.00     0.031 A 
ATOM     62  C   UNL A   1      39.818  26.703  29.097  1.00  0.00     0.131 A 
ATOM     63  C   UNL A   1      41.576  27.201  27.021  1.00  0.00     0.055 A 
ATOM     64  C   UNL A   1      39.835  25.855  27.988  1.00  0.00     0.041 A 
ATOM     65  F   UNL A   1      38.906  26.457  30.052  1.00  0.00    -0.206 F 
ATOM     66  C   UNL A   1      40.706  26.112  26.932  1.00  0.00     0.022 A 
BRANCH  63  67
ATOM     67  S   UNL A   1      42.564  27.694  25.582  1.00  0.00     0.124 S 
ATOM     68  O   UNL A   1      42.364  26.558  24.685  1.00  0.00    -0.237 OA
ATOM     69  O   UNL A   1      41.931  28.945  25.179  1.00  0.00    -0.237 OA
ATOM     70  O   UNL A   1      43.915  27.822  26.121  1.00  0.00    -0.744 OA
ENDBRANCH  63  67
ENDBRANCH  46  60
BRANCH  47  71
ATOM     71  C   UNL A   1      39.571  33.858  37.109  1.00  0.00     0.023 A 
ATOM     72  C   UNL A   1      38.924  33.372  38.257  1.00  0.00     0.031 A 
ATOM     73  C   UNL A   1      39.999  35.197  37.109  1.00  0.00     0.131 A 
ATOM     74  C   UNL A   1      38.678  34.233  39.338  1.00  0.00     0.055 A 
ATOM     75  C   UNL A   1      39.797  36.036  38.207  1.00  0.00     0.041 A 
ATOM     76  F   UNL A   1      40.630  35.707  36.040  1.00  0.00    -0.206 F 
ATOM     77  C   UNL A   1      39.120  35.558  39.325  1.00  0.00     0.022 A 
BRANCH  74  78
ATOM     78  S   UNL A   1      37.698  33.616  40.733  1.00  0.00     0.124 S 
ATOM     79  O   UNL A   1      36.587  32.961  40.051  1.00  0.00    -0.237 OA
ATOM     80  O   UNL A   1      38.648  32.734  41.404  1.00  0.00    -0.237 OA
ATOM     81  O   UNL A   1      37.351  34.829  41.469  1.00  0.00    -0.744 OA
ENDBRANCH  74  78
ENDBRANCH  47  71
BRANCH  59  82
ATOM     82  C   UNL A   1      44.244  28.965  35.448  1.00  0.00     0.023 A 
ATOM     83  C   UNL A   1      44.200  27.929  36.397  1.00  0.00     0.031 A 
ATOM     84  C   UNL A   1      45.484  29.578  35.195  1.00  0.00     0.131 A 
ATOM     85  C   UNL A   1      45.358  27.585  37.111  1.00  0.00     0.055 A 
ATOM     86  C   UNL A   1      46.647  29.187  35.862  1.00  0.00     0.041 A 
ATOM     87  F   UNL A   1      45.586  30.573  34.300  1.00  0.00    -0.206 F 
ATOM     88  C   UNL A   1      46.584  28.197  36.838  1.00  0.00     0.022 A 
BRANCH  85  89
ATOM     89  S   UNL A   1      45.216  26.409  38.486  1.00  0.00     0.124 S 
ATOM     90  O   UNL A   1      43.830  26.595  38.903  1.00  0.00    -0.237 OA
ATOM     91  O   UNL A   1      45.522  25.138  37.840  1.00  0.00    -0.237 OA
ATOM     92  O   UNL A   1      46.219  26.876  39.442  1.00  0.00    -0.744 OA
ENDBRANCH  85  89
ENDBRANCH  59  82
ENDBRANCH  33  34
ENDBRANCH  25  28
ENDBRANCH  23  24
ENDBRANCH   1  23
TORSDOF 15
ENDMDL
MODEL 3
REMARK VINA RESULT:     -11.4      5.698     11.286
REMARK SMILES O=C(/C=C/C(=O)Nc1ccc2[nH]ncc2c1)NCCCNC(=O)c1ccc(-c2c3nc(c(-c4cc(S(=O)(=O)[O-])ccc4F)c4ccc([nH]4)c(-c4cc(S(=O)(=O)[O-])ccc4F)c4nc(c(-c5cc(S(=O)(=O)[O-])ccc5F)c5ccc2[nH]5)C=C4)C=C3)cc1
REMARK SMILES IDX 19 1 18 2 17 3 1 4 2 5 3 7 4 8 5 9 6 10 7 11 8 13 9 14 16 15
REMARK SMILES IDX 10 16 15 17 11 18 14 19 12 20 13 21 20 23 21 24 22 25 23 27
REMARK SMILES IDX 24 28 25 29 86 30 26 31 85 32 27 33 28 34 29 35 79 36 30 37
REMARK SMILES IDX 84 38 78 39 80 40 31 41 83 42 77 43 76 44 32 46 64 47 44 48
REMARK SMILES IDX 63 49 45 50 48 51 62 52 81 53 46 54 47 55 61 57 82 58 49 59
REMARK SMILES IDX 33 60 34 61 42 62 35 63 41 64 43 65 40 66 36 67 37 68 38 69
REMARK SMILES IDX 39 70 65 71 66 72 74 73 67 74 73 75 75 76 72 77 68 78 69 79
REMARK SMILES IDX 70 80 71 81 50 82 51 83 59 84 52 85 58 86 60 87 57 88 53 89
REMARK SMILES IDX 54 90 55 91 56 92
REMARK H PARENT 17 6 7 12 12 22 21 26 80 45 48 56
REMARK Flexibility Score: inf
ROOT
ATOM      1  C   UNL A   1      36.409  21.792  25.740  1.00  0.00     0.042 C 
ENDROOT
BRANCH   1   2
ATOM      2  C   UNL A   1      35.275  21.085  25.002  1.00  0.00     0.118 C 
BRANCH   2   3
ATOM      3  N   UNL A   1      33.975  21.586  25.396  1.00  0.00    -0.352 N 
ATOM      4  O   UNL A   1      33.509  22.554  23.369  1.00  0.00    -0.270 OA
ATOM      5  C   UNL A   1      33.201  22.305  24.531  1.00  0.00     0.244 C 
ATOM      6  H   UNL A   1      33.642  21.404  26.304  1.00  0.00     0.163 HD
BRANCH   5   7
ATOM      7  C   UNL A   1      31.935  22.831  25.075  1.00  0.00     0.077 C 
ATOM      8  C   UNL A   1      31.841  23.653  26.132  1.00  0.00     0.077 C 
BRANCH   8   9
ATOM      9  C   UNL A   1      30.514  23.970  26.713  1.00  0.00     0.248 C 
ATOM     10  O   UNL A   1      29.887  23.086  27.291  1.00  0.00    -0.270 OA
ATOM     11  N   UNL A   1      30.029  25.251  26.646  1.00  0.00    -0.322 N 
ATOM     12  H   UNL A   1      29.258  25.443  27.227  1.00  0.00     0.170 HD
BRANCH  11  13
ATOM     13  C   UNL A   1      30.479  26.331  25.862  1.00  0.00     0.042 A 
ATOM     14  C   UNL A   1      31.361  27.298  26.360  1.00  0.00     0.028 A 
ATOM     15  C   UNL A   1      29.957  26.450  24.567  1.00  0.00     0.038 A 
ATOM     16  C   UNL A   1      31.636  28.472  25.653  1.00  0.00     0.030 A 
ATOM     17  C   UNL A   1      30.197  27.640  23.857  1.00  0.00     0.022 A 
ATOM     18  C   UNL A   1      31.003  28.622  24.420  1.00  0.00     0.065 A 
ATOM     19  C   UNL A   1      29.782  28.193  22.625  1.00  0.00     0.143 A 
ATOM     20  N   UNL A   1      30.979  29.665  23.533  1.00  0.00    -0.278 N 
ATOM     21  N   UNL A   1      30.270  29.418  22.416  1.00  0.00    -0.183 NA
ATOM     22  H   UNL A   1      31.439  30.520  23.697  1.00  0.00     0.190 HD
ENDBRANCH  11  13
ENDBRANCH   8   9
ENDBRANCH   5   7
ENDBRANCH   2   3
ENDBRANCH   1   2
BRANCH   1  23
ATOM     23  C   UNL A   1      37.769  21.666  25.059  1.00  0.00     0.118 C 
BRANCH  23  24
ATOM     24  N   UNL A   1      38.646  20.716  25.723  1.00  0.00    -0.352 N 
ATOM     25  C   UNL A   1      39.789  20.927  26.451  1.00  0.00     0.251 C 
ATOM     26  H   UNL A   1      38.379  19.772  25.635  1.00  0.00     0.163 HD
ATOM     27  O   UNL A   1      40.462  19.956  26.792  1.00  0.00    -0.269 OA
BRANCH  25  28
ATOM     28  C   UNL A   1      40.229  22.297  26.803  1.00  0.00     0.039 A 
ATOM     29  C   UNL A   1      41.188  22.450  27.808  1.00  0.00     0.014 A 
ATOM     30  C   UNL A   1      39.681  23.427  26.188  1.00  0.00     0.014 A 
ATOM     31  C   UNL A   1      41.628  23.726  28.165  1.00  0.00     0.010 A 
ATOM     32  C   UNL A   1      40.170  24.697  26.497  1.00  0.00     0.010 A 
ATOM     33  C   UNL A   1      41.141  24.860  27.497  1.00  0.00    -0.014 A 
BRANCH  33  34
ATOM     34  C   UNL A   1      41.626  26.220  27.854  1.00  0.00     0.031 A 
ATOM     35  C   UNL A   1      43.012  26.658  27.461  1.00  0.00     0.074 A 
ATOM     36  C   UNL A   1      40.831  27.047  28.560  1.00  0.00     0.049 A 
ATOM     37  N   UNL A   1      43.623  27.791  27.700  1.00  0.00    -0.248 NA
ATOM     38  C   UNL A   1      43.828  25.679  26.728  1.00  0.00     0.031 C 
ATOM     39  C   UNL A   1      39.486  26.721  29.039  1.00  0.00     0.029 A 
ATOM     40  N   UNL A   1      41.037  28.330  28.999  1.00  0.00    -0.354 N 
ATOM     41  C   UNL A   1      44.896  27.658  27.157  1.00  0.00     0.074 A 
ATOM     42  C   UNL A   1      44.988  26.311  26.634  1.00  0.00     0.031 C 
ATOM     43  C   UNL A   1      38.978  27.784  29.681  1.00  0.00     0.029 A 
ATOM     44  C   UNL A   1      39.970  28.855  29.691  1.00  0.00     0.049 A 
ATOM     45  H   UNL A   1      41.869  28.829  28.836  1.00  0.00     0.167 HD
ATOM     46  C   UNL A   1      45.889  28.581  27.079  1.00  0.00     0.034 A 
ATOM     47  C   UNL A   1      39.807  30.063  30.267  1.00  0.00     0.034 A 
ATOM     48  C   UNL A   1      45.779  29.924  27.596  1.00  0.00     0.049 A 
ATOM     49  C   UNL A   1      40.919  31.075  30.159  1.00  0.00     0.074 A 
ATOM     50  C   UNL A   1      46.705  30.952  27.538  1.00  0.00     0.029 A 
ATOM     51  N   UNL A   1      44.673  30.429  28.271  1.00  0.00    -0.354 N 
ATOM     52  N   UNL A   1      42.100  30.951  29.599  1.00  0.00    -0.248 NA
ATOM     53  C   UNL A   1      40.664  32.398  30.743  1.00  0.00     0.031 C 
ATOM     54  C   UNL A   1      46.184  32.055  28.225  1.00  0.00     0.029 A 
ATOM     55  C   UNL A   1      44.902  31.743  28.651  1.00  0.00     0.049 A 
ATOM     56  H   UNL A   1      43.847  29.926  28.454  1.00  0.00     0.167 HD
ATOM     57  C   UNL A   1      42.715  32.193  29.735  1.00  0.00     0.074 A 
ATOM     58  C   UNL A   1      41.766  33.053  30.412  1.00  0.00     0.031 C 
ATOM     59  C   UNL A   1      43.952  32.588  29.335  1.00  0.00     0.034 A 
BRANCH  46  60
ATOM     60  C   UNL A   1      47.185  28.149  26.431  1.00  0.00     0.023 A 
ATOM     61  C   UNL A   1      47.372  28.214  25.039  1.00  0.00     0.031 A 
ATOM     62  C   UNL A   1      48.236  27.632  27.209  1.00  0.00     0.131 A 
ATOM     63  C   UNL A   1      48.539  27.693  24.462  1.00  0.00     0.055 A 
ATOM     64  C   UNL A   1      49.431  27.193  26.636  1.00  0.00     0.041 A 
ATOM     65  F   UNL A   1      48.111  27.526  28.542  1.00  0.00    -0.206 F 
ATOM     66  C   UNL A   1      49.582  27.206  25.253  1.00  0.00     0.022 A 
BRANCH  63  67
ATOM     67  S   UNL A   1      48.612  27.521  22.657  1.00  0.00     0.124 S 
ATOM     68  O   UNL A   1      48.587  26.069  22.499  1.00  0.00    -0.237 OA
ATOM     69  O   UNL A   1      47.415  28.232  22.224  1.00  0.00    -0.237 OA
ATOM     70  O   UNL A   1      49.879  28.157  22.303  1.00  0.00    -0.744 OA
ENDBRANCH  63  67
ENDBRANCH  46  60
BRANCH  47  71
ATOM     71  C   UNL A   1      38.546  30.392  30.988  1.00  0.00     0.023 A 
ATOM     72  C   UNL A   1      37.521  31.118  30.359  1.00  0.00     0.031 A 
ATOM     73  C   UNL A   1      38.365  30.023  32.332  1.00  0.00     0.131 A 
ATOM     74  C   UNL A   1      36.383  31.494  31.088  1.00  0.00     0.055 A 
ATOM     75  C   UNL A   1      37.208  30.357  33.039  1.00  0.00     0.041 A 
ATOM     76  F   UNL A   1      39.311  29.321  32.977  1.00  0.00    -0.206 F 
ATOM     77  C   UNL A   1      36.214  31.109  32.420  1.00  0.00     0.022 A 
BRANCH  74  78
ATOM     78  S   UNL A   1      35.158  32.568  30.291  1.00  0.00     0.124 S 
ATOM     79  O   UNL A   1      34.700  31.730  29.188  1.00  0.00    -0.237 OA
ATOM     80  O   UNL A   1      34.201  32.788  31.370  1.00  0.00    -0.237 OA
ATOM     81  O   UNL A   1      35.936  33.742  29.903  1.00  0.00    -0.744 OA
ENDBRANCH  74  78
ENDBRANCH  47  71
BRANCH  59  82
ATOM     82  C   UNL A   1      44.317  34.033  29.580  1.00  0.00     0.023 A 
ATOM     83  C   UNL A   1      44.102  35.027  28.609  1.00  0.00     0.031 A 
ATOM     84  C   UNL A   1      44.927  34.411  30.789  1.00  0.00     0.131 A 
ATOM     85  C   UNL A   1      44.560  36.334  28.833  1.00  0.00     0.055 A 
ATOM     86  C   UNL A   1      45.321  35.728  31.032  1.00  0.00     0.041 A 
ATOM     87  F   UNL A   1      45.157  33.505  31.752  1.00  0.00    -0.206 F 
ATOM     88  C   UNL A   1      45.154  36.694  30.045  1.00  0.00     0.022 A 
BRANCH  85  89
ATOM     89  S   UNL A   1      44.476  37.530  27.471  1.00  0.00     0.124 S 
ATOM     90  O   UNL A   1      44.621  38.801  28.173  1.00  0.00    -0.237 OA
ATOM     91  O   UNL A   1      45.604  37.131  26.637  1.00  0.00    -0.237 OA
ATOM     92  O   UNL A   1      43.157  37.292  26.886  1.00  0.00    -0.744 OA
ENDBRANCH  85  89
ENDBRANCH  59  82
ENDBRANCH  33  34
ENDBRANCH  25  28
ENDBRANCH  23  24
ENDBRANCH   1  23
TORSDOF 15
ENDMDL
