MODEL 1
REMARK VINA RESULT:     -10.5      0.000      0.000
REMARK SMILES COc1cc2c(CC(=O)NCCCNC(=O)c3ccc(-c4c5nc(c(-c6cc(S(=O)(=O)[O-])ccc6F)c6ccc([nH]6)c(-c6cc(S(=O)(=O)[O-])ccc6F)c6nc(c(-c7cc(S(=O)(=O)[O-])ccc7F)c7ccc4[nH]7)C=C6)C=C5)cc3)c(C)n(C(=O)c3ccc(Cl)cc3)c2cc1Cl
REMARK SMILES IDX 12 1 11 2 10 3 8 4 9 5 7 7 6 8 3 9 4 10 94 11 5 12 93 13
REMARK SMILES IDX 95 14 92 15 80 16 82 17 81 18 2 19 1 20 83 21 84 22 85 23
REMARK SMILES IDX 86 24 91 25 87 26 90 27 88 28 89 29 13 30 14 31 15 32 16 34
REMARK SMILES IDX 17 35 18 36 79 37 19 38 78 39 20 40 21 41 22 42 72 43 23 44
REMARK SMILES IDX 77 45 71 46 73 47 24 48 76 49 70 50 69 51 25 53 57 54 37 55
REMARK SMILES IDX 56 56 38 57 41 58 55 59 74 60 39 61 40 62 54 64 75 65 42 66
REMARK SMILES IDX 26 67 27 68 35 69 28 70 34 71 36 72 33 73 29 74 30 75 31 76
REMARK SMILES IDX 32 77 58 78 59 79 67 80 60 81 66 82 68 83 65 84 61 85 62 86
REMARK SMILES IDX 63 87 64 88 43 89 44 90 52 91 45 92 51 93 53 94 50 95 46 96
REMARK SMILES IDX 47 97 48 98 49 99
REMARK H PARENT 10 6 14 33 73 52 41 63
REMARK Flexibility Score: inf
ROOT
ATOM      1  C   UNL A   1      33.725  35.049  29.551  1.00  0.00     0.042 C 
ENDROOT
BRANCH   1   2
ATOM      2  C   UNL A   1      33.649  34.889  31.072  1.00  0.00     0.117 C 
BRANCH   2   3
ATOM      3  N   UNL A   1      34.309  33.683  31.544  1.00  0.00    -0.356 N 
ATOM      4  C   UNL A   1      35.514  33.542  32.168  1.00  0.00     0.224 C 
ATOM      5  O   UNL A   1      35.871  32.406  32.496  1.00  0.00    -0.275 OA
ATOM      6  H   UNL A   1      33.813  32.846  31.393  1.00  0.00     0.163 HD
BRANCH   4   7
ATOM      7  C   UNL A   1      36.362  34.758  32.501  1.00  0.00     0.138 C 
BRANCH   7   8
ATOM      8  C   UNL A   1      37.839  34.489  32.482  1.00  0.00    -0.009 A 
ATOM      9  C   UNL A   1      39.470  33.972  35.911  1.00  0.00     0.138 A 
ATOM     10  C   UNL A   1      38.425  34.206  35.007  1.00  0.00     0.058 A 
ATOM     11  C   UNL A   1      40.761  33.787  35.434  1.00  0.00     0.085 A 
ATOM     12  C   UNL A   1      38.671  34.256  33.612  1.00  0.00     0.008 A 
ATOM     13  C   UNL A   1      41.031  33.900  34.065  1.00  0.00     0.051 A 
ATOM     14  Cl  UNL A   1      42.085  33.325  36.444  1.00  0.00    -0.080 Cl
ATOM     15  C   UNL A   1      39.977  34.074  33.145  1.00  0.00     0.058 A 
ATOM     16  C   UNL A   1      38.661  34.492  31.358  1.00  0.00     0.028 A 
ATOM     17  N   UNL A   1      39.941  34.058  31.737  1.00  0.00    -0.280 N 
ATOM     18  C   UNL A   1      38.259  34.846  29.958  1.00  0.00     0.065 C 
BRANCH   9  19
ATOM     19  O   UNL A   1      39.106  33.874  37.231  1.00  0.00    -0.495 OA
ATOM     20  C   UNL A   1      37.773  33.394  37.405  1.00  0.00     0.278 C 
ENDBRANCH   9  19
BRANCH  17  21
ATOM     21  C   UNL A   1      40.993  33.661  30.850  1.00  0.00     0.262 C 
ATOM     22  O   UNL A   1      41.058  32.500  30.496  1.00  0.00    -0.268 OA
BRANCH  21  23
ATOM     23  C   UNL A   1      42.028  34.573  30.318  1.00  0.00     0.040 A 
ATOM     24  C   UNL A   1      43.213  34.805  31.025  1.00  0.00     0.015 A 
ATOM     25  C   UNL A   1      41.760  35.254  29.126  1.00  0.00     0.015 A 
ATOM     26  C   UNL A   1      44.080  35.812  30.592  1.00  0.00     0.021 A 
ATOM     27  C   UNL A   1      42.638  36.247  28.690  1.00  0.00     0.021 A 
ATOM     28  C   UNL A   1      43.777  36.543  29.440  1.00  0.00     0.041 A 
ATOM     29  Cl  UNL A   1      44.790  37.853  28.972  1.00  0.00    -0.084 Cl
ENDBRANCH  21  23
ENDBRANCH  17  21
ENDBRANCH   7   8
ENDBRANCH   4   7
ENDBRANCH   2   3
ENDBRANCH   1   2
BRANCH   1  30
ATOM     30  C   UNL A   1      34.818  34.201  28.900  1.00  0.00     0.118 C 
BRANCH  30  31
ATOM     31  N   UNL A   1      34.309  33.084  28.127  1.00  0.00    -0.352 N 
ATOM     32  C   UNL A   1      34.664  31.780  27.939  1.00  0.00     0.251 C 
ATOM     33  H   UNL A   1      33.506  33.328  27.612  1.00  0.00     0.163 HD
ATOM     34  O   UNL A   1      33.879  31.119  27.251  1.00  0.00    -0.269 OA
BRANCH  32  35
ATOM     35  C   UNL A   1      35.914  31.132  28.422  1.00  0.00     0.039 A 
ATOM     36  C   UNL A   1      36.990  31.777  29.033  1.00  0.00     0.014 A 
ATOM     37  C   UNL A   1      36.020  29.750  28.161  1.00  0.00     0.014 A 
ATOM     38  C   UNL A   1      38.174  31.082  29.276  1.00  0.00     0.010 A 
ATOM     39  C   UNL A   1      37.195  29.052  28.414  1.00  0.00     0.010 A 
ATOM     40  C   UNL A   1      38.293  29.734  28.918  1.00  0.00    -0.014 A 
BRANCH  40  41
ATOM     41  C   UNL A   1      39.567  29.058  29.163  1.00  0.00     0.031 A 
ATOM     42  C   UNL A   1      39.831  28.742  30.593  1.00  0.00     0.074 A 
ATOM     43  C   UNL A   1      40.407  28.662  28.182  1.00  0.00     0.049 A 
ATOM     44  N   UNL A   1      40.710  29.276  31.376  1.00  0.00    -0.248 NA
ATOM     45  C   UNL A   1      38.906  27.826  31.275  1.00  0.00     0.031 C 
ATOM     46  C   UNL A   1      40.152  28.630  26.737  1.00  0.00     0.029 A 
ATOM     47  N   UNL A   1      41.656  28.119  28.280  1.00  0.00    -0.354 N 
ATOM     48  C   UNL A   1      40.587  28.618  32.602  1.00  0.00     0.074 A 
ATOM     49  C   UNL A   1      39.363  27.863  32.527  1.00  0.00     0.031 C 
ATOM     50  C   UNL A   1      41.107  27.891  26.126  1.00  0.00     0.029 A 
ATOM     51  C   UNL A   1      42.128  27.552  27.103  1.00  0.00     0.049 A 
ATOM     52  H   UNL A   1      42.178  28.129  29.115  1.00  0.00     0.167 HD
ATOM     53  C   UNL A   1      41.617  28.579  33.496  1.00  0.00     0.034 A 
ATOM     54  C   UNL A   1      43.269  26.839  26.942  1.00  0.00     0.034 A 
ATOM     55  C   UNL A   1      42.658  29.492  33.116  1.00  0.00     0.049 A 
ATOM     56  C   UNL A   1      44.178  27.168  28.058  1.00  0.00     0.074 A 
ATOM     57  C   UNL A   1      42.880  30.845  33.201  1.00  0.00     0.029 A 
ATOM     58  N   UNL A   1      43.544  28.978  32.206  1.00  0.00    -0.354 N 
ATOM     59  N   UNL A   1      44.747  28.330  28.211  1.00  0.00    -0.248 NA
ATOM     60  C   UNL A   1      44.210  26.295  29.226  1.00  0.00     0.031 C 
ATOM     61  C   UNL A   1      43.771  31.157  32.135  1.00  0.00     0.029 A 
ATOM     62  C   UNL A   1      44.097  29.980  31.458  1.00  0.00     0.049 A 
ATOM     63  H   UNL A   1      43.755  28.021  32.106  1.00  0.00     0.167 HD
ATOM     64  C   UNL A   1      44.795  28.502  29.580  1.00  0.00     0.074 A 
ATOM     65  C   UNL A   1      44.635  27.167  30.143  1.00  0.00     0.031 C 
ATOM     66  C   UNL A   1      44.647  29.738  30.136  1.00  0.00     0.034 A 
BRANCH  53  67
ATOM     67  C   UNL A   1      41.898  27.443  34.460  1.00  0.00     0.023 A 
ATOM     68  C   UNL A   1      42.661  26.314  34.114  1.00  0.00     0.031 A 
ATOM     69  C   UNL A   1      41.617  27.593  35.838  1.00  0.00     0.131 A 
ATOM     70  C   UNL A   1      43.111  25.405  35.081  1.00  0.00     0.055 A 
ATOM     71  C   UNL A   1      42.120  26.718  36.812  1.00  0.00     0.041 A 
ATOM     72  F   UNL A   1      40.892  28.628  36.291  1.00  0.00    -0.206 F 
ATOM     73  C   UNL A   1      42.877  25.618  36.436  1.00  0.00     0.022 A 
BRANCH  70  74
ATOM     74  S   UNL A   1      44.043  23.929  34.585  1.00  0.00     0.124 S 
ATOM     75  O   UNL A   1      45.035  24.490  33.673  1.00  0.00    -0.237 OA
ATOM     76  O   UNL A   1      44.555  23.460  35.870  1.00  0.00    -0.237 OA
ATOM     77  O   UNL A   1      43.028  23.076  33.975  1.00  0.00    -0.744 OA
ENDBRANCH  70  74
ENDBRANCH  53  67
BRANCH  54  78
ATOM     78  C   UNL A   1      43.490  25.632  26.115  1.00  0.00     0.023 A 
ATOM     79  C   UNL A   1      42.683  24.501  26.332  1.00  0.00     0.031 A 
ATOM     80  C   UNL A   1      44.684  25.451  25.393  1.00  0.00     0.131 A 
ATOM     81  C   UNL A   1      43.109  23.236  25.902  1.00  0.00     0.055 A 
ATOM     82  C   UNL A   1      45.094  24.191  24.941  1.00  0.00     0.041 A 
ATOM     83  F   UNL A   1      45.513  26.484  25.180  1.00  0.00    -0.206 F 
ATOM     84  C   UNL A   1      44.314  23.071  25.215  1.00  0.00     0.022 A 
BRANCH  81  85
ATOM     85  S   UNL A   1      42.163  21.749  26.332  1.00  0.00     0.124 S 
ATOM     86  O   UNL A   1      42.550  21.530  27.723  1.00  0.00    -0.237 OA
ATOM     87  O   UNL A   1      40.791  22.203  26.125  1.00  0.00    -0.237 OA
ATOM     88  O   UNL A   1      42.653  20.749  25.388  1.00  0.00    -0.744 OA
ENDBRANCH  81  85
ENDBRANCH  54  78
BRANCH  66  89
ATOM     89  C   UNL A   1      44.886  30.948  29.274  1.00  0.00     0.023 A 
ATOM     90  C   UNL A   1      46.126  31.587  29.428  1.00  0.00     0.031 A 
ATOM     91  C   UNL A   1      43.910  31.588  28.489  1.00  0.00     0.131 A 
ATOM     92  C   UNL A   1      46.343  32.853  28.878  1.00  0.00     0.055 A 
ATOM     93  C   UNL A   1      44.159  32.818  27.871  1.00  0.00     0.041 A 
ATOM     94  F   UNL A   1      42.673  31.089  28.364  1.00  0.00    -0.206 F 
ATOM     95  C   UNL A   1      45.373  33.466  28.082  1.00  0.00     0.022 A 
BRANCH  92  96
ATOM     96  S   UNL A   1      47.821  33.794  29.331  1.00  0.00     0.124 S 
ATOM     97  O   UNL A   1      48.787  32.737  29.617  1.00  0.00    -0.237 OA
ATOM     98  O   UNL A   1      48.080  34.569  28.119  1.00  0.00    -0.237 OA
ATOM     99  O   UNL A   1      47.399  34.583  30.486  1.00  0.00    -0.744 OA
ENDBRANCH  92  96
ENDBRANCH  66  89
ENDBRANCH  40  41
ENDBRANCH  32  35
ENDBRANCH  30  31
ENDBRANCH   1  30
TORSDOF 17
ENDMDL
MODEL 2
REMARK VINA RESULT:     -10.4      4.819      8.046
REMARK SMILES COc1cc2c(CC(=O)NCCCNC(=O)c3ccc(-c4c5nc(c(-c6cc(S(=O)(=O)[O-])ccc6F)c6ccc([nH]6)c(-c6cc(S(=O)(=O)[O-])ccc6F)c6nc(c(-c7cc(S(=O)(=O)[O-])ccc7F)c7ccc4[nH]7)C=C6)C=C5)cc3)c(C)n(C(=O)c3ccc(Cl)cc3)c2cc1Cl
REMARK SMILES IDX 12 1 11 2 10 3 8 4 9 5 7 7 6 8 3 9 4 10 94 11 5 12 93 13
REMARK SMILES IDX 95 14 92 15 80 16 82 17 81 18 2 19 1 20 83 21 84 22 85 23
REMARK SMILES IDX 86 24 91 25 87 26 90 27 88 28 89 29 13 30 14 31 15 32 16 34
REMARK SMILES IDX 17 35 18 36 79 37 19 38 78 39 20 40 21 41 22 42 72 43 23 44
REMARK SMILES IDX 77 45 71 46 73 47 24 48 76 49 70 50 69 51 25 53 57 54 37 55
REMARK SMILES IDX 56 56 38 57 41 58 55 59 74 60 39 61 40 62 54 64 75 65 42 66
REMARK SMILES IDX 26 67 27 68 35 69 28 70 34 71 36 72 33 73 29 74 30 75 31 76
REMARK SMILES IDX 32 77 58 78 59 79 67 80 60 81 66 82 68 83 65 84 61 85 62 86
REMARK SMILES IDX 63 87 64 88 43 89 44 90 52 91 45 92 51 93 53 94 50 95 46 96
REMARK SMILES IDX 47 97 48 98 49 99
REMARK H PARENT 10 6 14 33 73 52 41 63
REMARK Flexibility Score: inf
ROOT
ATOM      1  C   UNL A   1      34.771  31.277  27.932  1.00  0.00     0.042 C 
ENDROOT
BRANCH   1   2
ATOM      2  C   UNL A   1      33.683  30.734  27.002  1.00  0.00     0.117 C 
BRANCH   2   3
ATOM      3  N   UNL A   1      32.819  29.763  27.653  1.00  0.00    -0.356 N 
ATOM      4  C   UNL A   1      32.796  28.404  27.532  1.00  0.00     0.224 C 
ATOM      5  O   UNL A   1      31.974  27.774  28.202  1.00  0.00    -0.275 OA
ATOM      6  H   UNL A   1      32.154  30.141  28.272  1.00  0.00     0.163 HD
BRANCH   4   7
ATOM      7  C   UNL A   1      33.798  27.688  26.641  1.00  0.00     0.138 C 
BRANCH   7   8
ATOM      8  C   UNL A   1      33.185  27.071  25.417  1.00  0.00    -0.009 A 
ATOM      9  C   UNL A   1      33.165  23.240  25.331  1.00  0.00     0.138 A 
ATOM     10  C   UNL A   1      33.410  24.512  25.865  1.00  0.00     0.058 A 
ATOM     11  C   UNL A   1      32.561  23.124  24.085  1.00  0.00     0.085 A 
ATOM     12  C   UNL A   1      33.049  25.680  25.149  1.00  0.00     0.008 A 
ATOM     13  C   UNL A   1      32.260  24.267  23.337  1.00  0.00     0.051 A 
ATOM     14  Cl  UNL A   1      32.062  21.611  23.415  1.00  0.00    -0.080 Cl
ATOM     15  C   UNL A   1      32.447  25.550  23.893  1.00  0.00     0.058 A 
ATOM     16  C   UNL A   1      32.709  27.755  24.302  1.00  0.00     0.028 A 
ATOM     17  N   UNL A   1      32.089  26.835  23.442  1.00  0.00    -0.280 N 
ATOM     18  C   UNL A   1      32.788  29.233  24.059  1.00  0.00     0.065 C 
BRANCH   9  19
ATOM     19  O   UNL A   1      33.490  22.180  26.140  1.00  0.00    -0.495 OA
ATOM     20  C   UNL A   1      34.160  22.580  27.336  1.00  0.00     0.278 C 
ENDBRANCH   9  19
BRANCH  17  21
ATOM     21  C   UNL A   1      31.241  27.157  22.334  1.00  0.00     0.262 C 
ATOM     22  O   UNL A   1      31.376  26.545  21.292  1.00  0.00    -0.268 OA
BRANCH  21  23
ATOM     23  C   UNL A   1      30.191  28.198  22.357  1.00  0.00     0.040 A 
ATOM     24  C   UNL A   1      30.400  29.444  21.754  1.00  0.00     0.015 A 
ATOM     25  C   UNL A   1      29.012  27.932  23.062  1.00  0.00     0.015 A 
ATOM     26  C   UNL A   1      29.469  30.465  21.959  1.00  0.00     0.021 A 
ATOM     27  C   UNL A   1      28.079  28.952  23.249  1.00  0.00     0.021 A 
ATOM     28  C   UNL A   1      28.325  30.221  22.724  1.00  0.00     0.041 A 
ATOM     29  Cl  UNL A   1      27.237  31.511  23.064  1.00  0.00    -0.084 Cl
ENDBRANCH  21  23
ENDBRANCH  17  21
ENDBRANCH   7   8
ENDBRANCH   4   7
ENDBRANCH   2   3
ENDBRANCH   1   2
BRANCH   1  30
ATOM     30  C   UNL A   1      34.369  32.557  28.665  1.00  0.00     0.118 C 
BRANCH  30  31
ATOM     31  N   UNL A   1      34.509  32.473  30.106  1.00  0.00    -0.352 N 
ATOM     32  C   UNL A   1      35.418  31.937  30.972  1.00  0.00     0.251 C 
ATOM     33  H   UNL A   1      33.764  32.913  30.575  1.00  0.00     0.163 HD
ATOM     34  O   UNL A   1      35.208  32.179  32.165  1.00  0.00    -0.269 OA
BRANCH  32  35
ATOM     35  C   UNL A   1      36.563  31.059  30.610  1.00  0.00     0.039 A 
ATOM     36  C   UNL A   1      36.583  29.666  30.676  1.00  0.00     0.014 A 
ATOM     37  C   UNL A   1      37.747  31.730  30.236  1.00  0.00     0.014 A 
ATOM     38  C   UNL A   1      37.778  28.973  30.479  1.00  0.00     0.010 A 
ATOM     39  C   UNL A   1      38.935  31.042  30.026  1.00  0.00     0.010 A 
ATOM     40  C   UNL A   1      38.964  29.667  30.206  1.00  0.00    -0.014 A 
BRANCH  40  41
ATOM     41  C   UNL A   1      40.197  28.898  30.040  1.00  0.00     0.031 A 
ATOM     42  C   UNL A   1      40.939  28.646  31.306  1.00  0.00     0.074 A 
ATOM     43  C   UNL A   1      40.603  28.373  28.864  1.00  0.00     0.049 A 
ATOM     44  N   UNL A   1      42.072  29.148  31.676  1.00  0.00    -0.248 NA
ATOM     45  C   UNL A   1      40.269  27.857  32.349  1.00  0.00     0.031 C 
ATOM     46  C   UNL A   1      39.843  28.277  27.612  1.00  0.00     0.029 A 
ATOM     47  N   UNL A   1      41.768  27.731  28.560  1.00  0.00    -0.354 N 
ATOM     48  C   UNL A   1      42.359  28.578  32.919  1.00  0.00     0.074 A 
ATOM     49  C   UNL A   1      41.148  27.929  33.349  1.00  0.00     0.031 C 
ATOM     50  C   UNL A   1      40.468  27.422  26.769  1.00  0.00     0.029 A 
ATOM     51  C   UNL A   1      41.749  27.055  27.346  1.00  0.00     0.049 A 
ATOM     52  H   UNL A   1      42.556  27.745  29.151  1.00  0.00     0.167 HD
ATOM     53  C   UNL A   1      43.639  28.503  33.390  1.00  0.00     0.034 A 
ATOM     54  C   UNL A   1      42.711  26.237  26.853  1.00  0.00     0.034 A 
ATOM     55  C   UNL A   1      44.525  29.297  32.587  1.00  0.00     0.049 A 
ATOM     56  C   UNL A   1      43.979  26.552  27.541  1.00  0.00     0.074 A 
ATOM     57  C   UNL A   1      44.844  30.629  32.469  1.00  0.00     0.029 A 
ATOM     58  N   UNL A   1      44.992  28.655  31.470  1.00  0.00    -0.354 N 
ATOM     59  N   UNL A   1      44.634  27.667  27.381  1.00  0.00    -0.248 NA
ATOM     60  C   UNL A   1      44.377  25.751  28.693  1.00  0.00     0.031 C 
ATOM     61  C   UNL A   1      45.307  30.798  31.134  1.00  0.00     0.029 A 
ATOM     62  C   UNL A   1      45.297  29.558  30.490  1.00  0.00     0.049 A 
ATOM     63  H   UNL A   1      45.095  27.679  31.385  1.00  0.00     0.167 HD
ATOM     64  C   UNL A   1      45.181  27.916  28.623  1.00  0.00     0.074 A 
ATOM     65  C   UNL A   1      45.156  26.635  29.320  1.00  0.00     0.031 C 
ATOM     66  C   UNL A   1      45.318  29.191  29.086  1.00  0.00     0.034 A 
BRANCH  53  67
ATOM     67  C   UNL A   1      44.179  27.407  34.286  1.00  0.00     0.023 A 
ATOM     68  C   UNL A   1      44.417  27.587  35.660  1.00  0.00     0.031 A 
ATOM     69  C   UNL A   1      44.225  26.070  33.827  1.00  0.00     0.131 A 
ATOM     70  C   UNL A   1      44.678  26.504  36.510  1.00  0.00     0.055 A 
ATOM     71  C   UNL A   1      44.424  24.981  34.688  1.00  0.00     0.041 A 
ATOM     72  F   UNL A   1      44.020  25.772  32.535  1.00  0.00    -0.206 F 
ATOM     73  C   UNL A   1      44.647  25.195  36.041  1.00  0.00     0.022 A 
BRANCH  70  74
ATOM     74  S   UNL A   1      45.039  26.786  38.266  1.00  0.00     0.124 S 
ATOM     75  O   UNL A   1      45.495  28.172  38.262  1.00  0.00    -0.237 OA
ATOM     76  O   UNL A   1      43.732  26.549  38.875  1.00  0.00    -0.237 OA
ATOM     77  O   UNL A   1      46.053  25.782  38.571  1.00  0.00    -0.744 OA
ENDBRANCH  70  74
ENDBRANCH  53  67
BRANCH  54  78
ATOM     78  C   UNL A   1      42.547  24.968  26.110  1.00  0.00     0.023 A 
ATOM     79  C   UNL A   1      41.567  24.053  26.534  1.00  0.00     0.031 A 
ATOM     80  C   UNL A   1      43.551  24.494  25.246  1.00  0.00     0.131 A 
ATOM     81  C   UNL A   1      41.651  22.704  26.160  1.00  0.00     0.055 A 
ATOM     82  C   UNL A   1      43.616  23.152  24.851  1.00  0.00     0.041 A 
ATOM     83  F   UNL A   1      44.532  25.309  24.831  1.00  0.00    -0.206 F 
ATOM     84  C   UNL A   1      42.674  22.245  25.326  1.00  0.00     0.022 A 
BRANCH  81  85
ATOM     85  S   UNL A   1      40.497  21.483  26.844  1.00  0.00     0.124 S 
ATOM     86  O   UNL A   1      40.818  21.521  28.268  1.00  0.00    -0.237 OA
ATOM     87  O   UNL A   1      39.206  22.058  26.474  1.00  0.00    -0.237 OA
ATOM     88  O   UNL A   1      40.863  20.247  26.159  1.00  0.00    -0.744 OA
ENDBRANCH  81  85
ENDBRANCH  54  78
BRANCH  66  89
ATOM     89  C   UNL A   1      45.302  30.322  28.093  1.00  0.00     0.023 A 
ATOM     90  C   UNL A   1      46.551  30.850  27.731  1.00  0.00     0.031 A 
ATOM     91  C   UNL A   1      44.150  31.004  27.662  1.00  0.00     0.131 A 
ATOM     92  C   UNL A   1      46.633  32.056  27.030  1.00  0.00     0.055 A 
ATOM     93  C   UNL A   1      44.235  32.168  26.890  1.00  0.00     0.041 A 
ATOM     94  F   UNL A   1      42.924  30.617  28.038  1.00  0.00    -0.206 F 
ATOM     95  C   UNL A   1      45.481  32.711  26.590  1.00  0.00     0.022 A 
BRANCH  92  96
ATOM     96  S   UNL A   1      48.233  32.879  26.834  1.00  0.00     0.124 S 
ATOM     97  O   UNL A   1      47.955  33.852  25.782  1.00  0.00    -0.237 OA
ATOM     98  O   UNL A   1      48.459  33.441  28.165  1.00  0.00    -0.237 OA
ATOM     99  O   UNL A   1      49.144  31.800  26.461  1.00  0.00    -0.744 OA
ENDBRANCH  92  96
ENDBRANCH  66  89
ENDBRANCH  40  41
ENDBRANCH  32  35
ENDBRANCH  30  31
ENDBRANCH   1  30
TORSDOF 17
ENDMDL
MODEL 3
REMARK VINA RESULT:     -10.4      5.941     12.131
REMARK SMILES COc1cc2c(CC(=O)NCCCNC(=O)c3ccc(-c4c5nc(c(-c6cc(S(=O)(=O)[O-])ccc6F)c6ccc([nH]6)c(-c6cc(S(=O)(=O)[O-])ccc6F)c6nc(c(-c7cc(S(=O)(=O)[O-])ccc7F)c7ccc4[nH]7)C=C6)C=C5)cc3)c(C)n(C(=O)c3ccc(Cl)cc3)c2cc1Cl
REMARK SMILES IDX 12 1 11 2 10 3 8 4 9 5 7 7 6 8 3 9 4 10 94 11 5 12 93 13
REMARK SMILES IDX 95 14 92 15 80 16 82 17 81 18 2 19 1 20 83 21 84 22 85 23
REMARK SMILES IDX 86 24 91 25 87 26 90 27 88 28 89 29 13 30 14 31 15 32 16 34
REMARK SMILES IDX 17 35 18 36 79 37 19 38 78 39 20 40 21 41 22 42 72 43 23 44
REMARK SMILES IDX 77 45 71 46 73 47 24 48 76 49 70 50 69 51 25 53 57 54 37 55
REMARK SMILES IDX 56 56 38 57 41 58 55 59 74 60 39 61 40 62 54 64 75 65 42 66
REMARK SMILES IDX 26 67 27 68 35 69 28 70 34 71 36 72 33 73 29 74 30 75 31 76
REMARK SMILES IDX 32 77 58 78 59 79 67 80 60 81 66 82 68 83 65 84 61 85 62 86
REMARK SMILES IDX 63 87 64 88 43 89 44 90 52 91 45 92 51 93 53 94 50 95 46 96
REMARK SMILES IDX 47 97 48 98 49 99
REMARK H PARENT 10 6 14 33 73 52 41 63
REMARK Flexibility Score: inf
ROOT
ATOM      1  C   UNL A   1      40.194  21.646  27.077  1.00  0.00     0.042 C 
ENDROOT
BRANCH   1   2
ATOM      2  C   UNL A   1      39.111  21.180  26.101  1.00  0.00     0.117 C 
BRANCH   2   3
ATOM      3  N   UNL A   1      38.576  22.265  25.295  1.00  0.00    -0.356 N 
ATOM      4  C   UNL A   1      37.337  22.837  25.323  1.00  0.00     0.224 C 
ATOM      5  O   UNL A   1      37.108  23.768  24.545  1.00  0.00    -0.275 OA
ATOM      6  H   UNL A   1      39.198  22.643  24.632  1.00  0.00     0.163 HD
BRANCH   4   7
ATOM      7  C   UNL A   1      36.293  22.377  26.327  1.00  0.00     0.138 C 
BRANCH   7   8
ATOM      8  C   UNL A   1      34.928  22.182  25.734  1.00  0.00    -0.009 A 
ATOM      9  C   UNL A   1      34.259  18.721  24.231  1.00  0.00     0.138 A 
ATOM     10  C   UNL A   1      34.995  19.716  24.889  1.00  0.00     0.058 A 
ATOM     11  C   UNL A   1      32.963  18.992  23.809  1.00  0.00     0.085 A 
ATOM     12  C   UNL A   1      34.432  20.995  25.126  1.00  0.00     0.008 A 
ATOM     13  C   UNL A   1      32.418  20.269  23.977  1.00  0.00     0.051 A 
ATOM     14  Cl  UNL A   1      31.915  17.788  23.146  1.00  0.00    -0.080 Cl
ATOM     15  C   UNL A   1      33.129  21.257  24.691  1.00  0.00     0.058 A 
ATOM     16  C   UNL A   1      33.937  23.153  25.614  1.00  0.00     0.028 A 
ATOM     17  N   UNL A   1      32.766  22.541  25.139  1.00  0.00    -0.280 N 
ATOM     18  C   UNL A   1      34.060  24.604  25.971  1.00  0.00     0.065 C 
BRANCH   9  19
ATOM     19  O   UNL A   1      34.875  17.500  24.118  1.00  0.00    -0.495 OA
ATOM     20  C   UNL A   1      34.475  16.580  25.133  1.00  0.00     0.278 C 
ENDBRANCH   9  19
BRANCH  17  21
ATOM     21  C   UNL A   1      31.456  23.120  25.136  1.00  0.00     0.262 C 
ATOM     22  O   UNL A   1      30.584  22.608  25.809  1.00  0.00    -0.268 OA
BRANCH  21  23
ATOM     23  C   UNL A   1      31.073  24.320  24.360  1.00  0.00     0.040 A 
ATOM     24  C   UNL A   1      31.545  24.514  23.057  1.00  0.00     0.015 A 
ATOM     25  C   UNL A   1      30.288  25.292  24.990  1.00  0.00     0.015 A 
ATOM     26  C   UNL A   1      31.322  25.741  22.426  1.00  0.00     0.021 A 
ATOM     27  C   UNL A   1      30.056  26.509  24.348  1.00  0.00     0.021 A 
ATOM     28  C   UNL A   1      30.599  26.740  23.084  1.00  0.00     0.041 A 
ATOM     29  Cl  UNL A   1      30.420  28.286  22.348  1.00  0.00    -0.084 Cl
ENDBRANCH  21  23
ENDBRANCH  17  21
ENDBRANCH   7   8
ENDBRANCH   4   7
ENDBRANCH   2   3
ENDBRANCH   1   2
BRANCH   1  30
ATOM     30  C   UNL A   1      41.577  21.065  26.782  1.00  0.00     0.118 C 
BRANCH  30  31
ATOM     31  N   UNL A   1      42.280  21.745  25.711  1.00  0.00    -0.352 N 
ATOM     32  C   UNL A   1      42.626  23.036  25.430  1.00  0.00     0.251 C 
ATOM     33  H   UNL A   1      42.585  21.119  25.014  1.00  0.00     0.163 HD
ATOM     34  O   UNL A   1      43.332  23.180  24.426  1.00  0.00    -0.269 OA
BRANCH  32  35
ATOM     35  C   UNL A   1      42.178  24.245  26.172  1.00  0.00     0.039 A 
ATOM     36  C   UNL A   1      41.221  25.165  25.743  1.00  0.00     0.014 A 
ATOM     37  C   UNL A   1      42.852  24.495  27.386  1.00  0.00     0.014 A 
ATOM     38  C   UNL A   1      41.024  26.350  26.452  1.00  0.00     0.010 A 
ATOM     39  C   UNL A   1      42.648  25.668  28.101  1.00  0.00     0.010 A 
ATOM     40  C   UNL A   1      41.775  26.624  27.601  1.00  0.00    -0.014 A 
BRANCH  40  41
ATOM     41  C   UNL A   1      41.556  27.895  28.291  1.00  0.00     0.031 A 
ATOM     42  C   UNL A   1      42.505  28.975  27.906  1.00  0.00     0.074 A 
ATOM     43  C   UNL A   1      40.531  28.121  29.140  1.00  0.00     0.049 A 
ATOM     44  N   UNL A   1      43.447  29.497  28.621  1.00  0.00    -0.248 NA
ATOM     45  C   UNL A   1      42.502  29.425  26.506  1.00  0.00     0.031 C 
ATOM     46  C   UNL A   1      39.360  27.270  29.384  1.00  0.00     0.029 A 
ATOM     47  N   UNL A   1      40.274  29.216  29.914  1.00  0.00    -0.354 N 
ATOM     48  C   UNL A   1      44.029  30.490  27.828  1.00  0.00     0.074 A 
ATOM     49  C   UNL A   1      43.521  30.285  26.497  1.00  0.00     0.031 C 
ATOM     50  C   UNL A   1      38.422  27.976  30.058  1.00  0.00     0.029 A 
ATOM     51  C   UNL A   1      38.991  29.255  30.444  1.00  0.00     0.049 A 
ATOM     52  H   UNL A   1      40.944  29.919  30.083  1.00  0.00     0.167 HD
ATOM     53  C   UNL A   1      44.713  31.533  28.381  1.00  0.00     0.034 A 
ATOM     54  C   UNL A   1      38.426  30.273  31.139  1.00  0.00     0.034 A 
ATOM     55  C   UNL A   1      44.954  31.302  29.778  1.00  0.00     0.049 A 
ATOM     56  C   UNL A   1      39.510  31.118  31.680  1.00  0.00     0.074 A 
ATOM     57  C   UNL A   1      45.837  30.566  30.531  1.00  0.00     0.029 A 
ATOM     58  N   UNL A   1      43.914  31.669  30.591  1.00  0.00    -0.354 N 
ATOM     59  N   UNL A   1      40.330  30.733  32.617  1.00  0.00    -0.248 NA
ATOM     60  C   UNL A   1      39.915  32.308  30.941  1.00  0.00     0.031 C 
ATOM     61  C   UNL A   1      45.170  30.305  31.761  1.00  0.00     0.029 A 
ATOM     62  C   UNL A   1      43.918  30.925  31.738  1.00  0.00     0.049 A 
ATOM     63  H   UNL A   1      43.256  32.370  30.379  1.00  0.00     0.167 HD
ATOM     64  C   UNL A   1      41.525  31.338  32.285  1.00  0.00     0.074 A 
ATOM     65  C   UNL A   1      41.170  32.425  31.381  1.00  0.00     0.031 C 
ATOM     66  C   UNL A   1      42.715  30.716  32.523  1.00  0.00     0.034 A 
BRANCH  53  67
ATOM     67  C   UNL A   1      44.796  32.931  27.803  1.00  0.00     0.023 A 
ATOM     68  C   UNL A   1      43.795  33.901  27.993  1.00  0.00     0.031 A 
ATOM     69  C   UNL A   1      46.011  33.406  27.258  1.00  0.00     0.131 A 
ATOM     70  C   UNL A   1      44.002  35.248  27.663  1.00  0.00     0.055 A 
ATOM     71  C   UNL A   1      46.241  34.763  26.986  1.00  0.00     0.041 A 
ATOM     72  F   UNL A   1      47.039  32.575  27.024  1.00  0.00    -0.206 F 
ATOM     73  C   UNL A   1      45.233  35.694  27.194  1.00  0.00     0.022 A 
BRANCH  70  74
ATOM     74  S   UNL A   1      42.664  36.455  27.870  1.00  0.00     0.124 S 
ATOM     75  O   UNL A   1      42.710  37.178  26.603  1.00  0.00    -0.237 OA
ATOM     76  O   UNL A   1      41.508  35.582  28.061  1.00  0.00    -0.237 OA
ATOM     77  O   UNL A   1      43.068  37.212  29.050  1.00  0.00    -0.744 OA
ENDBRANCH  70  74
ENDBRANCH  53  67
BRANCH  54  78
ATOM     78  C   UNL A   1      37.038  30.778  31.063  1.00  0.00     0.023 A 
ATOM     79  C   UNL A   1      36.475  31.035  29.800  1.00  0.00     0.031 A 
ATOM     80  C   UNL A   1      36.405  31.343  32.186  1.00  0.00     0.131 A 
ATOM     81  C   UNL A   1      35.369  31.890  29.680  1.00  0.00     0.055 A 
ATOM     82  C   UNL A   1      35.284  32.173  32.065  1.00  0.00     0.041 A 
ATOM     83  F   UNL A   1      36.911  31.161  33.415  1.00  0.00    -0.206 F 
ATOM     84  C   UNL A   1      34.774  32.467  30.804  1.00  0.00     0.022 A 
BRANCH  81  85
ATOM     85  S   UNL A   1      34.746  32.369  28.045  1.00  0.00     0.124 S 
ATOM     86  O   UNL A   1      35.766  33.310  27.592  1.00  0.00    -0.237 OA
ATOM     87  O   UNL A   1      34.722  31.085  27.351  1.00  0.00    -0.237 OA
ATOM     88  O   UNL A   1      33.444  32.961  28.337  1.00  0.00    -0.744 OA
ENDBRANCH  81  85
ENDBRANCH  54  78
BRANCH  66  89
ATOM     89  C   UNL A   1      42.755  29.604  33.536  1.00  0.00     0.023 A 
ATOM     90  C   UNL A   1      43.207  29.948  34.820  1.00  0.00     0.031 A 
ATOM     91  C   UNL A   1      42.569  28.241  33.248  1.00  0.00     0.131 A 
ATOM     92  C   UNL A   1      43.529  28.953  35.747  1.00  0.00     0.055 A 
ATOM     93  C   UNL A   1      42.814  27.250  34.206  1.00  0.00     0.041 A 
ATOM     94  F   UNL A   1      42.226  27.823  32.023  1.00  0.00    -0.206 F 
ATOM     95  C   UNL A   1      43.318  27.604  35.455  1.00  0.00     0.022 A 
BRANCH  92  96
ATOM     96  S   UNL A   1      44.390  29.390  37.278  1.00  0.00     0.124 S 
ATOM     97  O   UNL A   1      43.494  30.380  37.867  1.00  0.00    -0.237 OA
ATOM     98  O   UNL A   1      44.452  28.106  37.976  1.00  0.00    -0.237 OA
ATOM     99  O   UNL A   1      45.680  29.905  36.825  1.00  0.00    -0.744 OA
ENDBRANCH  92  96
ENDBRANCH  66  89
ENDBRANCH  40  41
ENDBRANCH  32  35
ENDBRANCH  30  31
ENDBRANCH   1  30
TORSDOF 17
ENDMDL
