MODEL 1
REMARK VINA RESULT:     -12.1      0.000      0.000
REMARK SMILES CC[C@](C)(NC(=O)N(C)Cc1cccc(C)c1)C(=O)NCCCNC(=O)c1ccc(-c2c3nc(c(-c4cc(S(=O)(=O)[O-])ccc4F)c4ccc([nH]4)c(-c4cc(S(=O)(=O)[O-])ccc4F)c4nc(c(-c5cc(S(=O)(=O)[O-])ccc5F)c5ccc2[nH]5)C=C4)C=C3)cc1
REMARK SMILES IDX 21 1 20 2 18 3 19 4 3 6 4 7 2 8 1 9 5 10 6 11 7 13 8 14 9 15
REMARK SMILES IDX 10 16 11 17 12 18 17 19 13 20 15 21 14 22 16 23 22 24 23 25
REMARK SMILES IDX 24 26 25 27 26 29 27 30 28 31 89 32 29 33 88 34 30 35 31 36
REMARK SMILES IDX 32 37 82 38 33 39 87 40 81 41 83 42 34 43 86 44 80 45 79 46
REMARK SMILES IDX 35 48 67 49 47 50 66 51 48 52 51 53 65 54 84 55 49 56 50 57
REMARK SMILES IDX 64 59 85 60 52 61 36 62 37 63 45 64 38 65 44 66 46 67 43 68
REMARK SMILES IDX 39 69 40 70 41 71 42 72 68 73 69 74 77 75 70 76 76 77 78 78
REMARK SMILES IDX 75 79 71 80 72 81 73 82 74 83 53 84 54 85 62 86 55 87 61 88
REMARK SMILES IDX 63 89 60 90 56 91 57 92 58 93 59 94
REMARK H PARENT 20 5 5 12 24 28 83 47 51 58
REMARK Flexibility Score: inf
ROOT
ATOM      1  C   UNL A   1      36.563  21.459  25.546  1.00  0.00     0.117 C 
ENDROOT
BRANCH   1   2
ATOM      2  N   UNL A   1      35.899  22.083  24.414  1.00  0.00    -0.354 N 
ATOM      3  C   UNL A   1      34.609  22.060  23.962  1.00  0.00     0.245 C 
ATOM      4  O   UNL A   1      34.299  22.885  23.093  1.00  0.00    -0.272 OA
ATOM      5  H   UNL A   1      36.498  22.633  23.860  1.00  0.00     0.163 HD
BRANCH   3   6
ATOM      6  C   UNL A   1      33.505  21.128  24.566  1.00  0.00     0.117 C 
ATOM      7  C   UNL A   1      33.979  19.651  24.563  1.00  0.00     0.045 C 
BRANCH   6   8
ATOM      8  C   UNL A   1      32.253  21.201  23.627  1.00  0.00     0.035 C 
ATOM      9  C   UNL A   1      32.174  20.126  22.546  1.00  0.00     0.007 C 
ENDBRANCH   6   8
BRANCH   6  10
ATOM     10  N   UNL A   1      33.040  21.450  25.949  1.00  0.00    -0.324 N 
ATOM     11  C   UNL A   1      32.953  22.569  26.707  1.00  0.00     0.318 C 
ATOM     12  H   UNL A   1      32.715  20.653  26.427  1.00  0.00     0.166 HD
ATOM     13  O   UNL A   1      33.046  22.378  27.926  1.00  0.00    -0.249 OA
BRANCH  11  14
ATOM     14  N   UNL A   1      32.731  23.820  26.195  1.00  0.00    -0.324 N 
ATOM     15  C   UNL A   1      31.417  24.434  26.064  1.00  0.00     0.149 C 
BRANCH  14  16
ATOM     16  C   UNL A   1      33.911  24.710  26.111  1.00  0.00     0.156 C 
BRANCH  16  17
ATOM     17  C   UNL A   1      33.677  26.067  25.481  1.00  0.00    -0.028 A 
ATOM     18  C   UNL A   1      33.714  26.222  24.086  1.00  0.00     0.005 A 
ATOM     19  C   UNL A   1      33.564  27.210  26.289  1.00  0.00     0.009 A 
ATOM     20  C   UNL A   1      33.705  27.496  23.521  1.00  0.00     0.001 A 
ATOM     21  C   UNL A   1      33.693  28.485  25.735  1.00  0.00    -0.051 A 
ATOM     22  C   UNL A   1      33.709  28.623  24.345  1.00  0.00     0.003 A 
ATOM     23  C   UNL A   1      33.904  29.678  26.618  1.00  0.00     0.044 C 
ENDBRANCH  16  17
ENDBRANCH  14  16
ENDBRANCH  11  14
ENDBRANCH   6  10
ENDBRANCH   3   6
ENDBRANCH   1   2
BRANCH   1  24
ATOM     24  C   UNL A   1      38.080  21.590  25.568  1.00  0.00     0.042 C 
BRANCH  24  25
ATOM     25  C   UNL A   1      38.567  22.957  26.029  1.00  0.00     0.118 C 
BRANCH  25  26
ATOM     26  N   UNL A   1      40.015  22.955  26.246  1.00  0.00    -0.352 N 
ATOM     27  C   UNL A   1      40.841  23.967  26.689  1.00  0.00     0.251 C 
ATOM     28  H   UNL A   1      40.467  22.103  26.045  1.00  0.00     0.163 HD
ATOM     29  O   UNL A   1      42.037  23.801  26.849  1.00  0.00    -0.269 OA
BRANCH  27  30
ATOM     30  C   UNL A   1      40.211  25.243  27.082  1.00  0.00     0.039 A 
ATOM     31  C   UNL A   1      40.606  26.386  26.382  1.00  0.00     0.014 A 
ATOM     32  C   UNL A   1      39.469  25.331  28.257  1.00  0.00     0.014 A 
ATOM     33  C   UNL A   1      40.449  27.630  26.981  1.00  0.00     0.010 A 
ATOM     34  C   UNL A   1      39.380  26.560  28.885  1.00  0.00     0.010 A 
ATOM     35  C   UNL A   1      39.931  27.694  28.275  1.00  0.00    -0.014 A 
BRANCH  35  36
ATOM     36  C   UNL A   1      40.040  28.894  29.094  1.00  0.00     0.031 A 
ATOM     37  C   UNL A   1      39.001  29.937  29.030  1.00  0.00     0.074 A 
ATOM     38  C   UNL A   1      41.109  29.079  29.900  1.00  0.00     0.049 A 
ATOM     39  N   UNL A   1      39.201  31.166  29.366  1.00  0.00    -0.248 NA
ATOM     40  C   UNL A   1      37.669  29.707  28.483  1.00  0.00     0.031 C 
ATOM     41  C   UNL A   1      41.281  30.106  30.922  1.00  0.00     0.029 A 
ATOM     42  N   UNL A   1      42.370  28.498  29.785  1.00  0.00    -0.354 N 
ATOM     43  C   UNL A   1      37.985  31.797  29.396  1.00  0.00     0.074 A 
ATOM     44  C   UNL A   1      37.108  30.905  28.680  1.00  0.00     0.031 C 
ATOM     45  C   UNL A   1      42.585  30.248  31.199  1.00  0.00     0.029 A 
ATOM     46  C   UNL A   1      43.308  29.450  30.231  1.00  0.00     0.049 A 
ATOM     47  H   UNL A   1      42.568  27.592  29.455  1.00  0.00     0.167 HD
ATOM     48  C   UNL A   1      37.855  32.922  30.156  1.00  0.00     0.034 A 
ATOM     49  C   UNL A   1      44.274  29.931  29.396  1.00  0.00     0.034 A 
ATOM     50  C   UNL A   1      39.167  33.428  30.590  1.00  0.00     0.049 A 
ATOM     51  C   UNL A   1      44.203  31.436  29.187  1.00  0.00     0.074 A 
ATOM     52  C   UNL A   1      39.806  33.532  31.815  1.00  0.00     0.029 A 
ATOM     53  N   UNL A   1      40.125  33.749  29.630  1.00  0.00    -0.354 N 
ATOM     54  N   UNL A   1      43.181  32.182  29.513  1.00  0.00    -0.248 NA
ATOM     55  C   UNL A   1      45.272  32.217  28.576  1.00  0.00     0.031 C 
ATOM     56  C   UNL A   1      41.164  33.892  31.577  1.00  0.00     0.029 A 
ATOM     57  C   UNL A   1      41.343  34.040  30.212  1.00  0.00     0.049 A 
ATOM     58  H   UNL A   1      39.955  33.766  28.660  1.00  0.00     0.167 HD
ATOM     59  C   UNL A   1      43.415  33.493  29.166  1.00  0.00     0.074 A 
ATOM     60  C   UNL A   1      44.748  33.456  28.586  1.00  0.00     0.031 C 
ATOM     61  C   UNL A   1      42.474  34.469  29.385  1.00  0.00     0.034 A 
BRANCH  48  62
ATOM     62  C   UNL A   1      36.544  33.476  30.703  1.00  0.00     0.023 A 
ATOM     63  C   UNL A   1      35.637  34.089  29.807  1.00  0.00     0.031 A 
ATOM     64  C   UNL A   1      36.164  33.554  32.062  1.00  0.00     0.131 A 
ATOM     65  C   UNL A   1      34.478  34.756  30.259  1.00  0.00     0.055 A 
ATOM     66  C   UNL A   1      34.990  34.175  32.507  1.00  0.00     0.041 A 
ATOM     67  F   UNL A   1      36.915  33.078  33.057  1.00  0.00    -0.206 F 
ATOM     68  C   UNL A   1      34.144  34.793  31.607  1.00  0.00     0.022 A 
BRANCH  65  69
ATOM     69  S   UNL A   1      33.440  35.649  29.070  1.00  0.00     0.124 S 
ATOM     70  O   UNL A   1      32.801  36.653  29.915  1.00  0.00    -0.237 OA
ATOM     71  O   UNL A   1      34.420  36.138  28.107  1.00  0.00    -0.237 OA
ATOM     72  O   UNL A   1      32.541  34.614  28.561  1.00  0.00    -0.744 OA
ENDBRANCH  65  69
ENDBRANCH  48  62
BRANCH  49  73
ATOM     73  C   UNL A   1      44.715  28.913  28.395  1.00  0.00     0.023 A 
ATOM     74  C   UNL A   1      45.497  27.830  28.870  1.00  0.00     0.031 A 
ATOM     75  C   UNL A   1      44.061  28.755  27.166  1.00  0.00     0.131 A 
ATOM     76  C   UNL A   1      45.458  26.586  28.222  1.00  0.00     0.055 A 
ATOM     77  C   UNL A   1      44.091  27.533  26.481  1.00  0.00     0.041 A 
ATOM     78  F   UNL A   1      43.281  29.729  26.675  1.00  0.00    -0.206 F 
ATOM     79  C   UNL A   1      44.753  26.432  27.029  1.00  0.00     0.022 A 
BRANCH  76  80
ATOM     80  S   UNL A   1      46.135  25.131  29.081  1.00  0.00     0.124 S 
ATOM     81  O   UNL A   1      47.284  24.792  28.253  1.00  0.00    -0.237 OA
ATOM     82  O   UNL A   1      46.440  25.637  30.420  1.00  0.00    -0.237 OA
ATOM     83  O   UNL A   1      45.039  24.164  29.060  1.00  0.00    -0.744 OA
ENDBRANCH  76  80
ENDBRANCH  49  73
BRANCH  61  84
ATOM     84  C   UNL A   1      42.499  35.925  28.912  1.00  0.00     0.023 A 
ATOM     85  C   UNL A   1      43.186  36.965  29.555  1.00  0.00     0.031 A 
ATOM     86  C   UNL A   1      41.820  36.314  27.723  1.00  0.00     0.131 A 
ATOM     87  C   UNL A   1      43.179  38.285  29.051  1.00  0.00     0.055 A 
ATOM     88  C   UNL A   1      41.835  37.615  27.208  1.00  0.00     0.041 A 
ATOM     89  F   UNL A   1      41.118  35.444  26.984  1.00  0.00    -0.206 F 
ATOM     90  C   UNL A   1      42.516  38.616  27.875  1.00  0.00     0.022 A 
BRANCH  87  91
ATOM     91  S   UNL A   1      44.046  39.572  29.990  1.00  0.00     0.124 S 
ATOM     92  O   UNL A   1      43.605  40.791  29.316  1.00  0.00    -0.237 OA
ATOM     93  O   UNL A   1      43.527  39.375  31.339  1.00  0.00    -0.237 OA
ATOM     94  O   UNL A   1      45.458  39.242  29.813  1.00  0.00    -0.744 OA
ENDBRANCH  87  91
ENDBRANCH  61  84
ENDBRANCH  35  36
ENDBRANCH  27  30
ENDBRANCH  25  26
ENDBRANCH  24  25
ENDBRANCH   1  24
TORSDOF 18
ENDMDL
MODEL 2
REMARK VINA RESULT:     -12.0      3.998     10.521
REMARK SMILES CC[C@](C)(NC(=O)N(C)Cc1cccc(C)c1)C(=O)NCCCNC(=O)c1ccc(-c2c3nc(c(-c4cc(S(=O)(=O)[O-])ccc4F)c4ccc([nH]4)c(-c4cc(S(=O)(=O)[O-])ccc4F)c4nc(c(-c5cc(S(=O)(=O)[O-])ccc5F)c5ccc2[nH]5)C=C4)C=C3)cc1
REMARK SMILES IDX 21 1 20 2 18 3 19 4 3 6 4 7 2 8 1 9 5 10 6 11 7 13 8 14 9 15
REMARK SMILES IDX 10 16 11 17 12 18 17 19 13 20 15 21 14 22 16 23 22 24 23 25
REMARK SMILES IDX 24 26 25 27 26 29 27 30 28 31 89 32 29 33 88 34 30 35 31 36
REMARK SMILES IDX 32 37 82 38 33 39 87 40 81 41 83 42 34 43 86 44 80 45 79 46
REMARK SMILES IDX 35 48 67 49 47 50 66 51 48 52 51 53 65 54 84 55 49 56 50 57
REMARK SMILES IDX 64 59 85 60 52 61 36 62 37 63 45 64 38 65 44 66 46 67 43 68
REMARK SMILES IDX 39 69 40 70 41 71 42 72 68 73 69 74 77 75 70 76 76 77 78 78
REMARK SMILES IDX 75 79 71 80 72 81 73 82 74 83 53 84 54 85 62 86 55 87 61 88
REMARK SMILES IDX 63 89 60 90 56 91 57 92 58 93 59 94
REMARK H PARENT 20 5 5 12 24 28 83 47 51 58
REMARK Flexibility Score: inf
ROOT
ATOM      1  C   UNL A   1      33.282  29.745  25.335  1.00  0.00     0.117 C 
ENDROOT
BRANCH   1   2
ATOM      2  N   UNL A   1      32.062  29.410  24.620  1.00  0.00    -0.354 N 
ATOM      3  C   UNL A   1      31.376  28.241  24.444  1.00  0.00     0.245 C 
ATOM      4  O   UNL A   1      30.236  28.320  23.969  1.00  0.00    -0.272 OA
ATOM      5  H   UNL A   1      31.645  30.180  24.170  1.00  0.00     0.163 HD
BRANCH   3   6
ATOM      6  C   UNL A   1      31.918  26.849  24.914  1.00  0.00     0.117 C 
ATOM      7  C   UNL A   1      32.029  26.803  26.460  1.00  0.00     0.045 C 
BRANCH   6   8
ATOM      8  C   UNL A   1      33.373  26.691  24.353  1.00  0.00     0.035 C 
ATOM      9  C   UNL A   1      33.499  26.686  22.832  1.00  0.00     0.007 C 
ENDBRANCH   6   8
BRANCH   6  10
ATOM     10  N   UNL A   1      31.145  25.647  24.480  1.00  0.00    -0.324 N 
ATOM     11  C   UNL A   1      31.417  24.333  24.299  1.00  0.00     0.318 C 
ATOM     12  H   UNL A   1      30.206  25.862  24.277  1.00  0.00     0.166 HD
ATOM     13  O   UNL A   1      30.724  23.774  23.439  1.00  0.00    -0.249 OA
BRANCH  11  14
ATOM     14  N   UNL A   1      32.345  23.639  25.029  1.00  0.00    -0.324 N 
ATOM     15  C   UNL A   1      32.201  23.307  26.440  1.00  0.00     0.149 C 
BRANCH  14  16
ATOM     16  C   UNL A   1      33.362  22.894  24.253  1.00  0.00     0.156 C 
BRANCH  16  17
ATOM     17  C   UNL A   1      34.740  22.804  24.876  1.00  0.00    -0.028 A 
ATOM     18  C   UNL A   1      35.407  23.963  25.304  1.00  0.00     0.005 A 
ATOM     19  C   UNL A   1      35.424  21.578  24.901  1.00  0.00     0.009 A 
ATOM     20  C   UNL A   1      36.746  23.902  25.683  1.00  0.00     0.001 A 
ATOM     21  C   UNL A   1      36.798  21.538  25.147  1.00  0.00    -0.051 A 
ATOM     22  C   UNL A   1      37.442  22.695  25.590  1.00  0.00     0.003 A 
ATOM     23  C   UNL A   1      37.585  20.297  24.852  1.00  0.00     0.044 C 
ENDBRANCH  16  17
ENDBRANCH  14  16
ENDBRANCH  11  14
ENDBRANCH   6  10
ENDBRANCH   3   6
ENDBRANCH   1   2
BRANCH   1  24
ATOM     24  C   UNL A   1      33.085  30.421  26.685  1.00  0.00     0.042 C 
BRANCH  24  25
ATOM     25  C   UNL A   1      34.004  29.888  27.774  1.00  0.00     0.118 C 
BRANCH  25  26
ATOM     26  N   UNL A   1      34.690  30.981  28.466  1.00  0.00    -0.352 N 
ATOM     27  C   UNL A   1      35.974  31.038  28.969  1.00  0.00     0.251 C 
ATOM     28  H   UNL A   1      34.155  31.798  28.592  1.00  0.00     0.163 HD
ATOM     29  O   UNL A   1      36.415  32.041  29.500  1.00  0.00    -0.269 OA
BRANCH  27  30
ATOM     30  C   UNL A   1      36.851  29.873  28.742  1.00  0.00     0.039 A 
ATOM     31  C   UNL A   1      37.072  29.023  29.830  1.00  0.00     0.014 A 
ATOM     32  C   UNL A   1      37.618  29.783  27.583  1.00  0.00     0.014 A 
ATOM     33  C   UNL A   1      38.213  28.231  29.844  1.00  0.00     0.010 A 
ATOM     34  C   UNL A   1      38.791  29.051  27.629  1.00  0.00     0.010 A 
ATOM     35  C   UNL A   1      39.118  28.332  28.786  1.00  0.00    -0.014 A 
BRANCH  35  36
ATOM     36  C   UNL A   1      40.472  27.805  28.872  1.00  0.00     0.031 A 
ATOM     37  C   UNL A   1      40.752  26.405  28.504  1.00  0.00     0.074 A 
ATOM     38  C   UNL A   1      41.483  28.582  29.318  1.00  0.00     0.049 A 
ATOM     39  N   UNL A   1      41.775  25.745  28.929  1.00  0.00    -0.248 NA
ATOM     40  C   UNL A   1      39.844  25.592  27.703  1.00  0.00     0.031 C 
ATOM     41  C   UNL A   1      42.912  28.286  29.279  1.00  0.00     0.029 A 
ATOM     42  N   UNL A   1      41.392  29.717  30.121  1.00  0.00    -0.354 N 
ATOM     43  C   UNL A   1      41.842  24.573  28.224  1.00  0.00     0.074 A 
ATOM     44  C   UNL A   1      40.542  24.454  27.614  1.00  0.00     0.031 C 
ATOM     45  C   UNL A   1      43.552  29.055  30.171  1.00  0.00     0.029 A 
ATOM     46  C   UNL A   1      42.535  29.736  30.944  1.00  0.00     0.049 A 
ATOM     47  H   UNL A   1      40.666  30.381  30.114  1.00  0.00     0.167 HD
ATOM     48  C   UNL A   1      43.045  23.936  28.133  1.00  0.00     0.034 A 
ATOM     49  C   UNL A   1      42.425  29.677  32.303  1.00  0.00     0.034 A 
ATOM     50  C   UNL A   1      44.021  24.499  29.081  1.00  0.00     0.049 A 
ATOM     51  C   UNL A   1      43.116  28.469  32.918  1.00  0.00     0.074 A 
ATOM     52  C   UNL A   1      45.194  25.222  28.947  1.00  0.00     0.029 A 
ATOM     53  N   UNL A   1      43.718  24.509  30.443  1.00  0.00    -0.354 N 
ATOM     54  N   UNL A   1      43.529  27.430  32.243  1.00  0.00    -0.248 NA
ATOM     55  C   UNL A   1      43.379  28.331  34.345  1.00  0.00     0.031 C 
ATOM     56  C   UNL A   1      45.578  25.689  30.237  1.00  0.00     0.029 A 
ATOM     57  C   UNL A   1      44.658  25.222  31.161  1.00  0.00     0.049 A 
ATOM     58  H   UNL A   1      42.935  24.064  30.841  1.00  0.00     0.167 HD
ATOM     59  C   UNL A   1      44.082  26.498  33.092  1.00  0.00     0.074 A 
ATOM     60  C   UNL A   1      43.965  27.120  34.400  1.00  0.00     0.031 C 
ATOM     61  C   UNL A   1      44.567  25.302  32.621  1.00  0.00     0.034 A 
BRANCH  48  62
ATOM     62  C   UNL A   1      43.442  22.939  27.050  1.00  0.00     0.023 A 
ATOM     63  C   UNL A   1      42.778  21.691  26.998  1.00  0.00     0.031 A 
ATOM     64  C   UNL A   1      44.507  23.073  26.131  1.00  0.00     0.131 A 
ATOM     65  C   UNL A   1      43.191  20.663  26.123  1.00  0.00     0.055 A 
ATOM     66  C   UNL A   1      44.887  22.069  25.231  1.00  0.00     0.041 A 
ATOM     67  F   UNL A   1      45.282  24.157  26.066  1.00  0.00    -0.206 F 
ATOM     68  C   UNL A   1      44.238  20.850  25.230  1.00  0.00     0.022 A 
BRANCH  65  69
ATOM     69  S   UNL A   1      42.392  19.037  26.215  1.00  0.00     0.124 S 
ATOM     70  O   UNL A   1      41.051  19.325  25.718  1.00  0.00    -0.237 OA
ATOM     71  O   UNL A   1      43.244  18.223  25.356  1.00  0.00    -0.237 OA
ATOM     72  O   UNL A   1      42.460  18.707  27.639  1.00  0.00    -0.744 OA
ENDBRANCH  65  69
ENDBRANCH  48  62
BRANCH  49  73
ATOM     73  C   UNL A   1      41.179  30.338  32.799  1.00  0.00     0.023 A 
ATOM     74  C   UNL A   1      41.164  31.755  32.828  1.00  0.00     0.031 A 
ATOM     75  C   UNL A   1      39.948  29.671  32.818  1.00  0.00     0.131 A 
ATOM     76  C   UNL A   1      39.956  32.456  32.689  1.00  0.00     0.055 A 
ATOM     77  C   UNL A   1      38.740  30.379  32.760  1.00  0.00     0.041 A 
ATOM     78  F   UNL A   1      39.892  28.333  32.761  1.00  0.00    -0.206 F 
ATOM     79  C   UNL A   1      38.742  31.772  32.650  1.00  0.00     0.022 A 
BRANCH  76  80
ATOM     80  S   UNL A   1      40.016  34.237  32.320  1.00  0.00     0.124 S 
ATOM     81  O   UNL A   1      40.157  34.823  33.646  1.00  0.00    -0.237 OA
ATOM     82  O   UNL A   1      41.179  34.364  31.440  1.00  0.00    -0.237 OA
ATOM     83  O   UNL A   1      38.746  34.505  31.647  1.00  0.00    -0.744 OA
ENDBRANCH  76  80
ENDBRANCH  49  73
BRANCH  61  84
ATOM     84  C   UNL A   1      45.052  24.098  33.433  1.00  0.00     0.023 A 
ATOM     85  C   UNL A   1      46.346  23.949  33.952  1.00  0.00     0.031 A 
ATOM     86  C   UNL A   1      44.166  23.028  33.744  1.00  0.00     0.131 A 
ATOM     87  C   UNL A   1      46.720  22.815  34.707  1.00  0.00     0.055 A 
ATOM     88  C   UNL A   1      44.527  21.917  34.515  1.00  0.00     0.041 A 
ATOM     89  F   UNL A   1      42.892  23.012  33.329  1.00  0.00    -0.206 F 
ATOM     90  C   UNL A   1      45.815  21.802  35.002  1.00  0.00     0.022 A 
BRANCH  87  91
ATOM     91  S   UNL A   1      48.435  22.685  35.281  1.00  0.00     0.124 S 
ATOM     92  O   UNL A   1      48.949  24.025  35.011  1.00  0.00    -0.237 OA
ATOM     93  O   UNL A   1      48.266  22.346  36.690  1.00  0.00    -0.237 OA
ATOM     94  O   UNL A   1      49.002  21.624  34.451  1.00  0.00    -0.744 OA
ENDBRANCH  87  91
ENDBRANCH  61  84
ENDBRANCH  35  36
ENDBRANCH  27  30
ENDBRANCH  25  26
ENDBRANCH  24  25
ENDBRANCH   1  24
TORSDOF 18
ENDMDL
MODEL 3
REMARK VINA RESULT:     -11.6      4.134      9.977
REMARK SMILES CC[C@](C)(NC(=O)N(C)Cc1cccc(C)c1)C(=O)NCCCNC(=O)c1ccc(-c2c3nc(c(-c4cc(S(=O)(=O)[O-])ccc4F)c4ccc([nH]4)c(-c4cc(S(=O)(=O)[O-])ccc4F)c4nc(c(-c5cc(S(=O)(=O)[O-])ccc5F)c5ccc2[nH]5)C=C4)C=C3)cc1
REMARK SMILES IDX 21 1 20 2 18 3 19 4 3 6 4 7 2 8 1 9 5 10 6 11 7 13 8 14 9 15
REMARK SMILES IDX 10 16 11 17 12 18 17 19 13 20 15 21 14 22 16 23 22 24 23 25
REMARK SMILES IDX 24 26 25 27 26 29 27 30 28 31 89 32 29 33 88 34 30 35 31 36
REMARK SMILES IDX 32 37 82 38 33 39 87 40 81 41 83 42 34 43 86 44 80 45 79 46
REMARK SMILES IDX 35 48 67 49 47 50 66 51 48 52 51 53 65 54 84 55 49 56 50 57
REMARK SMILES IDX 64 59 85 60 52 61 36 62 37 63 45 64 38 65 44 66 46 67 43 68
REMARK SMILES IDX 39 69 40 70 41 71 42 72 68 73 69 74 77 75 70 76 76 77 78 78
REMARK SMILES IDX 75 79 71 80 72 81 73 82 74 83 53 84 54 85 62 86 55 87 61 88
REMARK SMILES IDX 63 89 60 90 56 91 57 92 58 93 59 94
REMARK H PARENT 20 5 5 12 24 28 83 47 51 58
REMARK Flexibility Score: inf
ROOT
ATOM      1  C   UNL A   1      32.911  29.742  25.201  1.00  0.00     0.117 C 
ENDROOT
BRANCH   1   2
ATOM      2  N   UNL A   1      31.803  29.278  24.382  1.00  0.00    -0.354 N 
ATOM      3  C   UNL A   1      31.319  28.035  24.087  1.00  0.00     0.245 C 
ATOM      4  O   UNL A   1      30.211  27.975  23.539  1.00  0.00    -0.272 OA
ATOM      5  H   UNL A   1      31.300  30.007  23.953  1.00  0.00     0.163 HD
BRANCH   3   6
ATOM      6  C   UNL A   1      32.042  26.711  24.508  1.00  0.00     0.117 C 
ATOM      7  C   UNL A   1      32.357  26.723  26.026  1.00  0.00     0.045 C 
BRANCH   6   8
ATOM      8  C   UNL A   1      33.419  26.663  23.762  1.00  0.00     0.035 C 
ATOM      9  C   UNL A   1      33.407  27.159  22.318  1.00  0.00     0.007 C 
ENDBRANCH   6   8
BRANCH   6  10
ATOM     10  N   UNL A   1      31.330  25.434  24.204  1.00  0.00    -0.324 N 
ATOM     11  C   UNL A   1      31.689  24.136  24.054  1.00  0.00     0.318 C 
ATOM     12  H   UNL A   1      30.362  25.566  24.084  1.00  0.00     0.166 HD
ATOM     13  O   UNL A   1      30.966  23.483  23.291  1.00  0.00    -0.249 OA
BRANCH  11  14
ATOM     14  N   UNL A   1      32.734  23.553  24.720  1.00  0.00    -0.324 N 
ATOM     15  C   UNL A   1      32.648  23.000  26.064  1.00  0.00     0.149 C 
BRANCH  14  16
ATOM     16  C   UNL A   1      33.895  23.154  23.891  1.00  0.00     0.156 C 
BRANCH  16  17
ATOM     17  C   UNL A   1      35.188  22.899  24.637  1.00  0.00    -0.028 A 
ATOM     18  C   UNL A   1      35.949  23.969  25.132  1.00  0.00     0.005 A 
ATOM     19  C   UNL A   1      35.712  21.598  24.715  1.00  0.00     0.009 A 
ATOM     20  C   UNL A   1      37.231  23.746  25.632  1.00  0.00     0.001 A 
ATOM     21  C   UNL A   1      37.042  21.391  25.086  1.00  0.00    -0.051 A 
ATOM     22  C   UNL A   1      37.779  22.463  25.595  1.00  0.00     0.003 A 
ATOM     23  C   UNL A   1      37.695  20.062  24.855  1.00  0.00     0.044 C 
ENDBRANCH  16  17
ENDBRANCH  14  16
ENDBRANCH  11  14
ENDBRANCH   6  10
ENDBRANCH   3   6
ENDBRANCH   1   2
BRANCH   1  24
ATOM     24  C   UNL A   1      32.521  30.499  26.463  1.00  0.00     0.042 C 
BRANCH  24  25
ATOM     25  C   UNL A   1      33.313  30.082  27.695  1.00  0.00     0.118 C 
BRANCH  25  26
ATOM     26  N   UNL A   1      33.934  31.239  28.339  1.00  0.00    -0.352 N 
ATOM     27  C   UNL A   1      35.206  31.385  28.854  1.00  0.00     0.251 C 
ATOM     28  H   UNL A   1      33.358  32.034  28.417  1.00  0.00     0.163 HD
ATOM     29  O   UNL A   1      35.590  32.434  29.338  1.00  0.00    -0.269 OA
BRANCH  27  30
ATOM     30  C   UNL A   1      36.143  30.255  28.695  1.00  0.00     0.039 A 
ATOM     31  C   UNL A   1      36.613  29.652  29.865  1.00  0.00     0.014 A 
ATOM     32  C   UNL A   1      36.721  29.987  27.457  1.00  0.00     0.014 A 
ATOM     33  C   UNL A   1      37.812  28.951  29.827  1.00  0.00     0.010 A 
ATOM     34  C   UNL A   1      37.951  29.354  27.432  1.00  0.00     0.010 A 
ATOM     35  C   UNL A   1      38.523  28.899  28.627  1.00  0.00    -0.014 A 
BRANCH  35  36
ATOM     36  C   UNL A   1      39.918  28.484  28.572  1.00  0.00     0.031 A 
ATOM     37  C   UNL A   1      40.268  27.060  28.423  1.00  0.00     0.074 A 
ATOM     38  C   UNL A   1      40.909  29.396  28.687  1.00  0.00     0.049 A 
ATOM     39  N   UNL A   1      41.403  26.562  28.777  1.00  0.00    -0.248 NA
ATOM     40  C   UNL A   1      39.326  26.051  27.952  1.00  0.00     0.031 C 
ATOM     41  C   UNL A   1      42.335  29.188  28.455  1.00  0.00     0.029 A 
ATOM     42  N   UNL A   1      40.839  30.657  29.273  1.00  0.00    -0.354 N 
ATOM     43  C   UNL A   1      41.468  25.280  28.296  1.00  0.00     0.074 A 
ATOM     44  C   UNL A   1      40.105  24.963  27.952  1.00  0.00     0.031 C 
ATOM     45  C   UNL A   1      43.032  30.155  29.069  1.00  0.00     0.029 A 
ATOM     46  C   UNL A   1      42.091  30.909  29.869  1.00  0.00     0.049 A 
ATOM     47  H   UNL A   1      40.061  31.260  29.271  1.00  0.00     0.167 HD
ATOM     48  C   UNL A   1      42.696  24.716  28.116  1.00  0.00     0.034 A 
ATOM     49  C   UNL A   1      42.202  31.110  31.214  1.00  0.00     0.034 A 
ATOM     50  C   UNL A   1      43.752  25.512  28.763  1.00  0.00     0.049 A 
ATOM     51  C   UNL A   1      43.093  30.091  31.909  1.00  0.00     0.074 A 
ATOM     52  C   UNL A   1      44.816  26.268  28.298  1.00  0.00     0.029 A 
ATOM     53  N   UNL A   1      43.669  25.770  30.131  1.00  0.00    -0.354 N 
ATOM     54  N   UNL A   1      43.491  28.968  31.375  1.00  0.00    -0.248 NA
ATOM     55  C   UNL A   1      43.590  30.251  33.271  1.00  0.00     0.031 C 
ATOM     56  C   UNL A   1      45.353  27.001  29.395  1.00  0.00     0.029 A 
ATOM     57  C   UNL A   1      44.638  26.667  30.534  1.00  0.00     0.049 A 
ATOM     58  H   UNL A   1      43.004  25.363  30.733  1.00  0.00     0.167 HD
ATOM     59  C   UNL A   1      44.256  28.256  32.270  1.00  0.00     0.074 A 
ATOM     60  C   UNL A   1      44.290  29.114  33.443  1.00  0.00     0.031 C 
ATOM     61  C   UNL A   1      44.772  27.025  31.948  1.00  0.00     0.034 A 
BRANCH  48  62
ATOM     62  C   UNL A   1      43.010  23.553  27.180  1.00  0.00     0.023 A 
ATOM     63  C   UNL A   1      42.274  22.353  27.317  1.00  0.00     0.031 A 
ATOM     64  C   UNL A   1      44.059  23.490  26.236  1.00  0.00     0.131 A 
ATOM     65  C   UNL A   1      42.607  21.188  26.593  1.00  0.00     0.055 A 
ATOM     66  C   UNL A   1      44.360  22.348  25.482  1.00  0.00     0.041 A 
ATOM     67  F   UNL A   1      44.893  24.506  26.004  1.00  0.00    -0.206 F 
ATOM     68  C   UNL A   1      43.642  21.183  25.666  1.00  0.00     0.022 A 
BRANCH  65  69
ATOM     69  S   UNL A   1      41.718  19.642  26.928  1.00  0.00     0.124 S 
ATOM     70  O   UNL A   1      41.169  19.313  25.617  1.00  0.00    -0.237 OA
ATOM     71  O   UNL A   1      42.781  18.775  27.425  1.00  0.00    -0.237 OA
ATOM     72  O   UNL A   1      40.725  20.033  27.928  1.00  0.00    -0.744 OA
ENDBRANCH  65  69
ENDBRANCH  48  62
BRANCH  49  73
ATOM     73  C   UNL A   1      40.994  31.775  31.789  1.00  0.00     0.023 A 
ATOM     74  C   UNL A   1      40.144  30.986  32.605  1.00  0.00     0.031 A 
ATOM     75  C   UNL A   1      40.906  33.168  31.910  1.00  0.00     0.131 A 
ATOM     76  C   UNL A   1      39.385  31.579  33.625  1.00  0.00     0.055 A 
ATOM     77  C   UNL A   1      40.084  33.760  32.879  1.00  0.00     0.041 A 
ATOM     78  F   UNL A   1      41.703  33.970  31.190  1.00  0.00    -0.206 F 
ATOM     79  C   UNL A   1      39.356  32.966  33.769  1.00  0.00     0.022 A 
BRANCH  76  80
ATOM     80  S   UNL A   1      38.641  30.511  34.896  1.00  0.00     0.124 S 
ATOM     81  O   UNL A   1      37.680  31.406  35.527  1.00  0.00    -0.237 OA
ATOM     82  O   UNL A   1      38.071  29.407  34.123  1.00  0.00    -0.237 OA
ATOM     83  O   UNL A   1      39.771  30.112  35.733  1.00  0.00    -0.744 OA
ENDBRANCH  76  80
ENDBRANCH  49  73
BRANCH  61  84
ATOM     84  C   UNL A   1      45.491  26.035  32.869  1.00  0.00     0.023 A 
ATOM     85  C   UNL A   1      44.857  25.211  33.810  1.00  0.00     0.031 A 
ATOM     86  C   UNL A   1      46.902  25.869  32.796  1.00  0.00     0.131 A 
ATOM     87  C   UNL A   1      45.584  24.307  34.618  1.00  0.00     0.055 A 
ATOM     88  C   UNL A   1      47.621  24.954  33.576  1.00  0.00     0.041 A 
ATOM     89  F   UNL A   1      47.662  26.575  31.948  1.00  0.00    -0.206 F 
ATOM     90  C   UNL A   1      46.961  24.165  34.499  1.00  0.00     0.022 A 
BRANCH  87  91
ATOM     91  S   UNL A   1      44.680  23.330  35.850  1.00  0.00     0.124 S 
ATOM     92  O   UNL A   1      43.734  22.590  35.019  1.00  0.00    -0.237 OA
ATOM     93  O   UNL A   1      45.743  22.535  36.456  1.00  0.00    -0.237 OA
ATOM     94  O   UNL A   1      44.083  24.338  36.724  1.00  0.00    -0.744 OA
ENDBRANCH  87  91
ENDBRANCH  61  84
ENDBRANCH  35  36
ENDBRANCH  27  30
ENDBRANCH  25  26
ENDBRANCH  24  25
ENDBRANCH   1  24
TORSDOF 18
ENDMDL
