MODEL 1
REMARK VINA RESULT:     -13.1      0.000      0.000
REMARK SMILES O=C(C/C(=C/c1ccc(N2CCOCC2)c(F)c1)c1nc2ccccc2s1)NCCCNC(=O)c1ccc(-c2c3nc(c(-c4cc(S(=O)(=O)[O-])ccc4F)c4ccc([nH]4)c(-c4cc(S(=O)(=O)[O-])ccc4F)c4nc(c(-c5cc(S(=O)(=O)[O-])ccc5F)c5ccc2[nH]5)C=C4)C=C3)cc1
REMARK SMILES IDX 30 1 29 2 28 3 1 4 2 5 3 7 4 8 5 9 19 10 20 11 27 12 21 13
REMARK SMILES IDX 26 14 22 15 25 16 23 17 24 18 6 19 7 20 18 21 8 22 16 23
REMARK SMILES IDX 9 24 17 25 10 26 11 27 15 28 12 29 14 30 13 31 31 32 32 33
REMARK SMILES IDX 33 34 34 36 35 37 36 38 97 39 37 40 96 41 38 42 39 43 40 44
REMARK SMILES IDX 90 45 41 46 95 47 89 48 91 49 42 50 94 51 88 52 87 53 43 55
REMARK SMILES IDX 75 56 55 57 74 58 56 59 59 60 73 61 92 62 57 63 58 64 72 66
REMARK SMILES IDX 93 67 60 68 44 69 45 70 53 71 46 72 52 73 54 74 51 75 47 76
REMARK SMILES IDX 48 77 49 78 50 79 76 80 77 81 85 82 78 83 84 84 86 85 83 86
REMARK SMILES IDX 79 87 80 88 81 89 82 90 61 91 62 92 70 93 63 94 69 95 71 96
REMARK SMILES IDX 68 97 64 98 65 99 66 100 67 101
REMARK H PARENT 28 6 32 35 91 54 59 65
REMARK Flexibility Score: inf
ROOT
ATOM      1  C   UNL A   1      35.474  22.021  25.851  1.00  0.00     0.042 C 
ENDROOT
BRANCH   1   2
ATOM      2  C   UNL A   1      34.203  21.736  25.064  1.00  0.00     0.117 C 
BRANCH   2   3
ATOM      3  N   UNL A   1      33.090  22.576  25.463  1.00  0.00    -0.356 N 
ATOM      4  O   UNL A   1      31.917  22.374  23.498  1.00  0.00    -0.275 OA
ATOM      5  C   UNL A   1      31.986  22.768  24.659  1.00  0.00     0.224 C 
ATOM      6  H   UNL A   1      33.123  23.025  26.339  1.00  0.00     0.163 HD
BRANCH   5   7
ATOM      7  C   UNL A   1      30.842  23.537  25.309  1.00  0.00     0.138 C 
BRANCH   7   8
ATOM      8  C   UNL A   1      30.812  25.011  24.921  1.00  0.00    -0.002 C 
ATOM      9  C   UNL A   1      29.972  25.383  23.923  1.00  0.00     0.015 C 
BRANCH   8  10
ATOM     10  C   UNL A   1      31.588  26.032  25.589  1.00  0.00     0.121 A 
ATOM     11  N   UNL A   1      31.101  27.014  26.326  1.00  0.00    -0.236 NA
ATOM     12  S   UNL A   1      33.306  26.100  25.394  1.00  0.00    -0.114 S 
ATOM     13  C   UNL A   1      32.083  27.939  26.632  1.00  0.00     0.082 A 
ATOM     14  C   UNL A   1      33.366  27.609  26.201  1.00  0.00     0.055 A 
ATOM     15  C   UNL A   1      31.889  29.161  27.307  1.00  0.00     0.030 A 
ATOM     16  C   UNL A   1      34.468  28.449  26.428  1.00  0.00     0.021 A 
ATOM     17  C   UNL A   1      32.976  30.014  27.525  1.00  0.00     0.002 A 
ATOM     18  C   UNL A   1      34.250  29.660  27.092  1.00  0.00     0.002 A 
ENDBRANCH   8  10
BRANCH   9  19
ATOM     19  C   UNL A   1      29.777  26.740  23.387  1.00  0.00    -0.022 A 
ATOM     20  C   UNL A   1      30.813  27.435  22.758  1.00  0.00     0.010 A 
ATOM     21  C   UNL A   1      28.535  27.357  23.520  1.00  0.00     0.049 A 
ATOM     22  C   UNL A   1      30.622  28.751  22.317  1.00  0.00     0.029 A 
ATOM     23  C   UNL A   1      28.361  28.671  23.083  1.00  0.00     0.147 A 
ATOM     24  C   UNL A   1      29.397  29.410  22.485  1.00  0.00     0.073 A 
ATOM     25  F   UNL A   1      27.140  29.216  23.222  1.00  0.00    -0.205 F 
BRANCH  24  26
ATOM     26  N   UNL A   1      29.240  30.719  22.080  1.00  0.00    -0.365 N 
ATOM     27  C   UNL A   1      29.419  31.848  22.998  1.00  0.00     0.145 C 
ATOM     28  C   UNL A   1      28.848  31.079  20.715  1.00  0.00     0.145 C 
ATOM     29  C   UNL A   1      28.182  32.754  22.952  1.00  0.00     0.181 C 
ATOM     30  C   UNL A   1      27.634  32.025  20.773  1.00  0.00     0.181 C 
ATOM     31  O   UNL A   1      27.888  33.173  21.605  1.00  0.00    -0.378 OA
ENDBRANCH  24  26
ENDBRANCH   9  19
ENDBRANCH   7   8
ENDBRANCH   5   7
ENDBRANCH   2   3
ENDBRANCH   1   2
BRANCH   1  32
ATOM     32  C   UNL A   1      36.744  22.076  25.008  1.00  0.00     0.118 C 
BRANCH  32  33
ATOM     33  N   UNL A   1      37.679  20.997  25.299  1.00  0.00    -0.352 N 
ATOM     34  C   UNL A   1      38.924  21.034  25.883  1.00  0.00     0.251 C 
ATOM     35  H   UNL A   1      37.372  20.100  25.036  1.00  0.00     0.163 HD
ATOM     36  O   UNL A   1      39.601  20.009  25.914  1.00  0.00    -0.269 OA
BRANCH  34  37
ATOM     37  C   UNL A   1      39.462  22.297  26.436  1.00  0.00     0.039 A 
ATOM     38  C   UNL A   1      40.471  22.230  27.402  1.00  0.00     0.014 A 
ATOM     39  C   UNL A   1      38.986  23.541  26.011  1.00  0.00     0.014 A 
ATOM     40  C   UNL A   1      41.065  23.406  27.870  1.00  0.00     0.010 A 
ATOM     41  C   UNL A   1      39.622  24.708  26.430  1.00  0.00     0.010 A 
ATOM     42  C   UNL A   1      40.682  24.652  27.348  1.00  0.00    -0.014 A 
BRANCH  42  43
ATOM     43  C   UNL A   1      41.409  25.899  27.709  1.00  0.00     0.031 A 
ATOM     44  C   UNL A   1      40.742  26.963  28.535  1.00  0.00     0.074 A 
ATOM     45  C   UNL A   1      42.655  26.099  27.234  1.00  0.00     0.049 A 
ATOM     46  N   UNL A   1      41.175  28.158  28.846  1.00  0.00    -0.248 NA
ATOM     47  C   UNL A   1      39.406  26.650  29.064  1.00  0.00     0.031 C 
ATOM     48  C   UNL A   1      43.407  25.152  26.407  1.00  0.00     0.029 A 
ATOM     49  N   UNL A   1      43.508  27.168  27.369  1.00  0.00    -0.354 N 
ATOM     50  C   UNL A   1      40.164  28.745  29.598  1.00  0.00     0.074 A 
ATOM     51  C   UNL A   1      39.079  27.788  29.661  1.00  0.00     0.031 C 
ATOM     52  C   UNL A   1      44.615  25.669  26.134  1.00  0.00     0.029 A 
ATOM     53  C   UNL A   1      44.707  27.004  26.717  1.00  0.00     0.049 A 
ATOM     54  H   UNL A   1      43.281  27.974  27.885  1.00  0.00     0.167 HD
ATOM     55  C   UNL A   1      40.149  29.963  30.192  1.00  0.00     0.034 A 
ATOM     56  C   UNL A   1      45.758  27.837  26.583  1.00  0.00     0.034 A 
ATOM     57  C   UNL A   1      41.240  30.905  30.137  1.00  0.00     0.049 A 
ATOM     58  C   UNL A   1      45.703  29.198  27.221  1.00  0.00     0.074 A 
ATOM     59  C   UNL A   1      41.331  32.151  30.735  1.00  0.00     0.029 A 
ATOM     60  N   UNL A   1      42.428  30.710  29.446  1.00  0.00    -0.354 N 
ATOM     61  N   UNL A   1      44.733  29.743  27.917  1.00  0.00    -0.248 NA
ATOM     62  C   UNL A   1      46.882  30.059  27.053  1.00  0.00     0.031 C 
ATOM     63  C   UNL A   1      42.547  32.731  30.361  1.00  0.00     0.029 A 
ATOM     64  C   UNL A   1      43.246  31.821  29.585  1.00  0.00     0.049 A 
ATOM     65  H   UNL A   1      42.657  29.902  28.933  1.00  0.00     0.167 HD
ATOM     66  C   UNL A   1      45.193  31.001  28.287  1.00  0.00     0.074 A 
ATOM     67  C   UNL A   1      46.529  31.135  27.742  1.00  0.00     0.031 C 
ATOM     68  C   UNL A   1      44.568  31.954  29.022  1.00  0.00     0.034 A 
BRANCH  55  69
ATOM     69  C   UNL A   1      38.904  30.359  30.942  1.00  0.00     0.023 A 
ATOM     70  C   UNL A   1      37.902  31.139  30.341  1.00  0.00     0.031 A 
ATOM     71  C   UNL A   1      38.706  29.929  32.265  1.00  0.00     0.131 A 
ATOM     72  C   UNL A   1      36.765  31.502  31.078  1.00  0.00     0.055 A 
ATOM     73  C   UNL A   1      37.543  30.240  32.973  1.00  0.00     0.041 A 
ATOM     74  F   UNL A   1      39.640  29.196  32.892  1.00  0.00    -0.206 F 
ATOM     75  C   UNL A   1      36.567  31.037  32.381  1.00  0.00     0.022 A 
BRANCH  72  76
ATOM     76  S   UNL A   1      35.579  32.657  30.337  1.00  0.00     0.124 S 
ATOM     77  O   UNL A   1      34.399  32.440  31.170  1.00  0.00    -0.237 OA
ATOM     78  O   UNL A   1      36.247  33.944  30.498  1.00  0.00    -0.237 OA
ATOM     79  O   UNL A   1      35.459  32.186  28.959  1.00  0.00    -0.744 OA
ENDBRANCH  72  76
ENDBRANCH  55  69
BRANCH  56  80
ATOM     80  C   UNL A   1      46.949  27.410  25.799  1.00  0.00     0.023 A 
ATOM     81  C   UNL A   1      47.076  27.746  24.442  1.00  0.00     0.031 A 
ATOM     82  C   UNL A   1      47.980  26.665  26.399  1.00  0.00     0.131 A 
ATOM     83  C   UNL A   1      48.202  27.320  23.721  1.00  0.00     0.055 A 
ATOM     84  C   UNL A   1      49.115  26.276  25.687  1.00  0.00     0.041 A 
ATOM     85  F   UNL A   1      47.907  26.330  27.697  1.00  0.00    -0.206 F 
ATOM     86  C   UNL A   1      49.227  26.597  24.338  1.00  0.00     0.022 A 
BRANCH  83  87
ATOM     87  S   UNL A   1      48.300  27.704  21.952  1.00  0.00     0.124 S 
ATOM     88  O   UNL A   1      46.978  28.265  21.696  1.00  0.00    -0.237 OA
ATOM     89  O   UNL A   1      49.416  28.642  21.905  1.00  0.00    -0.237 OA
ATOM     90  O   UNL A   1      48.558  26.404  21.336  1.00  0.00    -0.744 OA
ENDBRANCH  83  87
ENDBRANCH  56  80
BRANCH  68  91
ATOM     91  C   UNL A   1      45.335  33.217  29.313  1.00  0.00     0.023 A 
ATOM     92  C   UNL A   1      45.367  34.286  28.402  1.00  0.00     0.031 A 
ATOM     93  C   UNL A   1      46.015  33.363  30.535  1.00  0.00     0.131 A 
ATOM     94  C   UNL A   1      46.094  35.445  28.715  1.00  0.00     0.055 A 
ATOM     95  C   UNL A   1      46.698  34.535  30.860  1.00  0.00     0.041 A 
ATOM     96  F   UNL A   1      46.012  32.370  31.439  1.00  0.00    -0.206 F 
ATOM     97  C   UNL A   1      46.745  35.582  29.944  1.00  0.00     0.022 A 
BRANCH  94  98
ATOM     98  S   UNL A   1      46.213  36.763  27.474  1.00  0.00     0.124 S 
ATOM     99  O   UNL A   1      45.100  37.629  27.846  1.00  0.00    -0.237 OA
ATOM    100  O   UNL A   1      47.549  37.303  27.716  1.00  0.00    -0.237 OA
ATOM    101  O   UNL A   1      46.054  36.057  26.205  1.00  0.00    -0.744 OA
ENDBRANCH  94  98
ENDBRANCH  68  91
ENDBRANCH  42  43
ENDBRANCH  34  37
ENDBRANCH  32  33
ENDBRANCH   1  32
TORSDOF 17
ENDMDL
MODEL 2
REMARK VINA RESULT:     -13.0      5.326     10.836
REMARK SMILES O=C(C/C(=C/c1ccc(N2CCOCC2)c(F)c1)c1nc2ccccc2s1)NCCCNC(=O)c1ccc(-c2c3nc(c(-c4cc(S(=O)(=O)[O-])ccc4F)c4ccc([nH]4)c(-c4cc(S(=O)(=O)[O-])ccc4F)c4nc(c(-c5cc(S(=O)(=O)[O-])ccc5F)c5ccc2[nH]5)C=C4)C=C3)cc1
REMARK SMILES IDX 30 1 29 2 28 3 1 4 2 5 3 7 4 8 5 9 19 10 20 11 27 12 21 13
REMARK SMILES IDX 26 14 22 15 25 16 23 17 24 18 6 19 7 20 18 21 8 22 16 23
REMARK SMILES IDX 9 24 17 25 10 26 11 27 15 28 12 29 14 30 13 31 31 32 32 33
REMARK SMILES IDX 33 34 34 36 35 37 36 38 97 39 37 40 96 41 38 42 39 43 40 44
REMARK SMILES IDX 90 45 41 46 95 47 89 48 91 49 42 50 94 51 88 52 87 53 43 55
REMARK SMILES IDX 75 56 55 57 74 58 56 59 59 60 73 61 92 62 57 63 58 64 72 66
REMARK SMILES IDX 93 67 60 68 44 69 45 70 53 71 46 72 52 73 54 74 51 75 47 76
REMARK SMILES IDX 48 77 49 78 50 79 76 80 77 81 85 82 78 83 84 84 86 85 83 86
REMARK SMILES IDX 79 87 80 88 81 89 82 90 61 91 62 92 70 93 63 94 69 95 71 96
REMARK SMILES IDX 68 97 64 98 65 99 66 100 67 101
REMARK H PARENT 28 6 32 35 91 54 59 65
REMARK Flexibility Score: inf
ROOT
ATOM      1  C   UNL A   1      32.447  29.472  24.479  1.00  0.00     0.042 C 
ENDROOT
BRANCH   1   2
ATOM      2  C   UNL A   1      33.234  28.327  23.857  1.00  0.00     0.117 C 
BRANCH   2   3
ATOM      3  N   UNL A   1      32.398  27.200  23.492  1.00  0.00    -0.356 N 
ATOM      4  O   UNL A   1      33.555  26.651  21.585  1.00  0.00    -0.275 OA
ATOM      5  C   UNL A   1      32.678  26.397  22.406  1.00  0.00     0.224 C 
ATOM      6  H   UNL A   1      31.603  27.000  24.038  1.00  0.00     0.163 HD
BRANCH   5   7
ATOM      7  C   UNL A   1      31.795  25.161  22.274  1.00  0.00     0.138 C 
BRANCH   7   8
ATOM      8  C   UNL A   1      32.384  23.928  22.950  1.00  0.00    -0.002 C 
ATOM      9  C   UNL A   1      31.655  22.784  22.919  1.00  0.00     0.015 C 
BRANCH   8  10
ATOM     10  C   UNL A   1      33.689  23.900  23.571  1.00  0.00     0.121 A 
ATOM     11  N   UNL A   1      34.766  23.313  23.082  1.00  0.00    -0.236 NA
ATOM     12  S   UNL A   1      33.934  24.601  25.135  1.00  0.00    -0.114 S 
ATOM     13  C   UNL A   1      35.782  23.279  24.019  1.00  0.00     0.082 A 
ATOM     14  C   UNL A   1      35.510  23.937  25.216  1.00  0.00     0.055 A 
ATOM     15  C   UNL A   1      37.026  22.633  23.870  1.00  0.00     0.030 A 
ATOM     16  C   UNL A   1      36.438  23.985  26.269  1.00  0.00     0.021 A 
ATOM     17  C   UNL A   1      37.953  22.658  24.917  1.00  0.00     0.002 A 
ATOM     18  C   UNL A   1      37.661  23.329  26.102  1.00  0.00     0.002 A 
ENDBRANCH   8  10
BRANCH   9  19
ATOM     19  C   UNL A   1      32.021  21.483  23.499  1.00  0.00    -0.022 A 
ATOM     20  C   UNL A   1      32.256  21.331  24.868  1.00  0.00     0.010 A 
ATOM     21  C   UNL A   1      32.154  20.374  22.665  1.00  0.00     0.049 A 
ATOM     22  C   UNL A   1      32.671  20.097  25.386  1.00  0.00     0.029 A 
ATOM     23  C   UNL A   1      32.575  19.153  23.194  1.00  0.00     0.147 A 
ATOM     24  C   UNL A   1      32.859  18.980  24.560  1.00  0.00     0.073 A 
ATOM     25  F   UNL A   1      32.673  18.111  22.349  1.00  0.00    -0.205 F 
BRANCH  24  26
ATOM     26  N   UNL A   1      33.305  17.785  25.083  1.00  0.00    -0.365 N 
ATOM     27  C   UNL A   1      34.647  17.263  24.807  1.00  0.00     0.145 C 
ATOM     28  C   UNL A   1      32.462  16.929  25.921  1.00  0.00     0.145 C 
ATOM     29  C   UNL A   1      34.547  15.826  24.280  1.00  0.00     0.181 C 
ATOM     30  C   UNL A   1      32.463  15.501  25.343  1.00  0.00     0.181 C 
ATOM     31  O   UNL A   1      33.799  14.988  25.182  1.00  0.00    -0.378 OA
ENDBRANCH  24  26
ENDBRANCH   9  19
ENDBRANCH   7   8
ENDBRANCH   5   7
ENDBRANCH   2   3
ENDBRANCH   1   2
BRANCH   1  32
ATOM     32  C   UNL A   1      32.698  29.680  25.969  1.00  0.00     0.118 C 
BRANCH  32  33
ATOM     33  N   UNL A   1      32.443  31.044  26.414  1.00  0.00    -0.352 N 
ATOM     34  C   UNL A   1      33.158  31.846  27.274  1.00  0.00     0.251 C 
ATOM     35  H   UNL A   1      31.632  31.457  26.041  1.00  0.00     0.163 HD
ATOM     36  O   UNL A   1      32.687  32.929  27.612  1.00  0.00    -0.269 OA
BRANCH  34  37
ATOM     37  C   UNL A   1      34.461  31.399  27.816  1.00  0.00     0.039 A 
ATOM     38  C   UNL A   1      35.472  32.348  27.998  1.00  0.00     0.014 A 
ATOM     39  C   UNL A   1      34.693  30.061  28.146  1.00  0.00     0.014 A 
ATOM     40  C   UNL A   1      36.678  31.973  28.598  1.00  0.00     0.010 A 
ATOM     41  C   UNL A   1      35.871  29.702  28.802  1.00  0.00     0.010 A 
ATOM     42  C   UNL A   1      36.866  30.658  29.053  1.00  0.00    -0.014 A 
BRANCH  42  43
ATOM     43  C   UNL A   1      38.071  30.277  29.838  1.00  0.00     0.031 A 
ATOM     44  C   UNL A   1      39.076  29.309  29.277  1.00  0.00     0.074 A 
ATOM     45  C   UNL A   1      38.225  30.756  31.090  1.00  0.00     0.049 A 
ATOM     46  N   UNL A   1      40.117  28.773  29.859  1.00  0.00    -0.248 NA
ATOM     47  C   UNL A   1      38.871  28.874  27.887  1.00  0.00     0.031 C 
ATOM     48  C   UNL A   1      37.312  31.688  31.756  1.00  0.00     0.029 A 
ATOM     49  N   UNL A   1      39.199  30.520  32.029  1.00  0.00    -0.354 N 
ATOM     50  C   UNL A   1      40.689  27.929  28.914  1.00  0.00     0.074 A 
ATOM     51  C   UNL A   1      39.852  27.996  27.733  1.00  0.00     0.031 C 
ATOM     52  C   UNL A   1      37.784  31.965  32.982  1.00  0.00     0.029 A 
ATOM     53  C   UNL A   1      39.000  31.193  33.212  1.00  0.00     0.049 A 
ATOM     54  H   UNL A   1      39.967  29.926  31.869  1.00  0.00     0.167 HD
ATOM     55  C   UNL A   1      41.814  27.181  29.017  1.00  0.00     0.034 A 
ATOM     56  C   UNL A   1      39.703  31.178  34.362  1.00  0.00     0.034 A 
ATOM     57  C   UNL A   1      42.650  27.131  30.191  1.00  0.00     0.049 A 
ATOM     58  C   UNL A   1      40.928  30.311  34.465  1.00  0.00     0.074 A 
ATOM     59  C   UNL A   1      43.828  26.428  30.378  1.00  0.00     0.029 A 
ATOM     60  N   UNL A   1      42.401  27.809  31.377  1.00  0.00    -0.354 N 
ATOM     61  N   UNL A   1      41.446  29.508  33.565  1.00  0.00    -0.248 NA
ATOM     62  C   UNL A   1      41.662  30.344  35.737  1.00  0.00     0.031 C 
ATOM     63  C   UNL A   1      44.261  26.635  31.692  1.00  0.00     0.029 A 
ATOM     64  C   UNL A   1      43.390  27.521  32.305  1.00  0.00     0.049 A 
ATOM     65  H   UNL A   1      41.634  28.406  31.535  1.00  0.00     0.167 HD
ATOM     66  C   UNL A   1      42.577  28.957  34.156  1.00  0.00     0.074 A 
ATOM     67  C   UNL A   1      42.670  29.521  35.487  1.00  0.00     0.031 C 
ATOM     68  C   UNL A   1      43.464  28.073  33.636  1.00  0.00     0.034 A 
BRANCH  55  69
ATOM     69  C   UNL A   1      42.201  26.335  27.831  1.00  0.00     0.023 A 
ATOM     70  C   UNL A   1      41.909  24.962  27.782  1.00  0.00     0.031 A 
ATOM     71  C   UNL A   1      42.847  26.917  26.726  1.00  0.00     0.131 A 
ATOM     72  C   UNL A   1      42.302  24.205  26.668  1.00  0.00     0.055 A 
ATOM     73  C   UNL A   1      43.179  26.171  25.593  1.00  0.00     0.041 A 
ATOM     74  F   UNL A   1      43.165  28.221  26.730  1.00  0.00    -0.206 F 
ATOM     75  C   UNL A   1      42.912  24.805  25.563  1.00  0.00     0.022 A 
BRANCH  72  76
ATOM     76  S   UNL A   1      42.074  22.407  26.713  1.00  0.00     0.124 S 
ATOM     77  O   UNL A   1      40.673  22.300  27.112  1.00  0.00    -0.237 OA
ATOM     78  O   UNL A   1      42.379  22.014  25.342  1.00  0.00    -0.237 OA
ATOM     79  O   UNL A   1      43.039  21.964  27.717  1.00  0.00    -0.744 OA
ENDBRANCH  72  76
ENDBRANCH  55  69
BRANCH  56  80
ATOM     80  C   UNL A   1      39.255  32.004  35.516  1.00  0.00     0.023 A 
ATOM     81  C   UNL A   1      38.494  31.439  36.553  1.00  0.00     0.031 A 
ATOM     82  C   UNL A   1      39.587  33.367  35.602  1.00  0.00     0.131 A 
ATOM     83  C   UNL A   1      38.072  32.242  37.623  1.00  0.00     0.055 A 
ATOM     84  C   UNL A   1      39.196  34.152  36.687  1.00  0.00     0.041 A 
ATOM     85  F   UNL A   1      40.321  33.947  34.639  1.00  0.00    -0.206 F 
ATOM     86  C   UNL A   1      38.428  33.591  37.703  1.00  0.00     0.022 A 
BRANCH  83  87
ATOM     87  S   UNL A   1      37.027  31.503  38.907  1.00  0.00     0.124 S 
ATOM     88  O   UNL A   1      36.866  30.141  38.410  1.00  0.00    -0.237 OA
ATOM     89  O   UNL A   1      37.853  31.658  40.100  1.00  0.00    -0.237 OA
ATOM     90  O   UNL A   1      35.820  32.326  38.879  1.00  0.00    -0.744 OA
ENDBRANCH  83  87
ENDBRANCH  56  80
BRANCH  68  91
ATOM     91  C   UNL A   1      44.638  27.683  34.496  1.00  0.00     0.023 A 
ATOM     92  C   UNL A   1      44.603  26.545  35.318  1.00  0.00     0.031 A 
ATOM     93  C   UNL A   1      45.818  28.447  34.465  1.00  0.00     0.131 A 
ATOM     94  C   UNL A   1      45.719  26.219  36.103  1.00  0.00     0.055 A 
ATOM     95  C   UNL A   1      46.941  28.092  35.213  1.00  0.00     0.041 A 
ATOM     96  F   UNL A   1      45.901  29.543  33.694  1.00  0.00    -0.206 F 
ATOM     97  C   UNL A   1      46.893  26.976  36.043  1.00  0.00     0.022 A 
BRANCH  94  98
ATOM     98  S   UNL A   1      45.608  24.811  37.241  1.00  0.00     0.124 S 
ATOM     99  O   UNL A   1      44.187  24.799  37.570  1.00  0.00    -0.237 OA
ATOM    100  O   UNL A   1      46.081  23.702  36.417  1.00  0.00    -0.237 OA
ATOM    101  O   UNL A   1      46.496  25.185  38.340  1.00  0.00    -0.744 OA
ENDBRANCH  94  98
ENDBRANCH  68  91
ENDBRANCH  42  43
ENDBRANCH  34  37
ENDBRANCH  32  33
ENDBRANCH   1  32
TORSDOF 17
ENDMDL
MODEL 3
REMARK VINA RESULT:     -12.9      2.981      7.685
REMARK SMILES O=C(C/C(=C/c1ccc(N2CCOCC2)c(F)c1)c1nc2ccccc2s1)NCCCNC(=O)c1ccc(-c2c3nc(c(-c4cc(S(=O)(=O)[O-])ccc4F)c4ccc([nH]4)c(-c4cc(S(=O)(=O)[O-])ccc4F)c4nc(c(-c5cc(S(=O)(=O)[O-])ccc5F)c5ccc2[nH]5)C=C4)C=C3)cc1
REMARK SMILES IDX 30 1 29 2 28 3 1 4 2 5 3 7 4 8 5 9 19 10 20 11 27 12 21 13
REMARK SMILES IDX 26 14 22 15 25 16 23 17 24 18 6 19 7 20 18 21 8 22 16 23
REMARK SMILES IDX 9 24 17 25 10 26 11 27 15 28 12 29 14 30 13 31 31 32 32 33
REMARK SMILES IDX 33 34 34 36 35 37 36 38 97 39 37 40 96 41 38 42 39 43 40 44
REMARK SMILES IDX 90 45 41 46 95 47 89 48 91 49 42 50 94 51 88 52 87 53 43 55
REMARK SMILES IDX 75 56 55 57 74 58 56 59 59 60 73 61 92 62 57 63 58 64 72 66
REMARK SMILES IDX 93 67 60 68 44 69 45 70 53 71 46 72 52 73 54 74 51 75 47 76
REMARK SMILES IDX 48 77 49 78 50 79 76 80 77 81 85 82 78 83 84 84 86 85 83 86
REMARK SMILES IDX 79 87 80 88 81 89 82 90 61 91 62 92 70 93 63 94 69 95 71 96
REMARK SMILES IDX 68 97 64 98 65 99 66 100 67 101
REMARK H PARENT 28 6 32 35 91 54 59 65
REMARK Flexibility Score: inf
ROOT
ATOM      1  C   UNL A   1      35.896  22.635  25.881  1.00  0.00     0.042 C 
ENDROOT
BRANCH   1   2
ATOM      2  C   UNL A   1      34.912  22.205  24.802  1.00  0.00     0.117 C 
BRANCH   2   3
ATOM      3  N   UNL A   1      33.569  22.705  25.030  1.00  0.00    -0.356 N 
ATOM      4  O   UNL A   1      33.020  22.939  22.812  1.00  0.00    -0.275 OA
ATOM      5  C   UNL A   1      32.695  22.965  23.996  1.00  0.00     0.224 C 
ATOM      6  H   UNL A   1      33.271  22.863  25.955  1.00  0.00     0.163 HD
BRANCH   5   7
ATOM      7  C   UNL A   1      31.275  23.316  24.426  1.00  0.00     0.138 C 
BRANCH   7   8
ATOM      8  C   UNL A   1      30.977  24.809  24.349  1.00  0.00    -0.002 C 
ATOM      9  C   UNL A   1      29.931  25.204  23.580  1.00  0.00     0.015 C 
BRANCH   8  10
ATOM     10  C   UNL A   1      31.710  25.813  25.087  1.00  0.00     0.121 A 
ATOM     11  N   UNL A   1      31.264  26.483  26.134  1.00  0.00    -0.236 NA
ATOM     12  S   UNL A   1      33.290  26.301  24.574  1.00  0.00    -0.114 S 
ATOM     13  C   UNL A   1      32.121  27.518  26.463  1.00  0.00     0.082 A 
ATOM     14  C   UNL A   1      33.293  27.581  25.713  1.00  0.00     0.055 A 
ATOM     15  C   UNL A   1      31.899  28.495  27.453  1.00  0.00     0.030 A 
ATOM     16  C   UNL A   1      34.260  28.578  25.921  1.00  0.00     0.021 A 
ATOM     17  C   UNL A   1      32.845  29.503  27.660  1.00  0.00     0.002 A 
ATOM     18  C   UNL A   1      34.012  29.542  26.903  1.00  0.00     0.002 A 
ENDBRANCH   8  10
BRANCH   9  19
ATOM     19  C   UNL A   1      29.461  26.581  23.360  1.00  0.00    -0.022 A 
ATOM     20  C   UNL A   1      28.174  26.983  23.727  1.00  0.00     0.010 A 
ATOM     21  C   UNL A   1      30.311  27.507  22.757  1.00  0.00     0.049 A 
ATOM     22  C   UNL A   1      27.726  28.280  23.446  1.00  0.00     0.029 A 
ATOM     23  C   UNL A   1      29.849  28.793  22.477  1.00  0.00     0.147 A 
ATOM     24  C   UNL A   1      28.545  29.214  22.796  1.00  0.00     0.073 A 
ATOM     25  F   UNL A   1      30.712  29.653  21.908  1.00  0.00    -0.205 F 
BRANCH  24  26
ATOM     26  N   UNL A   1      28.073  30.473  22.492  1.00  0.00    -0.365 N 
ATOM     27  C   UNL A   1      27.741  30.874  21.122  1.00  0.00     0.145 C 
ATOM     28  C   UNL A   1      27.903  31.516  23.507  1.00  0.00     0.145 C 
ATOM     29  C   UNL A   1      28.475  32.174  20.770  1.00  0.00     0.181 C 
ATOM     30  C   UNL A   1      28.630  32.792  23.044  1.00  0.00     0.181 C 
ATOM     31  O   UNL A   1      28.201  33.209  21.734  1.00  0.00    -0.378 OA
ENDBRANCH  24  26
ENDBRANCH   9  19
ENDBRANCH   7   8
ENDBRANCH   5   7
ENDBRANCH   2   3
ENDBRANCH   1   2
BRANCH   1  32
ATOM     32  C   UNL A   1      37.286  22.994  25.365  1.00  0.00     0.118 C 
BRANCH  32  33
ATOM     33  N   UNL A   1      38.348  22.196  25.964  1.00  0.00    -0.352 N 
ATOM     34  C   UNL A   1      39.465  22.588  26.666  1.00  0.00     0.251 C 
ATOM     35  H   UNL A   1      38.253  21.224  25.848  1.00  0.00     0.163 HD
ATOM     36  O   UNL A   1      40.305  21.745  26.973  1.00  0.00    -0.269 OA
BRANCH  34  37
ATOM     37  C   UNL A   1      39.675  24.010  27.020  1.00  0.00     0.039 A 
ATOM     38  C   UNL A   1      39.410  24.421  28.330  1.00  0.00     0.014 A 
ATOM     39  C   UNL A   1      40.130  24.936  26.077  1.00  0.00     0.014 A 
ATOM     40  C   UNL A   1      39.692  25.735  28.716  1.00  0.00     0.010 A 
ATOM     41  C   UNL A   1      40.469  26.227  26.479  1.00  0.00     0.010 A 
ATOM     42  C   UNL A   1      40.274  26.634  27.808  1.00  0.00    -0.014 A 
BRANCH  42  43
ATOM     43  C   UNL A   1      40.732  27.982  28.239  1.00  0.00     0.031 A 
ATOM     44  C   UNL A   1      42.193  28.334  28.227  1.00  0.00     0.074 A 
ATOM     45  C   UNL A   1      39.830  28.869  28.708  1.00  0.00     0.049 A 
ATOM     46  N   UNL A   1      42.785  29.411  28.676  1.00  0.00    -0.248 NA
ATOM     47  C   UNL A   1      43.110  27.339  27.651  1.00  0.00     0.031 C 
ATOM     48  C   UNL A   1      38.385  28.642  28.789  1.00  0.00     0.029 A 
ATOM     49  N   UNL A   1      39.994  30.135  29.212  1.00  0.00    -0.354 N 
ATOM     50  C   UNL A   1      44.143  29.222  28.448  1.00  0.00     0.074 A 
ATOM     51  C   UNL A   1      44.290  27.908  27.857  1.00  0.00     0.031 C 
ATOM     52  C   UNL A   1      37.794  29.741  29.283  1.00  0.00     0.029 A 
ATOM     53  C   UNL A   1      38.818  30.730  29.606  1.00  0.00     0.049 A 
ATOM     54  H   UNL A   1      40.871  30.577  29.283  1.00  0.00     0.167 HD
ATOM     55  C   UNL A   1      45.170  30.072  28.696  1.00  0.00     0.034 A 
ATOM     56  C   UNL A   1      38.585  31.926  30.181  1.00  0.00     0.034 A 
ATOM     57  C   UNL A   1      45.014  31.385  29.271  1.00  0.00     0.049 A 
ATOM     58  C   UNL A   1      39.745  32.837  30.480  1.00  0.00     0.074 A 
ATOM     59  C   UNL A   1      45.992  32.331  29.530  1.00  0.00     0.029 A 
ATOM     60  N   UNL A   1      43.809  31.940  29.679  1.00  0.00    -0.354 N 
ATOM     61  N   UNL A   1      41.025  32.635  30.270  1.00  0.00    -0.248 NA
ATOM     62  C   UNL A   1      39.431  34.134  31.095  1.00  0.00     0.031 C 
ATOM     63  C   UNL A   1      45.387  33.433  30.143  1.00  0.00     0.029 A 
ATOM     64  C   UNL A   1      44.023  33.204  30.206  1.00  0.00     0.049 A 
ATOM     65  H   UNL A   1      42.931  31.500  29.604  1.00  0.00     0.167 HD
ATOM     66  C   UNL A   1      41.666  33.788  30.709  1.00  0.00     0.074 A 
ATOM     67  C   UNL A   1      40.633  34.683  31.191  1.00  0.00     0.031 C 
ATOM     68  C   UNL A   1      42.990  34.081  30.702  1.00  0.00     0.034 A 
BRANCH  55  69
ATOM     69  C   UNL A   1      46.562  29.601  28.362  1.00  0.00     0.023 A 
ATOM     70  C   UNL A   1      47.334  28.879  29.287  1.00  0.00     0.031 A 
ATOM     71  C   UNL A   1      47.112  29.854  27.094  1.00  0.00     0.131 A 
ATOM     72  C   UNL A   1      48.633  28.473  28.945  1.00  0.00     0.055 A 
ATOM     73  C   UNL A   1      48.380  29.393  26.737  1.00  0.00     0.041 A 
ATOM     74  F   UNL A   1      46.422  30.555  26.179  1.00  0.00    -0.206 F 
ATOM     75  C   UNL A   1      49.151  28.704  27.669  1.00  0.00     0.022 A 
BRANCH  72  76
ATOM     76  S   UNL A   1      49.669  27.706  30.220  1.00  0.00     0.124 S 
ATOM     77  O   UNL A   1      49.094  26.366  30.297  1.00  0.00    -0.237 OA
ATOM     78  O   UNL A   1      51.005  27.795  29.640  1.00  0.00    -0.237 OA
ATOM     79  O   UNL A   1      49.444  28.544  31.396  1.00  0.00    -0.744 OA
ENDBRANCH  72  76
ENDBRANCH  55  69
BRANCH  56  80
ATOM     80  C   UNL A   1      37.194  32.326  30.525  1.00  0.00     0.023 A 
ATOM     81  C   UNL A   1      36.349  32.896  29.559  1.00  0.00     0.031 A 
ATOM     82  C   UNL A   1      36.687  32.138  31.823  1.00  0.00     0.131 A 
ATOM     83  C   UNL A   1      35.045  33.277  29.912  1.00  0.00     0.055 A 
ATOM     84  C   UNL A   1      35.379  32.485  32.159  1.00  0.00     0.041 A 
ATOM     85  F   UNL A   1      37.456  31.587  32.776  1.00  0.00    -0.206 F 
ATOM     86  C   UNL A   1      34.551  33.064  31.202  1.00  0.00     0.022 A 
BRANCH  83  87
ATOM     87  S   UNL A   1      34.004  34.080  28.663  1.00  0.00     0.124 S 
ATOM     88  O   UNL A   1      34.887  35.133  28.174  1.00  0.00    -0.237 OA
ATOM     89  O   UNL A   1      33.737  32.984  27.738  1.00  0.00    -0.237 OA
ATOM     90  O   UNL A   1      32.848  34.539  29.430  1.00  0.00    -0.744 OA
ENDBRANCH  83  87
ENDBRANCH  56  80
BRANCH  68  91
ATOM     91  C   UNL A   1      43.400  35.443  31.199  1.00  0.00     0.023 A 
ATOM     92  C   UNL A   1      43.665  35.682  32.558  1.00  0.00     0.031 A 
ATOM     93  C   UNL A   1      43.558  36.505  30.292  1.00  0.00     0.131 A 
ATOM     94  C   UNL A   1      44.044  36.966  32.977  1.00  0.00     0.055 A 
ATOM     95  C   UNL A   1      43.980  37.768  30.708  1.00  0.00     0.041 A 
ATOM     96  F   UNL A   1      43.318  36.326  28.983  1.00  0.00    -0.206 F 
ATOM     97  C   UNL A   1      44.219  38.005  32.059  1.00  0.00     0.022 A 
BRANCH  94  98
ATOM     98  S   UNL A   1      44.271  37.276  34.750  1.00  0.00     0.124 S 
ATOM     99  O   UNL A   1      45.200  38.401  34.743  1.00  0.00    -0.237 OA
ATOM    100  O   UNL A   1      42.912  37.574  35.193  1.00  0.00    -0.237 OA
ATOM    101  O   UNL A   1      44.822  36.019  35.251  1.00  0.00    -0.744 OA
ENDBRANCH  94  98
ENDBRANCH  68  91
ENDBRANCH  42  43
ENDBRANCH  34  37
ENDBRANCH  32  33
ENDBRANCH   1  32
TORSDOF 17
ENDMDL
