MODEL 1
REMARK VINA RESULT:     -13.0      0.000      0.000
REMARK SMILES O=C(NCCCNC(=O)c1cccn2c(=O)c3ccc(Cl)cc3nc12)c1ccc(-c2c3nc(c(-c4cc(S(=O)(=O)[O-])ccc4F)c4ccc([nH]4)c(-c4cc(S(=O)(=O)[O-])ccc4F)c4nc(c(-c5cc(S(=O)(=O)[O-])ccc5F)c5ccc2[nH]5)C=C4)C=C3)cc1
REMARK SMILES IDX 1 1 2 2 3 3 26 5 27 6 88 7 28 8 87 9 29 10 30 11 31 12 81 13
REMARK SMILES IDX 32 14 86 15 80 16 82 17 33 18 85 19 79 20 78 21 34 23 66 24
REMARK SMILES IDX 46 25 65 26 47 27 50 28 64 29 83 30 48 31 49 32 63 34 84 35
REMARK SMILES IDX 51 36 35 37 36 38 44 39 37 40 43 41 45 42 42 43 38 44 39 45
REMARK SMILES IDX 40 46 41 47 67 48 68 49 76 50 69 51 75 52 77 53 74 54 70 55
REMARK SMILES IDX 71 56 72 57 73 58 52 59 53 60 61 61 54 62 60 63 62 64 59 65
REMARK SMILES IDX 55 66 56 67 57 68 58 69 4 70 5 71 6 72 7 73 8 74 9 76 10 77
REMARK SMILES IDX 11 78 25 79 12 80 14 81 24 82 13 83 15 84 23 85 16 86 17 87
REMARK SMILES IDX 22 88 18 89 20 90 19 91 21 92
REMARK H PARENT 3 4 82 22 50 33 7 75
REMARK Flexibility Score: inf
ROOT
ATOM      1  O   UNL A   1      38.886  20.132  25.353  1.00  0.00    -0.269 OA
ATOM      2  C   UNL A   1      38.227  21.104  25.723  1.00  0.00     0.251 C 
ATOM      3  N   UNL A   1      36.857  21.021  25.680  1.00  0.00    -0.352 N 
ATOM      4  H   UNL A   1      36.506  20.119  25.497  1.00  0.00     0.163 HD
ENDROOT
BRANCH   2   5
ATOM      5  C   UNL A   1      38.919  22.326  26.197  1.00  0.00     0.039 A 
ATOM      6  C   UNL A   1      38.430  23.573  25.793  1.00  0.00     0.014 A 
ATOM      7  C   UNL A   1      40.085  22.261  26.963  1.00  0.00     0.014 A 
ATOM      8  C   UNL A   1      39.089  24.744  26.178  1.00  0.00     0.010 A 
ATOM      9  C   UNL A   1      40.690  23.430  27.422  1.00  0.00     0.010 A 
ATOM     10  C   UNL A   1      40.220  24.684  27.006  1.00  0.00    -0.014 A 
BRANCH  10  11
ATOM     11  C   UNL A   1      40.973  25.908  27.387  1.00  0.00     0.031 A 
ATOM     12  C   UNL A   1      40.301  26.966  28.222  1.00  0.00     0.074 A 
ATOM     13  C   UNL A   1      42.234  26.092  26.953  1.00  0.00     0.049 A 
ATOM     14  N   UNL A   1      40.754  28.134  28.597  1.00  0.00    -0.248 NA
ATOM     15  C   UNL A   1      38.926  26.686  28.672  1.00  0.00     0.031 C 
ATOM     16  C   UNL A   1      42.979  25.153  26.115  1.00  0.00     0.029 A 
ATOM     17  N   UNL A   1      43.110  27.132  27.148  1.00  0.00    -0.354 N 
ATOM     18  C   UNL A   1      39.718  28.732  29.308  1.00  0.00     0.074 A 
ATOM     19  C   UNL A   1      38.593  27.826  29.258  1.00  0.00     0.031 C 
ATOM     20  C   UNL A   1      44.207  25.646  25.890  1.00  0.00     0.029 A 
ATOM     21  C   UNL A   1      44.326  26.957  26.527  1.00  0.00     0.049 A 
ATOM     22  H   UNL A   1      42.889  27.929  27.683  1.00  0.00     0.167 HD
ATOM     23  C   UNL A   1      39.715  29.912  29.970  1.00  0.00     0.034 A 
ATOM     24  C   UNL A   1      45.410  27.758  26.473  1.00  0.00     0.034 A 
ATOM     25  C   UNL A   1      40.856  30.786  30.047  1.00  0.00     0.049 A 
ATOM     26  C   UNL A   1      45.387  29.070  27.220  1.00  0.00     0.074 A 
ATOM     27  C   UNL A   1      40.973  31.978  30.738  1.00  0.00     0.029 A 
ATOM     28  N   UNL A   1      42.077  30.562  29.426  1.00  0.00    -0.354 N 
ATOM     29  N   UNL A   1      44.426  29.586  27.948  1.00  0.00    -0.248 NA
ATOM     30  C   UNL A   1      46.596  29.904  27.152  1.00  0.00     0.031 C 
ATOM     31  C   UNL A   1      42.242  32.502  30.493  1.00  0.00     0.029 A 
ATOM     32  C   UNL A   1      42.945  31.603  29.705  1.00  0.00     0.049 A 
ATOM     33  H   UNL A   1      42.294  29.778  28.871  1.00  0.00     0.167 HD
ATOM     34  C   UNL A   1      44.921  30.790  28.446  1.00  0.00     0.074 A 
ATOM     35  C   UNL A   1      46.277  30.913  27.954  1.00  0.00     0.031 C 
ATOM     36  C   UNL A   1      44.306  31.708  29.232  1.00  0.00     0.034 A 
BRANCH  23  37
ATOM     37  C   UNL A   1      38.462  30.328  30.701  1.00  0.00     0.023 A 
ATOM     38  C   UNL A   1      37.481  31.092  30.042  1.00  0.00     0.031 A 
ATOM     39  C   UNL A   1      38.295  30.071  32.074  1.00  0.00     0.131 A 
ATOM     40  C   UNL A   1      36.393  31.598  30.765  1.00  0.00     0.055 A 
ATOM     41  C   UNL A   1      37.187  30.539  32.779  1.00  0.00     0.041 A 
ATOM     42  F   UNL A   1      39.205  29.348  32.748  1.00  0.00    -0.206 F 
ATOM     43  C   UNL A   1      36.236  31.317  32.126  1.00  0.00     0.022 A 
BRANCH  40  44
ATOM     44  S   UNL A   1      35.174  32.688  29.982  1.00  0.00     0.124 S 
ATOM     45  O   UNL A   1      34.595  31.807  28.967  1.00  0.00    -0.237 OA
ATOM     46  O   UNL A   1      34.291  33.010  31.102  1.00  0.00    -0.237 OA
ATOM     47  O   UNL A   1      35.967  33.792  29.465  1.00  0.00    -0.744 OA
ENDBRANCH  40  44
ENDBRANCH  23  37
BRANCH  24  48
ATOM     48  C   UNL A   1      46.623  27.292  25.737  1.00  0.00     0.023 A 
ATOM     49  C   UNL A   1      46.943  27.797  24.463  1.00  0.00     0.031 A 
ATOM     50  C   UNL A   1      47.418  26.254  26.253  1.00  0.00     0.131 A 
ATOM     51  C   UNL A   1      47.982  27.216  23.724  1.00  0.00     0.055 A 
ATOM     52  C   UNL A   1      48.497  25.727  25.542  1.00  0.00     0.041 A 
ATOM     53  F   UNL A   1      47.146  25.730  27.458  1.00  0.00    -0.206 F 
ATOM     54  C   UNL A   1      48.773  26.197  24.262  1.00  0.00     0.022 A 
BRANCH  51  55
ATOM     55  S   UNL A   1      48.256  27.672  21.988  1.00  0.00     0.124 S 
ATOM     56  O   UNL A   1      48.471  26.371  21.361  1.00  0.00    -0.237 OA
ATOM     57  O   UNL A   1      46.997  28.334  21.653  1.00  0.00    -0.237 OA
ATOM     58  O   UNL A   1      49.420  28.549  22.041  1.00  0.00    -0.744 OA
ENDBRANCH  51  55
ENDBRANCH  24  48
BRANCH  36  59
ATOM     59  C   UNL A   1      45.069  32.943  29.646  1.00  0.00     0.023 A 
ATOM     60  C   UNL A   1      45.068  34.080  28.813  1.00  0.00     0.031 A 
ATOM     61  C   UNL A   1      45.928  32.933  30.757  1.00  0.00     0.131 A 
ATOM     62  C   UNL A   1      45.947  35.138  29.076  1.00  0.00     0.055 A 
ATOM     63  C   UNL A   1      46.768  34.013  31.043  1.00  0.00     0.041 A 
ATOM     64  F   UNL A   1      45.975  31.869  31.574  1.00  0.00    -0.206 F 
ATOM     65  C   UNL A   1      46.792  35.113  30.190  1.00  0.00     0.022 A 
BRANCH  62  66
ATOM     66  S   UNL A   1      46.101  36.536  27.929  1.00  0.00     0.124 S 
ATOM     67  O   UNL A   1      45.577  37.640  28.729  1.00  0.00    -0.237 OA
ATOM     68  O   UNL A   1      47.539  36.572  27.681  1.00  0.00    -0.237 OA
ATOM     69  O   UNL A   1      45.277  36.149  26.789  1.00  0.00    -0.744 OA
ENDBRANCH  62  66
ENDBRANCH  36  59
ENDBRANCH  10  11
ENDBRANCH   2   5
BRANCH   3  70
ATOM     70  C   UNL A   1      35.835  22.042  25.860  1.00  0.00     0.118 C 
BRANCH  70  71
ATOM     71  C   UNL A   1      34.706  21.595  26.778  1.00  0.00     0.042 C 
BRANCH  71  72
ATOM     72  C   UNL A   1      33.821  22.717  27.302  1.00  0.00     0.118 C 
BRANCH  72  73
ATOM     73  N   UNL A   1      32.397  22.444  27.157  1.00  0.00    -0.352 N 
ATOM     74  C   UNL A   1      31.587  22.529  26.058  1.00  0.00     0.255 C 
ATOM     75  H   UNL A   1      31.947  22.149  27.981  1.00  0.00     0.163 HD
ATOM     76  O   UNL A   1      30.400  22.228  26.164  1.00  0.00    -0.269 OA
BRANCH  74  77
ATOM     77  C   UNL A   1      32.166  22.933  24.754  1.00  0.00     0.083 A 
ATOM     78  C   UNL A   1      32.239  22.011  23.778  1.00  0.00     0.019 A 
ATOM     79  C   UNL A   1      32.523  24.359  24.443  1.00  0.00     0.153 A 
ATOM     80  C   UNL A   1      32.797  22.331  22.495  1.00  0.00     0.019 A 
ATOM     81  N   UNL A   1      33.018  24.614  23.156  1.00  0.00    -0.267 N 
ATOM     82  N   UNL A   1      32.375  25.288  25.337  1.00  0.00    -0.229 NA
ATOM     83  C   UNL A   1      33.164  23.588  22.228  1.00  0.00     0.096 A 
ATOM     84  C   UNL A   1      33.377  25.907  22.764  1.00  0.00     0.265 A 
ATOM     85  C   UNL A   1      32.661  26.614  25.002  1.00  0.00     0.080 A 
ATOM     86  O   UNL A   1      33.833  26.206  21.660  1.00  0.00    -0.268 OA
ATOM     87  C   UNL A   1      33.157  26.975  23.752  1.00  0.00     0.066 A 
ATOM     88  C   UNL A   1      32.410  27.616  25.944  1.00  0.00     0.049 A 
ATOM     89  C   UNL A   1      33.411  28.315  23.433  1.00  0.00     0.017 A 
ATOM     90  C   UNL A   1      32.651  28.954  25.629  1.00  0.00     0.043 A 
ATOM     91  C   UNL A   1      33.153  29.309  24.377  1.00  0.00     0.021 A 
ATOM     92  Cl  UNL A   1      32.314  30.184  26.785  1.00  0.00    -0.084 Cl
ENDBRANCH  74  77
ENDBRANCH  72  73
ENDBRANCH  71  72
ENDBRANCH  70  71
ENDBRANCH   3  70
TORSDOF 13
ENDMDL
MODEL 2
REMARK VINA RESULT:     -12.9      1.387      1.771
REMARK SMILES O=C(NCCCNC(=O)c1cccn2c(=O)c3ccc(Cl)cc3nc12)c1ccc(-c2c3nc(c(-c4cc(S(=O)(=O)[O-])ccc4F)c4ccc([nH]4)c(-c4cc(S(=O)(=O)[O-])ccc4F)c4nc(c(-c5cc(S(=O)(=O)[O-])ccc5F)c5ccc2[nH]5)C=C4)C=C3)cc1
REMARK SMILES IDX 1 1 2 2 3 3 26 5 27 6 88 7 28 8 87 9 29 10 30 11 31 12 81 13
REMARK SMILES IDX 32 14 86 15 80 16 82 17 33 18 85 19 79 20 78 21 34 23 66 24
REMARK SMILES IDX 46 25 65 26 47 27 50 28 64 29 83 30 48 31 49 32 63 34 84 35
REMARK SMILES IDX 51 36 35 37 36 38 44 39 37 40 43 41 45 42 42 43 38 44 39 45
REMARK SMILES IDX 40 46 41 47 67 48 68 49 76 50 69 51 75 52 77 53 74 54 70 55
REMARK SMILES IDX 71 56 72 57 73 58 52 59 53 60 61 61 54 62 60 63 62 64 59 65
REMARK SMILES IDX 55 66 56 67 57 68 58 69 4 70 5 71 6 72 7 73 8 74 9 76 10 77
REMARK SMILES IDX 11 78 25 79 12 80 14 81 24 82 13 83 15 84 23 85 16 86 17 87
REMARK SMILES IDX 22 88 18 89 20 90 19 91 21 92
REMARK H PARENT 3 4 82 22 50 33 7 75
REMARK Flexibility Score: inf
ROOT
ATOM      1  O   UNL A   1      38.607  20.083  25.367  1.00  0.00    -0.269 OA
ATOM      2  C   UNL A   1      38.030  21.097  25.760  1.00  0.00     0.251 C 
ATOM      3  N   UNL A   1      36.663  21.064  25.893  1.00  0.00    -0.352 N 
ATOM      4  H   UNL A   1      36.265  20.168  25.806  1.00  0.00     0.163 HD
ENDROOT
BRANCH   2   5
ATOM      5  C   UNL A   1      38.814  22.315  26.076  1.00  0.00     0.039 A 
ATOM      6  C   UNL A   1      39.993  22.179  26.819  1.00  0.00     0.014 A 
ATOM      7  C   UNL A   1      38.368  23.590  25.726  1.00  0.00     0.014 A 
ATOM      8  C   UNL A   1      40.729  23.311  27.181  1.00  0.00     0.010 A 
ATOM      9  C   UNL A   1      39.147  24.711  26.008  1.00  0.00     0.010 A 
ATOM     10  C   UNL A   1      40.318  24.588  26.769  1.00  0.00    -0.014 A 
BRANCH  10  11
ATOM     11  C   UNL A   1      41.051  25.813  27.183  1.00  0.00     0.031 A 
ATOM     12  C   UNL A   1      40.363  26.837  28.046  1.00  0.00     0.074 A 
ATOM     13  C   UNL A   1      42.310  26.029  26.753  1.00  0.00     0.049 A 
ATOM     14  N   UNL A   1      40.798  28.002  28.453  1.00  0.00    -0.248 NA
ATOM     15  C   UNL A   1      38.994  26.523  28.489  1.00  0.00     0.031 C 
ATOM     16  C   UNL A   1      43.069  25.125  25.891  1.00  0.00     0.029 A 
ATOM     17  N   UNL A   1      43.169  27.077  26.976  1.00  0.00    -0.354 N 
ATOM     18  C   UNL A   1      39.753  28.563  29.180  1.00  0.00     0.074 A 
ATOM     19  C   UNL A   1      38.643  27.642  29.106  1.00  0.00     0.031 C 
ATOM     20  C   UNL A   1      44.289  25.643  25.679  1.00  0.00     0.029 A 
ATOM     21  C   UNL A   1      44.387  26.938  26.351  1.00  0.00     0.049 A 
ATOM     22  H   UNL A   1      42.936  27.856  27.533  1.00  0.00     0.167 HD
ATOM     23  C   UNL A   1      39.733  29.725  29.874  1.00  0.00     0.034 A 
ATOM     24  C   UNL A   1      45.458  27.757  26.318  1.00  0.00     0.034 A 
ATOM     25  C   UNL A   1      40.860  30.615  29.974  1.00  0.00     0.049 A 
ATOM     26  C   UNL A   1      45.416  29.047  27.101  1.00  0.00     0.074 A 
ATOM     27  C   UNL A   1      40.958  31.789  30.697  1.00  0.00     0.029 A 
ATOM     28  N   UNL A   1      42.083  30.426  29.347  1.00  0.00    -0.354 N 
ATOM     29  N   UNL A   1      44.446  29.529  27.843  1.00  0.00    -0.248 NA
ATOM     30  C   UNL A   1      46.611  29.902  27.056  1.00  0.00     0.031 C 
ATOM     31  C   UNL A   1      42.218  32.339  30.466  1.00  0.00     0.029 A 
ATOM     32  C   UNL A   1      42.935  31.474  29.654  1.00  0.00     0.049 A 
ATOM     33  H   UNL A   1      42.312  29.662  28.772  1.00  0.00     0.167 HD
ATOM     34  C   UNL A   1      44.923  30.726  28.373  1.00  0.00     0.074 A 
ATOM     35  C   UNL A   1      46.276  30.883  27.885  1.00  0.00     0.031 C 
ATOM     36  C   UNL A   1      44.294  31.612  29.184  1.00  0.00     0.034 A 
BRANCH  23  37
ATOM     37  C   UNL A   1      38.473  30.101  30.615  1.00  0.00     0.023 A 
ATOM     38  C   UNL A   1      37.509  30.922  30.001  1.00  0.00     0.031 A 
ATOM     39  C   UNL A   1      38.284  29.747  31.965  1.00  0.00     0.131 A 
ATOM     40  C   UNL A   1      36.417  31.386  30.744  1.00  0.00     0.055 A 
ATOM     41  C   UNL A   1      37.171  30.176  32.686  1.00  0.00     0.041 A 
ATOM     42  F   UNL A   1      39.177  28.967  32.597  1.00  0.00    -0.206 F 
ATOM     43  C   UNL A   1      36.237  31.010  32.079  1.00  0.00     0.022 A 
BRANCH  40  44
ATOM     44  S   UNL A   1      35.221  32.544  30.025  1.00  0.00     0.124 S 
ATOM     45  O   UNL A   1      36.077  33.677  29.672  1.00  0.00    -0.237 OA
ATOM     46  O   UNL A   1      34.702  31.780  28.890  1.00  0.00    -0.237 OA
ATOM     47  O   UNL A   1      34.277  32.793  31.103  1.00  0.00    -0.744 OA
ENDBRANCH  40  44
ENDBRANCH  23  37
BRANCH  24  48
ATOM     48  C   UNL A   1      46.679  27.330  25.571  1.00  0.00     0.023 A 
ATOM     49  C   UNL A   1      46.959  27.830  24.285  1.00  0.00     0.031 A 
ATOM     50  C   UNL A   1      47.522  26.331  26.087  1.00  0.00     0.131 A 
ATOM     51  C   UNL A   1      48.009  27.282  23.538  1.00  0.00     0.055 A 
ATOM     52  C   UNL A   1      48.610  25.839  25.366  1.00  0.00     0.041 A 
ATOM     53  F   UNL A   1      47.289  25.813  27.303  1.00  0.00    -0.206 F 
ATOM     54  C   UNL A   1      48.849  26.303  24.076  1.00  0.00     0.022 A 
BRANCH  51  55
ATOM     55  S   UNL A   1      48.239  27.726  21.793  1.00  0.00     0.124 S 
ATOM     56  O   UNL A   1      46.976  28.386  21.476  1.00  0.00    -0.237 OA
ATOM     57  O   UNL A   1      49.409  28.600  21.860  1.00  0.00    -0.237 OA
ATOM     58  O   UNL A   1      48.464  26.443  21.137  1.00  0.00    -0.744 OA
ENDBRANCH  51  55
ENDBRANCH  24  48
BRANCH  36  59
ATOM     59  C   UNL A   1      45.037  32.848  29.631  1.00  0.00     0.023 A 
ATOM     60  C   UNL A   1      45.708  32.855  30.871  1.00  0.00     0.031 A 
ATOM     61  C   UNL A   1      44.933  34.058  28.925  1.00  0.00     0.131 A 
ATOM     62  C   UNL A   1      46.203  34.057  31.389  1.00  0.00     0.055 A 
ATOM     63  C   UNL A   1      45.473  35.246  29.423  1.00  0.00     0.041 A 
ATOM     64  F   UNL A   1      44.293  34.107  27.745  1.00  0.00    -0.206 F 
ATOM     65  C   UNL A   1      46.095  35.252  30.669  1.00  0.00     0.022 A 
BRANCH  62  66
ATOM     66  S   UNL A   1      46.913  34.137  33.057  1.00  0.00     0.124 S 
ATOM     67  O   UNL A   1      47.417  35.507  33.105  1.00  0.00    -0.237 OA
ATOM     68  O   UNL A   1      45.749  33.871  33.899  1.00  0.00    -0.237 OA
ATOM     69  O   UNL A   1      47.936  33.098  33.055  1.00  0.00    -0.744 OA
ENDBRANCH  62  66
ENDBRANCH  36  59
ENDBRANCH  10  11
ENDBRANCH   2   5
BRANCH   3  70
ATOM     70  C   UNL A   1      35.705  22.132  26.140  1.00  0.00     0.118 C 
BRANCH  70  71
ATOM     71  C   UNL A   1      34.521  21.681  26.985  1.00  0.00     0.042 C 
BRANCH  71  72
ATOM     72  C   UNL A   1      33.612  22.802  27.469  1.00  0.00     0.118 C 
BRANCH  72  73
ATOM     73  N   UNL A   1      32.197  22.522  27.270  1.00  0.00    -0.352 N 
ATOM     74  C   UNL A   1      31.431  22.590  26.138  1.00  0.00     0.255 C 
ATOM     75  H   UNL A   1      31.714  22.238  28.079  1.00  0.00     0.163 HD
ATOM     76  O   UNL A   1      30.241  22.288  26.200  1.00  0.00    -0.269 OA
BRANCH  74  77
ATOM     77  C   UNL A   1      32.061  22.978  24.853  1.00  0.00     0.083 A 
ATOM     78  C   UNL A   1      32.162  22.047  23.888  1.00  0.00     0.019 A 
ATOM     79  C   UNL A   1      32.443  24.398  24.544  1.00  0.00     0.153 A 
ATOM     80  C   UNL A   1      32.769  22.351  22.624  1.00  0.00     0.019 A 
ATOM     81  N   UNL A   1      32.987  24.637  23.274  1.00  0.00    -0.267 N 
ATOM     82  N   UNL A   1      32.271  25.335  25.424  1.00  0.00    -0.229 NA
ATOM     83  C   UNL A   1      33.158  23.602  22.361  1.00  0.00     0.096 A 
ATOM     84  C   UNL A   1      33.373  25.924  22.885  1.00  0.00     0.265 A 
ATOM     85  C   UNL A   1      32.582  26.656  25.090  1.00  0.00     0.080 A 
ATOM     86  O   UNL A   1      33.872  26.209  21.797  1.00  0.00    -0.268 OA
ATOM     87  C   UNL A   1      33.127  27.002  23.856  1.00  0.00     0.066 A 
ATOM     88  C   UNL A   1      32.306  27.668  26.014  1.00  0.00     0.049 A 
ATOM     89  C   UNL A   1      33.405  28.337  23.535  1.00  0.00     0.017 A 
ATOM     90  C   UNL A   1      32.571  29.002  25.696  1.00  0.00     0.043 A 
ATOM     91  C   UNL A   1      33.122  29.341  24.460  1.00  0.00     0.021 A 
ATOM     92  Cl  UNL A   1      32.203  30.244  26.829  1.00  0.00    -0.084 Cl
ENDBRANCH  74  77
ENDBRANCH  72  73
ENDBRANCH  71  72
ENDBRANCH  70  71
ENDBRANCH   3  70
TORSDOF 13
ENDMDL
MODEL 3
REMARK VINA RESULT:     -12.9      4.983      9.873
REMARK SMILES O=C(NCCCNC(=O)c1cccn2c(=O)c3ccc(Cl)cc3nc12)c1ccc(-c2c3nc(c(-c4cc(S(=O)(=O)[O-])ccc4F)c4ccc([nH]4)c(-c4cc(S(=O)(=O)[O-])ccc4F)c4nc(c(-c5cc(S(=O)(=O)[O-])ccc5F)c5ccc2[nH]5)C=C4)C=C3)cc1
REMARK SMILES IDX 1 1 2 2 3 3 26 5 27 6 88 7 28 8 87 9 29 10 30 11 31 12 81 13
REMARK SMILES IDX 32 14 86 15 80 16 82 17 33 18 85 19 79 20 78 21 34 23 66 24
REMARK SMILES IDX 46 25 65 26 47 27 50 28 64 29 83 30 48 31 49 32 63 34 84 35
REMARK SMILES IDX 51 36 35 37 36 38 44 39 37 40 43 41 45 42 42 43 38 44 39 45
REMARK SMILES IDX 40 46 41 47 67 48 68 49 76 50 69 51 75 52 77 53 74 54 70 55
REMARK SMILES IDX 71 56 72 57 73 58 52 59 53 60 61 61 54 62 60 63 62 64 59 65
REMARK SMILES IDX 55 66 56 67 57 68 58 69 4 70 5 71 6 72 7 73 8 74 9 76 10 77
REMARK SMILES IDX 11 78 25 79 12 80 14 81 24 82 13 83 15 84 23 85 16 86 17 87
REMARK SMILES IDX 22 88 18 89 20 90 19 91 21 92
REMARK H PARENT 3 4 82 22 50 33 7 75
REMARK Flexibility Score: inf
ROOT
ATOM      1  O   UNL A   1      32.358  32.214  27.250  1.00  0.00    -0.269 OA
ATOM      2  C   UNL A   1      33.027  31.262  26.848  1.00  0.00     0.251 C 
ATOM      3  N   UNL A   1      32.548  30.521  25.797  1.00  0.00    -0.352 N 
ATOM      4  H   UNL A   1      31.767  30.912  25.342  1.00  0.00     0.163 HD
ENDROOT
BRANCH   2   5
ATOM      5  C   UNL A   1      34.318  30.942  27.504  1.00  0.00     0.039 A 
ATOM      6  C   UNL A   1      34.553  29.623  27.911  1.00  0.00     0.014 A 
ATOM      7  C   UNL A   1      35.261  31.929  27.796  1.00  0.00     0.014 A 
ATOM      8  C   UNL A   1      35.737  29.296  28.580  1.00  0.00     0.010 A 
ATOM      9  C   UNL A   1      36.479  31.587  28.382  1.00  0.00     0.010 A 
ATOM     10  C   UNL A   1      36.716  30.274  28.812  1.00  0.00    -0.014 A 
BRANCH  10  11
ATOM     11  C   UNL A   1      37.960  29.967  29.567  1.00  0.00     0.031 A 
ATOM     12  C   UNL A   1      38.966  29.008  28.987  1.00  0.00     0.074 A 
ATOM     13  C   UNL A   1      38.166  30.509  30.782  1.00  0.00     0.049 A 
ATOM     14  N   UNL A   1      40.072  28.551  29.515  1.00  0.00    -0.248 NA
ATOM     15  C   UNL A   1      38.677  28.469  27.647  1.00  0.00     0.031 C 
ATOM     16  C   UNL A   1      37.252  31.426  31.459  1.00  0.00     0.029 A 
ATOM     17  N   UNL A   1      39.206  30.361  31.668  1.00  0.00    -0.354 N 
ATOM     18  C   UNL A   1      40.598  27.662  28.583  1.00  0.00     0.074 A 
ATOM     19  C   UNL A   1      39.660  27.596  27.487  1.00  0.00     0.031 C 
ATOM     20  C   UNL A   1      37.781  31.781  32.640  1.00  0.00     0.029 A 
ATOM     21  C   UNL A   1      39.052  31.083  32.829  1.00  0.00     0.049 A 
ATOM     22  H   UNL A   1      39.991  29.793  31.487  1.00  0.00     0.167 HD
ATOM     23  C   UNL A   1      41.771  26.989  28.623  1.00  0.00     0.034 A 
ATOM     24  C   UNL A   1      39.838  31.171  33.922  1.00  0.00     0.034 A 
ATOM     25  C   UNL A   1      42.716  27.096  29.704  1.00  0.00     0.049 A 
ATOM     26  C   UNL A   1      41.144  30.414  33.945  1.00  0.00     0.074 A 
ATOM     27  C   UNL A   1      43.958  26.498  29.813  1.00  0.00     0.029 A 
ATOM     28  N   UNL A   1      42.535  27.857  30.850  1.00  0.00    -0.354 N 
ATOM     29  N   UNL A   1      41.661  29.635  33.024  1.00  0.00    -0.248 NA
ATOM     30  C   UNL A   1      41.981  30.553  35.145  1.00  0.00     0.031 C 
ATOM     31  C   UNL A   1      44.504  26.851  31.046  1.00  0.00     0.029 A 
ATOM     32  C   UNL A   1      43.635  27.727  31.680  1.00  0.00     0.049 A 
ATOM     33  H   UNL A   1      41.743  28.408  31.044  1.00  0.00     0.167 HD
ATOM     34  C   UNL A   1      42.893  29.214  33.521  1.00  0.00     0.074 A 
ATOM     35  C   UNL A   1      43.053  29.843  34.815  1.00  0.00     0.031 C 
ATOM     36  C   UNL A   1      43.801  28.378  32.958  1.00  0.00     0.034 A 
BRANCH  23  37
ATOM     37  C   UNL A   1      42.134  26.100  27.459  1.00  0.00     0.023 A 
ATOM     38  C   UNL A   1      41.745  24.748  27.455  1.00  0.00     0.031 A 
ATOM     39  C   UNL A   1      42.961  26.559  26.416  1.00  0.00     0.131 A 
ATOM     40  C   UNL A   1      42.209  23.895  26.446  1.00  0.00     0.055 A 
ATOM     41  C   UNL A   1      43.382  25.715  25.390  1.00  0.00     0.041 A 
ATOM     42  F   UNL A   1      43.360  27.841  26.377  1.00  0.00    -0.206 F 
ATOM     43  C   UNL A   1      43.017  24.373  25.409  1.00  0.00     0.022 A 
BRANCH  40  44
ATOM     44  S   UNL A   1      41.833  22.121  26.473  1.00  0.00     0.124 S 
ATOM     45  O   UNL A   1      42.665  21.623  25.377  1.00  0.00    -0.237 OA
ATOM     46  O   UNL A   1      42.277  21.737  27.813  1.00  0.00    -0.237 OA
ATOM     47  O   UNL A   1      40.400  22.059  26.241  1.00  0.00    -0.744 OA
ENDBRANCH  40  44
ENDBRANCH  23  37
BRANCH  24  48
ATOM     48  C   UNL A   1      39.430  32.070  35.042  1.00  0.00     0.023 A 
ATOM     49  C   UNL A   1      38.815  31.559  36.201  1.00  0.00     0.031 A 
ATOM     50  C   UNL A   1      39.548  33.465  34.920  1.00  0.00     0.131 A 
ATOM     51  C   UNL A   1      38.284  32.438  37.154  1.00  0.00     0.055 A 
ATOM     52  C   UNL A   1      39.080  34.335  35.906  1.00  0.00     0.041 A 
ATOM     53  F   UNL A   1      40.114  34.002  33.828  1.00  0.00    -0.206 F 
ATOM     54  C   UNL A   1      38.429  33.822  37.023  1.00  0.00     0.022 A 
BRANCH  51  55
ATOM     55  S   UNL A   1      37.271  31.819  38.527  1.00  0.00     0.124 S 
ATOM     56  O   UNL A   1      37.028  30.436  38.128  1.00  0.00    -0.237 OA
ATOM     57  O   UNL A   1      38.169  32.000  39.665  1.00  0.00    -0.237 OA
ATOM     58  O   UNL A   1      36.104  32.695  38.516  1.00  0.00    -0.744 OA
ENDBRANCH  51  55
ENDBRANCH  24  48
BRANCH  36  59
ATOM     59  C   UNL A   1      45.079  28.079  33.705  1.00  0.00     0.023 A 
ATOM     60  C   UNL A   1      45.118  27.016  34.630  1.00  0.00     0.031 A 
ATOM     61  C   UNL A   1      46.185  28.941  33.635  1.00  0.00     0.131 A 
ATOM     62  C   UNL A   1      46.219  26.876  35.484  1.00  0.00     0.055 A 
ATOM     63  C   UNL A   1      47.302  28.767  34.455  1.00  0.00     0.041 A 
ATOM     64  F   UNL A   1      46.191  29.975  32.779  1.00  0.00    -0.206 F 
ATOM     65  C   UNL A   1      47.314  27.741  35.397  1.00  0.00     0.022 A 
BRANCH  62  66
ATOM     66  S   UNL A   1      46.227  25.632  36.806  1.00  0.00     0.124 S 
ATOM     67  O   UNL A   1      44.805  25.522  37.124  1.00  0.00    -0.237 OA
ATOM     68  O   UNL A   1      46.807  24.473  36.133  1.00  0.00    -0.237 OA
ATOM     69  O   UNL A   1      47.052  26.231  37.848  1.00  0.00    -0.744 OA
ENDBRANCH  62  66
ENDBRANCH  36  59
ENDBRANCH  10  11
ENDBRANCH   2   5
BRANCH   3  70
ATOM     70  C   UNL A   1      33.001  29.255  25.240  1.00  0.00     0.118 C 
BRANCH  70  71
ATOM     71  C   UNL A   1      33.060  29.264  23.718  1.00  0.00     0.042 C 
BRANCH  71  72
ATOM     72  C   UNL A   1      33.860  28.127  23.098  1.00  0.00     0.118 C 
BRANCH  72  73
ATOM     73  N   UNL A   1      33.158  27.453  22.015  1.00  0.00    -0.352 N 
ATOM     74  C   UNL A   1      32.119  26.563  22.051  1.00  0.00     0.255 C 
ATOM     75  H   UNL A   1      33.482  27.673  21.112  1.00  0.00     0.163 HD
ATOM     76  O   UNL A   1      31.666  26.127  20.995  1.00  0.00    -0.269 OA
BRANCH  74  77
ATOM     77  C   UNL A   1      31.530  26.182  23.358  1.00  0.00     0.083 A 
ATOM     78  C   UNL A   1      30.289  26.613  23.645  1.00  0.00     0.019 A 
ATOM     79  C   UNL A   1      32.204  25.215  24.290  1.00  0.00     0.153 A 
ATOM     80  C   UNL A   1      29.663  26.289  24.895  1.00  0.00     0.019 A 
ATOM     81  N   UNL A   1      31.518  24.904  25.472  1.00  0.00    -0.267 N 
ATOM     82  N   UNL A   1      33.363  24.711  23.994  1.00  0.00    -0.229 NA
ATOM     83  C   UNL A   1      30.279  25.470  25.752  1.00  0.00     0.096 A 
ATOM     84  C   UNL A   1      32.057  24.013  26.405  1.00  0.00     0.265 A 
ATOM     85  C   UNL A   1      33.941  23.771  24.852  1.00  0.00     0.080 A 
ATOM     86  O   UNL A   1      31.523  23.703  27.470  1.00  0.00    -0.268 OA
ATOM     87  C   UNL A   1      33.342  23.392  26.050  1.00  0.00     0.066 A 
ATOM     88  C   UNL A   1      35.144  23.167  24.477  1.00  0.00     0.049 A 
ATOM     89  C   UNL A   1      33.929  22.428  26.880  1.00  0.00     0.017 A 
ATOM     90  C   UNL A   1      35.729  22.198  25.294  1.00  0.00     0.043 A 
ATOM     91  C   UNL A   1      35.128  21.826  26.496  1.00  0.00     0.021 A 
ATOM     92  Cl  UNL A   1      37.197  21.440  24.812  1.00  0.00    -0.084 Cl
ENDBRANCH  74  77
ENDBRANCH  72  73
ENDBRANCH  71  72
ENDBRANCH  70  71
ENDBRANCH   3  70
TORSDOF 13
ENDMDL
