MODEL 1
REMARK VINA RESULT:     -11.3      0.000      0.000
REMARK SMILES C[C@@H](C(=O)NCCCNC(=O)c1ccc(-c2c3nc(c(-c4cc(S(=O)(=O)[O-])ccc4F)c4ccc([nH]4)c(-c4cc(S(=O)(=O)[O-])ccc4F)c4nc(c(-c5cc(S(=O)(=O)[O-])ccc5F)c5ccc2[nH]5)C=C4)C=C3)cc1)N1C(=O)c2nccnc2C1=O
REMARK SMILES IDX 8 1 7 2 6 3 5 4 3 5 4 6 2 8 1 9 75 10 76 11 84 12 77 13
REMARK SMILES IDX 78 14 83 15 85 16 79 17 82 18 80 19 81 20 9 21 10 22 11 24
REMARK SMILES IDX 12 25 13 26 74 27 14 28 73 29 15 30 16 31 17 32 67 33 18 34
REMARK SMILES IDX 72 35 66 36 68 37 19 38 71 39 65 40 64 41 20 43 52 44 32 45
REMARK SMILES IDX 51 46 33 47 36 48 50 49 69 50 34 51 35 52 49 54 70 55 37 56
REMARK SMILES IDX 21 57 22 58 30 59 23 60 29 61 31 62 28 63 24 64 25 65 26 66
REMARK SMILES IDX 27 67 53 68 54 69 62 70 55 71 61 72 63 73 60 74 56 75 57 76
REMARK SMILES IDX 58 77 59 78 38 79 39 80 47 81 40 82 46 83 48 84 45 85 41 86
REMARK SMILES IDX 42 87 43 88 44 89
REMARK H PARENT 5 7 9 23 68 42 36 53
REMARK Flexibility Score: inf
ROOT
ATOM      1  C   UNL A   1      41.094  21.308  27.548  1.00  0.00     0.118 C 
ENDROOT
BRANCH   1   2
ATOM      2  C   UNL A   1      41.506  19.841  27.619  1.00  0.00     0.042 C 
BRANCH   2   3
ATOM      3  C   UNL A   1      41.847  19.217  26.269  1.00  0.00     0.117 C 
BRANCH   3   4
ATOM      4  N   UNL A   1      43.130  18.537  26.282  1.00  0.00    -0.354 N 
ATOM      5  C   UNL A   1      44.214  18.705  25.467  1.00  0.00     0.243 C 
ATOM      6  O   UNL A   1      45.241  18.077  25.743  1.00  0.00    -0.273 OA
ATOM      7  H   UNL A   1      43.235  17.852  26.982  1.00  0.00     0.163 HD
BRANCH   5   8
ATOM      8  C   UNL A   1      44.137  19.671  24.268  1.00  0.00     0.180 C 
ATOM      9  C   UNL A   1      44.896  19.169  23.045  1.00  0.00     0.042 C 
BRANCH   8  10
ATOM     10  N   UNL A   1      44.592  20.991  24.706  1.00  0.00    -0.259 N 
ATOM     11  C   UNL A   1      43.781  22.073  24.957  1.00  0.00     0.282 C 
ATOM     12  C   UNL A   1      45.919  21.322  24.817  1.00  0.00     0.282 C 
ATOM     13  O   UNL A   1      42.568  22.138  24.938  1.00  0.00    -0.267 OA
ATOM     14  C   UNL A   1      44.672  23.177  25.313  1.00  0.00     0.160 A 
ATOM     15  C   UNL A   1      45.962  22.723  25.233  1.00  0.00     0.160 A 
ATOM     16  O   UNL A   1      46.887  20.604  24.637  1.00  0.00    -0.267 OA
ATOM     17  N   UNL A   1      44.327  24.404  25.755  1.00  0.00    -0.247 NA
ATOM     18  N   UNL A   1      47.045  23.445  25.586  1.00  0.00    -0.247 NA
ATOM     19  C   UNL A   1      45.402  25.156  26.104  1.00  0.00     0.132 A 
ATOM     20  C   UNL A   1      46.722  24.691  26.023  1.00  0.00     0.132 A 
ENDBRANCH   8  10
ENDBRANCH   5   8
ENDBRANCH   3   4
ENDBRANCH   2   3
ENDBRANCH   1   2
BRANCH   1  21
ATOM     21  N   UNL A   1      39.953  21.526  26.672  1.00  0.00    -0.352 N 
ATOM     22  C   UNL A   1      39.202  22.654  26.448  1.00  0.00     0.251 C 
ATOM     23  H   UNL A   1      39.672  20.735  26.157  1.00  0.00     0.163 HD
ATOM     24  O   UNL A   1      38.159  22.546  25.807  1.00  0.00    -0.269 OA
BRANCH  22  25
ATOM     25  C   UNL A   1      39.615  23.976  26.979  1.00  0.00     0.039 A 
ATOM     26  C   UNL A   1      40.153  24.912  26.090  1.00  0.00     0.014 A 
ATOM     27  C   UNL A   1      39.533  24.287  28.339  1.00  0.00     0.014 A 
ATOM     28  C   UNL A   1      40.566  26.163  26.555  1.00  0.00     0.010 A 
ATOM     29  C   UNL A   1      39.864  25.566  28.788  1.00  0.00     0.010 A 
ATOM     30  C   UNL A   1      40.400  26.515  27.906  1.00  0.00    -0.014 A 
BRANCH  30  31
ATOM     31  C   UNL A   1      40.815  27.856  28.403  1.00  0.00     0.031 A 
ATOM     32  C   UNL A   1      42.276  28.203  28.529  1.00  0.00     0.074 A 
ATOM     33  C   UNL A   1      39.878  28.755  28.767  1.00  0.00     0.049 A 
ATOM     34  N   UNL A   1      42.832  29.303  28.968  1.00  0.00    -0.248 NA
ATOM     35  C   UNL A   1      43.239  27.163  28.132  1.00  0.00     0.031 C 
ATOM     36  C   UNL A   1      38.431  28.527  28.726  1.00  0.00     0.029 A 
ATOM     37  N   UNL A   1      39.996  30.038  29.242  1.00  0.00    -0.354 N 
ATOM     38  C   UNL A   1      44.205  29.087  28.907  1.00  0.00     0.074 A 
ATOM     39  C   UNL A   1      44.393  27.725  28.458  1.00  0.00     0.031 C 
ATOM     40  C   UNL A   1      37.799  29.643  29.125  1.00  0.00     0.029 A 
ATOM     41  C   UNL A   1      38.790  30.648  29.499  1.00  0.00     0.049 A 
ATOM     42  H   UNL A   1      40.864  30.480  29.384  1.00  0.00     0.167 HD
ATOM     43  C   UNL A   1      45.217  29.952  29.173  1.00  0.00     0.034 A 
ATOM     44  C   UNL A   1      38.510  31.872  29.991  1.00  0.00     0.034 A 
ATOM     45  C   UNL A   1      45.014  31.310  29.619  1.00  0.00     0.049 A 
ATOM     46  C   UNL A   1      39.651  32.803  30.316  1.00  0.00     0.074 A 
ATOM     47  C   UNL A   1      45.964  32.282  29.881  1.00  0.00     0.029 A 
ATOM     48  N   UNL A   1      43.778  31.888  29.880  1.00  0.00    -0.354 N 
ATOM     49  N   UNL A   1      40.944  32.599  30.208  1.00  0.00    -0.248 NA
ATOM     50  C   UNL A   1      39.294  34.138  30.813  1.00  0.00     0.031 C 
ATOM     51  C   UNL A   1      45.311  33.415  30.376  1.00  0.00     0.029 A 
ATOM     52  C   UNL A   1      43.945  33.189  30.331  1.00  0.00     0.049 A 
ATOM     53  H   UNL A   1      42.909  31.440  29.762  1.00  0.00     0.167 HD
ATOM     54  C   UNL A   1      41.551  33.794  30.589  1.00  0.00     0.074 A 
ATOM     55  C   UNL A   1      40.482  34.715  30.910  1.00  0.00     0.031 C 
ATOM     56  C   UNL A   1      42.872  34.101  30.659  1.00  0.00     0.034 A 
BRANCH  43  57
ATOM     57  C   UNL A   1      46.631  29.441  29.012  1.00  0.00     0.023 A 
ATOM     58  C   UNL A   1      47.207  29.244  27.744  1.00  0.00     0.031 A 
ATOM     59  C   UNL A   1      47.408  29.121  30.140  1.00  0.00     0.131 A 
ATOM     60  C   UNL A   1      48.482  28.668  27.633  1.00  0.00     0.055 A 
ATOM     61  C   UNL A   1      48.712  28.634  30.024  1.00  0.00     0.041 A 
ATOM     62  F   UNL A   1      46.909  29.265  31.378  1.00  0.00    -0.206 F 
ATOM     63  C   UNL A   1      49.251  28.389  28.764  1.00  0.00     0.022 A 
BRANCH  60  64
ATOM     64  S   UNL A   1      49.053  28.142  25.994  1.00  0.00     0.124 S 
ATOM     65  O   UNL A   1      49.430  26.752  26.246  1.00  0.00    -0.237 OA
ATOM     66  O   UNL A   1      47.870  28.343  25.167  1.00  0.00    -0.237 OA
ATOM     67  O   UNL A   1      50.171  29.041  25.715  1.00  0.00    -0.744 OA
ENDBRANCH  60  64
ENDBRANCH  43  57
BRANCH  44  68
ATOM     68  C   UNL A   1      37.096  32.288  30.223  1.00  0.00     0.023 A 
ATOM     69  C   UNL A   1      36.354  32.938  29.222  1.00  0.00     0.031 A 
ATOM     70  C   UNL A   1      36.479  32.087  31.471  1.00  0.00     0.131 A 
ATOM     71  C   UNL A   1      35.061  33.408  29.502  1.00  0.00     0.055 A 
ATOM     72  C   UNL A   1      35.170  32.500  31.725  1.00  0.00     0.041 A 
ATOM     73  F   UNL A   1      37.141  31.471  32.464  1.00  0.00    -0.206 F 
ATOM     74  C   UNL A   1      34.459  33.179  30.741  1.00  0.00     0.022 A 
BRANCH  71  75
ATOM     75  S   UNL A   1      34.214  34.416  28.255  1.00  0.00     0.124 S 
ATOM     76  O   UNL A   1      33.946  35.643  28.997  1.00  0.00    -0.237 OA
ATOM     77  O   UNL A   1      35.221  34.507  27.203  1.00  0.00    -0.237 OA
ATOM     78  O   UNL A   1      33.034  33.620  27.919  1.00  0.00    -0.744 OA
ENDBRANCH  71  75
ENDBRANCH  44  68
BRANCH  56  79
ATOM     79  C   UNL A   1      43.230  35.518  31.048  1.00  0.00     0.023 A 
ATOM     80  C   UNL A   1      43.411  36.531  30.089  1.00  0.00     0.031 A 
ATOM     81  C   UNL A   1      43.417  35.853  32.401  1.00  0.00     0.131 A 
ATOM     82  C   UNL A   1      43.839  37.806  30.490  1.00  0.00     0.055 A 
ATOM     83  C   UNL A   1      43.767  37.144  32.800  1.00  0.00     0.041 A 
ATOM     84  F   UNL A   1      43.263  34.928  33.362  1.00  0.00    -0.206 F 
ATOM     85  C   UNL A   1      43.998  38.125  31.841  1.00  0.00     0.022 A 
BRANCH  82  86
ATOM     86  S   UNL A   1      44.308  39.008  29.215  1.00  0.00     0.124 S 
ATOM     87  O   UNL A   1      44.415  40.242  29.986  1.00  0.00    -0.237 OA
ATOM     88  O   UNL A   1      45.565  38.458  28.716  1.00  0.00    -0.237 OA
ATOM     89  O   UNL A   1      43.194  38.960  28.270  1.00  0.00    -0.744 OA
ENDBRANCH  82  86
ENDBRANCH  56  79
ENDBRANCH  30  31
ENDBRANCH  22  25
ENDBRANCH   1  21
TORSDOF 14
ENDMDL
MODEL 2
REMARK VINA RESULT:     -11.2      5.152     10.835
REMARK SMILES C[C@@H](C(=O)NCCCNC(=O)c1ccc(-c2c3nc(c(-c4cc(S(=O)(=O)[O-])ccc4F)c4ccc([nH]4)c(-c4cc(S(=O)(=O)[O-])ccc4F)c4nc(c(-c5cc(S(=O)(=O)[O-])ccc5F)c5ccc2[nH]5)C=C4)C=C3)cc1)N1C(=O)c2nccnc2C1=O
REMARK SMILES IDX 8 1 7 2 6 3 5 4 3 5 4 6 2 8 1 9 75 10 76 11 84 12 77 13
REMARK SMILES IDX 78 14 83 15 85 16 79 17 82 18 80 19 81 20 9 21 10 22 11 24
REMARK SMILES IDX 12 25 13 26 74 27 14 28 73 29 15 30 16 31 17 32 67 33 18 34
REMARK SMILES IDX 72 35 66 36 68 37 19 38 71 39 65 40 64 41 20 43 52 44 32 45
REMARK SMILES IDX 51 46 33 47 36 48 50 49 69 50 34 51 35 52 49 54 70 55 37 56
REMARK SMILES IDX 21 57 22 58 30 59 23 60 29 61 31 62 28 63 24 64 25 65 26 66
REMARK SMILES IDX 27 67 53 68 54 69 62 70 55 71 61 72 63 73 60 74 56 75 57 76
REMARK SMILES IDX 58 77 59 78 38 79 39 80 47 81 40 82 46 83 48 84 45 85 41 86
REMARK SMILES IDX 42 87 43 88 44 89
REMARK H PARENT 5 7 9 23 68 42 36 53
REMARK Flexibility Score: inf
ROOT
ATOM      1  C   UNL A   1      33.715  29.174  26.304  1.00  0.00     0.118 C 
ENDROOT
BRANCH   1   2
ATOM      2  C   UNL A   1      32.815  28.215  27.076  1.00  0.00     0.042 C 
BRANCH   2   3
ATOM      3  C   UNL A   1      31.724  27.560  26.235  1.00  0.00     0.117 C 
BRANCH   3   4
ATOM      4  N   UNL A   1      31.216  26.341  26.840  1.00  0.00    -0.354 N 
ATOM      5  C   UNL A   1      31.257  25.055  26.377  1.00  0.00     0.243 C 
ATOM      6  O   UNL A   1      30.847  24.163  27.126  1.00  0.00    -0.273 OA
ATOM      7  H   UNL A   1      30.776  26.458  27.712  1.00  0.00     0.163 HD
BRANCH   5   8
ATOM      8  C   UNL A   1      31.825  24.757  24.976  1.00  0.00     0.180 C 
ATOM      9  C   UNL A   1      30.853  23.988  24.087  1.00  0.00     0.042 C 
BRANCH   8  10
ATOM     10  N   UNL A   1      33.106  24.065  25.132  1.00  0.00    -0.259 N 
ATOM     11  C   UNL A   1      33.263  22.719  25.361  1.00  0.00     0.282 C 
ATOM     12  C   UNL A   1      34.308  24.725  25.166  1.00  0.00     0.282 C 
ATOM     13  O   UNL A   1      32.418  21.848  25.408  1.00  0.00    -0.267 OA
ATOM     14  C   UNL A   1      34.703  22.494  25.498  1.00  0.00     0.160 A 
ATOM     15  C   UNL A   1      35.333  23.704  25.377  1.00  0.00     0.160 A 
ATOM     16  O   UNL A   1      34.512  25.918  25.025  1.00  0.00    -0.267 OA
ATOM     17  N   UNL A   1      35.345  21.314  25.613  1.00  0.00    -0.247 NA
ATOM     18  N   UNL A   1      36.672  23.864  25.357  1.00  0.00    -0.247 NA
ATOM     19  C   UNL A   1      36.695  21.449  25.610  1.00  0.00     0.132 A 
ATOM     20  C   UNL A   1      37.341  22.687  25.484  1.00  0.00     0.132 A 
ENDBRANCH   8  10
ENDBRANCH   5   8
ENDBRANCH   3   4
ENDBRANCH   2   3
ENDBRANCH   1   2
BRANCH   1  21
ATOM     21  N   UNL A   1      33.625  30.541  26.792  1.00  0.00    -0.352 N 
ATOM     22  C   UNL A   1      34.389  31.211  27.716  1.00  0.00     0.251 C 
ATOM     23  H   UNL A   1      32.896  31.072  26.396  1.00  0.00     0.163 HD
ATOM     24  O   UNL A   1      34.001  32.307  28.113  1.00  0.00    -0.269 OA
BRANCH  22  25
ATOM     25  C   UNL A   1      35.645  30.630  28.248  1.00  0.00     0.039 A 
ATOM     26  C   UNL A   1      36.853  30.982  27.638  1.00  0.00     0.014 A 
ATOM     27  C   UNL A   1      35.648  29.706  29.297  1.00  0.00     0.014 A 
ATOM     28  C   UNL A   1      38.056  30.444  28.104  1.00  0.00     0.010 A 
ATOM     29  C   UNL A   1      36.855  29.237  29.817  1.00  0.00     0.010 A 
ATOM     30  C   UNL A   1      38.074  29.586  29.217  1.00  0.00    -0.014 A 
BRANCH  30  31
ATOM     31  C   UNL A   1      39.354  29.030  29.733  1.00  0.00     0.031 A 
ATOM     32  C   UNL A   1      40.041  29.670  30.912  1.00  0.00     0.074 A 
ATOM     33  C   UNL A   1      39.915  27.963  29.128  1.00  0.00     0.049 A 
ATOM     34  N   UNL A   1      41.173  29.350  31.486  1.00  0.00    -0.248 NA
ATOM     35  C   UNL A   1      39.380  30.841  31.507  1.00  0.00     0.031 C 
ATOM     36  C   UNL A   1      39.367  27.276  27.956  1.00  0.00     0.029 A 
ATOM     37  N   UNL A   1      41.065  27.269  29.408  1.00  0.00    -0.354 N 
ATOM     38  C   UNL A   1      41.363  30.281  32.502  1.00  0.00     0.074 A 
ATOM     39  C   UNL A   1      40.265  31.220  32.416  1.00  0.00     0.031 C 
ATOM     40  C   UNL A   1      40.162  26.241  27.641  1.00  0.00     0.029 A 
ATOM     41  C   UNL A   1      41.303  26.218  28.551  1.00  0.00     0.049 A 
ATOM     42  H   UNL A   1      41.665  27.501  30.154  1.00  0.00     0.167 HD
ATOM     43  C   UNL A   1      42.344  30.333  33.438  1.00  0.00     0.034 A 
ATOM     44  C   UNL A   1      42.327  25.343  28.495  1.00  0.00     0.034 A 
ATOM     45  C   UNL A   1      43.433  29.388  33.513  1.00  0.00     0.049 A 
ATOM     46  C   UNL A   1      43.426  25.443  29.523  1.00  0.00     0.074 A 
ATOM     47  C   UNL A   1      44.457  29.325  34.441  1.00  0.00     0.029 A 
ATOM     48  N   UNL A   1      43.645  28.344  32.621  1.00  0.00    -0.354 N 
ATOM     49  N   UNL A   1      43.565  26.303  30.507  1.00  0.00    -0.248 NA
ATOM     50  C   UNL A   1      44.499  24.444  29.443  1.00  0.00     0.031 C 
ATOM     51  C   UNL A   1      45.331  28.300  34.064  1.00  0.00     0.029 A 
ATOM     52  C   UNL A   1      44.802  27.656  32.958  1.00  0.00     0.049 A 
ATOM     53  H   UNL A   1      43.061  28.125  31.859  1.00  0.00     0.167 HD
ATOM     54  C   UNL A   1      44.722  25.922  31.184  1.00  0.00     0.074 A 
ATOM     55  C   UNL A   1      45.228  24.747  30.506  1.00  0.00     0.031 C 
ATOM     56  C   UNL A   1      45.307  26.488  32.270  1.00  0.00     0.034 A 
BRANCH  43  57
ATOM     57  C   UNL A   1      42.294  31.467  34.438  1.00  0.00     0.023 A 
ATOM     58  C   UNL A   1      41.411  31.450  35.533  1.00  0.00     0.031 A 
ATOM     59  C   UNL A   1      43.121  32.594  34.282  1.00  0.00     0.131 A 
ATOM     60  C   UNL A   1      41.318  32.567  36.377  1.00  0.00     0.055 A 
ATOM     61  C   UNL A   1      43.088  33.664  35.180  1.00  0.00     0.041 A 
ATOM     62  F   UNL A   1      43.969  32.682  33.246  1.00  0.00    -0.206 F 
ATOM     63  C   UNL A   1      42.170  33.662  36.227  1.00  0.00     0.022 A 
BRANCH  60  64
ATOM     64  S   UNL A   1      39.957  32.634  37.574  1.00  0.00     0.124 S 
ATOM     65  O   UNL A   1      39.107  31.537  37.117  1.00  0.00    -0.237 OA
ATOM     66  O   UNL A   1      40.642  32.424  38.845  1.00  0.00    -0.237 OA
ATOM     67  O   UNL A   1      39.395  33.970  37.381  1.00  0.00    -0.744 OA
ENDBRANCH  60  64
ENDBRANCH  43  57
BRANCH  44  68
ATOM     68  C   UNL A   1      42.375  24.303  27.426  1.00  0.00     0.023 A 
ATOM     69  C   UNL A   1      41.706  23.077  27.570  1.00  0.00     0.031 A 
ATOM     70  C   UNL A   1      43.136  24.502  26.260  1.00  0.00     0.131 A 
ATOM     71  C   UNL A   1      41.852  22.079  26.593  1.00  0.00     0.055 A 
ATOM     72  C   UNL A   1      43.228  23.531  25.261  1.00  0.00     0.041 A 
ATOM     73  F   UNL A   1      43.797  25.655  26.069  1.00  0.00    -0.206 F 
ATOM     74  C   UNL A   1      42.595  22.305  25.433  1.00  0.00     0.022 A 
BRANCH  71  75
ATOM     75  S   UNL A   1      41.139  20.442  26.909  1.00  0.00     0.124 S 
ATOM     76  O   UNL A   1      42.237  19.561  26.524  1.00  0.00    -0.237 OA
ATOM     77  O   UNL A   1      40.841  20.511  28.336  1.00  0.00    -0.237 OA
ATOM     78  O   UNL A   1      39.971  20.404  26.032  1.00  0.00    -0.744 OA
ENDBRANCH  71  75
ENDBRANCH  44  68
BRANCH  56  79
ATOM     79  C   UNL A   1      46.535  25.804  32.828  1.00  0.00     0.023 A 
ATOM     80  C   UNL A   1      47.822  26.053  32.320  1.00  0.00     0.031 A 
ATOM     81  C   UNL A   1      46.408  24.868  33.871  1.00  0.00     0.131 A 
ATOM     82  C   UNL A   1      48.918  25.321  32.804  1.00  0.00     0.055 A 
ATOM     83  C   UNL A   1      47.513  24.200  34.400  1.00  0.00     0.041 A 
ATOM     84  F   UNL A   1      45.204  24.585  34.393  1.00  0.00    -0.206 F 
ATOM     85  C   UNL A   1      48.775  24.412  33.855  1.00  0.00     0.022 A 
BRANCH  82  86
ATOM     86  S   UNL A   1      50.514  25.480  31.955  1.00  0.00     0.124 S 
ATOM     87  O   UNL A   1      50.244  26.551  31.001  1.00  0.00    -0.237 OA
ATOM     88  O   UNL A   1      51.418  25.815  33.051  1.00  0.00    -0.237 OA
ATOM     89  O   UNL A   1      50.721  24.159  31.364  1.00  0.00    -0.744 OA
ENDBRANCH  82  86
ENDBRANCH  56  79
ENDBRANCH  30  31
ENDBRANCH  22  25
ENDBRANCH   1  21
TORSDOF 14
ENDMDL
MODEL 3
REMARK VINA RESULT:     -11.1      1.762      2.104
REMARK SMILES C[C@@H](C(=O)NCCCNC(=O)c1ccc(-c2c3nc(c(-c4cc(S(=O)(=O)[O-])ccc4F)c4ccc([nH]4)c(-c4cc(S(=O)(=O)[O-])ccc4F)c4nc(c(-c5cc(S(=O)(=O)[O-])ccc5F)c5ccc2[nH]5)C=C4)C=C3)cc1)N1C(=O)c2nccnc2C1=O
REMARK SMILES IDX 8 1 7 2 6 3 5 4 3 5 4 6 2 8 1 9 75 10 76 11 84 12 77 13
REMARK SMILES IDX 78 14 83 15 85 16 79 17 82 18 80 19 81 20 9 21 10 22 11 24
REMARK SMILES IDX 12 25 13 26 74 27 14 28 73 29 15 30 16 31 17 32 67 33 18 34
REMARK SMILES IDX 72 35 66 36 68 37 19 38 71 39 65 40 64 41 20 43 52 44 32 45
REMARK SMILES IDX 51 46 33 47 36 48 50 49 69 50 34 51 35 52 49 54 70 55 37 56
REMARK SMILES IDX 21 57 22 58 30 59 23 60 29 61 31 62 28 63 24 64 25 65 26 66
REMARK SMILES IDX 27 67 53 68 54 69 62 70 55 71 61 72 63 73 60 74 56 75 57 76
REMARK SMILES IDX 58 77 59 78 38 79 39 80 47 81 40 82 46 83 48 84 45 85 41 86
REMARK SMILES IDX 42 87 43 88 44 89
REMARK H PARENT 5 7 9 23 68 42 36 53
REMARK Flexibility Score: inf
ROOT
ATOM      1  C   UNL A   1      40.964  21.423  27.609  1.00  0.00     0.118 C 
ENDROOT
BRANCH   1   2
ATOM      2  C   UNL A   1      41.479  19.987  27.609  1.00  0.00     0.042 C 
BRANCH   2   3
ATOM      3  C   UNL A   1      41.859  19.454  26.231  1.00  0.00     0.117 C 
BRANCH   3   4
ATOM      4  N   UNL A   1      43.101  18.701  26.252  1.00  0.00    -0.354 N 
ATOM      5  C   UNL A   1      44.189  18.790  25.430  1.00  0.00     0.243 C 
ATOM      6  O   UNL A   1      45.178  18.108  25.713  1.00  0.00    -0.273 OA
ATOM      7  H   UNL A   1      43.168  18.025  26.965  1.00  0.00     0.163 HD
BRANCH   5   8
ATOM      8  C   UNL A   1      44.162  19.735  24.213  1.00  0.00     0.180 C 
ATOM      9  C   UNL A   1      44.922  19.186  23.010  1.00  0.00     0.042 C 
BRANCH   8  10
ATOM     10  N   UNL A   1      44.653  21.047  24.634  1.00  0.00    -0.259 N 
ATOM     11  C   UNL A   1      43.878  22.167  24.827  1.00  0.00     0.282 C 
ATOM     12  C   UNL A   1      45.987  21.329  24.785  1.00  0.00     0.282 C 
ATOM     13  O   UNL A   1      42.670  22.279  24.762  1.00  0.00    -0.267 OA
ATOM     14  C   UNL A   1      44.799  23.244  25.189  1.00  0.00     0.160 A 
ATOM     15  C   UNL A   1      46.072  22.738  25.167  1.00  0.00     0.160 A 
ATOM     16  O   UNL A   1      46.932  20.569  24.659  1.00  0.00    -0.267 OA
ATOM     17  N   UNL A   1      44.488  24.495  25.586  1.00  0.00    -0.247 NA
ATOM     18  N   UNL A   1      47.170  23.426  25.542  1.00  0.00    -0.247 NA
ATOM     19  C   UNL A   1      45.579  25.214  25.955  1.00  0.00     0.132 A 
ATOM     20  C   UNL A   1      46.881  24.695  25.935  1.00  0.00     0.132 A 
ENDBRANCH   8  10
ENDBRANCH   5   8
ENDBRANCH   3   4
ENDBRANCH   2   3
ENDBRANCH   1   2
BRANCH   1  21
ATOM     21  N   UNL A   1      39.783  21.593  26.778  1.00  0.00    -0.352 N 
ATOM     22  C   UNL A   1      39.030  22.711  26.516  1.00  0.00     0.251 C 
ATOM     23  H   UNL A   1      39.471  20.772  26.331  1.00  0.00     0.163 HD
ATOM     24  O   UNL A   1      37.956  22.572  25.935  1.00  0.00    -0.269 OA
BRANCH  22  25
ATOM     25  C   UNL A   1      39.477  24.061  26.935  1.00  0.00     0.039 A 
ATOM     26  C   UNL A   1      39.268  24.449  28.262  1.00  0.00     0.014 A 
ATOM     27  C   UNL A   1      40.046  24.967  26.035  1.00  0.00     0.014 A 
ATOM     28  C   UNL A   1      39.663  25.719  28.691  1.00  0.00     0.010 A 
ATOM     29  C   UNL A   1      40.519  26.200  26.485  1.00  0.00     0.010 A 
ATOM     30  C   UNL A   1      40.319  26.600  27.814  1.00  0.00    -0.014 A 
BRANCH  30  31
ATOM     31  C   UNL A   1      40.765  27.944  28.271  1.00  0.00     0.031 A 
ATOM     32  C   UNL A   1      42.227  28.310  28.246  1.00  0.00     0.074 A 
ATOM     33  C   UNL A   1      39.860  28.830  28.734  1.00  0.00     0.049 A 
ATOM     34  N   UNL A   1      42.812  29.416  28.630  1.00  0.00    -0.248 NA
ATOM     35  C   UNL A   1      43.157  27.284  27.747  1.00  0.00     0.031 C 
ATOM     36  C   UNL A   1      38.420  28.584  28.842  1.00  0.00     0.029 A 
ATOM     37  N   UNL A   1      40.011  30.113  29.199  1.00  0.00    -0.354 N 
ATOM     38  C   UNL A   1      44.174  29.219  28.426  1.00  0.00     0.074 A 
ATOM     39  C   UNL A   1      44.331  27.860  27.954  1.00  0.00     0.031 C 
ATOM     40  C   UNL A   1      37.819  29.690  29.309  1.00  0.00     0.029 A 
ATOM     41  C   UNL A   1      38.830  30.707  29.583  1.00  0.00     0.049 A 
ATOM     42  H   UNL A   1      40.883  30.566  29.253  1.00  0.00     0.167 HD
ATOM     43  C   UNL A   1      45.197  30.096  28.589  1.00  0.00     0.034 A 
ATOM     44  C   UNL A   1      38.587  31.925  30.107  1.00  0.00     0.034 A 
ATOM     45  C   UNL A   1      45.024  31.450  29.060  1.00  0.00     0.049 A 
ATOM     46  C   UNL A   1      39.744  32.871  30.315  1.00  0.00     0.074 A 
ATOM     47  C   UNL A   1      45.984  32.434  29.226  1.00  0.00     0.029 A 
ATOM     48  N   UNL A   1      43.814  32.011  29.449  1.00  0.00    -0.354 N 
ATOM     49  N   UNL A   1      41.021  32.683  30.073  1.00  0.00    -0.248 NA
ATOM     50  C   UNL A   1      39.423  34.199  30.852  1.00  0.00     0.031 C 
ATOM     51  C   UNL A   1      45.371  33.556  29.791  1.00  0.00     0.029 A 
ATOM     52  C   UNL A   1      44.010  33.313  29.886  1.00  0.00     0.049 A 
ATOM     53  H   UNL A   1      42.944  31.552  29.421  1.00  0.00     0.167 HD
ATOM     54  C   UNL A   1      41.649  33.885  30.393  1.00  0.00     0.074 A 
ATOM     55  C   UNL A   1      40.607  34.791  30.828  1.00  0.00     0.031 C 
ATOM     56  C   UNL A   1      42.965  34.210  30.328  1.00  0.00     0.034 A 
BRANCH  43  57
ATOM     57  C   UNL A   1      46.593  29.604  28.281  1.00  0.00     0.023 A 
ATOM     58  C   UNL A   1      47.398  29.000  29.262  1.00  0.00     0.031 A 
ATOM     59  C   UNL A   1      47.139  29.762  26.994  1.00  0.00     0.131 A 
ATOM     60  C   UNL A   1      48.726  28.653  28.967  1.00  0.00     0.055 A 
ATOM     61  C   UNL A   1      48.430  29.331  26.682  1.00  0.00     0.041 A 
ATOM     62  F   UNL A   1      46.430  30.352  26.018  1.00  0.00    -0.206 F 
ATOM     63  C   UNL A   1      49.238  28.787  27.676  1.00  0.00     0.022 A 
BRANCH  60  64
ATOM     64  S   UNL A   1      49.820  28.175  30.333  1.00  0.00     0.124 S 
ATOM     65  O   UNL A   1      48.856  27.760  31.351  1.00  0.00    -0.237 OA
ATOM     66  O   UNL A   1      50.620  27.111  29.739  1.00  0.00    -0.237 OA
ATOM     67  O   UNL A   1      50.546  29.407  30.638  1.00  0.00    -0.744 OA
ENDBRANCH  60  64
ENDBRANCH  43  57
BRANCH  44  68
ATOM     68  C   UNL A   1      37.199  32.322  30.485  1.00  0.00     0.023 A 
ATOM     69  C   UNL A   1      36.312  32.863  29.540  1.00  0.00     0.031 A 
ATOM     70  C   UNL A   1      36.754  32.214  31.815  1.00  0.00     0.131 A 
ATOM     71  C   UNL A   1      35.049  33.322  29.946  1.00  0.00     0.055 A 
ATOM     72  C   UNL A   1      35.474  32.613  32.202  1.00  0.00     0.041 A 
ATOM     73  F   UNL A   1      37.560  31.705  32.761  1.00  0.00    -0.206 F 
ATOM     74  C   UNL A   1      34.618  33.184  31.267  1.00  0.00     0.022 A 
BRANCH  71  75
ATOM     75  S   UNL A   1      34.011  34.194  28.741  1.00  0.00     0.124 S 
ATOM     76  O   UNL A   1      34.879  35.298  28.346  1.00  0.00    -0.237 OA
ATOM     77  O   UNL A   1      33.785  33.163  27.733  1.00  0.00    -0.237 OA
ATOM     78  O   UNL A   1      32.833  34.573  29.518  1.00  0.00    -0.744 OA
ENDBRANCH  71  75
ENDBRANCH  44  68
BRANCH  56  79
ATOM     79  C   UNL A   1      43.344  35.630  30.683  1.00  0.00     0.023 A 
ATOM     80  C   UNL A   1      43.625  36.018  32.005  1.00  0.00     0.031 A 
ATOM     81  C   UNL A   1      43.399  36.617  29.682  1.00  0.00     0.131 A 
ATOM     82  C   UNL A   1      43.875  37.368  32.300  1.00  0.00     0.055 A 
ATOM     83  C   UNL A   1      43.725  37.943  29.971  1.00  0.00     0.041 A 
ATOM     84  F   UNL A   1      43.135  36.308  28.402  1.00  0.00    -0.206 F 
ATOM     85  C   UNL A   1      43.947  38.329  31.289  1.00  0.00     0.022 A 
BRANCH  82  86
ATOM     86  S   UNL A   1      43.980  37.874  34.039  1.00  0.00     0.124 S 
ATOM     87  O   UNL A   1      42.606  38.277  34.320  1.00  0.00    -0.237 OA
ATOM     88  O   UNL A   1      44.432  36.650  34.694  1.00  0.00    -0.237 OA
ATOM     89  O   UNL A   1      44.955  38.963  34.022  1.00  0.00    -0.744 OA
ENDBRANCH  82  86
ENDBRANCH  56  79
ENDBRANCH  30  31
ENDBRANCH  22  25
ENDBRANCH   1  21
TORSDOF 14
ENDMDL
