MODEL 1
REMARK VINA RESULT:      -9.8      0.000      0.000
REMARK SMILES C[C@@H](C(=O)NCCCNC(=O)c1ccc(-c2c3nc(c(-c4cc(S(=O)(=O)[O-])ccc4F)c4ccc([nH]4)c(-c4cc(S(=O)(=O)[O-])ccc4F)c4nc(c(-c5cc(S(=O)(=O)[O-])ccc5F)c5ccc2[nH]5)C=C4)C=C3)cc1)c1ccc(C[C@H]2CCC[C@H]2O)cc1
REMARK SMILES IDX 6 1 5 2 3 3 4 4 2 6 1 7 75 8 76 9 87 10 77 11 86 12 78 13
REMARK SMILES IDX 79 14 80 15 81 16 84 17 82 18 83 19 85 20 7 22 8 23 9 24
REMARK SMILES IDX 10 25 11 27 12 28 13 29 74 30 14 31 73 32 15 33 16 34 17 35
REMARK SMILES IDX 67 36 18 37 72 38 66 39 68 40 19 41 71 42 65 43 64 44 20 46
REMARK SMILES IDX 52 47 32 48 51 49 33 50 36 51 50 52 69 53 34 54 35 55 49 57
REMARK SMILES IDX 70 58 37 59 21 60 22 61 30 62 23 63 29 64 31 65 28 66 24 67
REMARK SMILES IDX 25 68 26 69 27 70 53 71 54 72 62 73 55 74 61 75 63 76 60 77
REMARK SMILES IDX 56 78 57 79 58 80 59 81 38 82 39 83 47 84 40 85 46 86 48 87
REMARK SMILES IDX 45 88 41 89 42 90 43 91 44 92
REMARK H PARENT 5 5 85 21 9 26 68 45 36 56
REMARK Flexibility Score: inf
ROOT
ATOM      1  C   UNL A   1      43.419  18.928  25.723  1.00  0.00     0.117 C 
ENDROOT
BRANCH   1   2
ATOM      2  N   UNL A   1      44.793  19.257  25.400  1.00  0.00    -0.356 N 
ATOM      3  C   UNL A   1      45.351  20.446  25.031  1.00  0.00     0.227 C 
ATOM      4  O   UNL A   1      46.513  20.408  24.622  1.00  0.00    -0.274 OA
ATOM      5  H   UNL A   1      45.424  18.503  25.457  1.00  0.00     0.163 HD
BRANCH   3   6
ATOM      6  C   UNL A   1      44.557  21.751  25.195  1.00  0.00     0.105 C 
ATOM      7  C   UNL A   1      44.481  22.548  23.889  1.00  0.00     0.023 C 
BRANCH   6   8
ATOM      8  C   UNL A   1      45.072  22.573  26.375  1.00  0.00    -0.036 A 
ATOM      9  C   UNL A   1      44.325  22.588  27.562  1.00  0.00     0.005 A 
ATOM     10  C   UNL A   1      46.255  23.323  26.329  1.00  0.00     0.005 A 
ATOM     11  C   UNL A   1      44.713  23.380  28.641  1.00  0.00     0.004 A 
ATOM     12  C   UNL A   1      46.618  24.151  27.393  1.00  0.00     0.004 A 
ATOM     13  C   UNL A   1      45.816  24.230  28.537  1.00  0.00    -0.048 A 
BRANCH  13  14
ATOM     14  C   UNL A   1      46.108  25.250  29.607  1.00  0.00     0.041 C 
BRANCH  14  15
ATOM     15  C   UNL A   1      45.132  26.438  29.710  1.00  0.00     0.022 C 
ATOM     16  C   UNL A   1      43.778  26.154  30.387  1.00  0.00     0.007 C 
ATOM     17  C   UNL A   1      45.628  27.736  30.368  1.00  0.00     0.117 C 
ATOM     18  C   UNL A   1      43.336  27.475  31.025  1.00  0.00     0.003 C 
ATOM     19  C   UNL A   1      44.338  28.525  30.555  1.00  0.00     0.032 C 
BRANCH  17  20
ATOM     20  O   UNL A   1      46.234  27.578  31.638  1.00  0.00    -0.393 OA
ATOM     21  H   UNL A   1      46.258  26.636  31.870  1.00  0.00     0.210 HD
ENDBRANCH  17  20
ENDBRANCH  14  15
ENDBRANCH  13  14
ENDBRANCH   6   8
ENDBRANCH   3   6
ENDBRANCH   1   2
BRANCH   1  22
ATOM     22  C   UNL A   1      42.548  20.183  25.748  1.00  0.00     0.042 C 
BRANCH  22  23
ATOM     23  C   UNL A   1      41.441  20.145  26.798  1.00  0.00     0.118 C 
BRANCH  23  24
ATOM     24  N   UNL A   1      40.116  20.250  26.207  1.00  0.00    -0.352 N 
ATOM     25  C   UNL A   1      39.265  21.325  26.143  1.00  0.00     0.251 C 
ATOM     26  H   UNL A   1      39.778  19.424  25.791  1.00  0.00     0.163 HD
ATOM     27  O   UNL A   1      38.101  21.146  25.801  1.00  0.00    -0.269 OA
BRANCH  25  28
ATOM     28  C   UNL A   1      39.740  22.681  26.504  1.00  0.00     0.039 A 
ATOM     29  C   UNL A   1      40.624  22.817  27.577  1.00  0.00     0.014 A 
ATOM     30  C   UNL A   1      39.303  23.814  25.811  1.00  0.00     0.014 A 
ATOM     31  C   UNL A   1      41.120  24.080  27.911  1.00  0.00     0.010 A 
ATOM     32  C   UNL A   1      39.857  25.060  26.096  1.00  0.00     0.010 A 
ATOM     33  C   UNL A   1      40.772  25.208  27.150  1.00  0.00    -0.014 A 
BRANCH  33  34
ATOM     34  C   UNL A   1      41.363  26.542  27.438  1.00  0.00     0.031 A 
ATOM     35  C   UNL A   1      42.738  26.889  26.932  1.00  0.00     0.074 A 
ATOM     36  C   UNL A   1      40.681  27.420  28.200  1.00  0.00     0.049 A 
ATOM     37  N   UNL A   1      43.446  27.970  27.137  1.00  0.00    -0.248 NA
ATOM     38  C   UNL A   1      43.417  25.876  26.109  1.00  0.00     0.031 C 
ATOM     39  C   UNL A   1      39.353  27.185  28.775  1.00  0.00     0.029 A 
ATOM     40  N   UNL A   1      41.005  28.683  28.631  1.00  0.00    -0.354 N 
ATOM     41  C   UNL A   1      44.654  27.766  26.478  1.00  0.00     0.074 A 
ATOM     42  C   UNL A   1      44.604  26.433  25.917  1.00  0.00     0.031 C 
ATOM     43  C   UNL A   1      38.969  28.275  29.457  1.00  0.00     0.029 A 
ATOM     44  C   UNL A   1      40.039  29.265  29.419  1.00  0.00     0.049 A 
ATOM     45  H   UNL A   1      41.851  29.129  28.398  1.00  0.00     0.167 HD
ATOM     46  C   UNL A   1      45.699  28.620  26.339  1.00  0.00     0.034 A 
ATOM     47  C   UNL A   1      40.022  30.455  30.053  1.00  0.00     0.034 A 
ATOM     48  C   UNL A   1      45.729  29.949  26.899  1.00  0.00     0.049 A 
ATOM     49  C   UNL A   1      41.216  31.369  29.915  1.00  0.00     0.074 A 
ATOM     50  C   UNL A   1      46.715  30.914  26.773  1.00  0.00     0.029 A 
ATOM     51  N   UNL A   1      44.737  30.502  27.699  1.00  0.00    -0.354 N 
ATOM     52  N   UNL A   1      42.328  31.180  29.243  1.00  0.00    -0.248 NA
ATOM     53  C   UNL A   1      41.145  32.661  30.607  1.00  0.00     0.031 C 
ATOM     54  C   UNL A   1      46.356  32.014  27.558  1.00  0.00     0.029 A 
ATOM     55  C   UNL A   1      45.105  31.776  28.102  1.00  0.00     0.049 A 
ATOM     56  H   UNL A   1      43.895  30.053  27.944  1.00  0.00     0.167 HD
ATOM     57  C   UNL A   1      43.072  32.345  29.407  1.00  0.00     0.074 A 
ATOM     58  C   UNL A   1      42.274  33.235  30.223  1.00  0.00     0.031 C 
ATOM     59  C   UNL A   1      44.302  32.654  28.923  1.00  0.00     0.034 A 
BRANCH  46  60
ATOM     60  C   UNL A   1      46.907  28.132  25.574  1.00  0.00     0.023 A 
ATOM     61  C   UNL A   1      47.030  28.319  24.186  1.00  0.00     0.031 A 
ATOM     62  C   UNL A   1      47.952  27.470  26.243  1.00  0.00     0.131 A 
ATOM     63  C   UNL A   1      48.140  27.798  23.504  1.00  0.00     0.055 A 
ATOM     64  C   UNL A   1      49.091  27.024  25.571  1.00  0.00     0.041 A 
ATOM     65  F   UNL A   1      47.882  27.241  27.563  1.00  0.00    -0.206 F 
ATOM     66  C   UNL A   1      49.184  27.175  24.191  1.00  0.00     0.022 A 
BRANCH  63  67
ATOM     67  S   UNL A   1      48.137  27.829  21.691  1.00  0.00     0.124 S 
ATOM     68  O   UNL A   1      49.175  28.817  21.410  1.00  0.00    -0.237 OA
ATOM     69  O   UNL A   1      48.462  26.448  21.351  1.00  0.00    -0.237 OA
ATOM     70  O   UNL A   1      46.779  28.251  21.357  1.00  0.00    -0.744 OA
ENDBRANCH  63  67
ENDBRANCH  46  60
BRANCH  47  71
ATOM     71  C   UNL A   1      38.856  30.853  30.896  1.00  0.00     0.023 A 
ATOM     72  C   UNL A   1      37.846  31.684  30.388  1.00  0.00     0.031 A 
ATOM     73  C   UNL A   1      38.767  30.461  32.244  1.00  0.00     0.131 A 
ATOM     74  C   UNL A   1      36.825  32.145  31.234  1.00  0.00     0.055 A 
ATOM     75  C   UNL A   1      37.714  30.869  33.065  1.00  0.00     0.041 A 
ATOM     76  F   UNL A   1      39.705  29.664  32.784  1.00  0.00    -0.206 F 
ATOM     77  C   UNL A   1      36.744  31.731  32.565  1.00  0.00     0.022 A 
BRANCH  74  78
ATOM     78  S   UNL A   1      35.668  33.389  30.598  1.00  0.00     0.124 S 
ATOM     79  O   UNL A   1      35.732  34.411  31.637  1.00  0.00    -0.237 OA
ATOM     80  O   UNL A   1      36.273  33.737  29.317  1.00  0.00    -0.237 OA
ATOM     81  O   UNL A   1      34.402  32.663  30.512  1.00  0.00    -0.744 OA
ENDBRANCH  74  78
ENDBRANCH  47  71
BRANCH  59  82
ATOM     82  C   UNL A   1      44.833  34.036  29.221  1.00  0.00     0.023 A 
ATOM     83  C   UNL A   1      44.594  35.125  28.364  1.00  0.00     0.031 A 
ATOM     84  C   UNL A   1      45.600  34.263  30.378  1.00  0.00     0.131 A 
ATOM     85  C   UNL A   1      45.167  36.375  28.646  1.00  0.00     0.055 A 
ATOM     86  C   UNL A   1      46.110  35.525  30.688  1.00  0.00     0.041 A 
ATOM     87  F   UNL A   1      45.863  33.260  31.231  1.00  0.00    -0.206 F 
ATOM     88  C   UNL A   1      45.907  36.586  29.811  1.00  0.00     0.022 A 
BRANCH  85  89
ATOM     89  S   UNL A   1      45.019  37.698  27.413  1.00  0.00     0.124 S 
ATOM     90  O   UNL A   1      46.105  37.378  26.492  1.00  0.00    -0.237 OA
ATOM     91  O   UNL A   1      43.668  37.497  26.900  1.00  0.00    -0.237 OA
ATOM     92  O   UNL A   1      45.208  38.918  28.196  1.00  0.00    -0.744 OA
ENDBRANCH  85  89
ENDBRANCH  59  82
ENDBRANCH  33  34
ENDBRANCH  25  28
ENDBRANCH  23  24
ENDBRANCH  22  23
ENDBRANCH   1  22
TORSDOF 17
ENDMDL
MODEL 2
REMARK VINA RESULT:      -9.6      5.184     11.620
REMARK SMILES C[C@@H](C(=O)NCCCNC(=O)c1ccc(-c2c3nc(c(-c4cc(S(=O)(=O)[O-])ccc4F)c4ccc([nH]4)c(-c4cc(S(=O)(=O)[O-])ccc4F)c4nc(c(-c5cc(S(=O)(=O)[O-])ccc5F)c5ccc2[nH]5)C=C4)C=C3)cc1)c1ccc(C[C@H]2CCC[C@H]2O)cc1
REMARK SMILES IDX 6 1 5 2 3 3 4 4 2 6 1 7 75 8 76 9 87 10 77 11 86 12 78 13
REMARK SMILES IDX 79 14 80 15 81 16 84 17 82 18 83 19 85 20 7 22 8 23 9 24
REMARK SMILES IDX 10 25 11 27 12 28 13 29 74 30 14 31 73 32 15 33 16 34 17 35
REMARK SMILES IDX 67 36 18 37 72 38 66 39 68 40 19 41 71 42 65 43 64 44 20 46
REMARK SMILES IDX 52 47 32 48 51 49 33 50 36 51 50 52 69 53 34 54 35 55 49 57
REMARK SMILES IDX 70 58 37 59 21 60 22 61 30 62 23 63 29 64 31 65 28 66 24 67
REMARK SMILES IDX 25 68 26 69 27 70 53 71 54 72 62 73 55 74 61 75 63 76 60 77
REMARK SMILES IDX 56 78 57 79 58 80 59 81 38 82 39 83 47 84 40 85 46 86 48 87
REMARK SMILES IDX 45 88 41 89 42 90 43 91 44 92
REMARK H PARENT 5 5 85 21 9 26 68 45 36 56
REMARK Flexibility Score: inf
ROOT
ATOM      1  C   UNL A   1      33.158  26.664  25.062  1.00  0.00     0.117 C 
ENDROOT
BRANCH   1   2
ATOM      2  N   UNL A   1      33.557  27.014  23.713  1.00  0.00    -0.356 N 
ATOM      3  C   UNL A   1      33.332  26.369  22.533  1.00  0.00     0.227 C 
ATOM      4  O   UNL A   1      33.951  26.781  21.550  1.00  0.00    -0.274 OA
ATOM      5  H   UNL A   1      34.071  27.851  23.637  1.00  0.00     0.163 HD
BRANCH   3   6
ATOM      6  C   UNL A   1      32.299  25.233  22.463  1.00  0.00     0.105 C 
ATOM      7  C   UNL A   1      30.971  25.619  23.121  1.00  0.00     0.023 C 
BRANCH   6   8
ATOM      8  C   UNL A   1      32.876  23.921  22.994  1.00  0.00    -0.036 A 
ATOM      9  C   UNL A   1      31.992  22.892  23.349  1.00  0.00     0.005 A 
ATOM     10  C   UNL A   1      34.251  23.695  23.151  1.00  0.00     0.005 A 
ATOM     11  C   UNL A   1      32.464  21.706  23.907  1.00  0.00     0.004 A 
ATOM     12  C   UNL A   1      34.718  22.525  23.751  1.00  0.00     0.004 A 
ATOM     13  C   UNL A   1      33.822  21.544  24.188  1.00  0.00    -0.048 A 
BRANCH  13  14
ATOM     14  C   UNL A   1      34.308  20.366  24.992  1.00  0.00     0.041 C 
BRANCH  14  15
ATOM     15  C   UNL A   1      33.869  18.972  24.503  1.00  0.00     0.022 C 
ATOM     16  C   UNL A   1      34.967  17.894  24.431  1.00  0.00     0.007 C 
ATOM     17  C   UNL A   1      32.698  18.281  25.224  1.00  0.00     0.117 C 
ATOM     18  C   UNL A   1      34.263  16.553  24.663  1.00  0.00     0.003 C 
ATOM     19  C   UNL A   1      32.769  16.859  24.681  1.00  0.00     0.032 C 
BRANCH  17  20
ATOM     20  O   UNL A   1      32.807  18.219  26.635  1.00  0.00    -0.393 OA
ATOM     21  H   UNL A   1      32.230  17.517  26.974  1.00  0.00     0.210 HD
ENDBRANCH  17  20
ENDBRANCH  14  15
ENDBRANCH  13  14
ENDBRANCH   6   8
ENDBRANCH   3   6
ENDBRANCH   1   2
BRANCH   1  22
ATOM     22  C   UNL A   1      32.747  27.906  25.851  1.00  0.00     0.042 C 
BRANCH  22  23
ATOM     23  C   UNL A   1      33.873  28.507  26.687  1.00  0.00     0.118 C 
BRANCH  23  24
ATOM     24  N   UNL A   1      33.663  29.919  26.964  1.00  0.00    -0.352 N 
ATOM     25  C   UNL A   1      34.392  30.779  27.748  1.00  0.00     0.251 C 
ATOM     26  H   UNL A   1      32.879  30.318  26.523  1.00  0.00     0.163 HD
ATOM     27  O   UNL A   1      33.920  31.875  28.030  1.00  0.00    -0.269 OA
BRANCH  25  28
ATOM     28  C   UNL A   1      35.721  30.380  28.264  1.00  0.00     0.039 A 
ATOM     29  C   UNL A   1      35.789  29.684  29.474  1.00  0.00     0.014 A 
ATOM     30  C   UNL A   1      36.896  30.705  27.580  1.00  0.00     0.014 A 
ATOM     31  C   UNL A   1      37.027  29.260  29.962  1.00  0.00     0.010 A 
ATOM     32  C   UNL A   1      38.121  30.214  28.028  1.00  0.00     0.010 A 
ATOM     33  C   UNL A   1      38.201  29.486  29.225  1.00  0.00    -0.014 A 
BRANCH  33  34
ATOM     34  C   UNL A   1      39.513  28.960  29.687  1.00  0.00     0.031 A 
ATOM     35  C   UNL A   1      40.262  29.654  30.793  1.00  0.00     0.074 A 
ATOM     36  C   UNL A   1      40.052  27.888  29.072  1.00  0.00     0.049 A 
ATOM     37  N   UNL A   1      41.445  29.386  31.286  1.00  0.00    -0.248 NA
ATOM     38  C   UNL A   1      39.606  30.817  31.410  1.00  0.00     0.031 C 
ATOM     39  C   UNL A   1      39.436  27.151  27.966  1.00  0.00     0.029 A 
ATOM     40  N   UNL A   1      41.241  27.233  29.281  1.00  0.00    -0.354 N 
ATOM     41  C   UNL A   1      41.680  30.349  32.261  1.00  0.00     0.074 A 
ATOM     42  C   UNL A   1      40.540  31.242  32.250  1.00  0.00     0.031 C 
ATOM     43  C   UNL A   1      40.236  26.133  27.615  1.00  0.00     0.029 A 
ATOM     44  C   UNL A   1      41.447  26.174  28.427  1.00  0.00     0.049 A 
ATOM     45  H   UNL A   1      41.885  27.497  29.977  1.00  0.00     0.167 HD
ATOM     46  C   UNL A   1      42.738  30.466  33.101  1.00  0.00     0.034 A 
ATOM     47  C   UNL A   1      42.499  25.340  28.299  1.00  0.00     0.034 A 
ATOM     48  C   UNL A   1      43.863  29.562  33.104  1.00  0.00     0.049 A 
ATOM     49  C   UNL A   1      43.682  25.517  29.220  1.00  0.00     0.074 A 
ATOM     50  C   UNL A   1      44.961  29.558  33.947  1.00  0.00     0.029 A 
ATOM     51  N   UNL A   1      44.042  28.507  32.219  1.00  0.00    -0.354 N 
ATOM     52  N   UNL A   1      43.863  26.403  30.173  1.00  0.00    -0.248 NA
ATOM     53  C   UNL A   1      44.796  24.575  29.057  1.00  0.00     0.031 C 
ATOM     54  C   UNL A   1      45.838  28.555  33.523  1.00  0.00     0.029 A 
ATOM     55  C   UNL A   1      45.249  27.872  32.472  1.00  0.00     0.049 A 
ATOM     56  H   UNL A   1      43.406  28.248  31.513  1.00  0.00     0.167 HD
ATOM     57  C   UNL A   1      45.095  26.098  30.743  1.00  0.00     0.074 A 
ATOM     58  C   UNL A   1      45.603  24.939  30.041  1.00  0.00     0.031 C 
ATOM     59  C   UNL A   1      45.749  26.718  31.760  1.00  0.00     0.034 A 
BRANCH  46  60
ATOM     60  C   UNL A   1      42.743  31.627  34.067  1.00  0.00     0.023 A 
ATOM     61  C   UNL A   1      42.191  31.521  35.356  1.00  0.00     0.031 A 
ATOM     62  C   UNL A   1      43.309  32.860  33.694  1.00  0.00     0.131 A 
ATOM     63  C   UNL A   1      42.163  32.642  36.201  1.00  0.00     0.055 A 
ATOM     64  C   UNL A   1      43.349  33.947  34.569  1.00  0.00     0.041 A 
ATOM     65  F   UNL A   1      43.831  33.030  32.469  1.00  0.00    -0.206 F 
ATOM     66  C   UNL A   1      42.762  33.846  35.826  1.00  0.00     0.022 A 
BRANCH  63  67
ATOM     67  S   UNL A   1      41.216  32.540  37.744  1.00  0.00     0.124 S 
ATOM     68  O   UNL A   1      39.948  31.986  37.277  1.00  0.00    -0.237 OA
ATOM     69  O   UNL A   1      42.037  31.654  38.561  1.00  0.00    -0.237 OA
ATOM     70  O   UNL A   1      41.152  33.927  38.199  1.00  0.00    -0.744 OA
ENDBRANCH  63  67
ENDBRANCH  46  60
BRANCH  47  71
ATOM     71  C   UNL A   1      42.505  24.275  27.253  1.00  0.00     0.023 A 
ATOM     72  C   UNL A   1      41.794  23.079  27.434  1.00  0.00     0.031 A 
ATOM     73  C   UNL A   1      43.275  24.411  26.083  1.00  0.00     0.131 A 
ATOM     74  C   UNL A   1      41.914  22.043  26.494  1.00  0.00     0.055 A 
ATOM     75  C   UNL A   1      43.339  23.404  25.120  1.00  0.00     0.041 A 
ATOM     76  F   UNL A   1      43.975  25.535  25.856  1.00  0.00    -0.206 F 
ATOM     77  C   UNL A   1      42.669  22.203  25.330  1.00  0.00     0.022 A 
BRANCH  74  78
ATOM     78  S   UNL A   1      41.160  20.437  26.873  1.00  0.00     0.124 S 
ATOM     79  O   UNL A   1      42.226  19.514  26.502  1.00  0.00    -0.237 OA
ATOM     80  O   UNL A   1      40.886  20.561  28.301  1.00  0.00    -0.237 OA
ATOM     81  O   UNL A   1      39.978  20.406  26.013  1.00  0.00    -0.744 OA
ENDBRANCH  74  78
ENDBRANCH  47  71
BRANCH  59  82
ATOM     82  C   UNL A   1      47.059  26.116  32.205  1.00  0.00     0.023 A 
ATOM     83  C   UNL A   1      47.128  25.168  33.241  1.00  0.00     0.031 A 
ATOM     84  C   UNL A   1      48.262  26.508  31.589  1.00  0.00     0.131 A 
ATOM     85  C   UNL A   1      48.376  24.689  33.670  1.00  0.00     0.055 A 
ATOM     86  C   UNL A   1      49.494  25.977  31.974  1.00  0.00     0.041 A 
ATOM     87  F   UNL A   1      48.258  27.413  30.598  1.00  0.00    -0.206 F 
ATOM     88  C   UNL A   1      49.556  25.073  33.030  1.00  0.00     0.022 A 
BRANCH  85  89
ATOM     89  S   UNL A   1      48.444  23.635  35.144  1.00  0.00     0.124 S 
ATOM     90  O   UNL A   1      48.384  24.616  36.222  1.00  0.00    -0.237 OA
ATOM     91  O   UNL A   1      47.263  22.793  34.982  1.00  0.00    -0.237 OA
ATOM     92  O   UNL A   1      49.723  22.939  35.009  1.00  0.00    -0.744 OA
ENDBRANCH  85  89
ENDBRANCH  59  82
ENDBRANCH  33  34
ENDBRANCH  25  28
ENDBRANCH  23  24
ENDBRANCH  22  23
ENDBRANCH   1  22
TORSDOF 17
ENDMDL
MODEL 3
REMARK VINA RESULT:      -9.5      5.606     10.143
REMARK SMILES C[C@@H](C(=O)NCCCNC(=O)c1ccc(-c2c3nc(c(-c4cc(S(=O)(=O)[O-])ccc4F)c4ccc([nH]4)c(-c4cc(S(=O)(=O)[O-])ccc4F)c4nc(c(-c5cc(S(=O)(=O)[O-])ccc5F)c5ccc2[nH]5)C=C4)C=C3)cc1)c1ccc(C[C@H]2CCC[C@H]2O)cc1
REMARK SMILES IDX 6 1 5 2 3 3 4 4 2 6 1 7 75 8 76 9 87 10 77 11 86 12 78 13
REMARK SMILES IDX 79 14 80 15 81 16 84 17 82 18 83 19 85 20 7 22 8 23 9 24
REMARK SMILES IDX 10 25 11 27 12 28 13 29 74 30 14 31 73 32 15 33 16 34 17 35
REMARK SMILES IDX 67 36 18 37 72 38 66 39 68 40 19 41 71 42 65 43 64 44 20 46
REMARK SMILES IDX 52 47 32 48 51 49 33 50 36 51 50 52 69 53 34 54 35 55 49 57
REMARK SMILES IDX 70 58 37 59 21 60 22 61 30 62 23 63 29 64 31 65 28 66 24 67
REMARK SMILES IDX 25 68 26 69 27 70 53 71 54 72 62 73 55 74 61 75 63 76 60 77
REMARK SMILES IDX 56 78 57 79 58 80 59 81 38 82 39 83 47 84 40 85 46 86 48 87
REMARK SMILES IDX 45 88 41 89 42 90 43 91 44 92
REMARK H PARENT 5 5 85 21 9 26 68 45 36 56
REMARK Flexibility Score: inf
ROOT
ATOM      1  C   UNL A   1      31.591  28.968  23.976  1.00  0.00     0.117 C 
ENDROOT
BRANCH   1   2
ATOM      2  N   UNL A   1      30.686  27.853  24.172  1.00  0.00    -0.356 N 
ATOM      3  C   UNL A   1      30.751  26.573  23.704  1.00  0.00     0.227 C 
ATOM      4  O   UNL A   1      29.747  25.876  23.858  1.00  0.00    -0.274 OA
ATOM      5  H   UNL A   1      29.900  28.049  24.733  1.00  0.00     0.163 HD
BRANCH   3   6
ATOM      6  C   UNL A   1      32.054  26.048  23.082  1.00  0.00     0.105 C 
ATOM      7  C   UNL A   1      31.955  25.920  21.558  1.00  0.00     0.023 C 
BRANCH   6   8
ATOM      8  C   UNL A   1      32.523  24.765  23.766  1.00  0.00    -0.036 A 
ATOM      9  C   UNL A   1      32.487  23.565  23.042  1.00  0.00     0.005 A 
ATOM     10  C   UNL A   1      32.985  24.726  25.089  1.00  0.00     0.005 A 
ATOM     11  C   UNL A   1      32.834  22.357  23.644  1.00  0.00     0.004 A 
ATOM     12  C   UNL A   1      33.288  23.510  25.703  1.00  0.00     0.004 A 
ATOM     13  C   UNL A   1      33.159  22.307  25.001  1.00  0.00    -0.048 A 
BRANCH  13  14
ATOM     14  C   UNL A   1      33.314  20.986  25.709  1.00  0.00     0.041 C 
BRANCH  14  15
ATOM     15  C   UNL A   1      33.415  19.735  24.815  1.00  0.00     0.022 C 
ATOM     16  C   UNL A   1      34.824  19.141  24.628  1.00  0.00     0.007 C 
ATOM     17  C   UNL A   1      32.528  18.524  25.151  1.00  0.00     0.117 C 
ATOM     18  C   UNL A   1      34.625  17.639  24.396  1.00  0.00     0.003 C 
ATOM     19  C   UNL A   1      33.119  17.428  24.273  1.00  0.00     0.032 C 
BRANCH  17  20
ATOM     20  O   UNL A   1      32.583  18.087  26.497  1.00  0.00    -0.393 OA
ATOM     21  H   UNL A   1      32.383  17.138  26.537  1.00  0.00     0.210 HD
ENDBRANCH  17  20
ENDBRANCH  14  15
ENDBRANCH  13  14
ENDBRANCH   6   8
ENDBRANCH   3   6
ENDBRANCH   1   2
BRANCH   1  22
ATOM     22  C   UNL A   1      32.708  28.956  25.018  1.00  0.00     0.042 C 
BRANCH  22  23
ATOM     23  C   UNL A   1      32.271  29.439  26.398  1.00  0.00     0.118 C 
BRANCH  23  24
ATOM     24  N   UNL A   1      32.149  30.887  26.463  1.00  0.00    -0.352 N 
ATOM     25  C   UNL A   1      32.908  31.803  27.149  1.00  0.00     0.251 C 
ATOM     26  H   UNL A   1      31.410  31.267  25.937  1.00  0.00     0.163 HD
ATOM     27  O   UNL A   1      32.503  32.956  27.252  1.00  0.00    -0.269 OA
BRANCH  25  28
ATOM     28  C   UNL A   1      34.188  31.399  27.774  1.00  0.00     0.039 A 
ATOM     29  C   UNL A   1      35.164  32.374  27.995  1.00  0.00     0.014 A 
ATOM     30  C   UNL A   1      34.441  30.068  28.121  1.00  0.00     0.014 A 
ATOM     31  C   UNL A   1      36.364  32.026  28.621  1.00  0.00     0.010 A 
ATOM     32  C   UNL A   1      35.604  29.738  28.814  1.00  0.00     0.010 A 
ATOM     33  C   UNL A   1      36.579  30.714  29.072  1.00  0.00    -0.014 A 
BRANCH  33  34
ATOM     34  C   UNL A   1      37.812  30.351  29.821  1.00  0.00     0.031 A 
ATOM     35  C   UNL A   1      38.813  29.400  29.222  1.00  0.00     0.074 A 
ATOM     36  C   UNL A   1      38.001  30.839  31.063  1.00  0.00     0.049 A 
ATOM     37  N   UNL A   1      39.909  28.914  29.746  1.00  0.00    -0.248 NA
ATOM     38  C   UNL A   1      38.532  28.912  27.863  1.00  0.00     0.031 C 
ATOM     39  C   UNL A   1      37.085  31.743  31.764  1.00  0.00     0.029 A 
ATOM     40  N   UNL A   1      39.018  30.641  31.964  1.00  0.00    -0.354 N 
ATOM     41  C   UNL A   1      40.443  28.057  28.789  1.00  0.00     0.074 A 
ATOM     42  C   UNL A   1      39.519  28.047  27.675  1.00  0.00     0.031 C 
ATOM     43  C   UNL A   1      37.595  32.042  32.969  1.00  0.00     0.029 A 
ATOM     44  C   UNL A   1      38.844  31.310  33.154  1.00  0.00     0.049 A 
ATOM     45  H   UNL A   1      39.801  30.074  31.776  1.00  0.00     0.167 HD
ATOM     46  C   UNL A   1      41.606  27.360  28.829  1.00  0.00     0.034 A 
ATOM     47  C   UNL A   1      39.593  31.321  34.275  1.00  0.00     0.034 A 
ATOM     48  C   UNL A   1      42.520  27.389  29.945  1.00  0.00     0.049 A 
ATOM     49  C   UNL A   1      40.863  30.504  34.307  1.00  0.00     0.074 A 
ATOM     50  C   UNL A   1      43.749  26.762  30.067  1.00  0.00     0.029 A 
ATOM     51  N   UNL A   1      42.305  28.069  31.137  1.00  0.00    -0.354 N 
ATOM     52  N   UNL A   1      41.378  29.741  33.372  1.00  0.00    -0.248 NA
ATOM     53  C   UNL A   1      41.656  30.561  35.541  1.00  0.00     0.031 C 
ATOM     54  C   UNL A   1      44.237  26.998  31.355  1.00  0.00     0.029 A 
ATOM     55  C   UNL A   1      43.359  27.847  32.010  1.00  0.00     0.049 A 
ATOM     56  H   UNL A   1      41.517  28.627  31.334  1.00  0.00     0.167 HD
ATOM     57  C   UNL A   1      42.574  29.257  33.894  1.00  0.00     0.074 A 
ATOM     58  C   UNL A   1      42.710  29.828  35.217  1.00  0.00     0.031 C 
ATOM     59  C   UNL A   1      43.481  28.418  33.331  1.00  0.00     0.034 A 
BRANCH  46  60
ATOM     60  C   UNL A   1      41.942  26.487  27.643  1.00  0.00     0.023 A 
ATOM     61  C   UNL A   1      41.539  25.141  27.576  1.00  0.00     0.031 A 
ATOM     62  C   UNL A   1      42.676  27.007  26.563  1.00  0.00     0.131 A 
ATOM     63  C   UNL A   1      41.923  24.348  26.483  1.00  0.00     0.055 A 
ATOM     64  C   UNL A   1      42.986  26.235  25.442  1.00  0.00     0.041 A 
ATOM     65  F   UNL A   1      43.109  28.278  26.579  1.00  0.00    -0.206 F 
ATOM     66  C   UNL A   1      42.621  24.893  25.404  1.00  0.00     0.022 A 
BRANCH  63  67
ATOM     67  S   UNL A   1      41.611  22.563  26.556  1.00  0.00     0.124 S 
ATOM     68  O   UNL A   1      42.208  22.211  27.841  1.00  0.00    -0.237 OA
ATOM     69  O   UNL A   1      40.156  22.495  26.488  1.00  0.00    -0.237 OA
ATOM     70  O   UNL A   1      42.316  22.044  25.386  1.00  0.00    -0.744 OA
ENDBRANCH  63  67
ENDBRANCH  46  60
BRANCH  47  71
ATOM     71  C   UNL A   1      39.166  32.107  35.470  1.00  0.00     0.023 A 
ATOM     72  C   UNL A   1      38.535  31.484  36.558  1.00  0.00     0.031 A 
ATOM     73  C   UNL A   1      39.325  33.504  35.515  1.00  0.00     0.131 A 
ATOM     74  C   UNL A   1      38.032  32.260  37.614  1.00  0.00     0.055 A 
ATOM     75  C   UNL A   1      38.881  34.264  36.598  1.00  0.00     0.041 A 
ATOM     76  F   UNL A   1      39.923  34.153  34.502  1.00  0.00    -0.206 F 
ATOM     77  C   UNL A   1      38.214  33.644  37.649  1.00  0.00     0.022 A 
BRANCH  74  78
ATOM     78  S   UNL A   1      37.031  31.443  38.889  1.00  0.00     0.124 S 
ATOM     79  O   UNL A   1      37.882  31.581  40.066  1.00  0.00    -0.237 OA
ATOM     80  O   UNL A   1      35.815  32.248  38.878  1.00  0.00    -0.237 OA
ATOM     81  O   UNL A   1      36.882  30.081  38.381  1.00  0.00    -0.744 OA
ENDBRANCH  74  78
ENDBRANCH  47  71
BRANCH  59  82
ATOM     82  C   UNL A   1      44.728  28.115  34.128  1.00  0.00     0.023 A 
ATOM     83  C   UNL A   1      44.798  27.025  35.013  1.00  0.00     0.031 A 
ATOM     84  C   UNL A   1      45.861  28.941  34.007  1.00  0.00     0.131 A 
ATOM     85  C   UNL A   1      45.953  26.825  35.786  1.00  0.00     0.055 A 
ATOM     86  C   UNL A   1      47.030  28.697  34.728  1.00  0.00     0.041 A 
ATOM     87  F   UNL A   1      45.850  29.999  33.180  1.00  0.00    -0.206 F 
ATOM     88  C   UNL A   1      47.075  27.642  35.634  1.00  0.00     0.022 A 
BRANCH  85  89
ATOM     89  S   UNL A   1      45.930  25.542  37.068  1.00  0.00     0.124 S 
ATOM     90  O   UNL A   1      45.159  24.484  36.426  1.00  0.00    -0.237 OA
ATOM     91  O   UNL A   1      47.351  25.268  37.262  1.00  0.00    -0.237 OA
ATOM     92  O   UNL A   1      45.267  26.197  38.195  1.00  0.00    -0.744 OA
ENDBRANCH  85  89
ENDBRANCH  59  82
ENDBRANCH  33  34
ENDBRANCH  25  28
ENDBRANCH  23  24
ENDBRANCH  22  23
ENDBRANCH   1  22
TORSDOF 17
ENDMDL
