MODEL 1
REMARK VINA RESULT:     -11.7      0.000      0.000
REMARK SMILES COc1cc(C(=O)N[C@H]2CCCC[C@H]2C(=O)NCCCNC(=O)c2ccc(-c3c4nc(c(-c5cc(S(=O)(=O)[O-])ccc5F)c5ccc([nH]5)c(-c5cc(S(=O)(=O)[O-])ccc5F)c5nc(c(-c6cc(S(=O)(=O)[O-])ccc6F)c6ccc3[nH]6)C=C5)C=C4)cc2)cc(Cl)c1OC
REMARK SMILES IDX 19 1 18 2 17 3 15 4 16 5 14 7 9 8 10 9 11 10 13 11 12 12
REMARK SMILES IDX 8 13 6 14 7 15 5 17 3 18 4 19 90 20 88 21 87 22 89 23 2 24
REMARK SMILES IDX 1 25 91 26 92 27 20 28 21 29 22 30 23 32 24 33 25 34 86 35
REMARK SMILES IDX 26 36 85 37 27 38 28 39 29 40 79 41 30 42 84 43 78 44 80 45
REMARK SMILES IDX 31 46 83 47 77 48 76 49 32 51 64 52 44 53 63 54 45 55 48 56
REMARK SMILES IDX 62 57 81 58 46 59 47 60 61 62 82 63 49 64 33 65 34 66 42 67
REMARK SMILES IDX 35 68 41 69 43 70 40 71 36 72 37 73 38 74 39 75 65 76 66 77
REMARK SMILES IDX 74 78 67 79 73 80 75 81 72 82 68 83 69 84 70 85 71 86 50 87
REMARK SMILES IDX 51 88 59 89 52 90 58 91 60 92 57 93 53 94 54 95 55 96 56 97
REMARK H PARENT 17 6 8 16 21 31 80 50 48 61
REMARK Flexibility Score: inf
ROOT
ATOM      1  C   UNL A   1      32.926  28.098  26.866  1.00  0.00     0.042 C 
ENDROOT
BRANCH   1   2
ATOM      2  C   UNL A   1      32.770  26.688  26.305  1.00  0.00     0.117 C 
BRANCH   2   3
ATOM      3  N   UNL A   1      33.999  26.073  25.825  1.00  0.00    -0.356 N 
ATOM      4  C   UNL A   1      34.380  24.779  25.663  1.00  0.00     0.225 C 
ATOM      5  O   UNL A   1      35.478  24.582  25.129  1.00  0.00    -0.275 OA
ATOM      6  H   UNL A   1      34.691  26.724  25.568  1.00  0.00     0.163 HD
BRANCH   4   7
ATOM      7  C   UNL A   1      33.536  23.588  26.099  1.00  0.00     0.101 C 
ATOM      8  C   UNL A   1      32.720  22.908  24.967  1.00  0.00     0.094 C 
ATOM      9  C   UNL A   1      32.328  21.446  25.260  1.00  0.00     0.026 C 
ATOM     10  C   UNL A   1      33.401  20.660  25.992  1.00  0.00     0.002 C 
ATOM     11  C   UNL A   1      34.283  22.710  27.122  1.00  0.00     0.015 C 
ATOM     12  C   UNL A   1      33.693  21.325  27.325  1.00  0.00     0.001 C 
BRANCH   8  13
ATOM     13  N   UNL A   1      33.255  22.997  23.611  1.00  0.00    -0.349 N 
ATOM     14  C   UNL A   1      33.220  23.941  22.609  1.00  0.00     0.251 C 
ATOM     15  O   UNL A   1      33.720  23.598  21.534  1.00  0.00    -0.269 OA
ATOM     16  H   UNL A   1      33.760  22.193  23.351  1.00  0.00     0.164 HD
BRANCH  14  17
ATOM     17  C   UNL A   1      32.698  25.338  22.717  1.00  0.00     0.045 A 
ATOM     18  C   UNL A   1      30.693  26.729  22.992  1.00  0.00     0.163 A 
ATOM     19  C   UNL A   1      31.306  25.471  22.899  1.00  0.00     0.064 A 
ATOM     20  C   UNL A   1      31.476  27.891  22.882  1.00  0.00     0.179 A 
ATOM     21  C   UNL A   1      32.859  27.765  22.707  1.00  0.00     0.087 A 
ATOM     22  C   UNL A   1      33.462  26.499  22.664  1.00  0.00     0.038 A 
ATOM     23  Cl  UNL A   1      33.910  29.121  22.474  1.00  0.00    -0.080 Cl
BRANCH  18  24
ATOM     24  O   UNL A   1      29.345  26.917  23.168  1.00  0.00    -0.493 OA
ATOM     25  C   UNL A   1      28.734  26.278  24.286  1.00  0.00     0.278 C 
ENDBRANCH  18  24
BRANCH  20  26
ATOM     26  O   UNL A   1      30.809  29.091  22.861  1.00  0.00    -0.491 OA
ATOM     27  C   UNL A   1      30.659  29.713  24.135  1.00  0.00     0.278 C 
ENDBRANCH  20  26
ENDBRANCH  14  17
ENDBRANCH   8  13
ENDBRANCH   4   7
ENDBRANCH   2   3
ENDBRANCH   1   2
BRANCH   1  28
ATOM     28  C   UNL A   1      33.834  29.031  26.081  1.00  0.00     0.118 C 
BRANCH  28  29
ATOM     29  N   UNL A   1      33.719  30.405  26.539  1.00  0.00    -0.352 N 
ATOM     30  C   UNL A   1      34.436  31.042  27.525  1.00  0.00     0.251 C 
ATOM     31  H   UNL A   1      33.038  30.952  26.084  1.00  0.00     0.163 HD
ATOM     32  O   UNL A   1      34.027  32.110  27.972  1.00  0.00    -0.269 OA
BRANCH  30  33
ATOM     33  C   UNL A   1      35.685  30.440  28.054  1.00  0.00     0.039 A 
ATOM     34  C   UNL A   1      35.633  29.697  29.237  1.00  0.00     0.014 A 
ATOM     35  C   UNL A   1      36.912  30.648  27.415  1.00  0.00     0.014 A 
ATOM     36  C   UNL A   1      36.802  29.130  29.756  1.00  0.00     0.010 A 
ATOM     37  C   UNL A   1      38.066  30.035  27.903  1.00  0.00     0.010 A 
ATOM     38  C   UNL A   1      38.026  29.282  29.087  1.00  0.00    -0.014 A 
BRANCH  38  39
ATOM     39  C   UNL A   1      39.283  28.711  29.640  1.00  0.00     0.031 A 
ATOM     40  C   UNL A   1      39.909  29.324  30.863  1.00  0.00     0.074 A 
ATOM     41  C   UNL A   1      39.888  27.679  29.020  1.00  0.00     0.049 A 
ATOM     42  N   UNL A   1      41.038  29.028  31.457  1.00  0.00    -0.248 NA
ATOM     43  C   UNL A   1      39.179  30.439  31.484  1.00  0.00     0.031 C 
ATOM     44  C   UNL A   1      39.401  27.017  27.809  1.00  0.00     0.029 A 
ATOM     45  N   UNL A   1      41.052  27.014  29.316  1.00  0.00    -0.354 N 
ATOM     46  C   UNL A   1      41.161  29.927  32.511  1.00  0.00     0.074 A 
ATOM     47  C   UNL A   1      40.016  30.813  32.440  1.00  0.00     0.031 C 
ATOM     48  C   UNL A   1      40.253  26.035  27.473  1.00  0.00     0.029 A 
ATOM     49  C   UNL A   1      41.364  26.018  28.420  1.00  0.00     0.049 A 
ATOM     50  H   UNL A   1      41.611  27.230  30.098  1.00  0.00     0.167 HD
ATOM     51  C   UNL A   1      42.127  29.999  33.461  1.00  0.00     0.034 A 
ATOM     52  C   UNL A   1      42.429  25.195  28.361  1.00  0.00     0.034 A 
ATOM     53  C   UNL A   1      43.254  29.100  33.533  1.00  0.00     0.049 A 
ATOM     54  C   UNL A   1      43.496  25.297  29.422  1.00  0.00     0.074 A 
ATOM     55  C   UNL A   1      44.258  29.050  34.485  1.00  0.00     0.029 A 
ATOM     56  N   UNL A   1      43.530  28.097  32.614  1.00  0.00    -0.354 N 
ATOM     57  N   UNL A   1      43.577  26.128  30.435  1.00  0.00    -0.248 NA
ATOM     58  C   UNL A   1      44.610  24.342  29.335  1.00  0.00     0.031 C 
ATOM     59  C   UNL A   1      45.168  28.054  34.112  1.00  0.00     0.029 A 
ATOM     60  C   UNL A   1      44.700  27.440  32.961  1.00  0.00     0.049 A 
ATOM     61  H   UNL A   1      42.975  27.883  31.829  1.00  0.00     0.167 HD
ATOM     62  C   UNL A   1      44.737  25.777  31.120  1.00  0.00     0.074 A 
ATOM     63  C   UNL A   1      45.315  24.654  30.412  1.00  0.00     0.031 C 
ATOM     64  C   UNL A   1      45.273  26.330  32.238  1.00  0.00     0.034 A 
BRANCH  51  65
ATOM     65  C   UNL A   1      42.012  31.107  34.481  1.00  0.00     0.023 A 
ATOM     66  C   UNL A   1      40.978  31.129  35.432  1.00  0.00     0.031 A 
ATOM     67  C   UNL A   1      42.928  32.173  34.477  1.00  0.00     0.131 A 
ATOM     68  C   UNL A   1      40.838  32.232  36.288  1.00  0.00     0.055 A 
ATOM     69  C   UNL A   1      42.830  33.230  35.385  1.00  0.00     0.041 A 
ATOM     70  F   UNL A   1      43.926  32.215  33.580  1.00  0.00    -0.206 F 
ATOM     71  C   UNL A   1      41.771  33.272  36.287  1.00  0.00     0.022 A 
BRANCH  68  72
ATOM     72  S   UNL A   1      39.342  32.355  37.306  1.00  0.00     0.124 S 
ATOM     73  O   UNL A   1      38.719  33.563  36.770  1.00  0.00    -0.237 OA
ATOM     74  O   UNL A   1      38.658  31.100  37.015  1.00  0.00    -0.237 OA
ATOM     75  O   UNL A   1      39.861  32.482  38.666  1.00  0.00    -0.744 OA
ENDBRANCH  68  72
ENDBRANCH  51  65
BRANCH  52  76
ATOM     76  C   UNL A   1      42.557  24.207  27.254  1.00  0.00     0.023 A 
ATOM     77  C   UNL A   1      41.962  22.939  27.343  1.00  0.00     0.031 A 
ATOM     78  C   UNL A   1      43.310  24.506  26.105  1.00  0.00     0.131 A 
ATOM     79  C   UNL A   1      42.162  22.000  26.319  1.00  0.00     0.055 A 
ATOM     80  C   UNL A   1      43.470  23.585  25.070  1.00  0.00     0.041 A 
ATOM     81  F   UNL A   1      43.893  25.708  25.970  1.00  0.00    -0.206 F 
ATOM     82  C   UNL A   1      42.904  22.318  25.178  1.00  0.00     0.022 A 
BRANCH  79  83
ATOM     83  S   UNL A   1      41.493  20.328  26.530  1.00  0.00     0.124 S 
ATOM     84  O   UNL A   1      40.059  20.562  26.399  1.00  0.00    -0.237 OA
ATOM     85  O   UNL A   1      42.129  19.606  25.433  1.00  0.00    -0.237 OA
ATOM     86  O   UNL A   1      41.944  19.947  27.867  1.00  0.00    -0.744 OA
ENDBRANCH  79  83
ENDBRANCH  52  76
BRANCH  64  87
ATOM     87  C   UNL A   1      46.526  25.692  32.781  1.00  0.00     0.023 A 
ATOM     88  C   UNL A   1      47.791  25.963  32.233  1.00  0.00     0.031 A 
ATOM     89  C   UNL A   1      46.448  24.787  33.855  1.00  0.00     0.131 A 
ATOM     90  C   UNL A   1      48.923  25.297  32.726  1.00  0.00     0.055 A 
ATOM     91  C   UNL A   1      47.584  24.165  34.374  1.00  0.00     0.041 A 
ATOM     92  F   UNL A   1      45.264  24.492  34.414  1.00  0.00    -0.206 F 
ATOM     93  C   UNL A   1      48.829  24.409  33.803  1.00  0.00     0.022 A 
BRANCH  90  94
ATOM     94  S   UNL A   1      50.515  25.545  31.892  1.00  0.00     0.124 S 
ATOM     95  O   UNL A   1      51.387  25.909  33.003  1.00  0.00    -0.237 OA
ATOM     96  O   UNL A   1      50.760  24.238  31.291  1.00  0.00    -0.237 OA
ATOM     97  O   UNL A   1      50.241  26.620  30.941  1.00  0.00    -0.744 OA
ENDBRANCH  90  94
ENDBRANCH  64  87
ENDBRANCH  38  39
ENDBRANCH  30  33
ENDBRANCH  28  29
ENDBRANCH   1  28
TORSDOF 17
ENDMDL
MODEL 2
REMARK VINA RESULT:     -11.7      3.537      8.831
REMARK SMILES COc1cc(C(=O)N[C@H]2CCCC[C@H]2C(=O)NCCCNC(=O)c2ccc(-c3c4nc(c(-c5cc(S(=O)(=O)[O-])ccc5F)c5ccc([nH]5)c(-c5cc(S(=O)(=O)[O-])ccc5F)c5nc(c(-c6cc(S(=O)(=O)[O-])ccc6F)c6ccc3[nH]6)C=C5)C=C4)cc2)cc(Cl)c1OC
REMARK SMILES IDX 19 1 18 2 17 3 15 4 16 5 14 7 9 8 10 9 11 10 13 11 12 12
REMARK SMILES IDX 8 13 6 14 7 15 5 17 3 18 4 19 90 20 88 21 87 22 89 23 2 24
REMARK SMILES IDX 1 25 91 26 92 27 20 28 21 29 22 30 23 32 24 33 25 34 86 35
REMARK SMILES IDX 26 36 85 37 27 38 28 39 29 40 79 41 30 42 84 43 78 44 80 45
REMARK SMILES IDX 31 46 83 47 77 48 76 49 32 51 64 52 44 53 63 54 45 55 48 56
REMARK SMILES IDX 62 57 81 58 46 59 47 60 61 62 82 63 49 64 33 65 34 66 42 67
REMARK SMILES IDX 35 68 41 69 43 70 40 71 36 72 37 73 38 74 39 75 65 76 66 77
REMARK SMILES IDX 74 78 67 79 73 80 75 81 72 82 68 83 69 84 70 85 71 86 50 87
REMARK SMILES IDX 51 88 59 89 52 90 58 91 60 92 57 93 53 94 54 95 55 96 56 97
REMARK H PARENT 17 6 8 16 21 31 80 50 48 61
REMARK Flexibility Score: inf
ROOT
ATOM      1  C   UNL A   1      31.460  31.862  26.874  1.00  0.00     0.042 C 
ENDROOT
BRANCH   1   2
ATOM      2  C   UNL A   1      31.453  30.832  25.749  1.00  0.00     0.117 C 
BRANCH   2   3
ATOM      3  N   UNL A   1      32.533  29.856  25.796  1.00  0.00    -0.356 N 
ATOM      4  C   UNL A   1      32.563  28.507  25.642  1.00  0.00     0.225 C 
ATOM      5  O   UNL A   1      33.675  27.968  25.642  1.00  0.00    -0.275 OA
ATOM      6  H   UNL A   1      33.416  30.253  25.976  1.00  0.00     0.163 HD
BRANCH   4   7
ATOM      7  C   UNL A   1      31.316  27.646  25.474  1.00  0.00     0.101 C 
ATOM      8  C   UNL A   1      30.871  27.411  24.006  1.00  0.00     0.094 C 
ATOM      9  C   UNL A   1      29.999  26.156  23.803  1.00  0.00     0.026 C 
ATOM     10  C   UNL A   1      30.416  24.976  24.662  1.00  0.00     0.002 C 
ATOM     11  C   UNL A   1      31.306  26.466  26.465  1.00  0.00     0.015 C 
ATOM     12  C   UNL A   1      30.320  25.361  26.128  1.00  0.00     0.001 C 
BRANCH   8  13
ATOM     13  N   UNL A   1      31.908  27.444  22.978  1.00  0.00    -0.349 N 
ATOM     14  C   UNL A   1      32.915  26.592  22.582  1.00  0.00     0.251 C 
ATOM     15  O   UNL A   1      33.674  27.031  21.714  1.00  0.00    -0.269 OA
ATOM     16  H   UNL A   1      31.882  28.269  22.443  1.00  0.00     0.164 HD
BRANCH  14  17
ATOM     17  C   UNL A   1      33.135  25.190  23.051  1.00  0.00     0.045 A 
ATOM     18  C   UNL A   1      34.334  23.760  24.646  1.00  0.00     0.163 A 
ATOM     19  C   UNL A   1      34.029  25.027  24.130  1.00  0.00     0.064 A 
ATOM     20  C   UNL A   1      33.756  22.617  24.068  1.00  0.00     0.179 A 
ATOM     21  C   UNL A   1      32.864  22.774  23.000  1.00  0.00     0.087 A 
ATOM     22  C   UNL A   1      32.532  24.051  22.527  1.00  0.00     0.038 A 
ATOM     23  Cl  UNL A   1      32.157  21.438  22.154  1.00  0.00    -0.080 Cl
BRANCH  18  24
ATOM     24  O   UNL A   1      35.197  23.542  25.692  1.00  0.00    -0.493 OA
ATOM     25  C   UNL A   1      36.589  23.717  25.441  1.00  0.00     0.278 C 
ENDBRANCH  18  24
BRANCH  20  26
ATOM     26  O   UNL A   1      34.182  21.398  24.535  1.00  0.00    -0.491 OA
ATOM     27  C   UNL A   1      33.390  20.852  25.586  1.00  0.00     0.278 C 
ENDBRANCH  20  26
ENDBRANCH  14  17
ENDBRANCH   8  13
ENDBRANCH   4   7
ENDBRANCH   2   3
ENDBRANCH   1   2
BRANCH   1  28
ATOM     28  C   UNL A   1      32.813  32.465  27.218  1.00  0.00     0.118 C 
BRANCH  28  29
ATOM     29  N   UNL A   1      32.696  33.857  27.619  1.00  0.00    -0.352 N 
ATOM     30  C   UNL A   1      33.317  34.503  28.662  1.00  0.00     0.251 C 
ATOM     31  H   UNL A   1      32.091  34.409  27.072  1.00  0.00     0.163 HD
ATOM     32  O   UNL A   1      32.898  35.598  29.026  1.00  0.00    -0.269 OA
BRANCH  30  33
ATOM     33  C   UNL A   1      34.474  33.879  29.350  1.00  0.00     0.039 A 
ATOM     34  C   UNL A   1      34.240  32.916  30.336  1.00  0.00     0.014 A 
ATOM     35  C   UNL A   1      35.785  34.276  29.061  1.00  0.00     0.014 A 
ATOM     36  C   UNL A   1      35.319  32.323  31.002  1.00  0.00     0.010 A 
ATOM     37  C   UNL A   1      36.860  33.644  29.685  1.00  0.00     0.010 A 
ATOM     38  C   UNL A   1      36.638  32.672  30.674  1.00  0.00    -0.014 A 
BRANCH  38  39
ATOM     39  C   UNL A   1      37.795  32.074  31.392  1.00  0.00     0.031 A 
ATOM     40  C   UNL A   1      38.590  30.973  30.744  1.00  0.00     0.074 A 
ATOM     41  C   UNL A   1      38.100  32.481  32.639  1.00  0.00     0.049 A 
ATOM     42  N   UNL A   1      39.581  30.268  31.228  1.00  0.00    -0.248 NA
ATOM     43  C   UNL A   1      38.196  30.597  29.378  1.00  0.00     0.031 C 
ATOM     44  C   UNL A   1      37.389  33.516  33.390  1.00  0.00     0.029 A 
ATOM     45  N   UNL A   1      39.085  32.063  33.502  1.00  0.00    -0.354 N 
ATOM     46  C   UNL A   1      39.920  29.356  30.234  1.00  0.00     0.074 A 
ATOM     47  C   UNL A   1      38.991  29.565  29.142  1.00  0.00     0.031 C 
ATOM     48  C   UNL A   1      37.965  33.659  34.595  1.00  0.00     0.029 A 
ATOM     49  C   UNL A   1      39.064  32.704  34.718  1.00  0.00     0.049 A 
ATOM     50  H   UNL A   1      39.743  31.368  33.270  1.00  0.00     0.167 HD
ATOM     51  C   UNL A   1      40.924  28.442  30.222  1.00  0.00     0.034 A 
ATOM     52  C   UNL A   1      39.832  32.535  35.812  1.00  0.00     0.034 A 
ATOM     53  C   UNL A   1      41.854  28.255  31.309  1.00  0.00     0.049 A 
ATOM     54  C   UNL A   1      40.936  31.508  35.781  1.00  0.00     0.074 A 
ATOM     55  C   UNL A   1      42.940  27.398  31.377  1.00  0.00     0.029 A 
ATOM     56  N   UNL A   1      41.808  28.932  32.521  1.00  0.00    -0.354 N 
ATOM     57  N   UNL A   1      41.268  30.680  34.818  1.00  0.00    -0.248 NA
ATOM     58  C   UNL A   1      41.773  31.399  36.984  1.00  0.00     0.031 C 
ATOM     59  C   UNL A   1      43.515  27.517  32.648  1.00  0.00     0.029 A 
ATOM     60  C   UNL A   1      42.828  28.494  33.351  1.00  0.00     0.049 A 
ATOM     61  H   UNL A   1      41.146  29.622  32.755  1.00  0.00     0.167 HD
ATOM     62  C   UNL A   1      42.369  29.973  35.290  1.00  0.00     0.074 A 
ATOM     63  C   UNL A   1      42.652  30.478  36.618  1.00  0.00     0.031 C 
ATOM     64  C   UNL A   1      43.089  28.997  34.679  1.00  0.00     0.034 A 
BRANCH  51  65
ATOM     65  C   UNL A   1      41.041  27.561  29.002  1.00  0.00     0.023 A 
ATOM     66  C   UNL A   1      42.040  27.768  28.036  1.00  0.00     0.031 A 
ATOM     67  C   UNL A   1      40.119  26.522  28.784  1.00  0.00     0.131 A 
ATOM     68  C   UNL A   1      42.047  27.002  26.860  1.00  0.00     0.055 A 
ATOM     69  C   UNL A   1      40.179  25.711  27.649  1.00  0.00     0.041 A 
ATOM     70  F   UNL A   1      39.132  26.289  29.663  1.00  0.00    -0.206 F 
ATOM     71  C   UNL A   1      41.138  25.959  26.671  1.00  0.00     0.022 A 
BRANCH  68  72
ATOM     72  S   UNL A   1      43.174  27.479  25.522  1.00  0.00     0.124 S 
ATOM     73  O   UNL A   1      42.277  28.207  24.627  1.00  0.00    -0.237 OA
ATOM     74  O   UNL A   1      44.172  28.282  26.219  1.00  0.00    -0.237 OA
ATOM     75  O   UNL A   1      43.654  26.200  25.004  1.00  0.00    -0.744 OA
ENDBRANCH  68  72
ENDBRANCH  51  65
BRANCH  52  76
ATOM     76  C   UNL A   1      39.585  33.342  37.039  1.00  0.00     0.023 A 
ATOM     77  C   UNL A   1      38.814  32.834  38.096  1.00  0.00     0.031 A 
ATOM     78  C   UNL A   1      40.087  34.650  37.154  1.00  0.00     0.131 A 
ATOM     79  C   UNL A   1      38.532  33.644  39.207  1.00  0.00     0.055 A 
ATOM     80  C   UNL A   1      39.841  35.436  38.280  1.00  0.00     0.041 A 
ATOM     81  F   UNL A   1      40.836  35.177  36.173  1.00  0.00    -0.206 F 
ATOM     82  C   UNL A   1      39.049  34.937  39.311  1.00  0.00     0.022 A 
BRANCH  79  83
ATOM     83  S   UNL A   1      37.421  33.004  40.490  1.00  0.00     0.124 S 
ATOM     84  O   UNL A   1      38.163  31.846  40.976  1.00  0.00    -0.237 OA
ATOM     85  O   UNL A   1      37.329  34.138  41.403  1.00  0.00    -0.237 OA
ATOM     86  O   UNL A   1      36.195  32.697  39.756  1.00  0.00    -0.744 OA
ENDBRANCH  79  83
ENDBRANCH  52  76
BRANCH  64  87
ATOM     87  C   UNL A   1      44.274  28.450  35.432  1.00  0.00     0.023 A 
ATOM     88  C   UNL A   1      44.141  27.400  36.357  1.00  0.00     0.031 A 
ATOM     89  C   UNL A   1      45.553  28.998  35.229  1.00  0.00     0.131 A 
ATOM     90  C   UNL A   1      45.260  26.965  37.085  1.00  0.00     0.055 A 
ATOM     91  C   UNL A   1      46.671  28.528  35.919  1.00  0.00     0.041 A 
ATOM     92  F   UNL A   1      45.734  30.003  34.358  1.00  0.00    -0.206 F 
ATOM     93  C   UNL A   1      46.527  27.514  36.862  1.00  0.00     0.022 A 
BRANCH  90  94
ATOM     94  S   UNL A   1      45.026  25.723  38.386  1.00  0.00     0.124 S 
ATOM     95  O   UNL A   1      46.378  25.579  38.916  1.00  0.00    -0.237 OA
ATOM     96  O   UNL A   1      44.062  26.373  39.268  1.00  0.00    -0.237 OA
ATOM     97  O   UNL A   1      44.516  24.559  37.663  1.00  0.00    -0.744 OA
ENDBRANCH  90  94
ENDBRANCH  64  87
ENDBRANCH  38  39
ENDBRANCH  30  33
ENDBRANCH  28  29
ENDBRANCH   1  28
TORSDOF 17
ENDMDL
MODEL 3
REMARK VINA RESULT:     -11.6      2.992      8.489
REMARK SMILES COc1cc(C(=O)N[C@H]2CCCC[C@H]2C(=O)NCCCNC(=O)c2ccc(-c3c4nc(c(-c5cc(S(=O)(=O)[O-])ccc5F)c5ccc([nH]5)c(-c5cc(S(=O)(=O)[O-])ccc5F)c5nc(c(-c6cc(S(=O)(=O)[O-])ccc6F)c6ccc3[nH]6)C=C5)C=C4)cc2)cc(Cl)c1OC
REMARK SMILES IDX 19 1 18 2 17 3 15 4 16 5 14 7 9 8 10 9 11 10 13 11 12 12
REMARK SMILES IDX 8 13 6 14 7 15 5 17 3 18 4 19 90 20 88 21 87 22 89 23 2 24
REMARK SMILES IDX 1 25 91 26 92 27 20 28 21 29 22 30 23 32 24 33 25 34 86 35
REMARK SMILES IDX 26 36 85 37 27 38 28 39 29 40 79 41 30 42 84 43 78 44 80 45
REMARK SMILES IDX 31 46 83 47 77 48 76 49 32 51 64 52 44 53 63 54 45 55 48 56
REMARK SMILES IDX 62 57 81 58 46 59 47 60 61 62 82 63 49 64 33 65 34 66 42 67
REMARK SMILES IDX 35 68 41 69 43 70 40 71 36 72 37 73 38 74 39 75 65 76 66 77
REMARK SMILES IDX 74 78 67 79 73 80 75 81 72 82 68 83 69 84 70 85 71 86 50 87
REMARK SMILES IDX 51 88 59 89 52 90 58 91 60 92 57 93 53 94 54 95 55 96 56 97
REMARK H PARENT 17 6 8 16 21 31 80 50 48 61
REMARK Flexibility Score: inf
ROOT
ATOM      1  C   UNL A   1      31.157  31.543  26.465  1.00  0.00     0.042 C 
ENDROOT
BRANCH   1   2
ATOM      2  C   UNL A   1      31.136  30.666  25.218  1.00  0.00     0.117 C 
BRANCH   2   3
ATOM      3  N   UNL A   1      32.333  29.864  25.004  1.00  0.00    -0.356 N 
ATOM      4  C   UNL A   1      32.535  28.529  24.862  1.00  0.00     0.225 C 
ATOM      5  O   UNL A   1      33.683  28.162  24.589  1.00  0.00    -0.275 OA
ATOM      6  H   UNL A   1      33.160  30.397  24.952  1.00  0.00     0.163 HD
BRANCH   4   7
ATOM      7  C   UNL A   1      31.436  27.485  25.022  1.00  0.00     0.101 C 
ATOM      8  C   UNL A   1      30.940  26.842  23.699  1.00  0.00     0.094 C 
ATOM      9  C   UNL A   1      30.271  25.464  23.878  1.00  0.00     0.026 C 
ATOM     10  C   UNL A   1      30.929  24.598  24.937  1.00  0.00     0.002 C 
ATOM     11  C   UNL A   1      31.681  26.589  26.252  1.00  0.00     0.015 C 
ATOM     12  C   UNL A   1      30.867  25.307  26.277  1.00  0.00     0.001 C 
BRANCH   8  13
ATOM     13  N   UNL A   1      31.890  26.773  22.592  1.00  0.00    -0.349 N 
ATOM     14  C   UNL A   1      32.998  26.008  22.304  1.00  0.00     0.251 C 
ATOM     15  O   UNL A   1      33.616  26.326  21.284  1.00  0.00    -0.269 OA
ATOM     16  H   UNL A   1      31.691  27.427  21.884  1.00  0.00     0.164 HD
BRANCH  14  17
ATOM     17  C   UNL A   1      33.479  24.814  23.063  1.00  0.00     0.045 A 
ATOM     18  C   UNL A   1      33.304  22.378  23.316  1.00  0.00     0.163 A 
ATOM     19  C   UNL A   1      32.947  23.568  22.668  1.00  0.00     0.064 A 
ATOM     20  C   UNL A   1      34.197  22.419  24.401  1.00  0.00     0.179 A 
ATOM     21  C   UNL A   1      34.732  23.651  24.793  1.00  0.00     0.087 A 
ATOM     22  C   UNL A   1      34.403  24.827  24.103  1.00  0.00     0.038 A 
ATOM     23  Cl  UNL A   1      35.774  23.836  26.165  1.00  0.00    -0.080 Cl
BRANCH  18  24
ATOM     24  O   UNL A   1      32.817  21.140  22.976  1.00  0.00    -0.493 OA
ATOM     25  C   UNL A   1      31.778  21.090  22.001  1.00  0.00     0.278 C 
ENDBRANCH  18  24
BRANCH  20  26
ATOM     26  O   UNL A   1      34.417  21.242  25.072  1.00  0.00    -0.491 OA
ATOM     27  C   UNL A   1      33.658  21.087  26.269  1.00  0.00     0.278 C 
ENDBRANCH  20  26
ENDBRANCH  14  17
ENDBRANCH   8  13
ENDBRANCH   4   7
ENDBRANCH   2   3
ENDBRANCH   1   2
BRANCH   1  28
ATOM     28  C   UNL A   1      32.517  32.087  26.876  1.00  0.00     0.118 C 
BRANCH  28  29
ATOM     29  N   UNL A   1      32.452  33.498  27.214  1.00  0.00    -0.352 N 
ATOM     30  C   UNL A   1      33.147  34.179  28.186  1.00  0.00     0.251 C 
ATOM     31  H   UNL A   1      31.829  34.038  26.675  1.00  0.00     0.163 HD
ATOM     32  O   UNL A   1      32.773  35.300  28.520  1.00  0.00    -0.269 OA
BRANCH  30  33
ATOM     33  C   UNL A   1      34.329  33.561  28.837  1.00  0.00     0.039 A 
ATOM     34  C   UNL A   1      34.138  32.497  29.723  1.00  0.00     0.014 A 
ATOM     35  C   UNL A   1      35.617  34.060  28.613  1.00  0.00     0.014 A 
ATOM     36  C   UNL A   1      35.240  31.908  30.353  1.00  0.00     0.010 A 
ATOM     37  C   UNL A   1      36.719  33.435  29.197  1.00  0.00     0.010 A 
ATOM     38  C   UNL A   1      36.541  32.363  30.086  1.00  0.00    -0.014 A 
BRANCH  38  39
ATOM     39  C   UNL A   1      37.721  31.768  30.769  1.00  0.00     0.031 A 
ATOM     40  C   UNL A   1      38.545  30.723  30.065  1.00  0.00     0.074 A 
ATOM     41  C   UNL A   1      38.023  32.125  32.032  1.00  0.00     0.049 A 
ATOM     42  N   UNL A   1      39.561  30.028  30.510  1.00  0.00    -0.248 NA
ATOM     43  C   UNL A   1      38.153  30.400  28.685  1.00  0.00     0.031 C 
ATOM     44  C   UNL A   1      37.285  33.101  32.835  1.00  0.00     0.029 A 
ATOM     45  N   UNL A   1      39.025  31.698  32.868  1.00  0.00    -0.354 N 
ATOM     46  C   UNL A   1      39.921  29.175  29.472  1.00  0.00     0.074 A 
ATOM     47  C   UNL A   1      38.979  29.405  28.396  1.00  0.00     0.031 C 
ATOM     48  C   UNL A   1      37.865  33.205  34.042  1.00  0.00     0.029 A 
ATOM     49  C   UNL A   1      38.993  32.281  34.114  1.00  0.00     0.049 A 
ATOM     50  H   UNL A   1      39.703  31.036  32.601  1.00  0.00     0.167 HD
ATOM     51  C   UNL A   1      40.952  28.294  29.412  1.00  0.00     0.034 A 
ATOM     52  C   UNL A   1      39.774  32.084  35.194  1.00  0.00     0.034 A 
ATOM     53  C   UNL A   1      41.896  28.085  30.483  1.00  0.00     0.049 A 
ATOM     54  C   UNL A   1      40.909  31.094  35.109  1.00  0.00     0.074 A 
ATOM     55  C   UNL A   1      43.007  27.260  30.505  1.00  0.00     0.029 A 
ATOM     56  N   UNL A   1      41.837  28.703  31.726  1.00  0.00    -0.354 N 
ATOM     57  N   UNL A   1      41.260  30.324  34.105  1.00  0.00    -0.248 NA
ATOM     58  C   UNL A   1      41.757  30.956  36.300  1.00  0.00     0.031 C 
ATOM     59  C   UNL A   1      43.588  27.338  31.777  1.00  0.00     0.029 A 
ATOM     60  C   UNL A   1      42.876  28.258  32.529  1.00  0.00     0.049 A 
ATOM     61  H   UNL A   1      41.156  29.361  31.996  1.00  0.00     0.167 HD
ATOM     62  C   UNL A   1      42.386  29.629  34.538  1.00  0.00     0.074 A 
ATOM     63  C   UNL A   1      42.661  30.081  35.886  1.00  0.00     0.031 C 
ATOM     64  C   UNL A   1      43.130  28.706  33.878  1.00  0.00     0.034 A 
BRANCH  51  65
ATOM     65  C   UNL A   1      41.088  27.475  28.150  1.00  0.00     0.023 A 
ATOM     66  C   UNL A   1      40.727  26.118  28.109  1.00  0.00     0.031 A 
ATOM     67  C   UNL A   1      41.620  28.052  26.983  1.00  0.00     0.131 A 
ATOM     68  C   UNL A   1      40.974  25.363  26.953  1.00  0.00     0.055 A 
ATOM     69  C   UNL A   1      41.789  27.314  25.810  1.00  0.00     0.041 A 
ATOM     70  F   UNL A   1      41.999  29.339  26.968  1.00  0.00    -0.206 F 
ATOM     71  C   UNL A   1      41.481  25.957  25.795  1.00  0.00     0.022 A 
BRANCH  68  72
ATOM     72  S   UNL A   1      40.753  23.564  27.030  1.00  0.00     0.124 S 
ATOM     73  O   UNL A   1      41.608  23.115  25.933  1.00  0.00    -0.237 OA
ATOM     74  O   UNL A   1      41.218  23.245  28.374  1.00  0.00    -0.237 OA
ATOM     75  O   UNL A   1      39.320  23.384  26.806  1.00  0.00    -0.744 OA
ENDBRANCH  68  72
ENDBRANCH  51  65
BRANCH  52  76
ATOM     76  C   UNL A   1      39.511  32.825  36.459  1.00  0.00     0.023 A 
ATOM     77  C   UNL A   1      38.626  32.317  37.423  1.00  0.00     0.031 A 
ATOM     78  C   UNL A   1      40.114  34.071  36.703  1.00  0.00     0.131 A 
ATOM     79  C   UNL A   1      38.337  33.072  38.571  1.00  0.00     0.055 A 
ATOM     80  C   UNL A   1      39.857  34.797  37.866  1.00  0.00     0.041 A 
ATOM     81  F   UNL A   1      40.973  34.594  35.814  1.00  0.00    -0.206 F 
ATOM     82  C   UNL A   1      38.954  34.303  38.804  1.00  0.00     0.022 A 
BRANCH  79  83
ATOM     83  S   UNL A   1      37.086  32.450  39.728  1.00  0.00     0.124 S 
ATOM     84  O   UNL A   1      37.068  33.501  40.740  1.00  0.00    -0.237 OA
ATOM     85  O   UNL A   1      35.905  32.357  38.877  1.00  0.00    -0.237 OA
ATOM     86  O   UNL A   1      37.637  31.169  40.168  1.00  0.00    -0.744 OA
ENDBRANCH  79  83
ENDBRANCH  52  76
BRANCH  64  87
ATOM     87  C   UNL A   1      44.337  28.161  34.597  1.00  0.00     0.023 A 
ATOM     88  C   UNL A   1      44.272  26.984  35.361  1.00  0.00     0.031 A 
ATOM     89  C   UNL A   1      45.566  28.841  34.527  1.00  0.00     0.131 A 
ATOM     90  C   UNL A   1      45.403  26.547  36.069  1.00  0.00     0.055 A 
ATOM     91  C   UNL A   1      46.702  28.375  35.193  1.00  0.00     0.041 A 
ATOM     92  F   UNL A   1      45.682  29.971  33.812  1.00  0.00    -0.206 F 
ATOM     93  C   UNL A   1      46.621  27.229  35.978  1.00  0.00     0.022 A 
BRANCH  90  94
ATOM     94  S   UNL A   1      45.244  25.119  37.174  1.00  0.00     0.124 S 
ATOM     95  O   UNL A   1      44.102  24.415  36.601  1.00  0.00    -0.237 OA
ATOM     96  O   UNL A   1      46.538  24.461  37.024  1.00  0.00    -0.237 OA
ATOM     97  O   UNL A   1      45.007  25.722  38.484  1.00  0.00    -0.744 OA
ENDBRANCH  90  94
ENDBRANCH  64  87
ENDBRANCH  38  39
ENDBRANCH  30  33
ENDBRANCH  28  29
ENDBRANCH   1  28
TORSDOF 17
ENDMDL
