MODEL 1
REMARK VINA RESULT:     -10.3      0.000      0.000
REMARK SMILES C[C@H](Sc1ccnc(C(=O)NCCCNC(=O)c2ccc(-c3c4nc(c(-c5cc(S(=O)(=O)[O-])ccc5F)c5ccc([nH]5)c(-c5cc(S(=O)(=O)[O-])ccc5F)c5nc(c(-c6cc(S(=O)(=O)[O-])ccc6F)c6ccc3[nH]6)C=C5)C=C4)cc2)c1)[C@@H](C)O
REMARK SMILES IDX 12 1 11 2 9 3 10 4 8 6 4 7 5 8 81 9 6 10 7 11 3 12 2 13 1 14
REMARK SMILES IDX 82 15 83 16 84 17 13 19 14 20 15 21 16 22 17 24 18 25 19 26
REMARK SMILES IDX 80 27 20 28 79 29 21 30 22 31 23 32 73 33 24 34 78 35 72 36
REMARK SMILES IDX 74 37 25 38 77 39 71 40 70 41 26 43 58 44 38 45 57 46 39 47
REMARK SMILES IDX 42 48 56 49 75 50 40 51 41 52 55 54 76 55 43 56 27 57 28 58
REMARK SMILES IDX 36 59 29 60 35 61 37 62 34 63 30 64 31 65 32 66 33 67 59 68
REMARK SMILES IDX 60 69 68 70 61 71 67 72 69 73 66 74 62 75 63 76 64 77 65 78
REMARK SMILES IDX 44 79 45 80 53 81 46 82 52 83 54 84 51 85 47 86 48 87 49 88
REMARK SMILES IDX 50 89
REMARK H PARENT 11 5 84 18 15 23 74 42 42 53
REMARK Flexibility Score: inf
ROOT
ATOM      1  C   UNL A   1      31.597  27.714  25.794  1.00  0.00     0.118 C 
ENDROOT
BRANCH   1   2
ATOM      2  N   UNL A   1      30.703  26.700  26.318  1.00  0.00    -0.351 N 
ATOM      3  C   UNL A   1      30.614  25.335  26.160  1.00  0.00     0.269 C 
ATOM      4  O   UNL A   1      29.694  24.787  26.774  1.00  0.00    -0.268 OA
ATOM      5  H   UNL A   1      30.011  27.065  26.916  1.00  0.00     0.163 HD
BRANCH   3   6
ATOM      6  C   UNL A   1      31.582  24.496  25.361  1.00  0.00     0.129 A 
ATOM      7  C   UNL A   1      33.563  23.144  25.050  1.00  0.00     0.011 A 
ATOM      8  C   UNL A   1      33.040  22.735  23.833  1.00  0.00     0.035 A 
ATOM      9  C   UNL A   1      32.834  24.084  25.797  1.00  0.00     0.049 A 
ATOM     10  C   UNL A   1      31.831  23.264  23.416  1.00  0.00     0.113 A 
ATOM     11  N   UNL A   1      31.093  24.110  24.154  1.00  0.00    -0.251 NA
BRANCH   7  12
ATOM     12  S   UNL A   1      34.930  22.370  25.915  1.00  0.00    -0.120 SA
BRANCH  12  13
ATOM     13  C   UNL A   1      36.262  21.890  24.723  1.00  0.00     0.077 C 
ATOM     14  C   UNL A   1      36.647  22.947  23.692  1.00  0.00     0.022 C 
BRANCH  13  15
ATOM     15  C   UNL A   1      37.489  21.222  25.386  1.00  0.00     0.124 C 
ATOM     16  C   UNL A   1      37.857  19.875  24.767  1.00  0.00     0.039 C 
BRANCH  15  17
ATOM     17  O   UNL A   1      38.633  22.080  25.258  1.00  0.00    -0.392 OA
ATOM     18  H   UNL A   1      39.388  21.564  24.934  1.00  0.00     0.210 HD
ENDBRANCH  15  17
ENDBRANCH  13  15
ENDBRANCH  12  13
ENDBRANCH   7  12
ENDBRANCH   3   6
ENDBRANCH   1   2
BRANCH   1  19
ATOM     19  C   UNL A   1      32.859  27.826  26.649  1.00  0.00     0.042 C 
BRANCH  19  20
ATOM     20  C   UNL A   1      33.915  28.756  26.049  1.00  0.00     0.118 C 
BRANCH  20  21
ATOM     21  N   UNL A   1      33.804  30.106  26.577  1.00  0.00    -0.352 N 
ATOM     22  C   UNL A   1      34.530  30.747  27.547  1.00  0.00     0.251 C 
ATOM     23  H   UNL A   1      33.089  30.649  26.172  1.00  0.00     0.163 HD
ATOM     24  O   UNL A   1      34.086  31.794  28.012  1.00  0.00    -0.269 OA
BRANCH  22  25
ATOM     25  C   UNL A   1      35.817  30.204  28.038  1.00  0.00     0.039 A 
ATOM     26  C   UNL A   1      35.832  29.547  29.273  1.00  0.00     0.014 A 
ATOM     27  C   UNL A   1      37.017  30.404  27.347  1.00  0.00     0.014 A 
ATOM     28  C   UNL A   1      37.035  29.069  29.797  1.00  0.00     0.010 A 
ATOM     29  C   UNL A   1      38.208  29.867  27.838  1.00  0.00     0.010 A 
ATOM     30  C   UNL A   1      38.231  29.207  29.076  1.00  0.00    -0.014 A 
BRANCH  30  31
ATOM     31  C   UNL A   1      39.509  28.682  29.625  1.00  0.00     0.031 A 
ATOM     32  C   UNL A   1      40.133  29.308  30.844  1.00  0.00     0.074 A 
ATOM     33  C   UNL A   1      40.119  27.651  29.007  1.00  0.00     0.049 A 
ATOM     34  N   UNL A   1      41.240  28.990  31.466  1.00  0.00    -0.248 NA
ATOM     35  C   UNL A   1      39.431  30.463  31.424  1.00  0.00     0.031 C 
ATOM     36  C   UNL A   1      39.636  26.995  27.789  1.00  0.00     0.029 A 
ATOM     37  N   UNL A   1      41.271  26.973  29.315  1.00  0.00    -0.354 N 
ATOM     38  C   UNL A   1      41.375  29.910  32.502  1.00  0.00     0.074 A 
ATOM     39  C   UNL A   1      40.267  30.835  32.382  1.00  0.00     0.031 C 
ATOM     40  C   UNL A   1      40.468  25.989  27.473  1.00  0.00     0.029 A 
ATOM     41  C   UNL A   1      41.559  25.949  28.442  1.00  0.00     0.049 A 
ATOM     42  H   UNL A   1      41.839  27.198  30.087  1.00  0.00     0.167 HD
ATOM     43  C   UNL A   1      42.320  29.964  33.475  1.00  0.00     0.034 A 
ATOM     44  C   UNL A   1      42.581  25.073  28.427  1.00  0.00     0.034 A 
ATOM     45  C   UNL A   1      43.413  29.027  33.584  1.00  0.00     0.049 A 
ATOM     46  C   UNL A   1      43.609  25.142  29.527  1.00  0.00     0.074 A 
ATOM     47  C   UNL A   1      44.403  28.961  34.549  1.00  0.00     0.029 A 
ATOM     48  N   UNL A   1      43.663  27.991  32.691  1.00  0.00    -0.354 N 
ATOM     49  N   UNL A   1      43.693  25.986  30.530  1.00  0.00    -0.248 NA
ATOM     50  C   UNL A   1      44.666  24.124  29.504  1.00  0.00     0.031 C 
ATOM     51  C   UNL A   1      45.282  27.924  34.209  1.00  0.00     0.029 A 
ATOM     52  C   UNL A   1      44.802  27.295  33.071  1.00  0.00     0.049 A 
ATOM     53  H   UNL A   1      43.112  27.781  31.903  1.00  0.00     0.167 HD
ATOM     54  C   UNL A   1      44.801  25.584  31.272  1.00  0.00     0.074 A 
ATOM     55  C   UNL A   1      45.331  24.405  30.614  1.00  0.00     0.031 C 
ATOM     56  C   UNL A   1      45.331  26.134  32.394  1.00  0.00     0.034 A 
BRANCH  43  57
ATOM     57  C   UNL A   1      42.218  31.092  34.477  1.00  0.00     0.023 A 
ATOM     58  C   UNL A   1      42.858  32.327  34.267  1.00  0.00     0.031 A 
ATOM     59  C   UNL A   1      41.500  30.923  35.675  1.00  0.00     0.131 A 
ATOM     60  C   UNL A   1      42.840  33.309  35.270  1.00  0.00     0.055 A 
ATOM     61  C   UNL A   1      41.415  31.935  36.634  1.00  0.00     0.041 A 
ATOM     62  F   UNL A   1      40.882  29.762  35.942  1.00  0.00    -0.206 F 
ATOM     63  C   UNL A   1      42.101  33.131  36.443  1.00  0.00     0.022 A 
BRANCH  60  64
ATOM     64  S   UNL A   1      43.916  34.757  35.086  1.00  0.00     0.124 S 
ATOM     65  O   UNL A   1      43.758  35.408  36.385  1.00  0.00    -0.237 OA
ATOM     66  O   UNL A   1      45.217  34.154  34.826  1.00  0.00    -0.237 OA
ATOM     67  O   UNL A   1      43.328  35.481  33.960  1.00  0.00    -0.744 OA
ENDBRANCH  60  64
ENDBRANCH  43  57
BRANCH  44  68
ATOM     68  C   UNL A   1      42.685  24.050  27.349  1.00  0.00     0.023 A 
ATOM     69  C   UNL A   1      42.067  22.796  27.480  1.00  0.00     0.031 A 
ATOM     70  C   UNL A   1      43.430  24.300  26.184  1.00  0.00     0.131 A 
ATOM     71  C   UNL A   1      42.247  21.821  26.487  1.00  0.00     0.055 A 
ATOM     72  C   UNL A   1      43.564  23.344  25.175  1.00  0.00     0.041 A 
ATOM     73  F   UNL A   1      44.030  25.488  26.003  1.00  0.00    -0.206 F 
ATOM     74  C   UNL A   1      42.981  22.091  25.330  1.00  0.00     0.022 A 
BRANCH  71  75
ATOM     75  S   UNL A   1      41.565  20.163  26.764  1.00  0.00     0.124 S 
ATOM     76  O   UNL A   1      41.575  19.607  25.416  1.00  0.00    -0.237 OA
ATOM     77  O   UNL A   1      42.528  19.593  27.700  1.00  0.00    -0.237 OA
ATOM     78  O   UNL A   1      40.241  20.429  27.322  1.00  0.00    -0.744 OA
ENDBRANCH  71  75
ENDBRANCH  44  68
BRANCH  56  79
ATOM     79  C   UNL A   1      46.530  25.435  32.988  1.00  0.00     0.023 A 
ATOM     80  C   UNL A   1      46.389  24.405  33.936  1.00  0.00     0.031 A 
ATOM     81  C   UNL A   1      47.831  25.838  32.640  1.00  0.00     0.131 A 
ATOM     82  C   UNL A   1      47.525  23.872  34.563  1.00  0.00     0.055 A 
ATOM     83  C   UNL A   1      48.961  25.256  33.217  1.00  0.00     0.041 A 
ATOM     84  F   UNL A   1      48.027  26.817  31.742  1.00  0.00    -0.206 F 
ATOM     85  C   UNL A   1      48.810  24.280  34.199  1.00  0.00     0.022 A 
BRANCH  82  86
ATOM     86  S   UNL A   1      47.292  22.732  35.954  1.00  0.00     0.124 S 
ATOM     87  O   UNL A   1      48.358  23.140  36.864  1.00  0.00    -0.237 OA
ATOM     88  O   UNL A   1      45.933  23.040  36.385  1.00  0.00    -0.237 OA
ATOM     89  O   UNL A   1      47.467  21.411  35.349  1.00  0.00    -0.744 OA
ENDBRANCH  82  86
ENDBRANCH  56  79
ENDBRANCH  30  31
ENDBRANCH  22  25
ENDBRANCH  20  21
ENDBRANCH  19  20
ENDBRANCH   1  19
TORSDOF 17
ENDMDL
MODEL 2
REMARK VINA RESULT:     -10.3      1.482      1.847
REMARK SMILES C[C@H](Sc1ccnc(C(=O)NCCCNC(=O)c2ccc(-c3c4nc(c(-c5cc(S(=O)(=O)[O-])ccc5F)c5ccc([nH]5)c(-c5cc(S(=O)(=O)[O-])ccc5F)c5nc(c(-c6cc(S(=O)(=O)[O-])ccc6F)c6ccc3[nH]6)C=C5)C=C4)cc2)c1)[C@@H](C)O
REMARK SMILES IDX 12 1 11 2 9 3 10 4 8 6 4 7 5 8 81 9 6 10 7 11 3 12 2 13 1 14
REMARK SMILES IDX 82 15 83 16 84 17 13 19 14 20 15 21 16 22 17 24 18 25 19 26
REMARK SMILES IDX 80 27 20 28 79 29 21 30 22 31 23 32 73 33 24 34 78 35 72 36
REMARK SMILES IDX 74 37 25 38 77 39 71 40 70 41 26 43 58 44 38 45 57 46 39 47
REMARK SMILES IDX 42 48 56 49 75 50 40 51 41 52 55 54 76 55 43 56 27 57 28 58
REMARK SMILES IDX 36 59 29 60 35 61 37 62 34 63 30 64 31 65 32 66 33 67 59 68
REMARK SMILES IDX 60 69 68 70 61 71 67 72 69 73 66 74 62 75 63 76 64 77 65 78
REMARK SMILES IDX 44 79 45 80 53 81 46 82 52 83 54 84 51 85 47 86 48 87 49 88
REMARK SMILES IDX 50 89
REMARK H PARENT 11 5 84 18 15 23 74 42 42 53
REMARK Flexibility Score: inf
ROOT
ATOM      1  C   UNL A   1      31.617  27.812  26.264  1.00  0.00     0.118 C 
ENDROOT
BRANCH   1   2
ATOM      2  N   UNL A   1      30.922  26.593  26.629  1.00  0.00    -0.351 N 
ATOM      3  C   UNL A   1      30.961  25.298  26.165  1.00  0.00     0.269 C 
ATOM      4  O   UNL A   1      30.201  24.507  26.730  1.00  0.00    -0.268 OA
ATOM      5  H   UNL A   1      30.284  26.719  27.369  1.00  0.00     0.163 HD
BRANCH   3   6
ATOM      6  C   UNL A   1      31.893  24.798  25.087  1.00  0.00     0.129 A 
ATOM      7  C   UNL A   1      33.509  23.275  24.130  1.00  0.00     0.011 A 
ATOM      8  C   UNL A   1      33.273  23.867  22.898  1.00  0.00     0.035 A 
ATOM      9  C   UNL A   1      32.838  23.794  25.249  1.00  0.00     0.049 A 
ATOM     10  C   UNL A   1      32.390  24.930  22.829  1.00  0.00     0.113 A 
ATOM     11  N   UNL A   1      31.690  25.389  23.881  1.00  0.00    -0.251 NA
BRANCH   7  12
ATOM     12  S   UNL A   1      34.355  21.717  24.397  1.00  0.00    -0.120 SA
BRANCH  12  13
ATOM     13  C   UNL A   1      36.003  22.003  25.193  1.00  0.00     0.077 C 
ATOM     14  C   UNL A   1      37.015  20.870  25.054  1.00  0.00     0.022 C 
BRANCH  13  15
ATOM     15  C   UNL A   1      36.611  23.393  24.896  1.00  0.00     0.124 C 
ATOM     16  C   UNL A   1      37.709  23.800  25.878  1.00  0.00     0.039 C 
BRANCH  15  17
ATOM     17  O   UNL A   1      37.190  23.396  23.582  1.00  0.00    -0.392 OA
ATOM     18  H   UNL A   1      36.496  23.239  22.923  1.00  0.00     0.210 HD
ENDBRANCH  15  17
ENDBRANCH  13  15
ENDBRANCH  12  13
ENDBRANCH   7  12
ENDBRANCH   3   6
ENDBRANCH   1   2
BRANCH   1  19
ATOM     19  C   UNL A   1      33.091  27.742  26.665  1.00  0.00     0.042 C 
BRANCH  19  20
ATOM     20  C   UNL A   1      33.960  28.781  25.954  1.00  0.00     0.118 C 
BRANCH  20  21
ATOM     21  N   UNL A   1      33.803  30.103  26.540  1.00  0.00    -0.352 N 
ATOM     22  C   UNL A   1      34.492  30.717  27.554  1.00  0.00     0.251 C 
ATOM     23  H   UNL A   1      33.084  30.646  26.143  1.00  0.00     0.163 HD
ATOM     24  O   UNL A   1      34.012  31.731  28.055  1.00  0.00    -0.269 OA
BRANCH  22  25
ATOM     25  C   UNL A   1      35.782  30.184  28.049  1.00  0.00     0.039 A 
ATOM     26  C   UNL A   1      35.807  29.569  29.305  1.00  0.00     0.014 A 
ATOM     27  C   UNL A   1      36.975  30.354  27.339  1.00  0.00     0.014 A 
ATOM     28  C   UNL A   1      37.013  29.102  29.832  1.00  0.00     0.010 A 
ATOM     29  C   UNL A   1      38.168  29.827  27.835  1.00  0.00     0.010 A 
ATOM     30  C   UNL A   1      38.202  29.210  29.094  1.00  0.00    -0.014 A 
BRANCH  30  31
ATOM     31  C   UNL A   1      39.483  28.696  29.647  1.00  0.00     0.031 A 
ATOM     32  C   UNL A   1      40.094  29.324  30.871  1.00  0.00     0.074 A 
ATOM     33  C   UNL A   1      40.107  27.675  29.027  1.00  0.00     0.049 A 
ATOM     34  N   UNL A   1      41.202  29.015  31.497  1.00  0.00    -0.248 NA
ATOM     35  C   UNL A   1      39.377  30.469  31.452  1.00  0.00     0.031 C 
ATOM     36  C   UNL A   1      39.637  27.018  27.804  1.00  0.00     0.029 A 
ATOM     37  N   UNL A   1      41.265  27.008  29.337  1.00  0.00    -0.354 N 
ATOM     38  C   UNL A   1      41.322  29.933  32.537  1.00  0.00     0.074 A 
ATOM     39  C   UNL A   1      40.204  30.846  32.416  1.00  0.00     0.031 C 
ATOM     40  C   UNL A   1      40.481  26.023  27.488  1.00  0.00     0.029 A 
ATOM     41  C   UNL A   1      41.568  25.990  28.462  1.00  0.00     0.049 A 
ATOM     42  H   UNL A   1      41.827  27.236  30.113  1.00  0.00     0.167 HD
ATOM     43  C   UNL A   1      42.262  29.994  33.515  1.00  0.00     0.034 A 
ATOM     44  C   UNL A   1      42.601  25.126  28.448  1.00  0.00     0.034 A 
ATOM     45  C   UNL A   1      43.365  29.068  33.625  1.00  0.00     0.049 A 
ATOM     46  C   UNL A   1      43.623  25.202  29.553  1.00  0.00     0.074 A 
ATOM     47  C   UNL A   1      44.351  29.008  34.594  1.00  0.00     0.029 A 
ATOM     48  N   UNL A   1      43.630  28.038  32.729  1.00  0.00    -0.354 N 
ATOM     49  N   UNL A   1      43.692  26.043  30.560  1.00  0.00    -0.248 NA
ATOM     50  C   UNL A   1      44.691  24.196  29.530  1.00  0.00     0.031 C 
ATOM     51  C   UNL A   1      45.243  27.983  34.254  1.00  0.00     0.029 A 
ATOM     52  C   UNL A   1      44.775  27.353  33.112  1.00  0.00     0.049 A 
ATOM     53  H   UNL A   1      43.085  27.826  31.938  1.00  0.00     0.167 HD
ATOM     54  C   UNL A   1      44.801  25.650  31.305  1.00  0.00     0.074 A 
ATOM     55  C   UNL A   1      45.347  24.480  30.645  1.00  0.00     0.031 C 
ATOM     56  C   UNL A   1      45.320  26.201  32.432  1.00  0.00     0.034 A 
BRANCH  43  57
ATOM     57  C   UNL A   1      42.142  31.116  34.521  1.00  0.00     0.023 A 
ATOM     58  C   UNL A   1      42.807  32.343  34.341  1.00  0.00     0.031 A 
ATOM     59  C   UNL A   1      41.383  30.949  35.693  1.00  0.00     0.131 A 
ATOM     60  C   UNL A   1      42.769  33.318  35.350  1.00  0.00     0.055 A 
ATOM     61  C   UNL A   1      41.281  31.956  36.656  1.00  0.00     0.041 A 
ATOM     62  F   UNL A   1      40.741  29.795  35.932  1.00  0.00    -0.206 F 
ATOM     63  C   UNL A   1      41.990  33.143  36.496  1.00  0.00     0.022 A 
BRANCH  60  64
ATOM     64  S   UNL A   1      43.871  34.752  35.212  1.00  0.00     0.124 S 
ATOM     65  O   UNL A   1      45.081  34.141  34.665  1.00  0.00    -0.237 OA
ATOM     66  O   UNL A   1      43.136  35.631  34.311  1.00  0.00    -0.237 OA
ATOM     67  O   UNL A   1      43.991  35.228  36.589  1.00  0.00    -0.744 OA
ENDBRANCH  60  64
ENDBRANCH  43  57
BRANCH  44  68
ATOM     68  C   UNL A   1      42.720  24.109  27.366  1.00  0.00     0.023 A 
ATOM     69  C   UNL A   1      42.041  22.883  27.448  1.00  0.00     0.031 A 
ATOM     70  C   UNL A   1      43.541  24.335  26.248  1.00  0.00     0.131 A 
ATOM     71  C   UNL A   1      42.234  21.909  26.456  1.00  0.00     0.055 A 
ATOM     72  C   UNL A   1      43.691  23.383  25.238  1.00  0.00     0.041 A 
ATOM     73  F   UNL A   1      44.203  25.497  26.115  1.00  0.00    -0.206 F 
ATOM     74  C   UNL A   1      43.045  22.156  25.345  1.00  0.00     0.022 A 
BRANCH  71  75
ATOM     75  S   UNL A   1      41.465  20.281  26.676  1.00  0.00     0.124 S 
ATOM     76  O   UNL A   1      42.159  19.781  27.858  1.00  0.00    -0.237 OA
ATOM     77  O   UNL A   1      40.061  20.632  26.857  1.00  0.00    -0.237 OA
ATOM     78  O   UNL A   1      41.776  19.587  25.428  1.00  0.00    -0.744 OA
ENDBRANCH  71  75
ENDBRANCH  44  68
BRANCH  56  79
ATOM     79  C   UNL A   1      46.524  25.513  33.028  1.00  0.00     0.023 A 
ATOM     80  C   UNL A   1      47.831  25.803  32.593  1.00  0.00     0.031 A 
ATOM     81  C   UNL A   1      46.360  24.517  34.006  1.00  0.00     0.131 A 
ATOM     82  C   UNL A   1      48.911  25.050  33.076  1.00  0.00     0.055 A 
ATOM     83  C   UNL A   1      47.446  23.817  34.533  1.00  0.00     0.041 A 
ATOM     84  F   UNL A   1      45.136  24.196  34.457  1.00  0.00    -0.206 F 
ATOM     85  C   UNL A   1      48.729  24.069  34.054  1.00  0.00     0.022 A 
BRANCH  82  86
ATOM     86  S   UNL A   1      50.539  25.280  32.311  1.00  0.00     0.124 S 
ATOM     87  O   UNL A   1      50.394  26.583  31.672  1.00  0.00    -0.237 OA
ATOM     88  O   UNL A   1      51.434  25.230  33.462  1.00  0.00    -0.237 OA
ATOM     89  O   UNL A   1      50.649  24.147  31.391  1.00  0.00    -0.744 OA
ENDBRANCH  82  86
ENDBRANCH  56  79
ENDBRANCH  30  31
ENDBRANCH  22  25
ENDBRANCH  20  21
ENDBRANCH  19  20
ENDBRANCH   1  19
TORSDOF 17
ENDMDL
MODEL 3
REMARK VINA RESULT:     -10.0      4.988      9.979
REMARK SMILES C[C@H](Sc1ccnc(C(=O)NCCCNC(=O)c2ccc(-c3c4nc(c(-c5cc(S(=O)(=O)[O-])ccc5F)c5ccc([nH]5)c(-c5cc(S(=O)(=O)[O-])ccc5F)c5nc(c(-c6cc(S(=O)(=O)[O-])ccc6F)c6ccc3[nH]6)C=C5)C=C4)cc2)c1)[C@@H](C)O
REMARK SMILES IDX 12 1 11 2 9 3 10 4 8 6 4 7 5 8 81 9 6 10 7 11 3 12 2 13 1 14
REMARK SMILES IDX 82 15 83 16 84 17 13 19 14 20 15 21 16 22 17 24 18 25 19 26
REMARK SMILES IDX 80 27 20 28 79 29 21 30 22 31 23 32 73 33 24 34 78 35 72 36
REMARK SMILES IDX 74 37 25 38 77 39 71 40 70 41 26 43 58 44 38 45 57 46 39 47
REMARK SMILES IDX 42 48 56 49 75 50 40 51 41 52 55 54 76 55 43 56 27 57 28 58
REMARK SMILES IDX 36 59 29 60 35 61 37 62 34 63 30 64 31 65 32 66 33 67 59 68
REMARK SMILES IDX 60 69 68 70 61 71 67 72 69 73 66 74 62 75 63 76 64 77 65 78
REMARK SMILES IDX 44 79 45 80 53 81 46 82 52 83 54 84 51 85 47 86 48 87 49 88
REMARK SMILES IDX 50 89
REMARK H PARENT 11 5 84 18 15 23 74 42 42 53
REMARK Flexibility Score: inf
ROOT
ATOM      1  C   UNL A   1      34.662  22.160  25.384  1.00  0.00     0.118 C 
ENDROOT
BRANCH   1   2
ATOM      2  N   UNL A   1      34.697  22.488  23.972  1.00  0.00    -0.351 N 
ATOM      3  C   UNL A   1      33.911  23.271  23.156  1.00  0.00     0.269 C 
ATOM      4  O   UNL A   1      34.250  23.310  21.970  1.00  0.00    -0.268 OA
ATOM      5  H   UNL A   1      35.442  22.059  23.493  1.00  0.00     0.163 HD
BRANCH   3   6
ATOM      6  C   UNL A   1      32.743  24.103  23.628  1.00  0.00     0.129 A 
ATOM      7  C   UNL A   1      31.689  26.106  24.481  1.00  0.00     0.011 A 
ATOM      8  C   UNL A   1      30.464  25.558  24.130  1.00  0.00     0.035 A 
ATOM      9  C   UNL A   1      32.841  25.331  24.268  1.00  0.00     0.049 A 
ATOM     10  C   UNL A   1      30.435  24.286  23.587  1.00  0.00     0.113 A 
ATOM     11  N   UNL A   1      31.535  23.565  23.315  1.00  0.00    -0.251 NA
BRANCH   7  12
ATOM     12  S   UNL A   1      31.986  27.823  24.900  1.00  0.00    -0.120 SA
BRANCH  12  13
ATOM     13  C   UNL A   1      32.230  28.832  23.366  1.00  0.00     0.077 C 
ATOM     14  C   UNL A   1      33.497  28.537  22.569  1.00  0.00     0.022 C 
BRANCH  13  15
ATOM     15  C   UNL A   1      30.970  28.936  22.476  1.00  0.00     0.124 C 
ATOM     16  C   UNL A   1      29.674  29.089  23.271  1.00  0.00     0.039 C 
BRANCH  15  17
ATOM     17  O   UNL A   1      31.081  30.081  21.616  1.00  0.00    -0.392 OA
ATOM     18  H   UNL A   1      30.963  30.890  22.137  1.00  0.00     0.210 HD
ENDBRANCH  15  17
ENDBRANCH  13  15
ENDBRANCH  12  13
ENDBRANCH   7  12
ENDBRANCH   3   6
ENDBRANCH   1   2
BRANCH   1  19
ATOM     19  C   UNL A   1      35.845  22.788  26.121  1.00  0.00     0.042 C 
BRANCH  19  20
ATOM     20  C   UNL A   1      37.155  22.713  25.334  1.00  0.00     0.118 C 
BRANCH  20  21
ATOM     21  N   UNL A   1      38.076  21.750  25.914  1.00  0.00    -0.352 N 
ATOM     22  C   UNL A   1      39.318  21.924  26.469  1.00  0.00     0.251 C 
ATOM     23  H   UNL A   1      37.756  20.819  25.908  1.00  0.00     0.163 HD
ATOM     24  O   UNL A   1      40.020  20.933  26.653  1.00  0.00    -0.269 OA
BRANCH  22  25
ATOM     25  C   UNL A   1      39.819  23.268  26.841  1.00  0.00     0.039 A 
ATOM     26  C   UNL A   1      40.617  23.384  27.984  1.00  0.00     0.014 A 
ATOM     27  C   UNL A   1      39.448  24.417  26.136  1.00  0.00     0.014 A 
ATOM     28  C   UNL A   1      41.064  24.641  28.400  1.00  0.00     0.010 A 
ATOM     29  C   UNL A   1      39.950  25.664  26.513  1.00  0.00     0.010 A 
ATOM     30  C   UNL A   1      40.750  25.790  27.658  1.00  0.00    -0.014 A 
BRANCH  30  31
ATOM     31  C   UNL A   1      41.241  27.126  28.090  1.00  0.00     0.031 A 
ATOM     32  C   UNL A   1      42.682  27.512  27.888  1.00  0.00     0.074 A 
ATOM     33  C   UNL A   1      40.389  27.981  28.687  1.00  0.00     0.049 A 
ATOM     34  N   UNL A   1      43.294  28.627  28.199  1.00  0.00    -0.248 NA
ATOM     35  C   UNL A   1      43.558  26.499  27.280  1.00  0.00     0.031 C 
ATOM     36  C   UNL A   1      38.981  27.699  28.982  1.00  0.00     0.029 A 
ATOM     37  N   UNL A   1      40.575  29.258  29.151  1.00  0.00    -0.354 N 
ATOM     38  C   UNL A   1      44.626  28.447  27.836  1.00  0.00     0.074 A 
ATOM     39  C   UNL A   1      44.741  27.091  27.340  1.00  0.00     0.031 C 
ATOM     40  C   UNL A   1      38.425  28.783  29.546  1.00  0.00     0.029 A 
ATOM     41  C   UNL A   1      39.439  29.823  29.685  1.00  0.00     0.049 A 
ATOM     42  H   UNL A   1      41.439  29.728  29.107  1.00  0.00     0.167 HD
ATOM     43  C   UNL A   1      45.650  29.336  27.890  1.00  0.00     0.034 A 
ATOM     44  C   UNL A   1      39.237  31.042  30.220  1.00  0.00     0.034 A 
ATOM     45  C   UNL A   1      45.514  30.688  28.380  1.00  0.00     0.049 A 
ATOM     46  C   UNL A   1      40.385  32.017  30.254  1.00  0.00     0.074 A 
ATOM     47  C   UNL A   1      46.470  31.686  28.443  1.00  0.00     0.029 A 
ATOM     48  N   UNL A   1      44.343  31.231  28.898  1.00  0.00    -0.354 N 
ATOM     49  N   UNL A   1      41.626  31.849  29.858  1.00  0.00    -0.248 NA
ATOM     50  C   UNL A   1      40.095  33.354  30.786  1.00  0.00     0.031 C 
ATOM     51  C   UNL A   1      45.896  32.810  29.050  1.00  0.00     0.029 A 
ATOM     52  C   UNL A   1      44.560  32.541  29.300  1.00  0.00     0.049 A 
ATOM     53  H   UNL A   1      43.485  30.755  28.968  1.00  0.00     0.167 HD
ATOM     54  C   UNL A   1      42.260  33.070  30.071  1.00  0.00     0.074 A 
ATOM     55  C   UNL A   1      41.254  33.969  30.602  1.00  0.00     0.031 C 
ATOM     56  C   UNL A   1      43.553  33.420  29.848  1.00  0.00     0.034 A 
BRANCH  43  57
ATOM     57  C   UNL A   1      47.008  28.856  27.429  1.00  0.00     0.023 A 
ATOM     58  C   UNL A   1      47.255  28.516  26.086  1.00  0.00     0.031 A 
ATOM     59  C   UNL A   1      48.063  28.703  28.347  1.00  0.00     0.131 A 
ATOM     60  C   UNL A   1      48.490  27.963  25.716  1.00  0.00     0.055 A 
ATOM     61  C   UNL A   1      49.318  28.230  27.956  1.00  0.00     0.041 A 
ATOM     62  F   UNL A   1      47.885  28.992  29.645  1.00  0.00    -0.206 F 
ATOM     63  C   UNL A   1      49.533  27.842  26.637  1.00  0.00     0.022 A 
BRANCH  60  64
ATOM     64  S   UNL A   1      48.665  27.268  24.050  1.00  0.00     0.124 S 
ATOM     65  O   UNL A   1      47.284  27.304  23.570  1.00  0.00    -0.237 OA
ATOM     66  O   UNL A   1      49.588  28.199  23.413  1.00  0.00    -0.237 OA
ATOM     67  O   UNL A   1      49.197  25.928  24.290  1.00  0.00    -0.744 OA
ENDBRANCH  60  64
ENDBRANCH  43  57
BRANCH  44  68
ATOM     68  C   UNL A   1      37.899  31.418  30.758  1.00  0.00     0.023 A 
ATOM     69  C   UNL A   1      36.967  32.105  29.962  1.00  0.00     0.031 A 
ATOM     70  C   UNL A   1      37.544  31.125  32.086  1.00  0.00     0.131 A 
ATOM     71  C   UNL A   1      35.746  32.519  30.517  1.00  0.00     0.055 A 
ATOM     72  C   UNL A   1      36.307  31.496  32.618  1.00  0.00     0.041 A 
ATOM     73  F   UNL A   1      38.394  30.460  32.885  1.00  0.00    -0.206 F 
ATOM     74  C   UNL A   1      35.405  32.209  31.835  1.00  0.00     0.022 A 
BRANCH  71  75
ATOM     75  S   UNL A   1      34.636  33.538  29.507  1.00  0.00     0.124 S 
ATOM     76  O   UNL A   1      34.077  32.551  28.589  1.00  0.00    -0.237 OA
ATOM     77  O   UNL A   1      33.721  34.072  30.509  1.00  0.00    -0.237 OA
ATOM     78  O   UNL A   1      35.533  34.519  28.899  1.00  0.00    -0.744 OA
ENDBRANCH  71  75
ENDBRANCH  44  68
BRANCH  56  79
ATOM     79  C   UNL A   1      43.929  34.850  30.153  1.00  0.00     0.023 A 
ATOM     80  C   UNL A   1      43.839  35.860  29.178  1.00  0.00     0.031 A 
ATOM     81  C   UNL A   1      44.433  35.196  31.419  1.00  0.00     0.131 A 
ATOM     82  C   UNL A   1      44.322  37.146  29.459  1.00  0.00     0.055 A 
ATOM     83  C   UNL A   1      44.849  36.495  31.714  1.00  0.00     0.041 A 
ATOM     84  F   UNL A   1      44.543  34.272  32.388  1.00  0.00    -0.206 F 
ATOM     85  C   UNL A   1      44.813  37.474  30.725  1.00  0.00     0.022 A 
BRANCH  82  86
ATOM     86  S   UNL A   1      44.423  38.350  28.105  1.00  0.00     0.124 S 
ATOM     87  O   UNL A   1      44.529  39.613  28.828  1.00  0.00    -0.237 OA
ATOM     88  O   UNL A   1      45.622  37.919  27.395  1.00  0.00    -0.237 OA
ATOM     89  O   UNL A   1      43.168  38.155  27.379  1.00  0.00    -0.744 OA
ENDBRANCH  82  86
ENDBRANCH  56  79
ENDBRANCH  30  31
ENDBRANCH  22  25
ENDBRANCH  20  21
ENDBRANCH  19  20
ENDBRANCH   1  19
TORSDOF 17
ENDMDL
