MODEL 1
REMARK VINA RESULT:     -11.1      0.000      0.000
REMARK SMILES CC(C)C[C@@H](C)NS(=O)(=O)c1ccsc1C(=O)NCCCNC(=O)c1ccc(-c2c3nc(c(-c4cc(S(=O)(=O)[O-])ccc4F)c4ccc([nH]4)c(-c4cc(S(=O)(=O)[O-])ccc4F)c4nc(c(-c5cc(S(=O)(=O)[O-])ccc5F)c5ccc2[nH]5)C=C4)C=C3)cc1
REMARK SMILES IDX 19 1 18 2 16 3 17 4 15 6 11 7 12 8 13 9 14 10 8 11 9 12
REMARK SMILES IDX 10 13 7 14 5 16 6 17 4 18 2 19 1 20 3 21 20 22 21 23 22 24
REMARK SMILES IDX 23 25 24 27 25 28 26 29 87 30 27 31 86 32 28 33 29 34 30 35
REMARK SMILES IDX 80 36 31 37 85 38 79 39 81 40 32 41 84 42 78 43 77 44 33 46
REMARK SMILES IDX 65 47 45 48 64 49 46 50 49 51 63 52 82 53 47 54 48 55 62 57
REMARK SMILES IDX 83 58 50 59 34 60 35 61 43 62 36 63 42 64 44 65 41 66 37 67
REMARK SMILES IDX 38 68 39 69 40 70 66 71 67 72 75 73 68 74 74 75 76 76 73 77
REMARK SMILES IDX 69 78 70 79 71 80 72 81 51 82 52 83 60 84 53 85 59 86 61 87
REMARK SMILES IDX 58 88 54 89 55 90 56 91 57 92
REMARK H PARENT 18 5 7 15 22 26 81 45 49 56
REMARK Flexibility Score: inf
ROOT
ATOM      1  C   UNL A   1      32.415  26.800  26.625  1.00  0.00     0.118 C 
ENDROOT
BRANCH   1   2
ATOM      2  N   UNL A   1      31.404  25.772  26.777  1.00  0.00    -0.351 N 
ATOM      3  C   UNL A   1      31.428  24.405  26.696  1.00  0.00     0.262 C 
ATOM      4  O   UNL A   1      30.486  23.862  27.287  1.00  0.00    -0.268 OA
ATOM      5  H   UNL A   1      30.512  26.133  26.982  1.00  0.00     0.163 HD
BRANCH   3   6
ATOM      6  C   UNL A   1      32.430  23.620  25.997  1.00  0.00     0.112 A 
ATOM      7  C   UNL A   1      32.738  23.383  24.667  1.00  0.00     0.106 A 
ATOM      8  C   UNL A   1      33.721  22.342  24.506  1.00  0.00     0.034 A 
ATOM      9  C   UNL A   1      34.100  21.780  25.698  1.00  0.00     0.067 A 
ATOM     10  S   UNL A   1      33.354  22.551  27.016  1.00  0.00    -0.137 S 
BRANCH   7  11
ATOM     11  S   UNL A   1      32.065  24.117  23.259  1.00  0.00     0.242 S 
ATOM     12  O   UNL A   1      30.710  23.606  23.193  1.00  0.00    -0.207 OA
ATOM     13  O   UNL A   1      33.030  23.817  22.232  1.00  0.00    -0.207 OA
BRANCH  11  14
ATOM     14  N   UNL A   1      31.971  25.771  23.378  1.00  0.00    -0.208 NA
ATOM     15  H   UNL A   1      31.060  25.978  23.790  1.00  0.00     0.141 HD
BRANCH  14  16
ATOM     16  C   UNL A   1      32.097  26.646  22.190  1.00  0.00     0.067 C 
ATOM     17  C   UNL A   1      33.322  27.532  22.381  1.00  0.00     0.025 C 
BRANCH  16  18
ATOM     18  C   UNL A   1      30.769  27.425  22.140  1.00  0.00     0.022 C 
BRANCH  18  19
ATOM     19  C   UNL A   1      30.095  27.870  23.439  1.00  0.00    -0.016 C 
ATOM     20  C   UNL A   1      29.741  29.354  23.401  1.00  0.00     0.007 C 
ATOM     21  C   UNL A   1      28.823  27.032  23.630  1.00  0.00     0.007 C 
ENDBRANCH  18  19
ENDBRANCH  16  18
ENDBRANCH  14  16
ENDBRANCH  11  14
ENDBRANCH   7  11
ENDBRANCH   3   6
ENDBRANCH   1   2
BRANCH   1  22
ATOM     22  C   UNL A   1      31.869  28.237  26.514  1.00  0.00     0.042 C 
BRANCH  22  23
ATOM     23  C   UNL A   1      32.687  29.229  25.669  1.00  0.00     0.118 C 
BRANCH  23  24
ATOM     24  N   UNL A   1      32.515  30.594  26.136  1.00  0.00    -0.352 N 
ATOM     25  C   UNL A   1      33.197  31.347  27.057  1.00  0.00     0.251 C 
ATOM     26  H   UNL A   1      31.765  31.069  25.710  1.00  0.00     0.163 HD
ATOM     27  O   UNL A   1      32.640  32.363  27.474  1.00  0.00    -0.269 OA
BRANCH  25  28
ATOM     28  C   UNL A   1      34.558  31.016  27.565  1.00  0.00     0.039 A 
ATOM     29  C   UNL A   1      34.802  29.686  27.938  1.00  0.00     0.014 A 
ATOM     30  C   UNL A   1      35.530  31.980  27.856  1.00  0.00     0.014 A 
ATOM     31  C   UNL A   1      35.984  29.326  28.601  1.00  0.00     0.010 A 
ATOM     32  C   UNL A   1      36.736  31.609  28.483  1.00  0.00     0.010 A 
ATOM     33  C   UNL A   1      36.968  30.282  28.890  1.00  0.00    -0.014 A 
BRANCH  33  34
ATOM     34  C   UNL A   1      38.189  29.892  29.665  1.00  0.00     0.031 A 
ATOM     35  C   UNL A   1      38.385  30.365  31.088  1.00  0.00     0.074 A 
ATOM     36  C   UNL A   1      39.127  29.097  29.108  1.00  0.00     0.049 A 
ATOM     37  N   UNL A   1      39.367  30.112  31.921  1.00  0.00    -0.248 NA
ATOM     38  C   UNL A   1      37.352  31.252  31.641  1.00  0.00     0.031 C 
ATOM     39  C   UNL A   1      39.088  28.580  27.739  1.00  0.00     0.029 A 
ATOM     40  N   UNL A   1      40.296  28.581  29.620  1.00  0.00    -0.354 N 
ATOM     41  C   UNL A   1      39.083  30.824  33.083  1.00  0.00     0.074 A 
ATOM     42  C   UNL A   1      37.854  31.549  32.833  1.00  0.00     0.031 C 
ATOM     43  C   UNL A   1      40.171  27.813  27.526  1.00  0.00     0.029 A 
ATOM     44  C   UNL A   1      41.000  27.802  28.728  1.00  0.00     0.049 A 
ATOM     45  H   UNL A   1      40.601  28.753  30.540  1.00  0.00     0.167 HD
ATOM     46  C   UNL A   1      39.769  30.863  34.254  1.00  0.00     0.034 A 
ATOM     47  C   UNL A   1      42.179  27.156  28.855  1.00  0.00     0.034 A 
ATOM     48  C   UNL A   1      40.970  30.106  34.522  1.00  0.00     0.049 A 
ATOM     49  C   UNL A   1      42.916  27.203  30.174  1.00  0.00     0.074 A 
ATOM     50  C   UNL A   1      41.681  30.010  35.708  1.00  0.00     0.029 A 
ATOM     51  N   UNL A   1      41.643  29.322  33.596  1.00  0.00    -0.354 N 
ATOM     52  N   UNL A   1      42.585  27.822  31.283  1.00  0.00    -0.248 NA
ATOM     53  C   UNL A   1      44.174  26.449  30.262  1.00  0.00     0.031 C 
ATOM     54  C   UNL A   1      42.815  29.223  35.482  1.00  0.00     0.029 A 
ATOM     55  C   UNL A   1      42.777  28.771  34.174  1.00  0.00     0.049 A 
ATOM     56  H   UNL A   1      41.359  29.179  32.664  1.00  0.00     0.167 HD
ATOM     57  C   UNL A   1      43.576  27.500  32.207  1.00  0.00     0.074 A 
ATOM     58  C   UNL A   1      44.508  26.622  31.533  1.00  0.00     0.031 C 
ATOM     59  C   UNL A   1      43.704  27.895  33.499  1.00  0.00     0.034 A 
BRANCH  46  60
ATOM     60  C   UNL A   1      39.259  31.780  35.341  1.00  0.00     0.023 A 
ATOM     61  C   UNL A   1      38.600  31.290  36.481  1.00  0.00     0.031 A 
ATOM     62  C   UNL A   1      39.455  33.169  35.239  1.00  0.00     0.131 A 
ATOM     63  C   UNL A   1      38.109  32.185  37.444  1.00  0.00     0.055 A 
ATOM     64  C   UNL A   1      39.027  34.050  36.235  1.00  0.00     0.041 A 
ATOM     65  F   UNL A   1      40.067  33.696  34.167  1.00  0.00    -0.206 F 
ATOM     66  C   UNL A   1      38.339  33.560  37.341  1.00  0.00     0.022 A 
BRANCH  63  67
ATOM     67  S   UNL A   1      37.069  31.539  38.782  1.00  0.00     0.124 S 
ATOM     68  O   UNL A   1      36.829  30.170  38.333  1.00  0.00    -0.237 OA
ATOM     69  O   UNL A   1      37.929  31.687  39.950  1.00  0.00    -0.237 OA
ATOM     70  O   UNL A   1      35.896  32.410  38.757  1.00  0.00    -0.744 OA
ENDBRANCH  63  67
ENDBRANCH  46  60
BRANCH  47  71
ATOM     71  C   UNL A   1      42.769  26.415  27.699  1.00  0.00     0.023 A 
ATOM     72  C   UNL A   1      42.564  25.035  27.538  1.00  0.00     0.031 A 
ATOM     73  C   UNL A   1      43.617  27.066  26.785  1.00  0.00     0.131 A 
ATOM     74  C   UNL A   1      43.244  24.340  26.526  1.00  0.00     0.055 A 
ATOM     75  C   UNL A   1      44.246  26.379  25.745  1.00  0.00     0.041 A 
ATOM     76  F   UNL A   1      43.848  28.384  26.892  1.00  0.00    -0.206 F 
ATOM     77  C   UNL A   1      44.076  25.004  25.622  1.00  0.00     0.022 A 
BRANCH  74  78
ATOM     78  S   UNL A   1      43.120  22.530  26.480  1.00  0.00     0.124 S 
ATOM     79  O   UNL A   1      44.493  22.144  26.174  1.00  0.00    -0.237 OA
ATOM     80  O   UNL A   1      42.653  22.227  27.829  1.00  0.00    -0.237 OA
ATOM     81  O   UNL A   1      42.150  22.282  25.416  1.00  0.00    -0.744 OA
ENDBRANCH  74  78
ENDBRANCH  47  71
BRANCH  59  82
ATOM     82  C   UNL A   1      44.867  27.334  34.281  1.00  0.00     0.023 A 
ATOM     83  C   UNL A   1      44.769  26.121  34.987  1.00  0.00     0.031 A 
ATOM     84  C   UNL A   1      46.087  28.031  34.332  1.00  0.00     0.131 A 
ATOM     85  C   UNL A   1      45.853  25.670  35.757  1.00  0.00     0.055 A 
ATOM     86  C   UNL A   1      47.180  27.550  35.054  1.00  0.00     0.041 A 
ATOM     87  F   UNL A   1      46.237  29.194  33.677  1.00  0.00    -0.206 F 
ATOM     88  C   UNL A   1      47.063  26.370  35.783  1.00  0.00     0.022 A 
BRANCH  85  89
ATOM     89  S   UNL A   1      45.636  24.196  36.792  1.00  0.00     0.124 S 
ATOM     90  O   UNL A   1      47.012  23.750  36.978  1.00  0.00    -0.237 OA
ATOM     91  O   UNL A   1      44.977  24.740  37.976  1.00  0.00    -0.237 OA
ATOM     92  O   UNL A   1      44.804  23.318  35.971  1.00  0.00    -0.744 OA
ENDBRANCH  85  89
ENDBRANCH  59  82
ENDBRANCH  33  34
ENDBRANCH  25  28
ENDBRANCH  23  24
ENDBRANCH  22  23
ENDBRANCH   1  22
TORSDOF 18
ENDMDL
MODEL 2
REMARK VINA RESULT:     -10.5      1.471      2.584
REMARK SMILES CC(C)C[C@@H](C)NS(=O)(=O)c1ccsc1C(=O)NCCCNC(=O)c1ccc(-c2c3nc(c(-c4cc(S(=O)(=O)[O-])ccc4F)c4ccc([nH]4)c(-c4cc(S(=O)(=O)[O-])ccc4F)c4nc(c(-c5cc(S(=O)(=O)[O-])ccc5F)c5ccc2[nH]5)C=C4)C=C3)cc1
REMARK SMILES IDX 19 1 18 2 16 3 17 4 15 6 11 7 12 8 13 9 14 10 8 11 9 12
REMARK SMILES IDX 10 13 7 14 5 16 6 17 4 18 2 19 1 20 3 21 20 22 21 23 22 24
REMARK SMILES IDX 23 25 24 27 25 28 26 29 87 30 27 31 86 32 28 33 29 34 30 35
REMARK SMILES IDX 80 36 31 37 85 38 79 39 81 40 32 41 84 42 78 43 77 44 33 46
REMARK SMILES IDX 65 47 45 48 64 49 46 50 49 51 63 52 82 53 47 54 48 55 62 57
REMARK SMILES IDX 83 58 50 59 34 60 35 61 43 62 36 63 42 64 44 65 41 66 37 67
REMARK SMILES IDX 38 68 39 69 40 70 66 71 67 72 75 73 68 74 74 75 76 76 73 77
REMARK SMILES IDX 69 78 70 79 71 80 72 81 51 82 52 83 60 84 53 85 59 86 61 87
REMARK SMILES IDX 58 88 54 89 55 90 56 91 57 92
REMARK H PARENT 18 5 7 15 22 26 81 45 49 56
REMARK Flexibility Score: inf
ROOT
ATOM      1  C   UNL A   1      32.266  28.840  26.942  1.00  0.00     0.118 C 
ENDROOT
BRANCH   1   2
ATOM      2  N   UNL A   1      33.264  28.740  25.895  1.00  0.00    -0.351 N 
ATOM      3  C   UNL A   1      33.197  28.561  24.538  1.00  0.00     0.262 C 
ATOM      4  O   UNL A   1      34.212  28.940  23.942  1.00  0.00    -0.268 OA
ATOM      5  H   UNL A   1      34.186  28.816  26.231  1.00  0.00     0.163 HD
BRANCH   3   6
ATOM      6  C   UNL A   1      32.073  27.986  23.821  1.00  0.00     0.112 A 
ATOM      7  C   UNL A   1      31.908  26.925  22.945  1.00  0.00     0.106 A 
ATOM      8  C   UNL A   1      30.598  26.903  22.346  1.00  0.00     0.034 A 
ATOM      9  C   UNL A   1      29.819  27.963  22.733  1.00  0.00     0.067 A 
ATOM     10  S   UNL A   1      30.614  28.934  23.879  1.00  0.00    -0.137 S 
BRANCH   7  11
ATOM     11  S   UNL A   1      33.058  25.728  22.476  1.00  0.00     0.242 S 
ATOM     12  O   UNL A   1      34.017  26.444  21.658  1.00  0.00    -0.207 OA
ATOM     13  O   UNL A   1      32.239  24.677  21.924  1.00  0.00    -0.207 OA
BRANCH  11  14
ATOM     14  N   UNL A   1      33.880  25.084  23.767  1.00  0.00    -0.208 NA
ATOM     15  H   UNL A   1      34.240  24.181  23.456  1.00  0.00     0.141 HD
BRANCH  14  16
ATOM     16  C   UNL A   1      33.219  24.841  25.070  1.00  0.00     0.067 C 
ATOM     17  C   UNL A   1      34.269  24.324  26.045  1.00  0.00     0.025 C 
BRANCH  16  18
ATOM     18  C   UNL A   1      32.108  23.822  24.756  1.00  0.00     0.022 C 
BRANCH  18  19
ATOM     19  C   UNL A   1      30.727  23.978  25.392  1.00  0.00    -0.016 C 
ATOM     20  C   UNL A   1      30.482  22.911  26.455  1.00  0.00     0.007 C 
ATOM     21  C   UNL A   1      30.645  25.375  26.024  1.00  0.00     0.007 C 
ENDBRANCH  18  19
ENDBRANCH  16  18
ENDBRANCH  14  16
ENDBRANCH  11  14
ENDBRANCH   7  11
ENDBRANCH   3   6
ENDBRANCH   1   2
BRANCH   1  22
ATOM     22  C   UNL A   1      31.745  30.266  27.208  1.00  0.00     0.042 C 
BRANCH  22  23
ATOM     23  C   UNL A   1      32.117  31.346  26.177  1.00  0.00     0.118 C 
BRANCH  23  24
ATOM     24  N   UNL A   1      32.202  32.660  26.790  1.00  0.00    -0.352 N 
ATOM     25  C   UNL A   1      33.049  33.185  27.733  1.00  0.00     0.251 C 
ATOM     26  H   UNL A   1      31.521  33.295  26.469  1.00  0.00     0.163 HD
ATOM     27  O   UNL A   1      32.693  34.226  28.289  1.00  0.00    -0.269 OA
BRANCH  25  28
ATOM     28  C   UNL A   1      34.360  32.585  28.107  1.00  0.00     0.039 A 
ATOM     29  C   UNL A   1      34.348  31.280  28.621  1.00  0.00     0.014 A 
ATOM     30  C   UNL A   1      35.558  33.306  28.143  1.00  0.00     0.014 A 
ATOM     31  C   UNL A   1      35.504  30.711  29.174  1.00  0.00     0.010 A 
ATOM     32  C   UNL A   1      36.729  32.717  28.659  1.00  0.00     0.010 A 
ATOM     33  C   UNL A   1      36.713  31.422  29.208  1.00  0.00    -0.014 A 
BRANCH  33  34
ATOM     34  C   UNL A   1      37.917  30.825  29.871  1.00  0.00     0.031 A 
ATOM     35  C   UNL A   1      38.233  31.129  31.318  1.00  0.00     0.074 A 
ATOM     36  C   UNL A   1      38.730  29.992  29.187  1.00  0.00     0.049 A 
ATOM     37  N   UNL A   1      39.217  30.688  32.064  1.00  0.00    -0.248 NA
ATOM     38  C   UNL A   1      37.336  32.064  32.011  1.00  0.00     0.031 C 
ATOM     39  C   UNL A   1      38.567  29.622  27.780  1.00  0.00     0.029 A 
ATOM     40  N   UNL A   1      39.856  29.303  29.579  1.00  0.00    -0.354 N 
ATOM     41  C   UNL A   1      39.073  31.307  33.303  1.00  0.00     0.074 A 
ATOM     42  C   UNL A   1      37.924  32.183  33.195  1.00  0.00     0.031 C 
ATOM     43  C   UNL A   1      39.544  28.767  27.433  1.00  0.00     0.029 A 
ATOM     44  C   UNL A   1      40.423  28.544  28.579  1.00  0.00     0.049 A 
ATOM     45  H   UNL A   1      40.221  29.347  30.492  1.00  0.00     0.167 HD
ATOM     46  C   UNL A   1      39.813  31.153  34.430  1.00  0.00     0.034 A 
ATOM     47  C   UNL A   1      41.525  27.764  28.575  1.00  0.00     0.034 A 
ATOM     48  C   UNL A   1      40.931  30.246  34.555  1.00  0.00     0.049 A 
ATOM     49  C   UNL A   1      42.323  27.598  29.847  1.00  0.00     0.074 A 
ATOM     50  C   UNL A   1      41.681  29.955  35.684  1.00  0.00     0.029 A 
ATOM     51  N   UNL A   1      41.466  29.490  33.522  1.00  0.00    -0.354 N 
ATOM     52  N   UNL A   1      42.118  28.136  31.027  1.00  0.00    -0.248 NA
ATOM     53  C   UNL A   1      43.490  26.706  29.791  1.00  0.00     0.031 C 
ATOM     54  C   UNL A   1      42.707  29.076  35.318  1.00  0.00     0.029 A 
ATOM     55  C   UNL A   1      42.555  28.764  33.979  1.00  0.00     0.049 A 
ATOM     56  H   UNL A   1      41.123  29.473  32.599  1.00  0.00     0.167 HD
ATOM     57  C   UNL A   1      43.109  27.617  31.857  1.00  0.00     0.074 A 
ATOM     58  C   UNL A   1      43.901  26.714  31.050  1.00  0.00     0.031 C 
ATOM     59  C   UNL A   1      43.342  27.864  33.171  1.00  0.00     0.034 A 
BRANCH  46  60
ATOM     60  C   UNL A   1      39.463  32.007  35.627  1.00  0.00     0.023 A 
ATOM     61  C   UNL A   1      38.666  31.526  36.678  1.00  0.00     0.031 A 
ATOM     62  C   UNL A   1      39.955  33.322  35.721  1.00  0.00     0.131 A 
ATOM     63  C   UNL A   1      38.336  32.371  37.749  1.00  0.00     0.055 A 
ATOM     64  C   UNL A   1      39.682  34.134  36.824  1.00  0.00     0.041 A 
ATOM     65  F   UNL A   1      40.712  33.840  34.741  1.00  0.00    -0.206 F 
ATOM     66  C   UNL A   1      38.858  33.664  37.842  1.00  0.00     0.022 A 
BRANCH  63  67
ATOM     67  S   UNL A   1      37.125  31.795  38.971  1.00  0.00     0.124 S 
ATOM     68  O   UNL A   1      37.873  31.942  40.217  1.00  0.00    -0.237 OA
ATOM     69  O   UNL A   1      36.015  32.720  38.777  1.00  0.00    -0.237 OA
ATOM     70  O   UNL A   1      36.863  30.413  38.570  1.00  0.00    -0.744 OA
ENDBRANCH  63  67
ENDBRANCH  46  60
BRANCH  47  71
ATOM     71  C   UNL A   1      41.970  27.082  27.322  1.00  0.00     0.023 A 
ATOM     72  C   UNL A   1      41.913  25.685  27.194  1.00  0.00     0.031 A 
ATOM     73  C   UNL A   1      42.538  27.818  26.266  1.00  0.00     0.131 A 
ATOM     74  C   UNL A   1      42.469  25.063  26.065  1.00  0.00     0.055 A 
ATOM     75  C   UNL A   1      43.037  27.197  25.120  1.00  0.00     0.041 A 
ATOM     76  F   UNL A   1      42.618  29.156  26.337  1.00  0.00    -0.206 F 
ATOM     77  C   UNL A   1      43.021  25.810  25.022  1.00  0.00     0.022 A 
BRANCH  74  78
ATOM     78  S   UNL A   1      42.567  23.251  26.032  1.00  0.00     0.124 S 
ATOM     79  O   UNL A   1      43.577  22.988  27.050  1.00  0.00    -0.237 OA
ATOM     80  O   UNL A   1      41.199  22.870  26.369  1.00  0.00    -0.237 OA
ATOM     81  O   UNL A   1      42.974  22.957  24.659  1.00  0.00    -0.744 OA
ENDBRANCH  74  78
ENDBRANCH  47  71
BRANCH  59  82
ATOM     82  C   UNL A   1      44.469  27.103  33.828  1.00  0.00     0.023 A 
ATOM     83  C   UNL A   1      44.254  25.873  34.477  1.00  0.00     0.031 A 
ATOM     84  C   UNL A   1      45.775  27.624  33.816  1.00  0.00     0.131 A 
ATOM     85  C   UNL A   1      45.317  25.234  35.133  1.00  0.00     0.055 A 
ATOM     86  C   UNL A   1      46.840  26.956  34.422  1.00  0.00     0.041 A 
ATOM     87  F   UNL A   1      46.038  28.794  33.211  1.00  0.00    -0.206 F 
ATOM     88  C   UNL A   1      46.612  25.760  35.098  1.00  0.00     0.022 A 
BRANCH  85  89
ATOM     89  S   UNL A   1      44.972  23.742  36.106  1.00  0.00     0.124 S 
ATOM     90  O   UNL A   1      44.803  24.287  37.449  1.00  0.00    -0.237 OA
ATOM     91  O   UNL A   1      43.764  23.227  35.470  1.00  0.00    -0.237 OA
ATOM     92  O   UNL A   1      46.168  22.923  35.916  1.00  0.00    -0.744 OA
ENDBRANCH  85  89
ENDBRANCH  59  82
ENDBRANCH  33  34
ENDBRANCH  25  28
ENDBRANCH  23  24
ENDBRANCH  22  23
ENDBRANCH   1  22
TORSDOF 18
ENDMDL
MODEL 3
REMARK VINA RESULT:     -10.3      2.708      3.992
REMARK SMILES CC(C)C[C@@H](C)NS(=O)(=O)c1ccsc1C(=O)NCCCNC(=O)c1ccc(-c2c3nc(c(-c4cc(S(=O)(=O)[O-])ccc4F)c4ccc([nH]4)c(-c4cc(S(=O)(=O)[O-])ccc4F)c4nc(c(-c5cc(S(=O)(=O)[O-])ccc5F)c5ccc2[nH]5)C=C4)C=C3)cc1
REMARK SMILES IDX 19 1 18 2 16 3 17 4 15 6 11 7 12 8 13 9 14 10 8 11 9 12
REMARK SMILES IDX 10 13 7 14 5 16 6 17 4 18 2 19 1 20 3 21 20 22 21 23 22 24
REMARK SMILES IDX 23 25 24 27 25 28 26 29 87 30 27 31 86 32 28 33 29 34 30 35
REMARK SMILES IDX 80 36 31 37 85 38 79 39 81 40 32 41 84 42 78 43 77 44 33 46
REMARK SMILES IDX 65 47 45 48 64 49 46 50 49 51 63 52 82 53 47 54 48 55 62 57
REMARK SMILES IDX 83 58 50 59 34 60 35 61 43 62 36 63 42 64 44 65 41 66 37 67
REMARK SMILES IDX 38 68 39 69 40 70 66 71 67 72 75 73 68 74 74 75 76 76 73 77
REMARK SMILES IDX 69 78 70 79 71 80 72 81 51 82 52 83 60 84 53 85 59 86 61 87
REMARK SMILES IDX 58 88 54 89 55 90 56 91 57 92
REMARK H PARENT 18 5 7 15 22 26 81 45 49 56
REMARK Flexibility Score: inf
ROOT
ATOM      1  C   UNL A   1      31.545  27.403  26.876  1.00  0.00     0.118 C 
ENDROOT
BRANCH   1   2
ATOM      2  N   UNL A   1      32.653  26.556  26.482  1.00  0.00    -0.351 N 
ATOM      3  C   UNL A   1      33.167  26.174  25.271  1.00  0.00     0.262 C 
ATOM      4  O   UNL A   1      34.344  25.795  25.334  1.00  0.00    -0.268 OA
ATOM      5  H   UNL A   1      33.140  26.173  27.247  1.00  0.00     0.163 HD
BRANCH   3   6
ATOM      6  C   UNL A   1      32.447  26.188  24.010  1.00  0.00     0.112 A 
ATOM      7  C   UNL A   1      32.222  25.268  22.998  1.00  0.00     0.106 A 
ATOM      8  C   UNL A   1      31.600  25.861  21.842  1.00  0.00     0.034 A 
ATOM      9  C   UNL A   1      31.414  27.213  21.974  1.00  0.00     0.067 A 
ATOM     10  S   UNL A   1      31.895  27.762  23.508  1.00  0.00    -0.137 S 
BRANCH   7  11
ATOM     11  S   UNL A   1      32.635  23.594  22.955  1.00  0.00     0.242 S 
ATOM     12  O   UNL A   1      33.521  23.467  21.815  1.00  0.00    -0.207 OA
ATOM     13  O   UNL A   1      31.355  22.933  22.987  1.00  0.00    -0.207 OA
BRANCH  11  14
ATOM     14  N   UNL A   1      33.476  23.103  24.301  1.00  0.00    -0.208 NA
ATOM     15  H   UNL A   1      34.131  23.853  24.519  1.00  0.00     0.141 HD
BRANCH  14  16
ATOM     16  C   UNL A   1      34.263  21.848  24.313  1.00  0.00     0.067 C 
ATOM     17  C   UNL A   1      33.316  20.698  24.634  1.00  0.00     0.025 C 
BRANCH  16  18
ATOM     18  C   UNL A   1      35.344  22.080  25.385  1.00  0.00     0.022 C 
BRANCH  18  19
ATOM     19  C   UNL A   1      36.777  22.410  24.965  1.00  0.00    -0.016 C 
ATOM     20  C   UNL A   1      36.890  22.563  23.452  1.00  0.00     0.007 C 
ATOM     21  C   UNL A   1      37.189  23.718  25.656  1.00  0.00     0.007 C 
ENDBRANCH  18  19
ENDBRANCH  16  18
ENDBRANCH  14  16
ENDBRANCH  11  14
ENDBRANCH   7  11
ENDBRANCH   3   6
ENDBRANCH   1   2
BRANCH   1  22
ATOM     22  C   UNL A   1      31.938  28.831  27.300  1.00  0.00     0.042 C 
BRANCH  22  23
ATOM     23  C   UNL A   1      33.416  29.226  27.132  1.00  0.00     0.118 C 
BRANCH  23  24
ATOM     24  N   UNL A   1      33.592  30.666  27.188  1.00  0.00    -0.352 N 
ATOM     25  C   UNL A   1      34.429  31.465  27.926  1.00  0.00     0.251 C 
ATOM     26  H   UNL A   1      32.997  31.165  26.583  1.00  0.00     0.163 HD
ATOM     27  O   UNL A   1      34.144  32.661  27.996  1.00  0.00    -0.269 OA
BRANCH  25  28
ATOM     28  C   UNL A   1      35.651  30.976  28.625  1.00  0.00     0.039 A 
ATOM     29  C   UNL A   1      36.870  31.584  28.293  1.00  0.00     0.014 A 
ATOM     30  C   UNL A   1      35.671  29.841  29.444  1.00  0.00     0.014 A 
ATOM     31  C   UNL A   1      38.087  31.063  28.756  1.00  0.00     0.010 A 
ATOM     32  C   UNL A   1      36.891  29.345  29.943  1.00  0.00     0.010 A 
ATOM     33  C   UNL A   1      38.118  29.930  29.583  1.00  0.00    -0.014 A 
BRANCH  33  34
ATOM     34  C   UNL A   1      39.431  29.345  30.005  1.00  0.00     0.031 A 
ATOM     35  C   UNL A   1      40.191  29.920  31.180  1.00  0.00     0.074 A 
ATOM     36  C   UNL A   1      39.948  28.284  29.351  1.00  0.00     0.049 A 
ATOM     37  N   UNL A   1      41.330  29.533  31.703  1.00  0.00    -0.248 NA
ATOM     38  C   UNL A   1      39.603  31.094  31.841  1.00  0.00     0.031 C 
ATOM     39  C   UNL A   1      39.342  27.634  28.188  1.00  0.00     0.029 A 
ATOM     40  N   UNL A   1      41.099  27.560  29.569  1.00  0.00    -0.354 N 
ATOM     41  C   UNL A   1      41.606  30.425  32.736  1.00  0.00     0.074 A 
ATOM     42  C   UNL A   1      40.531  31.396  32.740  1.00  0.00     0.031 C 
ATOM     43  C   UNL A   1      40.116  26.604  27.805  1.00  0.00     0.029 A 
ATOM     44  C   UNL A   1      41.289  26.531  28.672  1.00  0.00     0.049 A 
ATOM     45  H   UNL A   1      41.728  27.759  30.300  1.00  0.00     0.167 HD
ATOM     46  C   UNL A   1      42.646  30.432  33.608  1.00  0.00     0.034 A 
ATOM     47  C   UNL A   1      42.291  25.634  28.553  1.00  0.00     0.034 A 
ATOM     48  C   UNL A   1      43.695  29.439  33.635  1.00  0.00     0.049 A 
ATOM     49  C   UNL A   1      43.430  25.654  29.547  1.00  0.00     0.074 A 
ATOM     50  C   UNL A   1      44.737  29.312  34.541  1.00  0.00     0.029 A 
ATOM     51  N   UNL A   1      43.845  28.410  32.716  1.00  0.00    -0.354 N 
ATOM     52  N   UNL A   1      43.626  26.462  30.562  1.00  0.00    -0.248 NA
ATOM     53  C   UNL A   1      44.471  24.629  29.388  1.00  0.00     0.031 C 
ATOM     54  C   UNL A   1      45.550  28.249  34.133  1.00  0.00     0.029 A 
ATOM     55  C   UNL A   1      44.979  27.668  33.014  1.00  0.00     0.049 A 
ATOM     56  H   UNL A   1      43.236  28.232  31.964  1.00  0.00     0.167 HD
ATOM     57  C   UNL A   1      44.793  26.017  31.180  1.00  0.00     0.074 A 
ATOM     58  C   UNL A   1      45.247  24.863  30.436  1.00  0.00     0.031 C 
ATOM     59  C   UNL A   1      45.430  26.518  32.269  1.00  0.00     0.034 A 
BRANCH  46  60
ATOM     60  C   UNL A   1      42.728  31.568  34.601  1.00  0.00     0.023 A 
ATOM     61  C   UNL A   1      42.014  31.553  35.811  1.00  0.00     0.031 A 
ATOM     62  C   UNL A   1      43.551  32.678  34.334  1.00  0.00     0.131 A 
ATOM     63  C   UNL A   1      42.092  32.651  36.682  1.00  0.00     0.055 A 
ATOM     64  C   UNL A   1      43.679  33.734  35.238  1.00  0.00     0.041 A 
ATOM     65  F   UNL A   1      44.246  32.753  33.189  1.00  0.00    -0.206 F 
ATOM     66  C   UNL A   1      42.938  33.731  36.416  1.00  0.00     0.022 A 
BRANCH  63  67
ATOM     67  S   UNL A   1      40.988  32.699  38.121  1.00  0.00     0.124 S 
ATOM     68  O   UNL A   1      39.807  32.009  37.608  1.00  0.00    -0.237 OA
ATOM     69  O   UNL A   1      41.757  31.986  39.134  1.00  0.00    -0.237 OA
ATOM     70  O   UNL A   1      40.807  34.129  38.367  1.00  0.00    -0.744 OA
ENDBRANCH  63  67
ENDBRANCH  46  60
BRANCH  47  71
ATOM     71  C   UNL A   1      42.293  24.639  27.438  1.00  0.00     0.023 A 
ATOM     72  C   UNL A   1      41.621  23.412  27.556  1.00  0.00     0.031 A 
ATOM     73  C   UNL A   1      43.040  24.871  26.269  1.00  0.00     0.131 A 
ATOM     74  C   UNL A   1      41.757  22.440  26.552  1.00  0.00     0.055 A 
ATOM     75  C   UNL A   1      43.126  23.923  25.248  1.00  0.00     0.041 A 
ATOM     76  F   UNL A   1      43.703  26.027  26.104  1.00  0.00    -0.206 F 
ATOM     77  C   UNL A   1      42.496  22.691  25.394  1.00  0.00     0.022 A 
BRANCH  74  78
ATOM     78  S   UNL A   1      41.050  20.793  26.836  1.00  0.00     0.124 S 
ATOM     79  O   UNL A   1      40.763  20.834  28.266  1.00  0.00    -0.237 OA
ATOM     80  O   UNL A   1      39.892  20.806  25.948  1.00  0.00    -0.237 OA
ATOM     81  O   UNL A   1      42.127  19.888  26.441  1.00  0.00    -0.744 OA
ENDBRANCH  74  78
ENDBRANCH  47  71
BRANCH  59  82
ATOM     82  C   UNL A   1      46.659  25.783  32.749  1.00  0.00     0.023 A 
ATOM     83  C   UNL A   1      47.927  26.015  32.187  1.00  0.00     0.031 A 
ATOM     84  C   UNL A   1      46.555  24.827  33.775  1.00  0.00     0.131 A 
ATOM     85  C   UNL A   1      49.031  25.262  32.617  1.00  0.00     0.055 A 
ATOM     86  C   UNL A   1      47.666  24.120  34.237  1.00  0.00     0.041 A 
ATOM     87  F   UNL A   1      45.369  24.565  34.347  1.00  0.00    -0.206 F 
ATOM     88  C   UNL A   1      48.911  24.326  33.648  1.00  0.00     0.022 A 
BRANCH  85  89
ATOM     89  S   UNL A   1      50.614  25.461  31.754  1.00  0.00     0.124 S 
ATOM     90  O   UNL A   1      50.186  25.631  30.369  1.00  0.00    -0.237 OA
ATOM     91  O   UNL A   1      51.174  26.645  32.398  1.00  0.00    -0.237 OA
ATOM     92  O   UNL A   1      51.319  24.212  32.036  1.00  0.00    -0.744 OA
ENDBRANCH  85  89
ENDBRANCH  59  82
ENDBRANCH  33  34
ENDBRANCH  25  28
ENDBRANCH  23  24
ENDBRANCH  22  23
ENDBRANCH   1  22
TORSDOF 18
ENDMDL
