MODEL 1
REMARK VINA RESULT:     -12.7      0.000      0.000
REMARK SMILES O=C(NCCCNC(=O)[C@H](CO)NC(=O)[C@H](Cc1c[nH]c2ccccc12)NC(=O)[C@H](Cc1ccc(O)cc1)NC(=O)c1ccc(F)cc1)c1ccc(-c2c3nc(c(-c4cc(S(=O)(=O)[O-])ccc4F)c4ccc([nH]4)c(-c4cc(S(=O)(=O)[O-])ccc4F)c4nc(c(-c5cc(S(=O)(=O)[O-])ccc5F)c5ccc2[nH]5)C=C4)C=C3)cc1
REMARK SMILES IDX 7 1 8 2 9 3 6 5 5 6 4 7 3 8 1 9 2 10 49 12 50 13 111 14
REMARK SMILES IDX 51 15 110 16 52 17 53 18 54 19 104 20 55 21 109 22 103 23
REMARK SMILES IDX 105 24 56 25 108 26 102 27 101 28 57 30 89 31 69 32 88 33
REMARK SMILES IDX 70 34 73 35 87 36 106 37 71 38 72 39 86 41 107 42 74 43
REMARK SMILES IDX 58 44 59 45 67 46 60 47 66 48 68 49 65 50 61 51 62 52 63 53
REMARK SMILES IDX 64 54 90 55 91 56 99 57 92 58 98 59 100 60 97 61 93 62 94 63
REMARK SMILES IDX 95 64 96 65 75 66 76 67 84 68 77 69 83 70 85 71 82 72 78 73
REMARK SMILES IDX 79 74 80 75 81 76 10 77 13 78 14 79 15 81 16 82 27 83 28 84
REMARK SMILES IDX 29 86 30 87 39 88 40 89 41 91 42 92 43 93 48 94 44 95 47 96
REMARK SMILES IDX 45 97 46 98 31 99 32 100 33 101 38 102 34 103 37 104 35 105
REMARK SMILES IDX 36 106 17 108 18 109 19 110 26 111 20 112 21 113 25 114
REMARK SMILES IDX 22 116 24 117 23 118 11 119 12 120
REMARK H PARENT 7 4 3 11 105 29 73 40 13 80 27 85 39 90 36 107 20 115 12 121
REMARK Flexibility Score: inf
ROOT
ATOM      1  N   UNL A   1      32.337  30.864  26.685  1.00  0.00    -0.354 N 
ATOM      2  C   UNL A   1      31.809  30.001  25.785  1.00  0.00     0.244 C 
ATOM      3  O   UNL A   1      30.945  30.443  25.024  1.00  0.00    -0.273 OA
ATOM      4  H   UNL A   1      31.790  31.663  26.867  1.00  0.00     0.163 HD
ENDROOT
BRANCH   1   5
ATOM      5  C   UNL A   1      33.581  30.790  27.420  1.00  0.00     0.117 C 
BRANCH   5   6
ATOM      6  C   UNL A   1      33.813  32.064  28.218  1.00  0.00     0.042 C 
BRANCH   6   7
ATOM      7  C   UNL A   1      33.405  33.316  27.456  1.00  0.00     0.118 C 
BRANCH   7   8
ATOM      8  N   UNL A   1      32.938  34.371  28.351  1.00  0.00    -0.352 N 
ATOM      9  O   UNL A   1      32.625  35.398  30.334  1.00  0.00    -0.269 OA
ATOM     10  C   UNL A   1      33.312  34.649  29.642  1.00  0.00     0.251 C 
ATOM     11  H   UNL A   1      32.253  34.969  27.973  1.00  0.00     0.163 HD
BRANCH  10  12
ATOM     12  C   UNL A   1      34.539  34.039  30.188  1.00  0.00     0.039 A 
ATOM     13  C   UNL A   1      34.438  33.027  31.142  1.00  0.00     0.014 A 
ATOM     14  C   UNL A   1      35.793  34.466  29.743  1.00  0.00     0.014 A 
ATOM     15  C   UNL A   1      35.577  32.568  31.780  1.00  0.00     0.010 A 
ATOM     16  C   UNL A   1      36.947  33.903  30.296  1.00  0.00     0.010 A 
ATOM     17  C   UNL A   1      36.846  32.964  31.334  1.00  0.00    -0.014 A 
BRANCH  17  18
ATOM     18  C   UNL A   1      38.037  32.290  31.902  1.00  0.00     0.031 A 
ATOM     19  C   UNL A   1      38.535  32.606  33.282  1.00  0.00     0.074 A 
ATOM     20  C   UNL A   1      38.635  31.337  31.159  1.00  0.00     0.049 A 
ATOM     21  N   UNL A   1      39.556  32.095  33.919  1.00  0.00    -0.248 NA
ATOM     22  C   UNL A   1      37.800  33.627  34.042  1.00  0.00     0.031 C 
ATOM     23  C   UNL A   1      38.219  30.943  29.808  1.00  0.00     0.029 A 
ATOM     24  N   UNL A   1      39.685  30.502  31.434  1.00  0.00    -0.354 N 
ATOM     25  C   UNL A   1      39.600  32.741  35.150  1.00  0.00     0.074 A 
ATOM     26  C   UNL A   1      38.516  33.702  35.156  1.00  0.00     0.031 C 
ATOM     27  C   UNL A   1      38.949  29.894  29.409  1.00  0.00     0.029 A 
ATOM     28  C   UNL A   1      39.949  29.605  30.426  1.00  0.00     0.049 A 
ATOM     29  H   UNL A   1      40.201  30.541  32.272  1.00  0.00     0.167 HD
ATOM     30  C   UNL A   1      40.464  32.538  36.175  1.00  0.00     0.034 A 
ATOM     31  C   UNL A   1      40.908  28.667  30.314  1.00  0.00     0.034 A 
ATOM     32  C   UNL A   1      41.534  31.570  36.141  1.00  0.00     0.049 A 
ATOM     33  C   UNL A   1      41.894  28.513  31.431  1.00  0.00     0.074 A 
ATOM     34  C   UNL A   1      42.460  31.276  37.128  1.00  0.00     0.029 A 
ATOM     35  N   UNL A   1      41.829  30.742  35.064  1.00  0.00    -0.354 N 
ATOM     36  N   UNL A   1      41.944  29.157  32.573  1.00  0.00    -0.248 NA
ATOM     37  C   UNL A   1      42.958  27.522  31.243  1.00  0.00     0.031 C 
ATOM     38  C   UNL A   1      43.353  30.326  36.624  1.00  0.00     0.029 A 
ATOM     39  C   UNL A   1      42.940  29.964  35.352  1.00  0.00     0.049 A 
ATOM     40  H   UNL A   1      41.322  30.712  34.221  1.00  0.00     0.167 HD
ATOM     41  C   UNL A   1      43.042  28.641  33.249  1.00  0.00     0.074 A 
ATOM     42  C   UNL A   1      43.621  27.626  32.388  1.00  0.00     0.031 C 
ATOM     43  C   UNL A   1      43.520  28.974  34.474  1.00  0.00     0.034 A 
BRANCH  30  44
ATOM     44  C   UNL A   1      40.316  33.408  37.398  1.00  0.00     0.023 A 
ATOM     45  C   UNL A   1      41.159  34.508  37.632  1.00  0.00     0.031 A 
ATOM     46  C   UNL A   1      39.303  33.141  38.338  1.00  0.00     0.131 A 
ATOM     47  C   UNL A   1      41.005  35.270  38.801  1.00  0.00     0.055 A 
ATOM     48  C   UNL A   1      39.113  33.944  39.464  1.00  0.00     0.041 A 
ATOM     49  F   UNL A   1      38.482  32.092  38.176  1.00  0.00    -0.206 F 
ATOM     50  C   UNL A   1      39.972  35.012  39.706  1.00  0.00     0.022 A 
BRANCH  47  51
ATOM     51  S   UNL A   1      42.236  36.549  39.175  1.00  0.00     0.124 S 
ATOM     52  O   UNL A   1      43.340  35.749  39.701  1.00  0.00    -0.237 OA
ATOM     53  O   UNL A   1      42.458  37.166  37.872  1.00  0.00    -0.237 OA
ATOM     54  O   UNL A   1      41.564  37.395  40.159  1.00  0.00    -0.744 OA
ENDBRANCH  47  51
ENDBRANCH  30  44
BRANCH  31  55
ATOM     55  C   UNL A   1      40.977  27.843  29.078  1.00  0.00     0.023 A 
ATOM     56  C   UNL A   1      41.937  28.103  28.090  1.00  0.00     0.031 A 
ATOM     57  C   UNL A   1      40.126  26.735  28.906  1.00  0.00     0.131 A 
ATOM     58  C   UNL A   1      42.023  27.263  26.970  1.00  0.00     0.055 A 
ATOM     59  C   UNL A   1      40.242  25.882  27.810  1.00  0.00     0.041 A 
ATOM     60  F   UNL A   1      39.204  26.437  29.836  1.00  0.00    -0.206 F 
ATOM     61  C   UNL A   1      41.195  26.145  26.831  1.00  0.00     0.022 A 
BRANCH  58  62
ATOM     62  S   UNL A   1      43.244  27.650  25.686  1.00  0.00     0.124 S 
ATOM     63  O   UNL A   1      44.030  26.422  25.645  1.00  0.00    -0.237 OA
ATOM     64  O   UNL A   1      42.397  27.909  24.526  1.00  0.00    -0.237 OA
ATOM     65  O   UNL A   1      43.938  28.820  26.219  1.00  0.00    -0.744 OA
ENDBRANCH  58  62
ENDBRANCH  31  55
BRANCH  43  66
ATOM     66  C   UNL A   1      44.719  28.212  34.973  1.00  0.00     0.023 A 
ATOM     67  C   UNL A   1      44.581  27.042  35.738  1.00  0.00     0.031 A 
ATOM     68  C   UNL A   1      46.014  28.646  34.642  1.00  0.00     0.131 A 
ATOM     69  C   UNL A   1      45.727  26.357  36.170  1.00  0.00     0.055 A 
ATOM     70  C   UNL A   1      47.148  27.932  35.032  1.00  0.00     0.041 A 
ATOM     71  F   UNL A   1      46.196  29.759  33.914  1.00  0.00    -0.206 F 
ATOM     72  C   UNL A   1      47.007  26.783  35.806  1.00  0.00     0.022 A 
BRANCH  69  73
ATOM     73  S   UNL A   1      45.525  24.915  37.251  1.00  0.00     0.124 S 
ATOM     74  O   UNL A   1      45.990  25.432  38.534  1.00  0.00    -0.237 OA
ATOM     75  O   UNL A   1      44.095  24.644  37.154  1.00  0.00    -0.237 OA
ATOM     76  O   UNL A   1      46.388  23.905  36.640  1.00  0.00    -0.744 OA
ENDBRANCH  69  73
ENDBRANCH  43  66
ENDBRANCH  17  18
ENDBRANCH  10  12
ENDBRANCH   7   8
ENDBRANCH   6   7
ENDBRANCH   5   6
ENDBRANCH   1   5
BRANCH   2  77
ATOM     77  C   UNL A   1      32.295  28.552  25.644  1.00  0.00     0.197 C 
BRANCH  77  78
ATOM     78  N   UNL A   1      33.518  28.451  24.841  1.00  0.00    -0.340 N 
ATOM     79  C   UNL A   1      33.639  28.307  23.483  1.00  0.00     0.243 C 
ATOM     80  H   UNL A   1      34.364  28.491  25.344  1.00  0.00     0.164 HD
ATOM     81  O   UNL A   1      34.744  28.509  22.978  1.00  0.00    -0.273 OA
BRANCH  79  82
ATOM     82  C   UNL A   1      32.437  27.839  22.635  1.00  0.00     0.175 C 
BRANCH  82  83
ATOM     83  N   UNL A   1      32.901  27.010  21.532  1.00  0.00    -0.342 N 
ATOM     84  C   UNL A   1      32.986  25.651  21.397  1.00  0.00     0.243 C 
ATOM     85  H   UNL A   1      33.208  27.516  20.745  1.00  0.00     0.164 HD
ATOM     86  O   UNL A   1      33.255  25.242  20.261  1.00  0.00    -0.273 OA
BRANCH  84  87
ATOM     87  C   UNL A   1      33.068  24.669  22.618  1.00  0.00     0.176 C 
BRANCH  87  88
ATOM     88  N   UNL A   1      33.545  25.202  23.903  1.00  0.00    -0.340 N 
ATOM     89  C   UNL A   1      34.412  24.733  24.853  1.00  0.00     0.251 C 
ATOM     90  H   UNL A   1      33.160  26.080  24.128  1.00  0.00     0.164 HD
ATOM     91  O   UNL A   1      34.570  25.354  25.903  1.00  0.00    -0.269 OA
BRANCH  89  92
ATOM     92  C   UNL A   1      35.224  23.515  24.677  1.00  0.00     0.040 A 
ATOM     93  C   UNL A   1      36.135  23.360  23.632  1.00  0.00     0.017 A 
ATOM     94  C   UNL A   1      35.183  22.566  25.708  1.00  0.00     0.017 A 
ATOM     95  C   UNL A   1      36.958  22.234  23.582  1.00  0.00     0.040 A 
ATOM     96  C   UNL A   1      36.012  21.448  25.667  1.00  0.00     0.040 A 
ATOM     97  C   UNL A   1      36.886  21.288  24.598  1.00  0.00     0.123 A 
ATOM     98  F   UNL A   1      37.689  20.217  24.560  1.00  0.00    -0.207 F 
ENDBRANCH  89  92
ENDBRANCH  87  88
BRANCH  87  99
ATOM     99  C   UNL A   1      31.725  23.911  22.807  1.00  0.00     0.070 C 
BRANCH  99 100
ATOM    100  C   UNL A   1      31.836  22.636  23.619  1.00  0.00    -0.045 A 
ATOM    101  C   UNL A   1      31.506  22.612  24.980  1.00  0.00     0.007 A 
ATOM    102  C   UNL A   1      32.338  21.469  23.022  1.00  0.00     0.007 A 
ATOM    103  C   UNL A   1      31.709  21.453  25.736  1.00  0.00     0.046 A 
ATOM    104  C   UNL A   1      32.561  20.321  23.780  1.00  0.00     0.046 A 
ATOM    105  C   UNL A   1      32.253  20.323  25.134  1.00  0.00     0.115 A 
BRANCH 105 106
ATOM    106  O   UNL A   1      32.518  19.191  25.847  1.00  0.00    -0.508 OA
ATOM    107  H   UNL A   1      32.848  18.430  25.412  1.00  0.00     0.293 HD
ENDBRANCH 105 106
ENDBRANCH  99 100
ENDBRANCH  87  99
ENDBRANCH  84  87
ENDBRANCH  82  83
BRANCH  82 108
ATOM    108  C   UNL A   1      31.322  27.294  23.542  1.00  0.00     0.072 C 
BRANCH 108 109
ATOM    109  C   UNL A   1      29.880  27.620  23.288  1.00  0.00    -0.020 A 
ATOM    110  C   UNL A   1      28.817  26.883  23.782  1.00  0.00     0.087 A 
ATOM    111  C   UNL A   1      29.308  28.793  22.682  1.00  0.00     0.003 A 
ATOM    112  N   UNL A   1      27.655  27.555  23.523  1.00  0.00    -0.361 N 
ATOM    113  C   UNL A   1      27.925  28.735  22.875  1.00  0.00     0.046 A 
ATOM    114  C   UNL A   1      29.821  29.924  22.012  1.00  0.00     0.010 A 
ATOM    115  H   UNL A   1      26.756  27.238  23.765  1.00  0.00     0.166 HD
ATOM    116  C   UNL A   1      27.050  29.747  22.454  1.00  0.00     0.026 A 
ATOM    117  C   UNL A   1      28.963  30.935  21.563  1.00  0.00     0.001 A 
ATOM    118  C   UNL A   1      27.596  30.848  21.790  1.00  0.00     0.002 A 
ENDBRANCH 108 109
ENDBRANCH  82 108
ENDBRANCH  79  82
ENDBRANCH  77  78
BRANCH  77 119
ATOM    119  C   UNL A   1      32.272  27.736  26.939  1.00  0.00     0.191 C 
BRANCH 119 120
ATOM    120  O   UNL A   1      31.177  28.019  27.799  1.00  0.00    -0.394 OA
ATOM    121  H   UNL A   1      30.400  27.516  27.509  1.00  0.00     0.210 HD
ENDBRANCH 119 120
ENDBRANCH  77 119
ENDBRANCH   2  77
TORSDOF 26
ENDMDL
MODEL 2
REMARK VINA RESULT:     -12.2      1.800      6.971
REMARK SMILES O=C(NCCCNC(=O)[C@H](CO)NC(=O)[C@H](Cc1c[nH]c2ccccc12)NC(=O)[C@H](Cc1ccc(O)cc1)NC(=O)c1ccc(F)cc1)c1ccc(-c2c3nc(c(-c4cc(S(=O)(=O)[O-])ccc4F)c4ccc([nH]4)c(-c4cc(S(=O)(=O)[O-])ccc4F)c4nc(c(-c5cc(S(=O)(=O)[O-])ccc5F)c5ccc2[nH]5)C=C4)C=C3)cc1
REMARK SMILES IDX 7 1 8 2 9 3 6 5 5 6 4 7 3 8 1 9 2 10 49 12 50 13 111 14
REMARK SMILES IDX 51 15 110 16 52 17 53 18 54 19 104 20 55 21 109 22 103 23
REMARK SMILES IDX 105 24 56 25 108 26 102 27 101 28 57 30 89 31 69 32 88 33
REMARK SMILES IDX 70 34 73 35 87 36 106 37 71 38 72 39 86 41 107 42 74 43
REMARK SMILES IDX 58 44 59 45 67 46 60 47 66 48 68 49 65 50 61 51 62 52 63 53
REMARK SMILES IDX 64 54 90 55 91 56 99 57 92 58 98 59 100 60 97 61 93 62 94 63
REMARK SMILES IDX 95 64 96 65 75 66 76 67 84 68 77 69 83 70 85 71 82 72 78 73
REMARK SMILES IDX 79 74 80 75 81 76 10 77 13 78 14 79 15 81 16 82 27 83 28 84
REMARK SMILES IDX 29 86 30 87 39 88 40 89 41 91 42 92 43 93 48 94 44 95 47 96
REMARK SMILES IDX 45 97 46 98 31 99 32 100 33 101 38 102 34 103 37 104 35 105
REMARK SMILES IDX 36 106 17 108 18 109 19 110 26 111 20 112 21 113 25 114
REMARK SMILES IDX 22 116 24 117 23 118 11 119 12 120
REMARK H PARENT 7 4 3 11 105 29 73 40 13 80 27 85 39 90 36 107 20 115 12 121
REMARK Flexibility Score: inf
ROOT
ATOM      1  N   UNL A   1      32.888  30.695  26.786  1.00  0.00    -0.354 N 
ATOM      2  C   UNL A   1      32.106  29.968  25.953  1.00  0.00     0.244 C 
ATOM      3  O   UNL A   1      31.165  30.554  25.412  1.00  0.00    -0.273 OA
ATOM      4  H   UNL A   1      32.477  31.522  27.127  1.00  0.00     0.163 HD
ENDROOT
BRANCH   1   5
ATOM      5  C   UNL A   1      34.235  30.441  27.250  1.00  0.00     0.117 C 
BRANCH   5   6
ATOM      6  C   UNL A   1      34.582  31.348  28.421  1.00  0.00     0.042 C 
BRANCH   6   7
ATOM      7  C   UNL A   1      34.831  32.786  27.995  1.00  0.00     0.118 C 
BRANCH   7   8
ATOM      8  N   UNL A   1      34.014  33.729  28.753  1.00  0.00    -0.352 N 
ATOM      9  O   UNL A   1      33.143  34.667  30.610  1.00  0.00    -0.269 OA
ATOM     10  C   UNL A   1      34.077  34.065  30.083  1.00  0.00     0.251 C 
ATOM     11  H   UNL A   1      33.315  34.190  28.236  1.00  0.00     0.163 HD
BRANCH  10  12
ATOM     12  C   UNL A   1      35.268  33.691  30.869  1.00  0.00     0.039 A 
ATOM     13  C   UNL A   1      35.249  32.529  31.638  1.00  0.00     0.014 A 
ATOM     14  C   UNL A   1      36.411  34.495  30.833  1.00  0.00     0.014 A 
ATOM     15  C   UNL A   1      36.294  32.261  32.506  1.00  0.00     0.010 A 
ATOM     16  C   UNL A   1      37.520  34.147  31.611  1.00  0.00     0.010 A 
ATOM     17  C   UNL A   1      37.461  33.039  32.469  1.00  0.00    -0.014 A 
BRANCH  17  18
ATOM     18  C   UNL A   1      38.632  32.592  33.259  1.00  0.00     0.031 A 
ATOM     19  C   UNL A   1      39.747  31.807  32.633  1.00  0.00     0.074 A 
ATOM     20  C   UNL A   1      38.694  32.959  34.555  1.00  0.00     0.049 A 
ATOM     21  N   UNL A   1      40.840  31.353  33.191  1.00  0.00    -0.248 NA
ATOM     22  C   UNL A   1      39.622  31.485  31.204  1.00  0.00     0.031 C 
ATOM     23  C   UNL A   1      37.666  33.736  35.256  1.00  0.00     0.029 A 
ATOM     24  N   UNL A   1      39.663  32.769  35.502  1.00  0.00    -0.354 N 
ATOM     25  C   UNL A   1      41.528  30.678  32.190  1.00  0.00     0.074 A 
ATOM     26  C   UNL A   1      40.712  30.759  30.995  1.00  0.00     0.031 C 
ATOM     27  C   UNL A   1      38.095  34.025  36.490  1.00  0.00     0.029 A 
ATOM     28  C   UNL A   1      39.378  33.370  36.705  1.00  0.00     0.049 A 
ATOM     29  H   UNL A   1      40.485  32.251  35.339  1.00  0.00     0.167 HD
ATOM     30  C   UNL A   1      42.731  30.057  32.267  1.00  0.00     0.034 A 
ATOM     31  C   UNL A   1      40.056  33.377  37.868  1.00  0.00     0.034 A 
ATOM     32  C   UNL A   1      43.523  29.994  33.472  1.00  0.00     0.049 A 
ATOM     33  C   UNL A   1      41.348  32.622  37.946  1.00  0.00     0.074 A 
ATOM     34  C   UNL A   1      44.760  29.399  33.658  1.00  0.00     0.029 A 
ATOM     35  N   UNL A   1      43.157  30.537  34.699  1.00  0.00    -0.354 N 
ATOM     36  N   UNL A   1      41.967  31.957  37.000  1.00  0.00    -0.248 NA
ATOM     37  C   UNL A   1      42.026  32.605  39.247  1.00  0.00     0.031 C 
ATOM     38  C   UNL A   1      45.107  29.521  35.007  1.00  0.00     0.029 A 
ATOM     39  C   UNL A   1      44.128  30.262  35.650  1.00  0.00     0.049 A 
ATOM     40  H   UNL A   1      42.330  31.043  34.866  1.00  0.00     0.167 HD
ATOM     41  C   UNL A   1      43.117  31.448  37.588  1.00  0.00     0.074 A 
ATOM     42  C   UNL A   1      43.109  31.890  38.970  1.00  0.00     0.031 C 
ATOM     43  C   UNL A   1      44.094  30.689  37.029  1.00  0.00     0.034 A 
BRANCH  30  44
ATOM     44  C   UNL A   1      43.240  29.358  31.031  1.00  0.00     0.023 A 
ATOM     45  C   UNL A   1      43.798  30.068  29.954  1.00  0.00     0.031 A 
ATOM     46  C   UNL A   1      43.181  27.955  30.937  1.00  0.00     0.131 A 
ATOM     47  C   UNL A   1      44.229  29.378  28.810  1.00  0.00     0.055 A 
ATOM     48  C   UNL A   1      43.673  27.270  29.825  1.00  0.00     0.041 A 
ATOM     49  F   UNL A   1      42.640  27.227  31.927  1.00  0.00    -0.206 F 
ATOM     50  C   UNL A   1      44.194  27.982  28.749  1.00  0.00     0.022 A 
BRANCH  47  51
ATOM     51  S   UNL A   1      44.748  30.335  27.360  1.00  0.00     0.124 S 
ATOM     52  O   UNL A   1      45.011  31.645  27.951  1.00  0.00    -0.237 OA
ATOM     53  O   UNL A   1      45.917  29.597  26.895  1.00  0.00    -0.237 OA
ATOM     54  O   UNL A   1      43.584  30.279  26.477  1.00  0.00    -0.744 OA
ENDBRANCH  47  51
ENDBRANCH  30  44
BRANCH  31  55
ATOM     55  C   UNL A   1      39.489  34.099  39.036  1.00  0.00     0.023 A 
ATOM     56  C   UNL A   1      39.753  35.461  39.239  1.00  0.00     0.031 A 
ATOM     57  C   UNL A   1      38.613  33.450  39.926  1.00  0.00     0.131 A 
ATOM     58  C   UNL A   1      39.145  36.133  40.311  1.00  0.00     0.055 A 
ATOM     59  C   UNL A   1      37.981  34.132  40.965  1.00  0.00     0.041 A 
ATOM     60  F   UNL A   1      38.317  32.151  39.759  1.00  0.00    -0.206 F 
ATOM     61  C   UNL A   1      38.248  35.483  41.164  1.00  0.00     0.022 A 
BRANCH  58  62
ATOM     62  S   UNL A   1      39.539  37.882  40.576  1.00  0.00     0.124 S 
ATOM     63  O   UNL A   1      39.742  37.926  42.020  1.00  0.00    -0.237 OA
ATOM     64  O   UNL A   1      40.734  38.055  39.754  1.00  0.00    -0.237 OA
ATOM     65  O   UNL A   1      38.349  38.577  40.089  1.00  0.00    -0.744 OA
ENDBRANCH  58  62
ENDBRANCH  31  55
BRANCH  43  66
ATOM     66  C   UNL A   1      45.255  30.309  37.909  1.00  0.00     0.023 A 
ATOM     67  C   UNL A   1      45.217  29.167  38.725  1.00  0.00     0.031 A 
ATOM     68  C   UNL A   1      46.429  31.083  37.897  1.00  0.00     0.131 A 
ATOM     69  C   UNL A   1      46.328  28.843  39.518  1.00  0.00     0.055 A 
ATOM     70  C   UNL A   1      47.548  30.728  38.649  1.00  0.00     0.041 A 
ATOM     71  F   UNL A   1      46.512  32.185  37.134  1.00  0.00    -0.206 F 
ATOM     72  C   UNL A   1      47.499  29.604  39.471  1.00  0.00     0.022 A 
BRANCH  69  73
ATOM     73  S   UNL A   1      46.211  27.429  40.647  1.00  0.00     0.124 S 
ATOM     74  O   UNL A   1      44.860  26.943  40.383  1.00  0.00    -0.237 OA
ATOM     75  O   UNL A   1      47.298  26.569  40.192  1.00  0.00    -0.237 OA
ATOM     76  O   UNL A   1      46.408  28.027  41.967  1.00  0.00    -0.744 OA
ENDBRANCH  69  73
ENDBRANCH  43  66
ENDBRANCH  17  18
ENDBRANCH  10  12
ENDBRANCH   7   8
ENDBRANCH   6   7
ENDBRANCH   5   6
ENDBRANCH   1   5
BRANCH   2  77
ATOM     77  C   UNL A   1      32.395  28.497  25.619  1.00  0.00     0.197 C 
BRANCH  77  78
ATOM     78  N   UNL A   1      33.591  28.341  24.785  1.00  0.00    -0.340 N 
ATOM     79  C   UNL A   1      33.669  28.188  23.424  1.00  0.00     0.243 C 
ATOM     80  H   UNL A   1      34.451  28.346  25.265  1.00  0.00     0.164 HD
ATOM     81  O   UNL A   1      34.768  28.340  22.889  1.00  0.00    -0.273 OA
BRANCH  79  82
ATOM     82  C   UNL A   1      32.426  27.770  22.610  1.00  0.00     0.175 C 
BRANCH  82  83
ATOM     83  N   UNL A   1      32.826  26.940  21.485  1.00  0.00    -0.342 N 
ATOM     84  C   UNL A   1      32.944  25.582  21.360  1.00  0.00     0.243 C 
ATOM     85  H   UNL A   1      33.052  27.443  20.669  1.00  0.00     0.164 HD
ATOM     86  O   UNL A   1      33.134  25.165  20.211  1.00  0.00    -0.273 OA
BRANCH  84  87
ATOM     87  C   UNL A   1      33.157  24.622  22.582  1.00  0.00     0.176 C 
BRANCH  87  88
ATOM     88  N   UNL A   1      33.684  25.196  23.829  1.00  0.00    -0.340 N 
ATOM     89  C   UNL A   1      34.557  24.740  24.780  1.00  0.00     0.251 C 
ATOM     90  H   UNL A   1      33.337  26.097  24.021  1.00  0.00     0.164 HD
ATOM     91  O   UNL A   1      34.763  25.403  25.795  1.00  0.00    -0.269 OA
BRANCH  89  92
ATOM     92  C   UNL A   1      35.320  23.486  24.644  1.00  0.00     0.040 A 
ATOM     93  C   UNL A   1      36.187  23.243  23.578  1.00  0.00     0.017 A 
ATOM     94  C   UNL A   1      35.282  22.595  25.726  1.00  0.00     0.017 A 
ATOM     95  C   UNL A   1      36.969  22.086  23.562  1.00  0.00     0.040 A 
ATOM     96  C   UNL A   1      36.071  21.447  25.718  1.00  0.00     0.040 A 
ATOM     97  C   UNL A   1      36.900  21.198  24.630  1.00  0.00     0.123 A 
ATOM     98  F   UNL A   1      37.664  20.099  24.624  1.00  0.00    -0.207 F 
ENDBRANCH  89  92
ENDBRANCH  87  88
BRANCH  87  99
ATOM     99  C   UNL A   1      31.871  23.796  22.864  1.00  0.00     0.070 C 
BRANCH  99 100
ATOM    100  C   UNL A   1      32.105  22.530  23.663  1.00  0.00    -0.045 A 
ATOM    101  C   UNL A   1      32.674  21.394  23.073  1.00  0.00     0.007 A 
ATOM    102  C   UNL A   1      31.689  22.461  25.002  1.00  0.00     0.007 A 
ATOM    103  C   UNL A   1      32.791  20.204  23.797  1.00  0.00     0.046 A 
ATOM    104  C   UNL A   1      31.786  21.269  25.717  1.00  0.00     0.046 A 
ATOM    105  C   UNL A   1      32.327  20.146  25.108  1.00  0.00     0.115 A 
BRANCH 105 106
ATOM    106  O   UNL A   1      32.372  18.990  25.830  1.00  0.00    -0.508 OA
ATOM    107  H   UNL A   1      33.128  18.788  26.346  1.00  0.00     0.293 HD
ENDBRANCH 105 106
ENDBRANCH  99 100
ENDBRANCH  87  99
ENDBRANCH  84  87
ENDBRANCH  82  83
BRANCH  82 108
ATOM    108  C   UNL A   1      31.322  27.251  23.547  1.00  0.00     0.072 C 
BRANCH 108 109
ATOM    109  C   UNL A   1      29.879  27.587  23.314  1.00  0.00    -0.020 A 
ATOM    110  C   UNL A   1      28.820  26.795  23.725  1.00  0.00     0.087 A 
ATOM    111  C   UNL A   1      29.299  28.809  22.822  1.00  0.00     0.003 A 
ATOM    112  N   UNL A   1      27.653  27.478  23.523  1.00  0.00    -0.361 N 
ATOM    113  C   UNL A   1      27.916  28.719  22.997  1.00  0.00     0.046 A 
ATOM    114  C   UNL A   1      29.805  30.005  22.271  1.00  0.00     0.010 A 
ATOM    115  H   UNL A   1      26.755  27.130  23.725  1.00  0.00     0.166 HD
ATOM    116  C   UNL A   1      27.034  29.759  22.670  1.00  0.00     0.026 A 
ATOM    117  C   UNL A   1      28.941  31.047  21.916  1.00  0.00     0.001 A 
ATOM    118  C   UNL A   1      27.573  30.925  22.122  1.00  0.00     0.002 A 
ENDBRANCH 108 109
ENDBRANCH  82 108
ENDBRANCH  79  82
ENDBRANCH  77  78
BRANCH  77 119
ATOM    119  C   UNL A   1      32.269  27.532  26.801  1.00  0.00     0.191 C 
BRANCH 119 120
ATOM    120  O   UNL A   1      31.304  27.908  27.773  1.00  0.00    -0.394 OA
ATOM    121  H   UNL A   1      30.832  27.118  28.081  1.00  0.00     0.210 HD
ENDBRANCH 119 120
ENDBRANCH  77 119
ENDBRANCH   2  77
TORSDOF 26
ENDMDL
MODEL 3
REMARK VINA RESULT:     -12.1      2.446      7.262
REMARK SMILES O=C(NCCCNC(=O)[C@H](CO)NC(=O)[C@H](Cc1c[nH]c2ccccc12)NC(=O)[C@H](Cc1ccc(O)cc1)NC(=O)c1ccc(F)cc1)c1ccc(-c2c3nc(c(-c4cc(S(=O)(=O)[O-])ccc4F)c4ccc([nH]4)c(-c4cc(S(=O)(=O)[O-])ccc4F)c4nc(c(-c5cc(S(=O)(=O)[O-])ccc5F)c5ccc2[nH]5)C=C4)C=C3)cc1
REMARK SMILES IDX 7 1 8 2 9 3 6 5 5 6 4 7 3 8 1 9 2 10 49 12 50 13 111 14
REMARK SMILES IDX 51 15 110 16 52 17 53 18 54 19 104 20 55 21 109 22 103 23
REMARK SMILES IDX 105 24 56 25 108 26 102 27 101 28 57 30 89 31 69 32 88 33
REMARK SMILES IDX 70 34 73 35 87 36 106 37 71 38 72 39 86 41 107 42 74 43
REMARK SMILES IDX 58 44 59 45 67 46 60 47 66 48 68 49 65 50 61 51 62 52 63 53
REMARK SMILES IDX 64 54 90 55 91 56 99 57 92 58 98 59 100 60 97 61 93 62 94 63
REMARK SMILES IDX 95 64 96 65 75 66 76 67 84 68 77 69 83 70 85 71 82 72 78 73
REMARK SMILES IDX 79 74 80 75 81 76 10 77 13 78 14 79 15 81 16 82 27 83 28 84
REMARK SMILES IDX 29 86 30 87 39 88 40 89 41 91 42 92 43 93 48 94 44 95 47 96
REMARK SMILES IDX 45 97 46 98 31 99 32 100 33 101 38 102 34 103 37 104 35 105
REMARK SMILES IDX 36 106 17 108 18 109 19 110 26 111 20 112 21 113 25 114
REMARK SMILES IDX 22 116 24 117 23 118 11 119 12 120
REMARK H PARENT 7 4 3 11 105 29 73 40 13 80 27 85 39 90 36 107 20 115 12 121
REMARK Flexibility Score: inf
ROOT
ATOM      1  N   UNL A   1      32.888  30.656  26.757  1.00  0.00    -0.354 N 
ATOM      2  C   UNL A   1      32.063  29.878  26.019  1.00  0.00     0.244 C 
ATOM      3  O   UNL A   1      31.163  30.447  25.395  1.00  0.00    -0.273 OA
ATOM      4  H   UNL A   1      32.531  31.546  26.983  1.00  0.00     0.163 HD
ENDROOT
BRANCH   1   5
ATOM      5  C   UNL A   1      34.215  30.381  27.265  1.00  0.00     0.117 C 
BRANCH   5   6
ATOM      6  C   UNL A   1      34.564  31.325  28.406  1.00  0.00     0.042 C 
BRANCH   6   7
ATOM      7  C   UNL A   1      34.816  32.748  27.933  1.00  0.00     0.118 C 
BRANCH   7   8
ATOM      8  N   UNL A   1      33.999  33.716  28.659  1.00  0.00    -0.352 N 
ATOM      9  O   UNL A   1      33.117  34.708  30.482  1.00  0.00    -0.269 OA
ATOM     10  C   UNL A   1      34.051  34.085  29.980  1.00  0.00     0.251 C 
ATOM     11  H   UNL A   1      33.310  34.170  28.122  1.00  0.00     0.163 HD
BRANCH  10  12
ATOM     12  C   UNL A   1      35.231  33.722  30.788  1.00  0.00     0.039 A 
ATOM     13  C   UNL A   1      35.186  32.591  31.602  1.00  0.00     0.014 A 
ATOM     14  C   UNL A   1      36.388  34.503  30.728  1.00  0.00     0.014 A 
ATOM     15  C   UNL A   1      36.221  32.339  32.486  1.00  0.00     0.010 A 
ATOM     16  C   UNL A   1      37.486  34.168  31.526  1.00  0.00     0.010 A 
ATOM     17  C   UNL A   1      37.402  33.094  32.426  1.00  0.00    -0.014 A 
BRANCH  17  18
ATOM     18  C   UNL A   1      38.560  32.658  33.241  1.00  0.00     0.031 A 
ATOM     19  C   UNL A   1      39.692  31.877  32.641  1.00  0.00     0.074 A 
ATOM     20  C   UNL A   1      38.596  33.032  34.535  1.00  0.00     0.049 A 
ATOM     21  N   UNL A   1      40.776  31.432  33.222  1.00  0.00    -0.248 NA
ATOM     22  C   UNL A   1      39.596  31.546  31.212  1.00  0.00     0.031 C 
ATOM     23  C   UNL A   1      37.550  33.808  35.213  1.00  0.00     0.029 A 
ATOM     24  N   UNL A   1      39.547  32.853  35.502  1.00  0.00    -0.354 N 
ATOM     25  C   UNL A   1      41.487  30.755  32.237  1.00  0.00     0.074 A 
ATOM     26  C   UNL A   1      40.694  30.825  31.027  1.00  0.00     0.031 C 
ATOM     27  C   UNL A   1      37.954  34.106  36.454  1.00  0.00     0.029 A 
ATOM     28  C   UNL A   1      39.236  33.459  36.696  1.00  0.00     0.049 A 
ATOM     29  H   UNL A   1      40.375  32.339  35.357  1.00  0.00     0.167 HD
ATOM     30  C   UNL A   1      42.691  30.141  32.341  1.00  0.00     0.034 A 
ATOM     31  C   UNL A   1      39.892  33.476  37.872  1.00  0.00     0.034 A 
ATOM     32  C   UNL A   1      43.460  30.089  33.561  1.00  0.00     0.049 A 
ATOM     33  C   UNL A   1      41.187  32.729  37.979  1.00  0.00     0.074 A 
ATOM     34  C   UNL A   1      44.697  29.503  33.774  1.00  0.00     0.029 A 
ATOM     35  N   UNL A   1      43.068  30.637  34.778  1.00  0.00    -0.354 N 
ATOM     36  N   UNL A   1      41.827  32.062  37.049  1.00  0.00    -0.248 NA
ATOM     37  C   UNL A   1      41.839  32.722  39.293  1.00  0.00     0.031 C 
ATOM     38  C   UNL A   1      45.018  29.634  35.128  1.00  0.00     0.029 A 
ATOM     39  C   UNL A   1      44.023  30.372  35.748  1.00  0.00     0.049 A 
ATOM     40  H   UNL A   1      42.236  31.139  34.927  1.00  0.00     0.167 HD
ATOM     41  C   UNL A   1      42.969  31.563  37.661  1.00  0.00     0.074 A 
ATOM     42  C   UNL A   1      42.932  32.012  39.040  1.00  0.00     0.031 C 
ATOM     43  C   UNL A   1      43.960  30.807  37.125  1.00  0.00     0.034 A 
BRANCH  30  44
ATOM     44  C   UNL A   1      43.228  29.439  31.119  1.00  0.00     0.023 A 
ATOM     45  C   UNL A   1      43.962  30.121  30.134  1.00  0.00     0.031 A 
ATOM     46  C   UNL A   1      43.014  28.059  30.946  1.00  0.00     0.131 A 
ATOM     47  C   UNL A   1      44.414  29.433  28.997  1.00  0.00     0.055 A 
ATOM     48  C   UNL A   1      43.524  27.367  29.846  1.00  0.00     0.041 A 
ATOM     49  F   UNL A   1      42.303  27.360  31.844  1.00  0.00    -0.206 F 
ATOM     50  C   UNL A   1      44.222  28.055  28.858  1.00  0.00     0.022 A 
BRANCH  47  51
ATOM     51  S   UNL A   1      45.174  30.380  27.650  1.00  0.00     0.124 S 
ATOM     52  O   UNL A   1      46.572  29.969  27.753  1.00  0.00    -0.237 OA
ATOM     53  O   UNL A   1      44.451  29.900  26.478  1.00  0.00    -0.237 OA
ATOM     54  O   UNL A   1      44.911  31.770  28.017  1.00  0.00    -0.744 OA
ENDBRANCH  47  51
ENDBRANCH  30  44
BRANCH  31  55
ATOM     55  C   UNL A   1      39.299  34.202  39.025  1.00  0.00     0.023 A 
ATOM     56  C   UNL A   1      38.486  33.538  39.954  1.00  0.00     0.031 A 
ATOM     57  C   UNL A   1      39.600  35.557  39.252  1.00  0.00     0.131 A 
ATOM     58  C   UNL A   1      38.000  34.233  41.071  1.00  0.00     0.055 A 
ATOM     59  C   UNL A   1      39.146  36.233  40.384  1.00  0.00     0.041 A 
ATOM     60  F   UNL A   1      40.391  36.229  38.399  1.00  0.00    -0.206 F 
ATOM     61  C   UNL A   1      38.338  35.570  41.302  1.00  0.00     0.022 A 
BRANCH  58  62
ATOM     62  S   UNL A   1      36.914  33.361  42.233  1.00  0.00     0.124 S 
ATOM     63  O   UNL A   1      37.660  33.476  43.480  1.00  0.00    -0.237 OA
ATOM     64  O   UNL A   1      35.683  34.142  42.146  1.00  0.00    -0.237 OA
ATOM     65  O   UNL A   1      36.832  32.013  41.674  1.00  0.00    -0.744 OA
ENDBRANCH  58  62
ENDBRANCH  31  55
BRANCH  43  66
ATOM     66  C   UNL A   1      45.106  30.438  38.028  1.00  0.00     0.023 A 
ATOM     67  C   UNL A   1      45.101  29.249  38.776  1.00  0.00     0.031 A 
ATOM     68  C   UNL A   1      46.234  31.273  38.109  1.00  0.00     0.131 A 
ATOM     69  C   UNL A   1      46.197  28.938  39.594  1.00  0.00     0.055 A 
ATOM     70  C   UNL A   1      47.342  30.934  38.885  1.00  0.00     0.041 A 
ATOM     71  F   UNL A   1      46.285  32.421  37.415  1.00  0.00    -0.206 F 
ATOM     72  C   UNL A   1      47.325  29.763  39.639  1.00  0.00     0.022 A 
BRANCH  69  73
ATOM     73  S   UNL A   1      46.117  27.455  40.634  1.00  0.00     0.124 S 
ATOM     74  O   UNL A   1      44.716  27.451  41.045  1.00  0.00    -0.237 OA
ATOM     75  O   UNL A   1      46.514  26.399  39.711  1.00  0.00    -0.237 OA
ATOM     76  O   UNL A   1      47.076  27.734  41.703  1.00  0.00    -0.744 OA
ENDBRANCH  69  73
ENDBRANCH  43  66
ENDBRANCH  17  18
ENDBRANCH  10  12
ENDBRANCH   7   8
ENDBRANCH   6   7
ENDBRANCH   5   6
ENDBRANCH   1   5
BRANCH   2  77
ATOM     77  C   UNL A   1      32.258  28.361  25.883  1.00  0.00     0.197 C 
BRANCH  77  78
ATOM     78  N   UNL A   1      33.471  28.020  25.133  1.00  0.00    -0.340 N 
ATOM     79  C   UNL A   1      33.595  27.719  23.801  1.00  0.00     0.243 C 
ATOM     80  H   UNL A   1      34.306  28.005  25.655  1.00  0.00     0.164 HD
ATOM     81  O   UNL A   1      34.726  27.724  23.312  1.00  0.00    -0.273 OA
BRANCH  79  82
ATOM     82  C   UNL A   1      32.357  27.321  22.969  1.00  0.00     0.175 C 
BRANCH  82  83
ATOM     83  N   UNL A   1      32.775  26.802  21.676  1.00  0.00    -0.342 N 
ATOM     84  C   UNL A   1      32.927  25.520  21.223  1.00  0.00     0.243 C 
ATOM     85  H   UNL A   1      32.985  27.496  21.009  1.00  0.00     0.164 HD
ATOM     86  O   UNL A   1      33.123  25.402  20.007  1.00  0.00    -0.273 OA
BRANCH  84  87
ATOM     87  C   UNL A   1      33.167  24.296  22.173  1.00  0.00     0.176 C 
BRANCH  87  88
ATOM     88  N   UNL A   1      32.275  23.133  22.043  1.00  0.00    -0.340 N 
ATOM     89  C   UNL A   1      31.884  22.146  22.906  1.00  0.00     0.251 C 
ATOM     90  H   UNL A   1      31.876  23.048  21.147  1.00  0.00     0.164 HD
ATOM     91  O   UNL A   1      31.180  21.221  22.505  1.00  0.00    -0.269 OA
BRANCH  89  92
ATOM     92  C   UNL A   1      32.229  22.140  24.339  1.00  0.00     0.040 A 
ATOM     93  C   UNL A   1      33.224  21.319  24.873  1.00  0.00     0.017 A 
ATOM     94  C   UNL A   1      31.638  23.125  25.143  1.00  0.00     0.017 A 
ATOM     95  C   UNL A   1      33.584  21.439  26.215  1.00  0.00     0.040 A 
ATOM     96  C   UNL A   1      32.005  23.255  26.480  1.00  0.00     0.040 A 
ATOM     97  C   UNL A   1      32.969  22.403  27.007  1.00  0.00     0.123 A 
ATOM     98  F   UNL A   1      33.328  22.531  28.290  1.00  0.00    -0.207 F 
ENDBRANCH  89  92
ENDBRANCH  87  88
BRANCH  87  99
ATOM     99  C   UNL A   1      34.654  23.848  22.131  1.00  0.00     0.070 C 
BRANCH  99 100
ATOM    100  C   UNL A   1      35.318  23.756  23.490  1.00  0.00    -0.045 A 
ATOM    101  C   UNL A   1      34.897  24.557  24.559  1.00  0.00     0.007 A 
ATOM    102  C   UNL A   1      36.418  22.903  23.674  1.00  0.00     0.007 A 
ATOM    103  C   UNL A   1      35.584  24.531  25.777  1.00  0.00     0.046 A 
ATOM    104  C   UNL A   1      37.116  22.893  24.880  1.00  0.00     0.046 A 
ATOM    105  C   UNL A   1      36.701  23.713  25.920  1.00  0.00     0.115 A 
BRANCH 105 106
ATOM    106  O   UNL A   1      37.432  23.699  27.071  1.00  0.00    -0.508 OA
ATOM    107  H   UNL A   1      37.269  23.045  27.723  1.00  0.00     0.293 HD
ENDBRANCH 105 106
ENDBRANCH  99 100
ENDBRANCH  87  99
ENDBRANCH  84  87
ENDBRANCH  82  83
BRANCH  82 108
ATOM    108  C   UNL A   1      31.389  26.480  23.818  1.00  0.00     0.072 C 
BRANCH 108 109
ATOM    109  C   UNL A   1      29.903  26.664  23.720  1.00  0.00    -0.020 A 
ATOM    110  C   UNL A   1      28.975  25.751  24.190  1.00  0.00     0.087 A 
ATOM    111  C   UNL A   1      29.157  27.829  23.323  1.00  0.00     0.003 A 
ATOM    112  N   UNL A   1      27.729  26.308  24.112  1.00  0.00    -0.361 N 
ATOM    113  C   UNL A   1      27.812  27.584  23.611  1.00  0.00     0.046 A 
ATOM    114  C   UNL A   1      29.484  29.087  22.774  1.00  0.00     0.010 A 
ATOM    115  H   UNL A   1      26.894  25.860  24.376  1.00  0.00     0.166 HD
ATOM    116  C   UNL A   1      26.800  28.531  23.397  1.00  0.00     0.026 A 
ATOM    117  C   UNL A   1      28.486  30.037  22.532  1.00  0.00     0.001 A 
ATOM    118  C   UNL A   1      27.162  29.763  22.848  1.00  0.00     0.002 A 
ENDBRANCH 108 109
ENDBRANCH  82 108
ENDBRANCH  79  82
ENDBRANCH  77  78
BRANCH  77 119
ATOM    119  C   UNL A   1      32.015  27.564  27.168  1.00  0.00     0.191 C 
BRANCH 119 120
ATOM    120  O   UNL A   1      31.076  28.147  28.059  1.00  0.00    -0.394 OA
ATOM    121  H   UNL A   1      30.871  29.049  27.768  1.00  0.00     0.210 HD
ENDBRANCH 119 120
ENDBRANCH  77 119
ENDBRANCH   2  77
TORSDOF 26
ENDMDL
