MODEL 1
REMARK VINA RESULT:     -11.4      0.000      0.000
REMARK SMILES C[C@H]1[C@@H](C(=O)NCCCNC(=O)c2ccc(-c3c4nc(c(-c5cc(S(=O)(=O)[O-])ccc5F)c5ccc([nH]5)c(-c5cc(S(=O)(=O)[O-])ccc5F)c5nc(c(-c6cc(S(=O)(=O)[O-])ccc6F)c6ccc3[nH]6)C=C5)C=C4)cc2)CCN1C(=O)NCC(C1CC1)C1CC1
REMARK SMILES IDX 7 1 6 2 4 3 5 4 3 6 1 7 2 8 78 9 76 10 77 11 79 12 80 13
REMARK SMILES IDX 81 14 82 16 83 17 84 18 85 19 86 20 87 21 88 22 89 23 8 24
REMARK SMILES IDX 9 25 10 26 11 27 12 29 13 30 14 31 75 32 15 33 74 34 16 35
REMARK SMILES IDX 17 36 18 37 68 38 19 39 73 40 67 41 69 42 20 43 72 44 66 45
REMARK SMILES IDX 65 46 21 48 53 49 33 50 52 51 34 52 37 53 51 54 70 55 35 56
REMARK SMILES IDX 36 57 50 59 71 60 38 61 22 62 23 63 31 64 24 65 30 66 32 67
REMARK SMILES IDX 29 68 25 69 26 70 27 71 28 72 54 73 55 74 63 75 56 76 62 77
REMARK SMILES IDX 64 78 61 79 57 80 58 81 59 82 60 83 39 84 40 85 48 86 41 87
REMARK SMILES IDX 47 88 49 89 46 90 42 91 43 92 44 93 45 94
REMARK H PARENT 6 5 81 15 10 28 69 47 37 58
REMARK Flexibility Score: inf
ROOT
ATOM      1  C   UNL A   1      31.478  30.655  26.620  1.00  0.00     0.117 C 
ENDROOT
BRANCH   1   2
ATOM      2  N   UNL A   1      31.916  30.249  25.291  1.00  0.00    -0.356 N 
ATOM      3  C   UNL A   1      31.900  29.052  24.636  1.00  0.00     0.225 C 
ATOM      4  O   UNL A   1      32.391  29.039  23.505  1.00  0.00    -0.275 OA
ATOM      5  H   UNL A   1      32.297  30.985  24.758  1.00  0.00     0.163 HD
BRANCH   3   6
ATOM      6  C   UNL A   1      31.209  27.823  25.219  1.00  0.00     0.102 C 
ATOM      7  C   UNL A   1      33.548  26.845  25.888  1.00  0.00     0.032 C 
ATOM      8  C   UNL A   1      32.032  26.842  26.069  1.00  0.00     0.096 C 
ATOM      9  N   UNL A   1      31.550  25.514  25.729  1.00  0.00    -0.321 N 
ATOM     10  C   UNL A   1      30.509  26.930  24.170  1.00  0.00     0.037 C 
ATOM     11  C   UNL A   1      31.090  25.539  24.355  1.00  0.00     0.122 C 
BRANCH   9  12
ATOM     12  C   UNL A   1      31.723  24.324  26.372  1.00  0.00     0.317 C 
ATOM     13  O   UNL A   1      30.981  23.988  27.300  1.00  0.00    -0.249 OA
ATOM     14  N   UNL A   1      32.685  23.439  26.038  1.00  0.00    -0.338 N 
ATOM     15  H   UNL A   1      32.659  22.642  26.615  1.00  0.00     0.165 HD
BRANCH  14  16
ATOM     16  C   UNL A   1      33.758  23.347  25.045  1.00  0.00     0.121 C 
BRANCH  16  17
ATOM     17  C   UNL A   1      34.490  21.989  25.081  1.00  0.00     0.014 C 
BRANCH  17  18
ATOM     18  C   UNL A   1      33.611  20.800  24.729  1.00  0.00    -0.006 C 
ATOM     19  C   UNL A   1      34.088  19.383  24.508  1.00  0.00     0.004 C 
ATOM     20  C   UNL A   1      33.337  19.732  25.762  1.00  0.00     0.004 C 
ENDBRANCH  17  18
BRANCH  17  21
ATOM     21  C   UNL A   1      35.763  21.915  24.238  1.00  0.00    -0.006 C 
ATOM     22  C   UNL A   1      36.636  23.113  23.952  1.00  0.00     0.004 C 
ATOM     23  C   UNL A   1      37.158  21.995  24.816  1.00  0.00     0.004 C 
ENDBRANCH  17  21
ENDBRANCH  16  17
ENDBRANCH  14  16
ENDBRANCH   9  12
ENDBRANCH   3   6
ENDBRANCH   1   2
BRANCH   1  24
ATOM     24  C   UNL A   1      31.405  32.179  26.756  1.00  0.00     0.042 C 
BRANCH  24  25
ATOM     25  C   UNL A   1      32.748  32.881  26.914  1.00  0.00     0.118 C 
BRANCH  25  26
ATOM     26  N   UNL A   1      32.631  34.124  27.648  1.00  0.00    -0.352 N 
ATOM     27  C   UNL A   1      33.258  34.578  28.785  1.00  0.00     0.251 C 
ATOM     28  H   UNL A   1      31.985  34.759  27.265  1.00  0.00     0.163 HD
ATOM     29  O   UNL A   1      32.782  35.576  29.329  1.00  0.00    -0.269 OA
BRANCH  27  30
ATOM     30  C   UNL A   1      34.451  33.917  29.389  1.00  0.00     0.039 A 
ATOM     31  C   UNL A   1      34.230  32.938  30.370  1.00  0.00     0.014 A 
ATOM     32  C   UNL A   1      35.768  34.292  29.111  1.00  0.00     0.014 A 
ATOM     33  C   UNL A   1      35.306  32.335  31.035  1.00  0.00     0.010 A 
ATOM     34  C   UNL A   1      36.844  33.618  29.704  1.00  0.00     0.010 A 
ATOM     35  C   UNL A   1      36.630  32.651  30.696  1.00  0.00    -0.014 A 
BRANCH  35  36
ATOM     36  C   UNL A   1      37.781  32.026  31.413  1.00  0.00     0.031 A 
ATOM     37  C   UNL A   1      38.584  30.926  30.760  1.00  0.00     0.074 A 
ATOM     38  C   UNL A   1      38.100  32.426  32.661  1.00  0.00     0.049 A 
ATOM     39  N   UNL A   1      39.590  30.234  31.235  1.00  0.00    -0.248 NA
ATOM     40  C   UNL A   1      38.178  30.530  29.403  1.00  0.00     0.031 C 
ATOM     41  C   UNL A   1      37.384  33.449  33.427  1.00  0.00     0.029 A 
ATOM     42  N   UNL A   1      39.102  32.022  33.508  1.00  0.00    -0.354 N 
ATOM     43  C   UNL A   1      39.927  29.316  30.244  1.00  0.00     0.074 A 
ATOM     44  C   UNL A   1      38.971  29.494  29.173  1.00  0.00     0.031 C 
ATOM     45  C   UNL A   1      37.986  33.610  34.617  1.00  0.00     0.029 A 
ATOM     46  C   UNL A   1      39.105  32.677  34.719  1.00  0.00     0.049 A 
ATOM     47  H   UNL A   1      39.760  31.328  33.271  1.00  0.00     0.167 HD
ATOM     48  C   UNL A   1      40.953  28.427  30.213  1.00  0.00     0.034 A 
ATOM     49  C   UNL A   1      39.907  32.540  35.794  1.00  0.00     0.034 A 
ATOM     50  C   UNL A   1      41.913  28.267  31.279  1.00  0.00     0.049 A 
ATOM     51  C   UNL A   1      41.039  31.545  35.741  1.00  0.00     0.074 A 
ATOM     52  C   UNL A   1      43.017  27.431  31.331  1.00  0.00     0.029 A 
ATOM     53  N   UNL A   1      41.886  28.957  32.485  1.00  0.00    -0.354 N 
ATOM     54  N   UNL A   1      41.367  30.717  34.776  1.00  0.00    -0.248 NA
ATOM     55  C   UNL A   1      41.917  31.480  36.917  1.00  0.00     0.031 C 
ATOM     56  C   UNL A   1      43.617  27.569  32.589  1.00  0.00     0.029 A 
ATOM     57  C   UNL A   1      42.936  28.546  33.296  1.00  0.00     0.049 A 
ATOM     58  H   UNL A   1      41.219  29.638  32.730  1.00  0.00     0.167 HD
ATOM     59  C   UNL A   1      42.505  30.048  35.223  1.00  0.00     0.074 A 
ATOM     60  C   UNL A   1      42.817  30.588  36.530  1.00  0.00     0.031 C 
ATOM     61  C   UNL A   1      43.226  29.076  34.607  1.00  0.00     0.034 A 
BRANCH  48  62
ATOM     62  C   UNL A   1      41.070  27.545  28.988  1.00  0.00     0.023 A 
ATOM     63  C   UNL A   1      42.070  27.752  28.022  1.00  0.00     0.031 A 
ATOM     64  C   UNL A   1      40.150  26.505  28.764  1.00  0.00     0.131 A 
ATOM     65  C   UNL A   1      42.074  26.997  26.840  1.00  0.00     0.055 A 
ATOM     66  C   UNL A   1      40.214  25.696  27.626  1.00  0.00     0.041 A 
ATOM     67  F   UNL A   1      39.161  26.265  29.640  1.00  0.00    -0.206 F 
ATOM     68  C   UNL A   1      41.169  25.952  26.646  1.00  0.00     0.022 A 
BRANCH  65  69
ATOM     69  S   UNL A   1      43.177  27.503  25.491  1.00  0.00     0.124 S 
ATOM     70  O   UNL A   1      42.242  28.162  24.580  1.00  0.00    -0.237 OA
ATOM     71  O   UNL A   1      44.126  28.379  26.172  1.00  0.00    -0.237 OA
ATOM     72  O   UNL A   1      43.727  26.243  25.004  1.00  0.00    -0.744 OA
ENDBRANCH  65  69
ENDBRANCH  48  62
BRANCH  49  73
ATOM     73  C   UNL A   1      39.669  33.357  37.018  1.00  0.00     0.023 A 
ATOM     74  C   UNL A   1      38.935  32.849  38.101  1.00  0.00     0.031 A 
ATOM     75  C   UNL A   1      40.147  34.677  37.107  1.00  0.00     0.131 A 
ATOM     76  C   UNL A   1      38.664  33.667  39.210  1.00  0.00     0.055 A 
ATOM     77  C   UNL A   1      39.918  35.471  38.232  1.00  0.00     0.041 A 
ATOM     78  F   UNL A   1      40.860  35.209  36.102  1.00  0.00    -0.206 F 
ATOM     79  C   UNL A   1      39.162  34.970  39.287  1.00  0.00     0.022 A 
BRANCH  76  80
ATOM     80  S   UNL A   1      37.587  33.027  40.522  1.00  0.00     0.124 S 
ATOM     81  O   UNL A   1      37.615  34.117  41.490  1.00  0.00    -0.237 OA
ATOM     82  O   UNL A   1      36.328  32.833  39.810  1.00  0.00    -0.237 OA
ATOM     83  O   UNL A   1      38.257  31.798  40.942  1.00  0.00    -0.744 OA
ENDBRANCH  76  80
ENDBRANCH  49  73
BRANCH  61  84
ATOM     84  C   UNL A   1      44.443  28.562  35.339  1.00  0.00     0.023 A 
ATOM     85  C   UNL A   1      44.339  27.609  36.368  1.00  0.00     0.031 A 
ATOM     86  C   UNL A   1      45.722  29.056  35.024  1.00  0.00     0.131 A 
ATOM     87  C   UNL A   1      45.482  27.229  37.088  1.00  0.00     0.055 A 
ATOM     88  C   UNL A   1      46.864  28.627  35.701  1.00  0.00     0.041 A 
ATOM     89  F   UNL A   1      45.881  29.970  34.052  1.00  0.00    -0.206 F 
ATOM     90  C   UNL A   1      46.746  27.720  36.751  1.00  0.00     0.022 A 
BRANCH  87  91
ATOM     91  S   UNL A   1      45.280  26.165  38.543  1.00  0.00     0.124 S 
ATOM     92  O   UNL A   1      46.660  25.787  38.836  1.00  0.00    -0.237 OA
ATOM     93  O   UNL A   1      44.648  27.065  39.502  1.00  0.00    -0.237 OA
ATOM     94  O   UNL A   1      44.430  25.078  38.060  1.00  0.00    -0.744 OA
ENDBRANCH  87  91
ENDBRANCH  61  84
ENDBRANCH  35  36
ENDBRANCH  27  30
ENDBRANCH  25  26
ENDBRANCH  24  25
ENDBRANCH   1  24
TORSDOF 18
ENDMDL
MODEL 2
REMARK VINA RESULT:     -11.0      5.774     11.056
REMARK SMILES C[C@H]1[C@@H](C(=O)NCCCNC(=O)c2ccc(-c3c4nc(c(-c5cc(S(=O)(=O)[O-])ccc5F)c5ccc([nH]5)c(-c5cc(S(=O)(=O)[O-])ccc5F)c5nc(c(-c6cc(S(=O)(=O)[O-])ccc6F)c6ccc3[nH]6)C=C5)C=C4)cc2)CCN1C(=O)NCC(C1CC1)C1CC1
REMARK SMILES IDX 7 1 6 2 4 3 5 4 3 6 1 7 2 8 78 9 76 10 77 11 79 12 80 13
REMARK SMILES IDX 81 14 82 16 83 17 84 18 85 19 86 20 87 21 88 22 89 23 8 24
REMARK SMILES IDX 9 25 10 26 11 27 12 29 13 30 14 31 75 32 15 33 74 34 16 35
REMARK SMILES IDX 17 36 18 37 68 38 19 39 73 40 67 41 69 42 20 43 72 44 66 45
REMARK SMILES IDX 65 46 21 48 53 49 33 50 52 51 34 52 37 53 51 54 70 55 35 56
REMARK SMILES IDX 36 57 50 59 71 60 38 61 22 62 23 63 31 64 24 65 30 66 32 67
REMARK SMILES IDX 29 68 25 69 26 70 27 71 28 72 54 73 55 74 63 75 56 76 62 77
REMARK SMILES IDX 64 78 61 79 57 80 58 81 59 82 60 83 39 84 40 85 48 86 41 87
REMARK SMILES IDX 47 88 49 89 46 90 42 91 43 92 44 93 45 94
REMARK H PARENT 6 5 81 15 10 28 69 47 37 58
REMARK Flexibility Score: inf
ROOT
ATOM      1  C   UNL A   1      33.822  21.618  24.601  1.00  0.00     0.117 C 
ENDROOT
BRANCH   1   2
ATOM      2  N   UNL A   1      32.965  22.053  25.698  1.00  0.00    -0.356 N 
ATOM      3  C   UNL A   1      32.571  23.285  26.132  1.00  0.00     0.225 C 
ATOM      4  O   UNL A   1      31.856  23.310  27.135  1.00  0.00    -0.275 OA
ATOM      5  H   UNL A   1      32.598  21.310  26.231  1.00  0.00     0.163 HD
BRANCH   3   6
ATOM      6  C   UNL A   1      32.897  24.556  25.354  1.00  0.00     0.102 C 
ATOM      7  C   UNL A   1      31.350  23.740  23.402  1.00  0.00     0.032 C 
ATOM      8  C   UNL A   1      32.079  24.887  24.095  1.00  0.00     0.096 C 
ATOM      9  N   UNL A   1      33.019  25.453  23.142  1.00  0.00    -0.321 N 
ATOM     10  C   UNL A   1      34.369  24.660  24.895  1.00  0.00     0.037 C 
ATOM     11  C   UNL A   1      34.321  24.865  23.391  1.00  0.00     0.122 C 
BRANCH   9  12
ATOM     12  C   UNL A   1      32.794  26.163  22.001  1.00  0.00     0.317 C 
ATOM     13  O   UNL A   1      32.562  25.592  20.930  1.00  0.00    -0.249 OA
ATOM     14  N   UNL A   1      32.791  27.512  21.961  1.00  0.00    -0.338 N 
ATOM     15  H   UNL A   1      32.615  27.846  21.051  1.00  0.00     0.165 HD
BRANCH  14  16
ATOM     16  C   UNL A   1      32.979  28.612  22.910  1.00  0.00     0.121 C 
BRANCH  16  17
ATOM     17  C   UNL A   1      31.646  29.147  23.476  1.00  0.00     0.014 C 
BRANCH  17  18
ATOM     18  C   UNL A   1      30.427  28.786  22.641  1.00  0.00    -0.006 C 
ATOM     19  C   UNL A   1      28.987  29.023  23.032  1.00  0.00     0.004 C 
ATOM     20  C   UNL A   1      29.623  29.876  21.970  1.00  0.00     0.004 C 
ENDBRANCH  17  18
BRANCH  17  21
ATOM     21  C   UNL A   1      31.362  28.774  24.930  1.00  0.00    -0.006 C 
ATOM     22  C   UNL A   1      32.402  28.179  25.849  1.00  0.00     0.004 C 
ATOM     23  C   UNL A   1      31.873  29.564  26.113  1.00  0.00     0.004 C 
ENDBRANCH  17  21
ENDBRANCH  16  17
ENDBRANCH  14  16
ENDBRANCH   9  12
ENDBRANCH   3   6
ENDBRANCH   1   2
BRANCH   1  24
ATOM     24  C   UNL A   1      34.953  20.707  25.089  1.00  0.00     0.042 C 
BRANCH  24  25
ATOM     25  C   UNL A   1      36.347  21.320  25.040  1.00  0.00     0.118 C 
BRANCH  25  26
ATOM     26  N   UNL A   1      37.376  20.368  25.403  1.00  0.00    -0.352 N 
ATOM     27  C   UNL A   1      38.708  20.531  25.706  1.00  0.00     0.251 C 
ATOM     28  H   UNL A   1      37.067  19.435  25.440  1.00  0.00     0.163 HD
ATOM     29  O   UNL A   1      39.405  19.516  25.736  1.00  0.00    -0.269 OA
BRANCH  27  30
ATOM     30  C   UNL A   1      39.337  21.856  25.972  1.00  0.00     0.039 A 
ATOM     31  C   UNL A   1      40.713  21.885  26.244  1.00  0.00     0.014 A 
ATOM     32  C   UNL A   1      38.617  23.050  26.069  1.00  0.00     0.014 A 
ATOM     33  C   UNL A   1      41.352  23.086  26.581  1.00  0.00     0.010 A 
ATOM     34  C   UNL A   1      39.273  24.265  26.308  1.00  0.00     0.010 A 
ATOM     35  C   UNL A   1      40.645  24.297  26.597  1.00  0.00    -0.014 A 
BRANCH  35  36
ATOM     36  C   UNL A   1      41.315  25.578  26.972  1.00  0.00     0.031 A 
ATOM     37  C   UNL A   1      40.590  26.606  27.808  1.00  0.00     0.074 A 
ATOM     38  C   UNL A   1      42.569  25.836  26.548  1.00  0.00     0.049 A 
ATOM     39  N   UNL A   1      40.987  27.791  28.202  1.00  0.00    -0.248 NA
ATOM     40  C   UNL A   1      39.222  26.268  28.229  1.00  0.00     0.031 C 
ATOM     41  C   UNL A   1      43.371  24.950  25.701  1.00  0.00     0.029 A 
ATOM     42  N   UNL A   1      43.390  26.915  26.766  1.00  0.00    -0.354 N 
ATOM     43  C   UNL A   1      39.918  28.342  28.903  1.00  0.00     0.074 A 
ATOM     44  C   UNL A   1      38.832  27.389  28.816  1.00  0.00     0.031 C 
ATOM     45  C   UNL A   1      44.575  25.510  25.494  1.00  0.00     0.029 A 
ATOM     46  C   UNL A   1      44.620  26.809  26.158  1.00  0.00     0.049 A 
ATOM     47  H   UNL A   1      43.123  27.693  27.308  1.00  0.00     0.167 HD
ATOM     48  C   UNL A   1      39.851  29.517  29.580  1.00  0.00     0.034 A 
ATOM     49  C   UNL A   1      45.665  27.662  26.128  1.00  0.00     0.034 A 
ATOM     50  C   UNL A   1      40.945  30.455  29.675  1.00  0.00     0.049 A 
ATOM     51  C   UNL A   1      45.571  28.963  26.883  1.00  0.00     0.074 A 
ATOM     52  C   UNL A   1      41.000  31.651  30.372  1.00  0.00     0.029 A 
ATOM     53  N   UNL A   1      42.178  30.306  29.052  1.00  0.00    -0.354 N 
ATOM     54  N   UNL A   1      44.565  29.445  27.576  1.00  0.00    -0.248 NA
ATOM     55  C   UNL A   1      46.759  29.826  26.864  1.00  0.00     0.031 C 
ATOM     56  C   UNL A   1      42.239  32.252  30.120  1.00  0.00     0.029 A 
ATOM     57  C   UNL A   1      42.989  31.398  29.327  1.00  0.00     0.049 A 
ATOM     58  H   UNL A   1      42.438  29.537  28.495  1.00  0.00     0.167 HD
ATOM     59  C   UNL A   1      45.011  30.660  28.094  1.00  0.00     0.074 A 
ATOM     60  C   UNL A   1      46.381  30.820  27.653  1.00  0.00     0.031 C 
ATOM     61  C   UNL A   1      44.347  31.560  28.865  1.00  0.00     0.034 A 
BRANCH  48  62
ATOM     62  C   UNL A   1      38.538  29.857  30.252  1.00  0.00     0.023 A 
ATOM     63  C   UNL A   1      37.531  30.574  29.582  1.00  0.00     0.031 A 
ATOM     64  C   UNL A   1      38.303  29.492  31.590  1.00  0.00     0.131 A 
ATOM     65  C   UNL A   1      36.379  30.979  30.272  1.00  0.00     0.055 A 
ATOM     66  C   UNL A   1      37.113  29.823  32.246  1.00  0.00     0.041 A 
ATOM     67  F   UNL A   1      39.231  28.822  32.290  1.00  0.00    -0.206 F 
ATOM     68  C   UNL A   1      36.150  30.586  31.593  1.00  0.00     0.022 A 
BRANCH  65  69
ATOM     69  S   UNL A   1      35.259  32.161  29.472  1.00  0.00     0.124 S 
ATOM     70  O   UNL A   1      34.534  31.296  28.542  1.00  0.00    -0.237 OA
ATOM     71  O   UNL A   1      34.484  32.673  30.599  1.00  0.00    -0.237 OA
ATOM     72  O   UNL A   1      36.160  33.121  28.846  1.00  0.00    -0.744 OA
ENDBRANCH  65  69
ENDBRANCH  48  62
BRANCH  49  73
ATOM     73  C   UNL A   1      46.890  27.321  25.349  1.00  0.00     0.023 A 
ATOM     74  C   UNL A   1      47.056  27.758  24.025  1.00  0.00     0.031 A 
ATOM     75  C   UNL A   1      47.901  26.520  25.911  1.00  0.00     0.131 A 
ATOM     76  C   UNL A   1      48.187  27.359  23.293  1.00  0.00     0.055 A 
ATOM     77  C   UNL A   1      49.046  26.168  25.196  1.00  0.00     0.041 A 
ATOM     78  F   UNL A   1      47.794  26.082  27.176  1.00  0.00    -0.206 F 
ATOM     79  C   UNL A   1      49.188  26.578  23.875  1.00  0.00     0.022 A 
BRANCH  76  80
ATOM     80  S   UNL A   1      48.295  27.817  21.541  1.00  0.00     0.124 S 
ATOM     81  O   UNL A   1      49.385  28.785  21.552  1.00  0.00    -0.237 OA
ATOM     82  O   UNL A   1      48.582  26.533  20.911  1.00  0.00    -0.237 OA
ATOM     83  O   UNL A   1      46.972  28.367  21.251  1.00  0.00    -0.744 OA
ENDBRANCH  76  80
ENDBRANCH  49  73
BRANCH  61  84
ATOM     84  C   UNL A   1      45.117  32.783  29.301  1.00  0.00     0.023 A 
ATOM     85  C   UNL A   1      45.110  33.970  28.546  1.00  0.00     0.031 A 
ATOM     86  C   UNL A   1      45.894  32.752  30.474  1.00  0.00     0.131 A 
ATOM     87  C   UNL A   1      45.914  35.051  28.935  1.00  0.00     0.055 A 
ATOM     88  C   UNL A   1      46.643  33.853  30.890  1.00  0.00     0.041 A 
ATOM     89  F   UNL A   1      45.942  31.645  31.233  1.00  0.00    -0.206 F 
ATOM     90  C   UNL A   1      46.669  35.007  30.110  1.00  0.00     0.022 A 
BRANCH  87  91
ATOM     91  S   UNL A   1      46.046  36.481  27.826  1.00  0.00     0.124 S 
ATOM     92  O   UNL A   1      47.383  36.981  28.133  1.00  0.00    -0.237 OA
ATOM     93  O   UNL A   1      45.879  35.872  26.511  1.00  0.00    -0.237 OA
ATOM     94  O   UNL A   1      44.948  37.348  28.251  1.00  0.00    -0.744 OA
ENDBRANCH  87  91
ENDBRANCH  61  84
ENDBRANCH  35  36
ENDBRANCH  27  30
ENDBRANCH  25  26
ENDBRANCH  24  25
ENDBRANCH   1  24
TORSDOF 18
ENDMDL
MODEL 3
REMARK VINA RESULT:     -11.0      5.484      8.451
REMARK SMILES C[C@H]1[C@@H](C(=O)NCCCNC(=O)c2ccc(-c3c4nc(c(-c5cc(S(=O)(=O)[O-])ccc5F)c5ccc([nH]5)c(-c5cc(S(=O)(=O)[O-])ccc5F)c5nc(c(-c6cc(S(=O)(=O)[O-])ccc6F)c6ccc3[nH]6)C=C5)C=C4)cc2)CCN1C(=O)NCC(C1CC1)C1CC1
REMARK SMILES IDX 7 1 6 2 4 3 5 4 3 6 1 7 2 8 78 9 76 10 77 11 79 12 80 13
REMARK SMILES IDX 81 14 82 16 83 17 84 18 85 19 86 20 87 21 88 22 89 23 8 24
REMARK SMILES IDX 9 25 10 26 11 27 12 29 13 30 14 31 75 32 15 33 74 34 16 35
REMARK SMILES IDX 17 36 18 37 68 38 19 39 73 40 67 41 69 42 20 43 72 44 66 45
REMARK SMILES IDX 65 46 21 48 53 49 33 50 52 51 34 52 37 53 51 54 70 55 35 56
REMARK SMILES IDX 36 57 50 59 71 60 38 61 22 62 23 63 31 64 24 65 30 66 32 67
REMARK SMILES IDX 29 68 25 69 26 70 27 71 28 72 54 73 55 74 63 75 56 76 62 77
REMARK SMILES IDX 64 78 61 79 57 80 58 81 59 82 60 83 39 84 40 85 48 86 41 87
REMARK SMILES IDX 47 88 49 89 46 90 42 91 43 92 44 93 45 94
REMARK H PARENT 6 5 81 15 10 28 69 47 37 58
REMARK Flexibility Score: inf
ROOT
ATOM      1  C   UNL A   1      36.138  23.238  23.702  1.00  0.00     0.117 C 
ENDROOT
BRANCH   1   2
ATOM      2  N   UNL A   1      35.145  22.180  23.830  1.00  0.00    -0.356 N 
ATOM      3  C   UNL A   1      33.790  22.196  23.990  1.00  0.00     0.225 C 
ATOM      4  O   UNL A   1      33.237  21.100  24.105  1.00  0.00    -0.275 OA
ATOM      5  H   UNL A   1      35.526  21.272  23.792  1.00  0.00     0.163 HD
BRANCH   3   6
ATOM      6  C   UNL A   1      32.985  23.490  23.915  1.00  0.00     0.102 C 
ATOM      7  C   UNL A   1      32.680  23.435  26.518  1.00  0.00     0.032 C 
ATOM      8  C   UNL A   1      32.649  24.234  25.217  1.00  0.00     0.096 C 
ATOM      9  N   UNL A   1      31.302  24.751  25.049  1.00  0.00    -0.321 N 
ATOM     10  C   UNL A   1      31.627  23.351  23.190  1.00  0.00     0.037 C 
ATOM     11  C   UNL A   1      30.581  23.852  24.170  1.00  0.00     0.122 C 
BRANCH   9  12
ATOM     12  C   UNL A   1      30.630  25.702  25.758  1.00  0.00     0.317 C 
ATOM     13  O   UNL A   1      29.851  25.390  26.665  1.00  0.00    -0.249 OA
ATOM     14  N   UNL A   1      30.777  27.025  25.538  1.00  0.00    -0.338 N 
ATOM     15  H   UNL A   1      30.209  27.557  26.142  1.00  0.00     0.165 HD
BRANCH  14  16
ATOM     16  C   UNL A   1      31.556  27.882  24.641  1.00  0.00     0.121 C 
BRANCH  16  17
ATOM     17  C   UNL A   1      33.074  27.805  24.910  1.00  0.00     0.014 C 
BRANCH  17  18
ATOM     18  C   UNL A   1      33.921  27.665  23.655  1.00  0.00    -0.006 C 
ATOM     19  C   UNL A   1      33.542  26.887  22.416  1.00  0.00     0.004 C 
ATOM     20  C   UNL A   1      33.521  28.390  22.390  1.00  0.00     0.004 C 
ENDBRANCH  17  18
BRANCH  17  21
ATOM     21  C   UNL A   1      33.643  28.946  25.752  1.00  0.00    -0.006 C 
ATOM     22  C   UNL A   1      32.914  29.547  26.930  1.00  0.00     0.004 C 
ATOM     23  C   UNL A   1      34.184  28.766  27.152  1.00  0.00     0.004 C 
ENDBRANCH  17  21
ENDBRANCH  16  17
ENDBRANCH  14  16
ENDBRANCH   9  12
ENDBRANCH   3   6
ENDBRANCH   1   2
BRANCH   1  24
ATOM     24  C   UNL A   1      36.372  23.963  25.032  1.00  0.00     0.042 C 
BRANCH  24  25
ATOM     25  C   UNL A   1      36.498  23.056  26.251  1.00  0.00     0.118 C 
BRANCH  25  26
ATOM     26  N   UNL A   1      37.668  22.205  26.179  1.00  0.00    -0.352 N 
ATOM     27  C   UNL A   1      39.011  22.486  26.262  1.00  0.00     0.251 C 
ATOM     28  H   UNL A   1      37.464  21.251  26.044  1.00  0.00     0.163 HD
ATOM     29  O   UNL A   1      39.793  21.598  25.918  1.00  0.00    -0.269 OA
BRANCH  27  30
ATOM     30  C   UNL A   1      39.552  23.797  26.720  1.00  0.00     0.039 A 
ATOM     31  C   UNL A   1      39.650  24.018  28.102  1.00  0.00     0.014 A 
ATOM     32  C   UNL A   1      39.865  24.851  25.858  1.00  0.00     0.014 A 
ATOM     33  C   UNL A   1      40.074  25.257  28.603  1.00  0.00     0.010 A 
ATOM     34  C   UNL A   1      40.384  26.053  26.354  1.00  0.00     0.010 A 
ATOM     35  C   UNL A   1      40.467  26.286  27.734  1.00  0.00    -0.014 A 
BRANCH  35  36
ATOM     36  C   UNL A   1      40.903  27.614  28.258  1.00  0.00     0.031 A 
ATOM     37  C   UNL A   1      42.368  27.980  28.298  1.00  0.00     0.074 A 
ATOM     38  C   UNL A   1      39.990  28.493  28.723  1.00  0.00     0.049 A 
ATOM     39  N   UNL A   1      42.945  29.065  28.752  1.00  0.00    -0.248 NA
ATOM     40  C   UNL A   1      43.312  26.975  27.787  1.00  0.00     0.031 C 
ATOM     41  C   UNL A   1      38.546  28.254  28.782  1.00  0.00     0.029 A 
ATOM     42  N   UNL A   1      40.136  29.758  29.234  1.00  0.00    -0.354 N 
ATOM     43  C   UNL A   1      44.314  28.868  28.594  1.00  0.00     0.074 A 
ATOM     44  C   UNL A   1      44.481  27.530  28.069  1.00  0.00     0.031 C 
ATOM     45  C   UNL A   1      37.940  29.347  29.275  1.00  0.00     0.029 A 
ATOM     46  C   UNL A   1      38.949  30.349  29.605  1.00  0.00     0.049 A 
ATOM     47  H   UNL A   1      41.009  30.204  29.327  1.00  0.00     0.167 HD
ATOM     48  C   UNL A   1      45.337  29.728  28.835  1.00  0.00     0.034 A 
ATOM     49  C   UNL A   1      38.698  31.553  30.155  1.00  0.00     0.034 A 
ATOM     50  C   UNL A   1      45.160  31.067  29.344  1.00  0.00     0.049 A 
ATOM     51  C   UNL A   1      39.847  32.493  30.419  1.00  0.00     0.074 A 
ATOM     52  C   UNL A   1      46.122  32.036  29.580  1.00  0.00     0.029 A 
ATOM     53  N   UNL A   1      43.940  31.630  29.698  1.00  0.00    -0.354 N 
ATOM     54  N   UNL A   1      41.131  32.303  30.221  1.00  0.00    -0.248 NA
ATOM     55  C   UNL A   1      39.509  33.814  30.964  1.00  0.00     0.031 C 
ATOM     56  C   UNL A   1      45.493  33.158  30.135  1.00  0.00     0.029 A 
ATOM     57  C   UNL A   1      44.128  32.921  30.174  1.00  0.00     0.049 A 
ATOM     58  H   UNL A   1      43.069  31.179  29.622  1.00  0.00     0.167 HD
ATOM     59  C   UNL A   1      41.752  33.493  30.599  1.00  0.00     0.074 A 
ATOM     60  C   UNL A   1      40.698  34.397  31.010  1.00  0.00     0.031 C 
ATOM     61  C   UNL A   1      43.073  33.808  30.603  1.00  0.00     0.034 A 
BRANCH  48  62
ATOM     62  C   UNL A   1      46.741  29.228  28.568  1.00  0.00     0.023 A 
ATOM     63  C   UNL A   1      47.209  29.008  27.261  1.00  0.00     0.031 A 
ATOM     64  C   UNL A   1      47.611  28.935  29.634  1.00  0.00     0.131 A 
ATOM     65  C   UNL A   1      48.470  28.428  27.054  1.00  0.00     0.055 A 
ATOM     66  C   UNL A   1      48.901  28.441  29.417  1.00  0.00     0.041 A 
ATOM     67  F   UNL A   1      47.219  29.108  30.905  1.00  0.00    -0.206 F 
ATOM     68  C   UNL A   1      49.331  28.167  28.123  1.00  0.00     0.022 A 
BRANCH  65  69
ATOM     69  S   UNL A   1      48.905  27.871  25.383  1.00  0.00     0.124 S 
ATOM     70  O   UNL A   1      50.120  28.642  25.124  1.00  0.00    -0.237 OA
ATOM     71  O   UNL A   1      49.090  26.435  25.568  1.00  0.00    -0.237 OA
ATOM     72  O   UNL A   1      47.750  28.254  24.580  1.00  0.00    -0.744 OA
ENDBRANCH  65  69
ENDBRANCH  48  62
BRANCH  49  73
ATOM     73  C   UNL A   1      37.302  31.943  30.505  1.00  0.00     0.023 A 
ATOM     74  C   UNL A   1      36.452  32.536  29.559  1.00  0.00     0.031 A 
ATOM     75  C   UNL A   1      36.808  31.758  31.810  1.00  0.00     0.131 A 
ATOM     76  C   UNL A   1      35.168  32.960  29.938  1.00  0.00     0.055 A 
ATOM     77  C   UNL A   1      35.514  32.136  32.170  1.00  0.00     0.041 A 
ATOM     78  F   UNL A   1      37.578  31.190  32.752  1.00  0.00    -0.206 F 
ATOM     79  C   UNL A   1      34.689  32.752  31.234  1.00  0.00     0.022 A 
BRANCH  76  80
ATOM     80  S   UNL A   1      34.155  33.857  28.729  1.00  0.00     0.124 S 
ATOM     81  O   UNL A   1      33.218  34.567  29.592  1.00  0.00    -0.237 OA
ATOM     82  O   UNL A   1      35.152  34.678  28.050  1.00  0.00    -0.237 OA
ATOM     83  O   UNL A   1      33.573  32.791  27.916  1.00  0.00    -0.744 OA
ENDBRANCH  76  80
ENDBRANCH  49  73
BRANCH  61  84
ATOM     84  C   UNL A   1      43.439  35.205  31.042  1.00  0.00     0.023 A 
ATOM     85  C   UNL A   1      43.471  36.280  30.134  1.00  0.00     0.031 A 
ATOM     86  C   UNL A   1      43.790  35.461  32.380  1.00  0.00     0.131 A 
ATOM     87  C   UNL A   1      43.909  37.543  30.561  1.00  0.00     0.055 A 
ATOM     88  C   UNL A   1      44.164  36.734  32.812  1.00  0.00     0.041 A 
ATOM     89  F   UNL A   1      43.780  34.473  33.289  1.00  0.00    -0.206 F 
ATOM     90  C   UNL A   1      44.240  37.781  31.897  1.00  0.00     0.022 A 
BRANCH  87  91
ATOM     91  S   UNL A   1      44.143  38.847  29.322  1.00  0.00     0.124 S 
ATOM     92  O   UNL A   1      45.595  38.993  29.306  1.00  0.00    -0.237 OA
ATOM     93  O   UNL A   1      43.547  38.254  28.129  1.00  0.00    -0.237 OA
ATOM     94  O   UNL A   1      43.413  39.985  29.878  1.00  0.00    -0.744 OA
ENDBRANCH  87  91
ENDBRANCH  61  84
ENDBRANCH  35  36
ENDBRANCH  27  30
ENDBRANCH  25  26
ENDBRANCH  24  25
ENDBRANCH   1  24
TORSDOF 18
ENDMDL
