MODEL 1
REMARK VINA RESULT:     -13.6      0.000      0.000
REMARK SMILES O=C(Nc1cccc(C(=O)NCCCNC(=O)c2ccc(-c3c4nc(c(-c5cc(S(=O)(=O)[O-])ccc5F)c5ccc([nH]5)c(-c5cc(S(=O)(=O)[O-])ccc5F)c5nc(c(-c6cc(S(=O)(=O)[O-])ccc6F)c6ccc3[nH]6)C=C5)C=C4)cc2)c1)Nc1cc(Cl)c(Cl)cc1Cl
REMARK SMILES IDX 13 1 12 2 11 3 9 4 10 5 8 7 4 8 5 9 81 10 6 11 7 12 3 13
REMARK SMILES IDX 1 14 2 15 82 16 83 19 84 20 90 21 85 22 89 23 91 24 86 25
REMARK SMILES IDX 87 26 88 27 14 28 15 29 16 30 17 32 18 33 19 34 80 35 20 36
REMARK SMILES IDX 79 37 21 38 22 39 23 40 73 41 24 42 78 43 72 44 74 45 25 46
REMARK SMILES IDX 77 47 71 48 70 49 26 51 58 52 38 53 57 54 39 55 42 56 56 57
REMARK SMILES IDX 75 58 40 59 41 60 55 62 76 63 43 64 27 65 28 66 36 67 29 68
REMARK SMILES IDX 35 69 37 70 34 71 30 72 31 73 32 74 33 75 59 76 60 77 68 78
REMARK SMILES IDX 61 79 67 80 69 81 66 82 62 83 63 84 64 85 65 86 44 87 45 88
REMARK SMILES IDX 53 89 46 90 52 91 54 92 51 93 47 94 48 95 49 96 50 97
REMARK H PARENT 11 6 3 17 82 18 15 31 74 50 42 61
REMARK Flexibility Score: inf
ROOT
ATOM      1  C   UNL A   1      31.439  32.044  26.513  1.00  0.00     0.042 C 
ENDROOT
BRANCH   1   2
ATOM      2  C   UNL A   1      31.430  30.524  26.357  1.00  0.00     0.118 C 
BRANCH   2   3
ATOM      3  N   UNL A   1      32.175  30.105  25.185  1.00  0.00    -0.352 N 
ATOM      4  C   UNL A   1      32.068  29.043  24.325  1.00  0.00     0.251 C 
ATOM      5  O   UNL A   1      32.861  29.015  23.382  1.00  0.00    -0.269 OA
ATOM      6  H   UNL A   1      32.916  30.713  24.960  1.00  0.00     0.163 HD
BRANCH   4   7
ATOM      7  C   UNL A   1      31.036  27.967  24.427  1.00  0.00     0.041 A 
ATOM      8  C   UNL A   1      29.995  26.002  25.426  1.00  0.00     0.043 A 
ATOM      9  C   UNL A   1      28.987  26.031  24.465  1.00  0.00     0.026 A 
ATOM     10  C   UNL A   1      31.050  26.921  25.352  1.00  0.00     0.040 A 
ATOM     11  C   UNL A   1      28.976  27.039  23.504  1.00  0.00     0.003 A 
ATOM     12  C   UNL A   1      29.982  28.010  23.500  1.00  0.00     0.014 A 
BRANCH   8  13
ATOM     13  N   UNL A   1      29.921  25.032  26.440  1.00  0.00    -0.308 N 
ATOM     14  O   UNL A   1      30.175  23.019  27.407  1.00  0.00    -0.248 OA
ATOM     15  C   UNL A   1      30.506  23.789  26.512  1.00  0.00     0.323 C 
ATOM     16  N   UNL A   1      31.573  23.593  25.667  1.00  0.00    -0.306 N 
ATOM     17  H   UNL A   1      29.366  25.279  27.215  1.00  0.00     0.171 HD
ATOM     18  H   UNL A   1      31.876  24.372  25.145  1.00  0.00     0.171 HD
BRANCH  16  19
ATOM     19  C   UNL A   1      32.279  22.385  25.474  1.00  0.00     0.063 A 
ATOM     20  C   UNL A   1      31.913  21.640  24.343  1.00  0.00     0.049 A 
ATOM     21  C   UNL A   1      33.266  21.869  26.332  1.00  0.00     0.066 A 
ATOM     22  C   UNL A   1      32.576  20.451  24.019  1.00  0.00     0.061 A 
ATOM     23  C   UNL A   1      33.925  20.675  26.009  1.00  0.00     0.044 A 
ATOM     24  Cl  UNL A   1      33.600  22.530  27.895  1.00  0.00    -0.082 Cl
ATOM     25  Cl  UNL A   1      32.089  19.632  22.577  1.00  0.00    -0.083 Cl
ATOM     26  C   UNL A   1      33.595  19.975  24.846  1.00  0.00     0.061 A 
ATOM     27  Cl  UNL A   1      34.464  18.524  24.498  1.00  0.00    -0.083 Cl
ENDBRANCH  16  19
ENDBRANCH   8  13
ENDBRANCH   4   7
ENDBRANCH   2   3
ENDBRANCH   1   2
BRANCH   1  28
ATOM     28  C   UNL A   1      32.675  32.557  27.252  1.00  0.00     0.118 C 
BRANCH  28  29
ATOM     29  N   UNL A   1      32.540  33.966  27.598  1.00  0.00    -0.352 N 
ATOM     30  C   UNL A   1      33.122  34.686  28.611  1.00  0.00     0.251 C 
ATOM     31  H   UNL A   1      31.938  34.482  27.014  1.00  0.00     0.163 HD
ATOM     32  O   UNL A   1      32.651  35.781  28.905  1.00  0.00    -0.269 OA
BRANCH  30  33
ATOM     33  C   UNL A   1      34.294  34.153  29.341  1.00  0.00     0.039 A 
ATOM     34  C   UNL A   1      34.082  33.370  30.479  1.00  0.00     0.014 A 
ATOM     35  C   UNL A   1      35.595  34.464  28.941  1.00  0.00     0.014 A 
ATOM     36  C   UNL A   1      35.175  32.855  31.182  1.00  0.00     0.010 A 
ATOM     37  C   UNL A   1      36.682  33.892  29.600  1.00  0.00     0.010 A 
ATOM     38  C   UNL A   1      36.484  33.085  30.728  1.00  0.00    -0.014 A 
BRANCH  38  39
ATOM     39  C   UNL A   1      37.659  32.497  31.422  1.00  0.00     0.031 A 
ATOM     40  C   UNL A   1      38.399  31.341  30.805  1.00  0.00     0.074 A 
ATOM     41  C   UNL A   1      38.017  32.963  32.636  1.00  0.00     0.049 A 
ATOM     42  N   UNL A   1      39.371  30.620  31.299  1.00  0.00    -0.248 NA
ATOM     43  C   UNL A   1      37.963  30.923  29.464  1.00  0.00     0.031 C 
ATOM     44  C   UNL A   1      37.361  34.065  33.344  1.00  0.00     0.029 A 
ATOM     45  N   UNL A   1      39.012  32.565  33.493  1.00  0.00    -0.354 N 
ATOM     46  C   UNL A   1      39.660  29.658  30.336  1.00  0.00     0.074 A 
ATOM     47  C   UNL A   1      38.713  29.851  29.258  1.00  0.00     0.031 C 
ATOM     48  C   UNL A   1      37.986  34.269  34.515  1.00  0.00     0.029 A 
ATOM     49  C   UNL A   1      39.049  33.281  34.668  1.00  0.00     0.049 A 
ATOM     50  H   UNL A   1      39.640  31.835  33.287  1.00  0.00     0.167 HD
ATOM     51  C   UNL A   1      40.638  28.719  30.340  1.00  0.00     0.034 A 
ATOM     52  C   UNL A   1      39.840  33.146  35.751  1.00  0.00     0.034 A 
ATOM     53  C   UNL A   1      41.578  28.547  31.421  1.00  0.00     0.049 A 
ATOM     54  C   UNL A   1      40.887  32.060  35.753  1.00  0.00     0.074 A 
ATOM     55  C   UNL A   1      42.629  27.651  31.517  1.00  0.00     0.029 A 
ATOM     56  N   UNL A   1      41.579  29.285  32.598  1.00  0.00    -0.354 N 
ATOM     57  N   UNL A   1      41.166  31.178  34.820  1.00  0.00    -0.248 NA
ATOM     58  C   UNL A   1      41.731  31.956  36.949  1.00  0.00     0.031 C 
ATOM     59  C   UNL A   1      43.224  27.805  32.775  1.00  0.00     0.029 A 
ATOM     60  C   UNL A   1      42.595  28.847  33.436  1.00  0.00     0.049 A 
ATOM     61  H   UNL A   1      40.951  30.014  32.807  1.00  0.00     0.167 HD
ATOM     62  C   UNL A   1      42.242  30.440  35.306  1.00  0.00     0.074 A 
ATOM     63  C   UNL A   1      42.568  30.990  36.606  1.00  0.00     0.031 C 
ATOM     64  C   UNL A   1      42.903  29.405  34.730  1.00  0.00     0.034 A 
BRANCH  51  65
ATOM     65  C   UNL A   1      40.723  27.799  29.145  1.00  0.00     0.023 A 
ATOM     66  C   UNL A   1      41.655  28.017  28.114  1.00  0.00     0.031 A 
ATOM     67  C   UNL A   1      39.849  26.705  29.018  1.00  0.00     0.131 A 
ATOM     68  C   UNL A   1      41.641  27.203  26.971  1.00  0.00     0.055 A 
ATOM     69  C   UNL A   1      39.896  25.847  27.918  1.00  0.00     0.041 A 
ATOM     70  F   UNL A   1      38.925  26.456  29.960  1.00  0.00    -0.206 F 
ATOM     71  C   UNL A   1      40.785  26.103  26.878  1.00  0.00     0.022 A 
BRANCH  68  72
ATOM     72  S   UNL A   1      42.656  27.690  25.550  1.00  0.00     0.124 S 
ATOM     73  O   UNL A   1      42.586  26.492  24.716  1.00  0.00    -0.237 OA
ATOM     74  O   UNL A   1      41.951  28.863  25.045  1.00  0.00    -0.237 OA
ATOM     75  O   UNL A   1      43.967  27.954  26.139  1.00  0.00    -0.744 OA
ENDBRANCH  68  72
ENDBRANCH  51  65
BRANCH  52  76
ATOM     76  C   UNL A   1      39.675  34.044  36.930  1.00  0.00     0.023 A 
ATOM     77  C   UNL A   1      39.095  33.570  38.117  1.00  0.00     0.031 A 
ATOM     78  C   UNL A   1      40.040  35.401  36.872  1.00  0.00     0.131 A 
ATOM     79  C   UNL A   1      38.844  34.456  39.177  1.00  0.00     0.055 A 
ATOM     80  C   UNL A   1      39.845  36.265  37.951  1.00  0.00     0.041 A 
ATOM     81  F   UNL A   1      40.602  35.907  35.762  1.00  0.00    -0.206 F 
ATOM     82  C   UNL A   1      39.227  35.797  39.107  1.00  0.00     0.022 A 
BRANCH  79  83
ATOM     83  S   UNL A   1      37.909  33.851  40.608  1.00  0.00     0.124 S 
ATOM     84  O   UNL A   1      38.907  33.035  41.291  1.00  0.00    -0.237 OA
ATOM     85  O   UNL A   1      37.535  35.096  41.272  1.00  0.00    -0.237 OA
ATOM     86  O   UNL A   1      36.803  33.112  40.004  1.00  0.00    -0.744 OA
ENDBRANCH  79  83
ENDBRANCH  52  76
BRANCH  64  87
ATOM     87  C   UNL A   1      44.081  28.839  35.486  1.00  0.00     0.023 A 
ATOM     88  C   UNL A   1      43.941  27.760  36.375  1.00  0.00     0.031 A 
ATOM     89  C   UNL A   1      45.360  29.399  35.317  1.00  0.00     0.131 A 
ATOM     90  C   UNL A   1      45.052  27.307  37.102  1.00  0.00     0.055 A 
ATOM     91  C   UNL A   1      46.473  28.905  35.999  1.00  0.00     0.041 A 
ATOM     92  F   UNL A   1      45.549  30.433  34.483  1.00  0.00    -0.206 F 
ATOM     93  C   UNL A   1      46.320  27.861  36.907  1.00  0.00     0.022 A 
BRANCH  90  94
ATOM     94  S   UNL A   1      44.803  26.035  38.371  1.00  0.00     0.124 S 
ATOM     95  O   UNL A   1      46.170  25.598  38.635  1.00  0.00    -0.237 OA
ATOM     96  O   UNL A   1      44.154  26.783  39.442  1.00  0.00    -0.237 OA
ATOM     97  O   UNL A   1      43.954  25.048  37.705  1.00  0.00    -0.744 OA
ENDBRANCH  90  94
ENDBRANCH  64  87
ENDBRANCH  38  39
ENDBRANCH  30  33
ENDBRANCH  28  29
ENDBRANCH   1  28
TORSDOF 15
ENDMDL
MODEL 2
REMARK VINA RESULT:     -13.2      1.600      1.988
REMARK SMILES O=C(Nc1cccc(C(=O)NCCCNC(=O)c2ccc(-c3c4nc(c(-c5cc(S(=O)(=O)[O-])ccc5F)c5ccc([nH]5)c(-c5cc(S(=O)(=O)[O-])ccc5F)c5nc(c(-c6cc(S(=O)(=O)[O-])ccc6F)c6ccc3[nH]6)C=C5)C=C4)cc2)c1)Nc1cc(Cl)c(Cl)cc1Cl
REMARK SMILES IDX 13 1 12 2 11 3 9 4 10 5 8 7 4 8 5 9 81 10 6 11 7 12 3 13
REMARK SMILES IDX 1 14 2 15 82 16 83 19 84 20 90 21 85 22 89 23 91 24 86 25
REMARK SMILES IDX 87 26 88 27 14 28 15 29 16 30 17 32 18 33 19 34 80 35 20 36
REMARK SMILES IDX 79 37 21 38 22 39 23 40 73 41 24 42 78 43 72 44 74 45 25 46
REMARK SMILES IDX 77 47 71 48 70 49 26 51 58 52 38 53 57 54 39 55 42 56 56 57
REMARK SMILES IDX 75 58 40 59 41 60 55 62 76 63 43 64 27 65 28 66 36 67 29 68
REMARK SMILES IDX 35 69 37 70 34 71 30 72 31 73 32 74 33 75 59 76 60 77 68 78
REMARK SMILES IDX 61 79 67 80 69 81 66 82 62 83 63 84 64 85 65 86 44 87 45 88
REMARK SMILES IDX 53 89 46 90 52 91 54 92 51 93 47 94 48 95 49 96 50 97
REMARK H PARENT 11 6 3 17 82 18 15 31 74 50 42 61
REMARK Flexibility Score: inf
ROOT
ATOM      1  C   UNL A   1      31.495  31.937  26.591  1.00  0.00     0.042 C 
ENDROOT
BRANCH   1   2
ATOM      2  C   UNL A   1      31.530  30.428  26.359  1.00  0.00     0.118 C 
BRANCH   2   3
ATOM      3  N   UNL A   1      32.111  30.100  25.071  1.00  0.00    -0.352 N 
ATOM      4  C   UNL A   1      32.072  28.988  24.270  1.00  0.00     0.251 C 
ATOM      5  O   UNL A   1      32.658  29.066  23.189  1.00  0.00    -0.269 OA
ATOM      6  H   UNL A   1      32.648  30.833  24.691  1.00  0.00     0.163 HD
BRANCH   4   7
ATOM      7  C   UNL A   1      31.334  27.730  24.597  1.00  0.00     0.041 A 
ATOM      8  C   UNL A   1      30.939  25.665  25.830  1.00  0.00     0.043 A 
ATOM      9  C   UNL A   1      29.793  25.418  25.078  1.00  0.00     0.026 A 
ATOM     10  C   UNL A   1      31.739  26.776  25.532  1.00  0.00     0.040 A 
ATOM     11  C   UNL A   1      29.393  26.333  24.107  1.00  0.00     0.003 A 
ATOM     12  C   UNL A   1      30.146  27.490  23.885  1.00  0.00     0.014 A 
BRANCH   8  13
ATOM     13  N   UNL A   1      31.260  24.773  26.868  1.00  0.00    -0.308 N 
ATOM     14  O   UNL A   1      32.153  22.950  27.834  1.00  0.00    -0.248 OA
ATOM     15  C   UNL A   1      32.145  23.719  26.878  1.00  0.00     0.323 C 
ATOM     16  N   UNL A   1      33.094  23.740  25.884  1.00  0.00    -0.306 N 
ATOM     17  H   UNL A   1      30.779  24.923  27.713  1.00  0.00     0.171 HD
ATOM     18  H   UNL A   1      33.111  24.535  25.302  1.00  0.00     0.171 HD
BRANCH  16  19
ATOM     19  C   UNL A   1      34.048  22.734  25.614  1.00  0.00     0.063 A 
ATOM     20  C   UNL A   1      35.390  23.109  25.775  1.00  0.00     0.049 A 
ATOM     21  C   UNL A   1      33.759  21.431  25.169  1.00  0.00     0.066 A 
ATOM     22  C   UNL A   1      36.423  22.184  25.586  1.00  0.00     0.061 A 
ATOM     23  C   UNL A   1      34.796  20.509  24.974  1.00  0.00     0.044 A 
ATOM     24  Cl  UNL A   1      32.185  20.936  24.654  1.00  0.00    -0.082 Cl
ATOM     25  Cl  UNL A   1      38.042  22.727  25.857  1.00  0.00    -0.083 Cl
ATOM     26  C   UNL A   1      36.124  20.877  25.199  1.00  0.00     0.061 A 
ATOM     27  Cl  UNL A   1      37.348  19.681  24.963  1.00  0.00    -0.083 Cl
ENDBRANCH  16  19
ENDBRANCH   8  13
ENDBRANCH   4   7
ENDBRANCH   2   3
ENDBRANCH   1   2
BRANCH   1  28
ATOM     28  C   UNL A   1      32.787  32.474  27.206  1.00  0.00     0.118 C 
BRANCH  28  29
ATOM     29  N   UNL A   1      32.640  33.862  27.623  1.00  0.00    -0.352 N 
ATOM     30  C   UNL A   1      33.214  34.532  28.674  1.00  0.00     0.251 C 
ATOM     31  H   UNL A   1      32.035  34.402  27.066  1.00  0.00     0.163 HD
ATOM     32  O   UNL A   1      32.734  35.608  29.023  1.00  0.00    -0.269 OA
BRANCH  30  33
ATOM     33  C   UNL A   1      34.389  33.972  29.378  1.00  0.00     0.039 A 
ATOM     34  C   UNL A   1      34.188  33.238  30.550  1.00  0.00     0.014 A 
ATOM     35  C   UNL A   1      35.687  34.211  28.919  1.00  0.00     0.014 A 
ATOM     36  C   UNL A   1      35.283  32.698  31.229  1.00  0.00     0.010 A 
ATOM     37  C   UNL A   1      36.772  33.613  29.556  1.00  0.00     0.010 A 
ATOM     38  C   UNL A   1      36.582  32.853  30.719  1.00  0.00    -0.014 A 
BRANCH  38  39
ATOM     39  C   UNL A   1      37.757  32.237  31.389  1.00  0.00     0.031 A 
ATOM     40  C   UNL A   1      38.481  31.090  30.736  1.00  0.00     0.074 A 
ATOM     41  C   UNL A   1      38.127  32.667  32.612  1.00  0.00     0.049 A 
ATOM     42  N   UNL A   1      39.450  30.348  31.205  1.00  0.00    -0.248 NA
ATOM     43  C   UNL A   1      38.032  30.713  29.388  1.00  0.00     0.031 C 
ATOM     44  C   UNL A   1      37.486  33.756  33.354  1.00  0.00     0.029 A 
ATOM     45  N   UNL A   1      39.124  32.238  33.451  1.00  0.00    -0.354 N 
ATOM     46  C   UNL A   1      39.724  29.409  30.215  1.00  0.00     0.074 A 
ATOM     47  C   UNL A   1      38.771  29.640  29.148  1.00  0.00     0.031 C 
ATOM     48  C   UNL A   1      38.121  33.923  34.526  1.00  0.00     0.029 A 
ATOM     49  C   UNL A   1      39.176  32.922  34.645  1.00  0.00     0.049 A 
ATOM     50  H   UNL A   1      39.744  31.507  33.222  1.00  0.00     0.167 HD
ATOM     51  C   UNL A   1      40.693  28.462  30.186  1.00  0.00     0.034 A 
ATOM     52  C   UNL A   1      39.973  32.751  35.718  1.00  0.00     0.034 A 
ATOM     53  C   UNL A   1      41.639  28.252  31.256  1.00  0.00     0.049 A 
ATOM     54  C   UNL A   1      41.010  31.656  35.684  1.00  0.00     0.074 A 
ATOM     55  C   UNL A   1      42.682  27.345  31.321  1.00  0.00     0.029 A 
ATOM     56  N   UNL A   1      41.655  28.959  32.452  1.00  0.00    -0.354 N 
ATOM     57  N   UNL A   1      41.274  30.796  34.726  1.00  0.00    -0.248 NA
ATOM     58  C   UNL A   1      41.862  31.513  36.871  1.00  0.00     0.031 C 
ATOM     59  C   UNL A   1      43.287  27.459  32.578  1.00  0.00     0.029 A 
ATOM     60  C   UNL A   1      42.672  28.489  33.270  1.00  0.00     0.049 A 
ATOM     61  H   UNL A   1      41.035  29.688  32.685  1.00  0.00     0.167 HD
ATOM     62  C   UNL A   1      42.347  30.036  35.185  1.00  0.00     0.074 A 
ATOM     63  C   UNL A   1      42.687  30.548  36.496  1.00  0.00     0.031 C 
ATOM     64  C   UNL A   1      42.994  29.010  34.577  1.00  0.00     0.034 A 
BRANCH  51  65
ATOM     65  C   UNL A   1      40.762  27.573  28.967  1.00  0.00     0.023 A 
ATOM     66  C   UNL A   1      41.719  27.781  27.959  1.00  0.00     0.031 A 
ATOM     67  C   UNL A   1      39.845  26.520  28.794  1.00  0.00     0.131 A 
ATOM     68  C   UNL A   1      41.692  27.001  26.793  1.00  0.00     0.055 A 
ATOM     69  C   UNL A   1      39.876  25.692  27.670  1.00  0.00     0.041 A 
ATOM     70  F   UNL A   1      38.895  26.283  29.713  1.00  0.00    -0.206 F 
ATOM     71  C   UNL A   1      40.793  25.940  26.653  1.00  0.00     0.022 A 
BRANCH  68  72
ATOM     72  S   UNL A   1      42.752  27.484  25.403  1.00  0.00     0.124 S 
ATOM     73  O   UNL A   1      43.974  27.889  26.093  1.00  0.00    -0.237 OA
ATOM     74  O   UNL A   1      42.834  26.252  24.626  1.00  0.00    -0.237 OA
ATOM     75  O   UNL A   1      42.011  28.573  24.770  1.00  0.00    -0.744 OA
ENDBRANCH  68  72
ENDBRANCH  51  65
BRANCH  52  76
ATOM     76  C   UNL A   1      39.825  33.619  36.922  1.00  0.00     0.023 A 
ATOM     77  C   UNL A   1      40.752  34.638  37.190  1.00  0.00     0.031 A 
ATOM     78  C   UNL A   1      38.791  33.407  37.852  1.00  0.00     0.131 A 
ATOM     79  C   UNL A   1      40.662  35.369  38.385  1.00  0.00     0.055 A 
ATOM     80  C   UNL A   1      38.670  34.177  39.010  1.00  0.00     0.041 A 
ATOM     81  F   UNL A   1      37.876  32.446  37.644  1.00  0.00    -0.206 F 
ATOM     82  C   UNL A   1      39.620  35.155  39.290  1.00  0.00     0.022 A 
BRANCH  79  83
ATOM     83  S   UNL A   1      41.993  36.533  38.790  1.00  0.00     0.124 S 
ATOM     84  O   UNL A   1      42.219  37.184  37.504  1.00  0.00    -0.237 OA
ATOM     85  O   UNL A   1      41.371  37.354  39.824  1.00  0.00    -0.237 OA
ATOM     86  O   UNL A   1      43.075  35.665  39.251  1.00  0.00    -0.744 OA
ENDBRANCH  79  83
ENDBRANCH  52  76
BRANCH  64  87
ATOM     87  C   UNL A   1      44.172  28.414  35.310  1.00  0.00     0.023 A 
ATOM     88  C   UNL A   1      44.011  27.403  36.273  1.00  0.00     0.031 A 
ATOM     89  C   UNL A   1      45.473  28.873  35.042  1.00  0.00     0.131 A 
ATOM     90  C   UNL A   1      45.127  26.923  36.973  1.00  0.00     0.055 A 
ATOM     91  C   UNL A   1      46.587  28.349  35.698  1.00  0.00     0.041 A 
ATOM     92  F   UNL A   1      45.684  29.839  34.133  1.00  0.00    -0.206 F 
ATOM     93  C   UNL A   1      46.416  27.376  36.679  1.00  0.00     0.022 A 
BRANCH  90  94
ATOM     94  S   UNL A   1      44.865  25.751  38.333  1.00  0.00     0.124 S 
ATOM     95  O   UNL A   1      46.167  25.753  38.991  1.00  0.00    -0.237 OA
ATOM     96  O   UNL A   1      43.774  26.373  39.076  1.00  0.00    -0.237 OA
ATOM     97  O   UNL A   1      44.516  24.506  37.651  1.00  0.00    -0.744 OA
ENDBRANCH  90  94
ENDBRANCH  64  87
ENDBRANCH  38  39
ENDBRANCH  30  33
ENDBRANCH  28  29
ENDBRANCH   1  28
TORSDOF 15
ENDMDL
MODEL 3
REMARK VINA RESULT:     -13.1      1.710      7.710
REMARK SMILES O=C(Nc1cccc(C(=O)NCCCNC(=O)c2ccc(-c3c4nc(c(-c5cc(S(=O)(=O)[O-])ccc5F)c5ccc([nH]5)c(-c5cc(S(=O)(=O)[O-])ccc5F)c5nc(c(-c6cc(S(=O)(=O)[O-])ccc6F)c6ccc3[nH]6)C=C5)C=C4)cc2)c1)Nc1cc(Cl)c(Cl)cc1Cl
REMARK SMILES IDX 13 1 12 2 11 3 9 4 10 5 8 7 4 8 5 9 81 10 6 11 7 12 3 13
REMARK SMILES IDX 1 14 2 15 82 16 83 19 84 20 90 21 85 22 89 23 91 24 86 25
REMARK SMILES IDX 87 26 88 27 14 28 15 29 16 30 17 32 18 33 19 34 80 35 20 36
REMARK SMILES IDX 79 37 21 38 22 39 23 40 73 41 24 42 78 43 72 44 74 45 25 46
REMARK SMILES IDX 77 47 71 48 70 49 26 51 58 52 38 53 57 54 39 55 42 56 56 57
REMARK SMILES IDX 75 58 40 59 41 60 55 62 76 63 43 64 27 65 28 66 36 67 29 68
REMARK SMILES IDX 35 69 37 70 34 71 30 72 31 73 32 74 33 75 59 76 60 77 68 78
REMARK SMILES IDX 61 79 67 80 69 81 66 82 62 83 63 84 64 85 65 86 44 87 45 88
REMARK SMILES IDX 53 89 46 90 52 91 54 92 51 93 47 94 48 95 49 96 50 97
REMARK H PARENT 11 6 3 17 82 18 15 31 74 50 42 61
REMARK Flexibility Score: inf
ROOT
ATOM      1  C   UNL A   1      31.071  32.263  26.702  1.00  0.00     0.042 C 
ENDROOT
BRANCH   1   2
ATOM      2  C   UNL A   1      30.889  31.199  25.622  1.00  0.00     0.118 C 
BRANCH   2   3
ATOM      3  N   UNL A   1      32.119  30.467  25.383  1.00  0.00    -0.352 N 
ATOM      4  C   UNL A   1      32.399  29.159  25.082  1.00  0.00     0.251 C 
ATOM      5  O   UNL A   1      33.583  28.877  24.897  1.00  0.00    -0.269 OA
ATOM      6  H   UNL A   1      32.924  31.029  25.454  1.00  0.00     0.163 HD
BRANCH   4   7
ATOM      7  C   UNL A   1      31.371  28.086  24.914  1.00  0.00     0.041 A 
ATOM      8  C   UNL A   1      30.183  26.056  25.552  1.00  0.00     0.043 A 
ATOM      9  C   UNL A   1      29.358  26.171  24.436  1.00  0.00     0.026 A 
ATOM     10  C   UNL A   1      31.229  26.969  25.738  1.00  0.00     0.040 A 
ATOM     11  C   UNL A   1      29.510  27.254  23.573  1.00  0.00     0.003 A 
ATOM     12  C   UNL A   1      30.494  28.214  23.823  1.00  0.00     0.014 A 
BRANCH   8  13
ATOM     13  N   UNL A   1      29.939  25.007  26.456  1.00  0.00    -0.308 N 
ATOM     14  O   UNL A   1      29.975  22.906  27.253  1.00  0.00    -0.248 OA
ATOM     15  C   UNL A   1      30.450  23.730  26.478  1.00  0.00     0.323 C 
ATOM     16  N   UNL A   1      31.601  23.545  25.750  1.00  0.00    -0.306 N 
ATOM     17  H   UNL A   1      29.307  25.218  27.180  1.00  0.00     0.171 HD
ATOM     18  H   UNL A   1      32.003  24.347  25.342  1.00  0.00     0.171 HD
BRANCH  16  19
ATOM     19  C   UNL A   1      32.266  22.319  25.529  1.00  0.00     0.063 A 
ATOM     20  C   UNL A   1      31.926  21.648  24.344  1.00  0.00     0.049 A 
ATOM     21  C   UNL A   1      33.187  21.719  26.405  1.00  0.00     0.066 A 
ATOM     22  C   UNL A   1      32.556  20.449  23.991  1.00  0.00     0.061 A 
ATOM     23  C   UNL A   1      33.811  20.514  26.052  1.00  0.00     0.044 A 
ATOM     24  Cl  UNL A   1      33.469  22.286  28.014  1.00  0.00    -0.082 Cl
ATOM     25  Cl  UNL A   1      32.108  19.724  22.487  1.00  0.00    -0.083 Cl
ATOM     26  C   UNL A   1      33.511  19.888  24.840  1.00  0.00     0.061 A 
ATOM     27  Cl  UNL A   1      34.337  18.421  24.460  1.00  0.00    -0.083 Cl
ENDBRANCH  16  19
ENDBRANCH   8  13
ENDBRANCH   4   7
ENDBRANCH   2   3
ENDBRANCH   1   2
BRANCH   1  28
ATOM     28  C   UNL A   1      32.540  32.548  27.014  1.00  0.00     0.118 C 
BRANCH  28  29
ATOM     29  N   UNL A   1      32.735  33.929  27.438  1.00  0.00    -0.352 N 
ATOM     30  C   UNL A   1      33.554  34.445  28.409  1.00  0.00     0.251 C 
ATOM     31  H   UNL A   1      32.196  34.593  26.951  1.00  0.00     0.163 HD
ATOM     32  O   UNL A   1      33.352  35.590  28.806  1.00  0.00    -0.269 OA
BRANCH  30  33
ATOM     33  C   UNL A   1      34.660  33.640  28.975  1.00  0.00     0.039 A 
ATOM     34  C   UNL A   1      35.969  33.913  28.572  1.00  0.00     0.014 A 
ATOM     35  C   UNL A   1      34.406  32.586  29.856  1.00  0.00     0.014 A 
ATOM     36  C   UNL A   1      37.028  33.166  29.095  1.00  0.00     0.010 A 
ATOM     37  C   UNL A   1      35.467  31.890  30.432  1.00  0.00     0.010 A 
ATOM     38  C   UNL A   1      36.788  32.169  30.055  1.00  0.00    -0.014 A 
BRANCH  38  39
ATOM     39  C   UNL A   1      37.902  31.403  30.673  1.00  0.00     0.031 A 
ATOM     40  C   UNL A   1      38.350  31.722  32.074  1.00  0.00     0.074 A 
ATOM     41  C   UNL A   1      38.549  30.469  29.948  1.00  0.00     0.049 A 
ATOM     42  N   UNL A   1      39.367  31.250  32.746  1.00  0.00    -0.248 NA
ATOM     43  C   UNL A   1      37.564  32.729  32.802  1.00  0.00     0.031 C 
ATOM     44  C   UNL A   1      38.219  30.090  28.572  1.00  0.00     0.029 A 
ATOM     45  N   UNL A   1      39.623  29.674  30.261  1.00  0.00    -0.354 N 
ATOM     46  C   UNL A   1      39.351  31.906  33.973  1.00  0.00     0.074 A 
ATOM     47  C   UNL A   1      38.258  32.856  33.922  1.00  0.00     0.031 C 
ATOM     48  C   UNL A   1      39.057  29.121  28.169  1.00  0.00     0.029 A 
ATOM     49  C   UNL A   1      40.017  28.847  29.233  1.00  0.00     0.049 A 
ATOM     50  H   UNL A   1      40.071  29.695  31.138  1.00  0.00     0.167 HD
ATOM     51  C   UNL A   1      40.154  31.717  35.049  1.00  0.00     0.034 A 
ATOM     52  C   UNL A   1      41.045  27.980  29.153  1.00  0.00     0.034 A 
ATOM     53  C   UNL A   1      41.233  30.759  35.083  1.00  0.00     0.049 A 
ATOM     54  C   UNL A   1      41.957  27.824  30.345  1.00  0.00     0.074 A 
ATOM     55  C   UNL A   1      42.090  30.461  36.129  1.00  0.00     0.029 A 
ATOM     56  N   UNL A   1      41.607  29.946  34.021  1.00  0.00    -0.354 N 
ATOM     57  N   UNL A   1      41.908  28.432  31.509  1.00  0.00    -0.248 NA
ATOM     58  C   UNL A   1      43.058  26.861  30.216  1.00  0.00     0.031 C 
ATOM     59  C   UNL A   1      43.019  29.515  35.679  1.00  0.00     0.029 A 
ATOM     60  C   UNL A   1      42.698  29.166  34.378  1.00  0.00     0.049 A 
ATOM     61  H   UNL A   1      41.164  29.925  33.142  1.00  0.00     0.167 HD
ATOM     62  C   UNL A   1      42.950  27.895  32.261  1.00  0.00     0.074 A 
ATOM     63  C   UNL A   1      43.599  26.908  31.423  1.00  0.00     0.031 C 
ATOM     64  C   UNL A   1      43.335  28.189  33.529  1.00  0.00     0.034 A 
BRANCH  51  65
ATOM     65  C   UNL A   1      39.902  32.577  36.265  1.00  0.00     0.023 A 
ATOM     66  C   UNL A   1      39.034  32.164  37.290  1.00  0.00     0.031 A 
ATOM     67  C   UNL A   1      40.517  33.836  36.392  1.00  0.00     0.131 A 
ATOM     68  C   UNL A   1      38.744  33.029  38.356  1.00  0.00     0.055 A 
ATOM     69  C   UNL A   1      40.290  34.658  37.498  1.00  0.00     0.041 A 
ATOM     70  F   UNL A   1      41.341  34.294  35.437  1.00  0.00    -0.206 F 
ATOM     71  C   UNL A   1      39.387  34.263  38.481  1.00  0.00     0.022 A 
BRANCH  68  72
ATOM     72  S   UNL A   1      37.410  32.579  39.499  1.00  0.00     0.124 S 
ATOM     73  O   UNL A   1      37.655  33.493  40.611  1.00  0.00    -0.237 OA
ATOM     74  O   UNL A   1      36.214  32.843  38.706  1.00  0.00    -0.237 OA
ATOM     75  O   UNL A   1      37.668  31.170  39.790  1.00  0.00    -0.744 OA
ENDBRANCH  68  72
ENDBRANCH  51  65
BRANCH  52  76
ATOM     76  C   UNL A   1      41.285  27.197  27.907  1.00  0.00     0.023 A 
ATOM     77  C   UNL A   1      41.002  25.823  27.856  1.00  0.00     0.031 A 
ATOM     78  C   UNL A   1      41.855  27.794  26.768  1.00  0.00     0.131 A 
ATOM     79  C   UNL A   1      41.340  25.080  26.715  1.00  0.00     0.055 A 
ATOM     80  C   UNL A   1      42.133  27.063  25.612  1.00  0.00     0.041 A 
ATOM     81  F   UNL A   1      42.144  29.106  26.761  1.00  0.00    -0.206 F 
ATOM     82  C   UNL A   1      41.891  25.693  25.587  1.00  0.00     0.022 A 
BRANCH  79  83
ATOM     83  S   UNL A   1      41.148  23.277  26.767  1.00  0.00     0.124 S 
ATOM     84  O   UNL A   1      39.720  23.124  26.510  1.00  0.00    -0.237 OA
ATOM     85  O   UNL A   1      42.042  22.847  25.696  1.00  0.00    -0.237 OA
ATOM     86  O   UNL A   1      41.581  22.928  28.117  1.00  0.00    -0.744 OA
ENDBRANCH  79  83
ENDBRANCH  52  76
BRANCH  64  87
ATOM     87  C   UNL A   1      44.480  27.388  34.099  1.00  0.00     0.023 A 
ATOM     88  C   UNL A   1      44.288  26.110  34.651  1.00  0.00     0.031 A 
ATOM     89  C   UNL A   1      45.781  27.921  34.096  1.00  0.00     0.131 A 
ATOM     90  C   UNL A   1      45.371  25.428  35.225  1.00  0.00     0.055 A 
ATOM     91  C   UNL A   1      46.866  27.213  34.616  1.00  0.00     0.041 A 
ATOM     92  F   UNL A   1      46.020  29.139  33.585  1.00  0.00    -0.206 F 
ATOM     93  C   UNL A   1      46.661  25.964  35.195  1.00  0.00     0.022 A 
BRANCH  90  94
ATOM     94  S   UNL A   1      45.058  23.864  36.087  1.00  0.00     0.124 S 
ATOM     95  O   UNL A   1      46.048  22.980  35.482  1.00  0.00    -0.237 OA
ATOM     96  O   UNL A   1      45.291  24.222  37.482  1.00  0.00    -0.237 OA
ATOM     97  O   UNL A   1      43.667  23.560  35.752  1.00  0.00    -0.744 OA
ENDBRANCH  90  94
ENDBRANCH  64  87
ENDBRANCH  38  39
ENDBRANCH  30  33
ENDBRANCH  28  29
ENDBRANCH   1  28
TORSDOF 15
ENDMDL
