MODEL 1
REMARK VINA RESULT:     -12.3      0.000      0.000
REMARK SMILES [NH3+][C@]1(C(=O)NCCCNC(=O)c2ccc(-c3c4nc(c(-c5cc(S(=O)(=O)[O-])ccc5F)c5ccc([nH]5)c(-c5cc(S(=O)(=O)[O-])ccc5F)c5nc(c(-c6cc(S(=O)(=O)[O-])ccc6F)c6ccc3[nH]6)C=C5)C=C4)cc2)CC[C@@H](Sc2cc3ccccc3[nH]2)C1
REMARK SMILES IDX 7 1 6 2 5 3 3 4 4 5 2 7 75 8 88 9 76 10 77 11 1 12 78 16
REMARK SMILES IDX 79 17 80 18 87 19 81 20 86 21 82 23 85 24 83 25 84 26 8 27
REMARK SMILES IDX 9 28 10 29 11 31 12 32 13 33 74 34 14 35 73 36 15 37 16 38
REMARK SMILES IDX 17 39 67 40 18 41 72 42 66 43 68 44 19 45 71 46 65 47 64 48
REMARK SMILES IDX 20 50 52 51 32 52 51 53 33 54 36 55 50 56 69 57 34 58 35 59
REMARK SMILES IDX 49 61 70 62 37 63 21 64 22 65 30 66 23 67 29 68 31 69 28 70
REMARK SMILES IDX 24 71 25 72 26 73 27 74 53 75 54 76 62 77 55 78 61 79 63 80
REMARK SMILES IDX 60 81 56 82 57 83 58 84 59 85 38 86 39 87 47 88 40 89 46 90
REMARK SMILES IDX 48 91 45 92 41 93 42 94 43 95 44 96
REMARK H PARENT 5 6 1 13 1 14 1 15 87 22 9 30 68 49 36 60
REMARK Flexibility Score: inf
ROOT
ATOM      1  C   UNL A   1      32.950  28.228  27.261  1.00  0.00     0.042 C 
ENDROOT
BRANCH   1   2
ATOM      2  C   UNL A   1      31.691  27.924  26.469  1.00  0.00     0.118 C 
BRANCH   2   3
ATOM      3  N   UNL A   1      31.178  26.600  26.758  1.00  0.00    -0.351 N 
ATOM      4  C   UNL A   1      31.466  25.367  26.288  1.00  0.00     0.281 C 
ATOM      5  O   UNL A   1      30.701  24.460  26.657  1.00  0.00    -0.268 OA
ATOM      6  H   UNL A   1      30.469  26.599  27.441  1.00  0.00     0.163 HD
BRANCH   4   7
ATOM      7  C   UNL A   1      32.617  25.022  25.307  1.00  0.00     0.175 C 
ATOM      8  C   UNL A   1      34.066  25.082  25.788  1.00  0.00     0.080 C 
ATOM      9  C   UNL A   1      32.440  23.532  24.924  1.00  0.00     0.094 C 
ATOM     10  C   UNL A   1      34.826  24.090  24.930  1.00  0.00     0.022 C 
ATOM     11  C   UNL A   1      33.845  22.941  24.778  1.00  0.00     0.060 C 
BRANCH   7  12
ATOM     12  N   UNL A   1      32.457  25.879  24.105  1.00  0.00    -0.345 N 
ATOM     13  H   UNL A   1      33.185  26.594  24.099  1.00  0.00     0.345 HD
ATOM     14  H   UNL A   1      31.541  26.327  24.126  1.00  0.00     0.345 HD
ATOM     15  H   UNL A   1      32.536  25.306  23.265  1.00  0.00     0.345 HD
ENDBRANCH   7  12
BRANCH  11  16
ATOM     16  S   UNL A   1      34.053  21.522  25.872  1.00  0.00    -0.105 SA
BRANCH  16  17
ATOM     17  C   UNL A   1      32.814  20.341  25.529  1.00  0.00     0.073 A 
ATOM     18  C   UNL A   1      32.223  20.056  24.311  1.00  0.00     0.043 A 
ATOM     19  N   UNL A   1      32.902  19.137  26.187  1.00  0.00    -0.350 N 
ATOM     20  C   UNL A   1      32.698  18.731  24.017  1.00  0.00     0.001 A 
ATOM     21  C   UNL A   1      33.185  18.199  25.212  1.00  0.00     0.046 A 
ATOM     22  H   UNL A   1      32.785  18.976  27.152  1.00  0.00     0.167 HD
ATOM     23  C   UNL A   1      32.923  18.022  22.822  1.00  0.00     0.010 A 
ATOM     24  C   UNL A   1      33.924  17.018  25.287  1.00  0.00     0.027 A 
ATOM     25  C   UNL A   1      33.742  16.884  22.865  1.00  0.00     0.001 A 
ATOM     26  C   UNL A   1      34.243  16.402  24.075  1.00  0.00     0.002 A 
ENDBRANCH  16  17
ENDBRANCH  11  16
ENDBRANCH   4   7
ENDBRANCH   2   3
ENDBRANCH   1   2
BRANCH   1  27
ATOM     27  C   UNL A   1      33.959  29.054  26.482  1.00  0.00     0.118 C 
BRANCH  27  28
ATOM     28  N   UNL A   1      33.827  30.482  26.752  1.00  0.00    -0.352 N 
ATOM     29  C   UNL A   1      34.506  31.279  27.639  1.00  0.00     0.251 C 
ATOM     30  H   UNL A   1      33.146  30.946  26.214  1.00  0.00     0.163 HD
ATOM     31  O   UNL A   1      34.067  32.403  27.898  1.00  0.00    -0.269 OA
BRANCH  29  32
ATOM     32  C   UNL A   1      35.735  30.787  28.291  1.00  0.00     0.039 A 
ATOM     33  C   UNL A   1      35.637  29.845  29.317  1.00  0.00     0.014 A 
ATOM     34  C   UNL A   1      36.988  31.256  27.891  1.00  0.00     0.014 A 
ATOM     35  C   UNL A   1      36.800  29.318  29.883  1.00  0.00     0.010 A 
ATOM     36  C   UNL A   1      38.140  30.646  28.370  1.00  0.00     0.010 A 
ATOM     37  C   UNL A   1      38.062  29.678  29.380  1.00  0.00    -0.014 A 
BRANCH  37  38
ATOM     38  C   UNL A   1      39.312  29.070  29.902  1.00  0.00     0.031 A 
ATOM     39  C   UNL A   1      39.995  29.672  31.101  1.00  0.00     0.074 A 
ATOM     40  C   UNL A   1      39.866  28.025  29.255  1.00  0.00     0.049 A 
ATOM     41  N   UNL A   1      41.136  29.349  31.653  1.00  0.00    -0.248 NA
ATOM     42  C   UNL A   1      39.322  30.813  31.742  1.00  0.00     0.031 C 
ATOM     43  C   UNL A   1      39.319  27.387  28.055  1.00  0.00     0.029 A 
ATOM     44  N   UNL A   1      41.014  27.319  29.509  1.00  0.00    -0.354 N 
ATOM     45  C   UNL A   1      41.324  30.253  32.693  1.00  0.00     0.074 A 
ATOM     46  C   UNL A   1      40.217  31.183  32.645  1.00  0.00     0.031 C 
ATOM     47  C   UNL A   1      40.112  26.363  27.701  1.00  0.00     0.029 A 
ATOM     48  C   UNL A   1      41.253  26.306  28.608  1.00  0.00     0.049 A 
ATOM     49  H   UNL A   1      41.613  27.517  30.265  1.00  0.00     0.167 HD
ATOM     50  C   UNL A   1      42.313  30.288  33.620  1.00  0.00     0.034 A 
ATOM     51  C   UNL A   1      42.280  25.439  28.515  1.00  0.00     0.034 A 
ATOM     52  C   UNL A   1      43.403  29.343  33.657  1.00  0.00     0.049 A 
ATOM     53  C   UNL A   1      43.386  25.517  29.538  1.00  0.00     0.074 A 
ATOM     54  C   UNL A   1      44.429  29.248  34.579  1.00  0.00     0.029 A 
ATOM     55  N   UNL A   1      43.611  28.333  32.726  1.00  0.00    -0.354 N 
ATOM     56  N   UNL A   1      43.521  26.346  30.547  1.00  0.00    -0.248 NA
ATOM     57  C   UNL A   1      44.471  24.536  29.414  1.00  0.00     0.031 C 
ATOM     58  C   UNL A   1      45.299  28.236  34.165  1.00  0.00     0.029 A 
ATOM     59  C   UNL A   1      44.770  27.635  33.033  1.00  0.00     0.049 A 
ATOM     60  H   UNL A   1      43.024  28.141  31.960  1.00  0.00     0.167 HD
ATOM     61  C   UNL A   1      44.691  25.962  31.198  1.00  0.00     0.074 A 
ATOM     62  C   UNL A   1      45.210  24.818  30.477  1.00  0.00     0.031 C 
ATOM     63  C   UNL A   1      45.280  26.501  32.296  1.00  0.00     0.034 A 
BRANCH  50  64
ATOM     64  C   UNL A   1      42.268  31.396  34.646  1.00  0.00     0.023 A 
ATOM     65  C   UNL A   1      41.297  31.425  35.662  1.00  0.00     0.031 A 
ATOM     66  C   UNL A   1      43.194  32.453  34.595  1.00  0.00     0.131 A 
ATOM     67  C   UNL A   1      41.221  32.523  36.531  1.00  0.00     0.055 A 
ATOM     68  C   UNL A   1      43.170  33.500  35.520  1.00  0.00     0.041 A 
ATOM     69  F   UNL A   1      44.132  32.497  33.635  1.00  0.00    -0.206 F 
ATOM     70  C   UNL A   1      42.169  33.548  36.486  1.00  0.00     0.022 A 
BRANCH  67  71
ATOM     71  S   UNL A   1      39.778  32.669  37.620  1.00  0.00     0.124 S 
ATOM     72  O   UNL A   1      38.974  31.525  37.196  1.00  0.00    -0.237 OA
ATOM     73  O   UNL A   1      40.374  32.573  38.947  1.00  0.00    -0.237 OA
ATOM     74  O   UNL A   1      39.220  33.974  37.276  1.00  0.00    -0.744 OA
ENDBRANCH  67  71
ENDBRANCH  50  64
BRANCH  51  75
ATOM     75  C   UNL A   1      42.324  24.430  27.416  1.00  0.00     0.023 A 
ATOM     76  C   UNL A   1      41.670  23.194  27.542  1.00  0.00     0.031 A 
ATOM     77  C   UNL A   1      43.058  24.669  26.240  1.00  0.00     0.131 A 
ATOM     78  C   UNL A   1      41.804  22.224  26.537  1.00  0.00     0.055 A 
ATOM     79  C   UNL A   1      43.138  23.724  25.215  1.00  0.00     0.041 A 
ATOM     80  F   UNL A   1      43.701  25.834  26.065  1.00  0.00    -0.206 F 
ATOM     81  C   UNL A   1      42.522  22.486  25.368  1.00  0.00     0.022 A 
BRANCH  78  82
ATOM     82  S   UNL A   1      41.107  20.575  26.824  1.00  0.00     0.124 S 
ATOM     83  O   UNL A   1      39.914  20.607  25.985  1.00  0.00    -0.237 OA
ATOM     84  O   UNL A   1      42.189  19.707  26.370  1.00  0.00    -0.237 OA
ATOM     85  O   UNL A   1      40.858  20.557  28.264  1.00  0.00    -0.744 OA
ENDBRANCH  78  82
ENDBRANCH  51  75
BRANCH  63  86
ATOM     86  C   UNL A   1      46.530  25.825  32.807  1.00  0.00     0.023 A 
ATOM     87  C   UNL A   1      47.797  26.096  32.264  1.00  0.00     0.031 A 
ATOM     88  C   UNL A   1      46.446  24.886  33.852  1.00  0.00     0.131 A 
ATOM     89  C   UNL A   1      48.919  25.391  32.723  1.00  0.00     0.055 A 
ATOM     90  C   UNL A   1      47.576  24.239  34.352  1.00  0.00     0.041 A 
ATOM     91  F   UNL A   1      45.261  24.583  34.406  1.00  0.00    -0.206 F 
ATOM     92  C   UNL A   1      48.821  24.480  33.777  1.00  0.00     0.022 A 
BRANCH  89  93
ATOM     93  S   UNL A   1      50.497  25.606  31.854  1.00  0.00     0.124 S 
ATOM     94  O   UNL A   1      50.538  24.421  31.003  1.00  0.00    -0.237 OA
ATOM     95  O   UNL A   1      50.305  26.879  31.167  1.00  0.00    -0.237 OA
ATOM     96  O   UNL A   1      51.483  25.628  32.933  1.00  0.00    -0.744 OA
ENDBRANCH  89  93
ENDBRANCH  63  86
ENDBRANCH  37  38
ENDBRANCH  29  32
ENDBRANCH  27  28
ENDBRANCH   1  27
TORSDOF 16
ENDMDL
MODEL 2
REMARK VINA RESULT:     -12.2      1.985      2.466
REMARK SMILES [NH3+][C@]1(C(=O)NCCCNC(=O)c2ccc(-c3c4nc(c(-c5cc(S(=O)(=O)[O-])ccc5F)c5ccc([nH]5)c(-c5cc(S(=O)(=O)[O-])ccc5F)c5nc(c(-c6cc(S(=O)(=O)[O-])ccc6F)c6ccc3[nH]6)C=C5)C=C4)cc2)CC[C@@H](Sc2cc3ccccc3[nH]2)C1
REMARK SMILES IDX 7 1 6 2 5 3 3 4 4 5 2 7 75 8 88 9 76 10 77 11 1 12 78 16
REMARK SMILES IDX 79 17 80 18 87 19 81 20 86 21 82 23 85 24 83 25 84 26 8 27
REMARK SMILES IDX 9 28 10 29 11 31 12 32 13 33 74 34 14 35 73 36 15 37 16 38
REMARK SMILES IDX 17 39 67 40 18 41 72 42 66 43 68 44 19 45 71 46 65 47 64 48
REMARK SMILES IDX 20 50 52 51 32 52 51 53 33 54 36 55 50 56 69 57 34 58 35 59
REMARK SMILES IDX 49 61 70 62 37 63 21 64 22 65 30 66 23 67 29 68 31 69 28 70
REMARK SMILES IDX 24 71 25 72 26 73 27 74 53 75 54 76 62 77 55 78 61 79 63 80
REMARK SMILES IDX 60 81 56 82 57 83 58 84 59 85 38 86 39 87 47 88 40 89 46 90
REMARK SMILES IDX 48 91 45 92 41 93 42 94 43 95 44 96
REMARK H PARENT 5 6 1 13 1 14 1 15 87 22 9 30 68 49 36 60
REMARK Flexibility Score: inf
ROOT
ATOM      1  C   UNL A   1      31.864  28.634  26.040  1.00  0.00     0.042 C 
ENDROOT
BRANCH   1   2
ATOM      2  C   UNL A   1      32.147  27.577  27.092  1.00  0.00     0.118 C 
BRANCH   2   3
ATOM      3  N   UNL A   1      31.339  26.390  26.895  1.00  0.00    -0.351 N 
ATOM      4  C   UNL A   1      31.457  25.304  26.101  1.00  0.00     0.281 C 
ATOM      5  O   UNL A   1      30.475  24.544  26.081  1.00  0.00    -0.268 OA
ATOM      6  H   UNL A   1      30.533  26.371  27.460  1.00  0.00     0.163 HD
BRANCH   4   7
ATOM      7  C   UNL A   1      32.675  24.976  25.196  1.00  0.00     0.175 C 
ATOM      8  C   UNL A   1      34.085  25.015  25.781  1.00  0.00     0.080 C 
ATOM      9  C   UNL A   1      32.518  23.498  24.763  1.00  0.00     0.094 C 
ATOM     10  C   UNL A   1      34.900  24.039  24.955  1.00  0.00     0.022 C 
ATOM     11  C   UNL A   1      33.927  22.901  24.703  1.00  0.00     0.060 C 
BRANCH   7  12
ATOM     12  N   UNL A   1      32.605  25.864  24.008  1.00  0.00    -0.345 N 
ATOM     13  H   UNL A   1      33.007  26.773  24.241  1.00  0.00     0.345 HD
ATOM     14  H   UNL A   1      31.632  25.985  23.730  1.00  0.00     0.345 HD
ATOM     15  H   UNL A   1      33.130  25.447  23.240  1.00  0.00     0.345 HD
ENDBRANCH   7  12
BRANCH  11  16
ATOM     16  S   UNL A   1      34.049  21.453  25.772  1.00  0.00    -0.105 SA
BRANCH  16  17
ATOM     17  C   UNL A   1      32.812  20.304  25.332  1.00  0.00     0.073 A 
ATOM     18  C   UNL A   1      32.410  19.930  24.061  1.00  0.00     0.043 A 
ATOM     19  N   UNL A   1      32.718  19.166  26.098  1.00  0.00    -0.350 N 
ATOM     20  C   UNL A   1      32.845  18.562  23.968  1.00  0.00     0.001 A 
ATOM     21  C   UNL A   1      33.098  18.126  25.271  1.00  0.00     0.046 A 
ATOM     22  H   UNL A   1      32.436  19.104  27.040  1.00  0.00     0.167 HD
ATOM     23  C   UNL A   1      33.216  17.731  22.895  1.00  0.00     0.010 A 
ATOM     24  C   UNL A   1      33.741  16.925  25.571  1.00  0.00     0.027 A 
ATOM     25  C   UNL A   1      33.947  16.567  23.174  1.00  0.00     0.001 A 
ATOM     26  C   UNL A   1      34.213  16.181  24.488  1.00  0.00     0.002 A 
ENDBRANCH  16  17
ENDBRANCH  11  16
ENDBRANCH   4   7
ENDBRANCH   2   3
ENDBRANCH   1   2
BRANCH   1  27
ATOM     27  C   UNL A   1      33.046  29.554  25.788  1.00  0.00     0.118 C 
BRANCH  27  28
ATOM     28  N   UNL A   1      32.812  30.903  26.291  1.00  0.00    -0.352 N 
ATOM     29  C   UNL A   1      33.461  31.601  27.279  1.00  0.00     0.251 C 
ATOM     30  H   UNL A   1      32.076  31.388  25.855  1.00  0.00     0.163 HD
ATOM     31  O   UNL A   1      32.944  32.626  27.731  1.00  0.00    -0.269 OA
BRANCH  29  32
ATOM     32  C   UNL A   1      34.750  31.116  27.810  1.00  0.00     0.039 A 
ATOM     33  C   UNL A   1      35.827  31.999  27.910  1.00  0.00     0.014 A 
ATOM     34  C   UNL A   1      34.898  29.786  28.209  1.00  0.00     0.014 A 
ATOM     35  C   UNL A   1      37.023  31.565  28.484  1.00  0.00     0.010 A 
ATOM     36  C   UNL A   1      36.044  29.390  28.885  1.00  0.00     0.010 A 
ATOM     37  C   UNL A   1      37.125  30.270  29.021  1.00  0.00    -0.014 A 
BRANCH  37  38
ATOM     38  C   UNL A   1      38.355  29.809  29.715  1.00  0.00     0.031 A 
ATOM     39  C   UNL A   1      38.704  30.365  31.070  1.00  0.00     0.074 A 
ATOM     40  C   UNL A   1      39.188  28.950  29.096  1.00  0.00     0.049 A 
ATOM     41  N   UNL A   1      39.772  30.164  31.798  1.00  0.00    -0.248 NA
ATOM     42  C   UNL A   1      37.740  31.302  31.669  1.00  0.00     0.031 C 
ATOM     43  C   UNL A   1      38.978  28.380  27.763  1.00  0.00     0.029 A 
ATOM     44  N   UNL A   1      40.382  28.409  29.500  1.00  0.00    -0.354 N 
ATOM     45  C   UNL A   1      39.615  30.956  32.930  1.00  0.00     0.074 A 
ATOM     46  C   UNL A   1      38.386  31.698  32.755  1.00  0.00     0.031 C 
ATOM     47  C   UNL A   1      39.987  27.544  27.477  1.00  0.00     0.029 A 
ATOM     48  C   UNL A   1      40.948  27.560  28.575  1.00  0.00     0.049 A 
ATOM     49  H   UNL A   1      40.797  28.608  30.370  1.00  0.00     0.167 HD
ATOM     50  C   UNL A   1      40.409  31.038  34.027  1.00  0.00     0.034 A 
ATOM     51  C   UNL A   1      42.112  26.883  28.603  1.00  0.00     0.034 A 
ATOM     52  C   UNL A   1      41.625  30.279  34.187  1.00  0.00     0.049 A 
ATOM     53  C   UNL A   1      42.995  27.014  29.820  1.00  0.00     0.074 A 
ATOM     54  C   UNL A   1      42.478  30.239  35.275  1.00  0.00     0.029 A 
ATOM     55  N   UNL A   1      42.166  29.432  33.227  1.00  0.00    -0.354 N 
ATOM     56  N   UNL A   1      42.805  27.728  30.905  1.00  0.00    -0.248 NA
ATOM     57  C   UNL A   1      44.241  26.238  29.818  1.00  0.00     0.031 C 
ATOM     58  C   UNL A   1      43.572  29.433  34.945  1.00  0.00     0.029 A 
ATOM     59  C   UNL A   1      43.360  28.895  33.686  1.00  0.00     0.049 A 
ATOM     60  H   UNL A   1      41.763  29.242  32.350  1.00  0.00     0.167 HD
ATOM     61  C   UNL A   1      43.895  27.460  31.730  1.00  0.00     0.074 A 
ATOM     62  C   UNL A   1      44.724  26.506  31.022  1.00  0.00     0.031 C 
ATOM     63  C   UNL A   1      44.182  27.951  32.963  1.00  0.00     0.034 A 
BRANCH  50  64
ATOM     64  C   UNL A   1      39.992  31.995  35.119  1.00  0.00     0.023 A 
ATOM     65  C   UNL A   1      39.213  31.577  36.212  1.00  0.00     0.031 A 
ATOM     66  C   UNL A   1      40.358  33.351  35.056  1.00  0.00     0.131 A 
ATOM     67  C   UNL A   1      38.757  32.515  37.150  1.00  0.00     0.055 A 
ATOM     68  C   UNL A   1      39.977  34.264  36.042  1.00  0.00     0.041 A 
ATOM     69  F   UNL A   1      41.082  33.818  34.026  1.00  0.00    -0.206 F 
ATOM     70  C   UNL A   1      39.158  33.852  37.088  1.00  0.00     0.022 A 
BRANCH  67  71
ATOM     71  S   UNL A   1      37.512  31.995  38.362  1.00  0.00     0.124 S 
ATOM     72  O   UNL A   1      38.228  32.187  39.621  1.00  0.00    -0.237 OA
ATOM     73  O   UNL A   1      36.415  32.920  38.103  1.00  0.00    -0.237 OA
ATOM     74  O   UNL A   1      37.252  30.601  38.009  1.00  0.00    -0.744 OA
ENDBRANCH  67  71
ENDBRANCH  50  64
BRANCH  51  75
ATOM     75  C   UNL A   1      42.523  26.032  27.448  1.00  0.00     0.023 A 
ATOM     76  C   UNL A   1      42.224  24.661  27.419  1.00  0.00     0.031 A 
ATOM     77  C   UNL A   1      43.259  26.567  26.376  1.00  0.00     0.131 A 
ATOM     78  C   UNL A   1      42.702  23.861  26.370  1.00  0.00     0.055 A 
ATOM     79  C   UNL A   1      43.680  25.780  25.303  1.00  0.00     0.041 A 
ATOM     80  F   UNL A   1      43.571  27.873  26.350  1.00  0.00    -0.206 F 
ATOM     81  C   UNL A   1      43.416  24.414  25.304  1.00  0.00     0.022 A 
BRANCH  78  82
ATOM     82  S   UNL A   1      42.462  22.066  26.467  1.00  0.00     0.124 S 
ATOM     83  O   UNL A   1      43.605  21.573  25.706  1.00  0.00    -0.237 OA
ATOM     84  O   UNL A   1      42.500  21.834  27.907  1.00  0.00    -0.237 OA
ATOM     85  O   UNL A   1      41.158  21.863  25.839  1.00  0.00    -0.744 OA
ENDBRANCH  78  82
ENDBRANCH  51  75
BRANCH  63  86
ATOM     86  C   UNL A   1      45.424  27.425  33.640  1.00  0.00     0.023 A 
ATOM     87  C   UNL A   1      45.407  26.255  34.419  1.00  0.00     0.031 A 
ATOM     88  C   UNL A   1      46.644  28.114  33.509  1.00  0.00     0.131 A 
ATOM     89  C   UNL A   1      46.569  25.843  35.086  1.00  0.00     0.055 A 
ATOM     90  C   UNL A   1      47.814  27.660  34.120  1.00  0.00     0.041 A 
ATOM     91  F   UNL A   1      46.720  29.239  32.782  1.00  0.00    -0.206 F 
ATOM     92  C   UNL A   1      47.777  26.526  34.926  1.00  0.00     0.022 A 
BRANCH  89  93
ATOM     93  S   UNL A   1      46.458  24.458  36.252  1.00  0.00     0.124 S 
ATOM     94  O   UNL A   1      47.835  23.974  36.281  1.00  0.00    -0.237 OA
ATOM     95  O   UNL A   1      45.986  25.111  37.469  1.00  0.00    -0.237 OA
ATOM     96  O   UNL A   1      45.497  23.555  35.622  1.00  0.00    -0.744 OA
ENDBRANCH  89  93
ENDBRANCH  63  86
ENDBRANCH  37  38
ENDBRANCH  29  32
ENDBRANCH  27  28
ENDBRANCH   1  27
TORSDOF 16
ENDMDL
MODEL 3
REMARK VINA RESULT:     -12.1      2.080      2.752
REMARK SMILES [NH3+][C@]1(C(=O)NCCCNC(=O)c2ccc(-c3c4nc(c(-c5cc(S(=O)(=O)[O-])ccc5F)c5ccc([nH]5)c(-c5cc(S(=O)(=O)[O-])ccc5F)c5nc(c(-c6cc(S(=O)(=O)[O-])ccc6F)c6ccc3[nH]6)C=C5)C=C4)cc2)CC[C@@H](Sc2cc3ccccc3[nH]2)C1
REMARK SMILES IDX 7 1 6 2 5 3 3 4 4 5 2 7 75 8 88 9 76 10 77 11 1 12 78 16
REMARK SMILES IDX 79 17 80 18 87 19 81 20 86 21 82 23 85 24 83 25 84 26 8 27
REMARK SMILES IDX 9 28 10 29 11 31 12 32 13 33 74 34 14 35 73 36 15 37 16 38
REMARK SMILES IDX 17 39 67 40 18 41 72 42 66 43 68 44 19 45 71 46 65 47 64 48
REMARK SMILES IDX 20 50 52 51 32 52 51 53 33 54 36 55 50 56 69 57 34 58 35 59
REMARK SMILES IDX 49 61 70 62 37 63 21 64 22 65 30 66 23 67 29 68 31 69 28 70
REMARK SMILES IDX 24 71 25 72 26 73 27 74 53 75 54 76 62 77 55 78 61 79 63 80
REMARK SMILES IDX 60 81 56 82 57 83 58 84 59 85 38 86 39 87 47 88 40 89 46 90
REMARK SMILES IDX 48 91 45 92 41 93 42 94 43 95 44 96
REMARK H PARENT 5 6 1 13 1 14 1 15 87 22 9 30 68 49 36 60
REMARK Flexibility Score: inf
ROOT
ATOM      1  C   UNL A   1      33.066  27.880  26.872  1.00  0.00     0.042 C 
ENDROOT
BRANCH   1   2
ATOM      2  C   UNL A   1      31.979  27.411  25.922  1.00  0.00     0.118 C 
BRANCH   2   3
ATOM      3  N   UNL A   1      31.188  28.516  25.419  1.00  0.00    -0.351 N 
ATOM      4  C   UNL A   1      31.071  29.102  24.208  1.00  0.00     0.281 C 
ATOM      5  O   UNL A   1      30.400  30.146  24.180  1.00  0.00    -0.268 OA
ATOM      6  H   UNL A   1      30.613  28.926  26.105  1.00  0.00     0.163 HD
BRANCH   4   7
ATOM      7  C   UNL A   1      31.741  28.608  22.898  1.00  0.00     0.175 C 
ATOM      8  C   UNL A   1      33.218  28.220  22.902  1.00  0.00     0.080 C 
ATOM      9  C   UNL A   1      31.035  27.285  22.512  1.00  0.00     0.094 C 
ATOM     10  C   UNL A   1      33.377  27.193  21.799  1.00  0.00     0.022 C 
ATOM     11  C   UNL A   1      32.104  26.373  21.902  1.00  0.00     0.060 C 
BRANCH   7  12
ATOM     12  N   UNL A   1      31.500  29.636  21.854  1.00  0.00    -0.345 N 
ATOM     13  H   UNL A   1      32.293  30.278  21.821  1.00  0.00     0.345 HD
ATOM     14  H   UNL A   1      30.652  30.156  22.077  1.00  0.00     0.345 HD
ATOM     15  H   UNL A   1      31.393  29.181  20.947  1.00  0.00     0.345 HD
ENDBRANCH   7  12
BRANCH  11  16
ATOM     16  S   UNL A   1      32.193  24.811  22.800  1.00  0.00    -0.105 SA
BRANCH  16  17
ATOM     17  C   UNL A   1      33.825  24.560  23.363  1.00  0.00     0.073 A 
ATOM     18  C   UNL A   1      34.386  24.973  24.559  1.00  0.00     0.043 A 
ATOM     19  N   UNL A   1      34.398  23.341  23.088  1.00  0.00    -0.350 N 
ATOM     20  C   UNL A   1      34.613  23.738  25.259  1.00  0.00     0.001 A 
ATOM     21  C   UNL A   1      34.547  22.714  24.312  1.00  0.00     0.046 A 
ATOM     22  H   UNL A   1      34.652  22.988  22.204  1.00  0.00     0.167 HD
ATOM     23  C   UNL A   1      34.683  23.391  26.622  1.00  0.00     0.010 A 
ATOM     24  C   UNL A   1      34.503  21.359  24.641  1.00  0.00     0.027 A 
ATOM     25  C   UNL A   1      34.545  22.041  26.975  1.00  0.00     0.001 A 
ATOM     26  C   UNL A   1      34.444  21.047  26.000  1.00  0.00     0.002 A 
ENDBRANCH  16  17
ENDBRANCH  11  16
ENDBRANCH   4   7
ENDBRANCH   2   3
ENDBRANCH   1   2
BRANCH   1  27
ATOM     27  C   UNL A   1      34.036  28.858  26.231  1.00  0.00     0.118 C 
BRANCH  27  28
ATOM     28  N   UNL A   1      33.770  30.237  26.626  1.00  0.00    -0.352 N 
ATOM     29  C   UNL A   1      34.365  31.008  27.592  1.00  0.00     0.251 C 
ATOM     30  H   UNL A   1      33.054  30.684  26.121  1.00  0.00     0.163 HD
ATOM     31  O   UNL A   1      33.822  32.059  27.945  1.00  0.00    -0.269 OA
BRANCH  29  32
ATOM     32  C   UNL A   1      35.629  30.573  28.218  1.00  0.00     0.039 A 
ATOM     33  C   UNL A   1      35.588  29.798  29.379  1.00  0.00     0.014 A 
ATOM     34  C   UNL A   1      36.858  30.930  27.660  1.00  0.00     0.014 A 
ATOM     35  C   UNL A   1      36.778  29.318  29.929  1.00  0.00     0.010 A 
ATOM     36  C   UNL A   1      38.028  30.357  28.138  1.00  0.00     0.010 A 
ATOM     37  C   UNL A   1      38.005  29.553  29.286  1.00  0.00    -0.014 A 
BRANCH  37  38
ATOM     38  C   UNL A   1      39.276  28.982  29.799  1.00  0.00     0.031 A 
ATOM     39  C   UNL A   1      39.953  29.610  30.988  1.00  0.00     0.074 A 
ATOM     40  C   UNL A   1      39.854  27.950  29.153  1.00  0.00     0.049 A 
ATOM     41  N   UNL A   1      41.109  29.322  31.531  1.00  0.00    -0.248 NA
ATOM     42  C   UNL A   1      39.256  30.737  31.629  1.00  0.00     0.031 C 
ATOM     43  C   UNL A   1      39.314  27.290  27.962  1.00  0.00     0.029 A 
ATOM     44  N   UNL A   1      41.023  27.277  29.400  1.00  0.00    -0.354 N 
ATOM     45  C   UNL A   1      41.281  30.238  32.564  1.00  0.00     0.074 A 
ATOM     46  C   UNL A   1      40.148  31.136  32.521  1.00  0.00     0.031 C 
ATOM     47  C   UNL A   1      40.131  26.286  27.606  1.00  0.00     0.029 A 
ATOM     48  C   UNL A   1      41.281  26.266  28.502  1.00  0.00     0.049 A 
ATOM     49  H   UNL A   1      41.623  27.496  30.149  1.00  0.00     0.167 HD
ATOM     50  C   UNL A   1      42.278  30.306  33.481  1.00  0.00     0.034 A 
ATOM     51  C   UNL A   1      42.331  25.427  28.405  1.00  0.00     0.034 A 
ATOM     52  C   UNL A   1      43.393  29.392  33.513  1.00  0.00     0.049 A 
ATOM     53  C   UNL A   1      43.445  25.542  29.416  1.00  0.00     0.074 A 
ATOM     54  C   UNL A   1      44.431  29.331  34.426  1.00  0.00     0.029 A 
ATOM     55  N   UNL A   1      43.621  28.382  32.585  1.00  0.00    -0.354 N 
ATOM     56  N   UNL A   1      43.566  26.381  30.419  1.00  0.00    -0.248 NA
ATOM     57  C   UNL A   1      44.555  24.591  29.287  1.00  0.00     0.031 C 
ATOM     58  C   UNL A   1      45.325  28.341  34.008  1.00  0.00     0.029 A 
ATOM     59  C   UNL A   1      44.802  27.719  32.885  1.00  0.00     0.049 A 
ATOM     60  H   UNL A   1      43.032  28.169  31.826  1.00  0.00     0.167 HD
ATOM     61  C   UNL A   1      44.752  26.034  31.061  1.00  0.00     0.074 A 
ATOM     62  C   UNL A   1      45.296  24.900  30.341  1.00  0.00     0.031 C 
ATOM     63  C   UNL A   1      45.337  26.596  32.150  1.00  0.00     0.034 A 
BRANCH  50  64
ATOM     64  C   UNL A   1      42.212  31.418  34.501  1.00  0.00     0.023 A 
ATOM     65  C   UNL A   1      41.254  31.423  35.530  1.00  0.00     0.031 A 
ATOM     66  C   UNL A   1      43.103  32.504  34.431  1.00  0.00     0.131 A 
ATOM     67  C   UNL A   1      41.155  32.524  36.394  1.00  0.00     0.055 A 
ATOM     68  C   UNL A   1      43.058  33.555  35.350  1.00  0.00     0.041 A 
ATOM     69  F   UNL A   1      44.026  32.571  33.458  1.00  0.00    -0.206 F 
ATOM     70  C   UNL A   1      42.070  33.578  36.329  1.00  0.00     0.022 A 
BRANCH  67  71
ATOM     71  S   UNL A   1      39.722  32.630  37.501  1.00  0.00     0.124 S 
ATOM     72  O   UNL A   1      38.928  31.484  37.065  1.00  0.00    -0.237 OA
ATOM     73  O   UNL A   1      40.335  32.519  38.820  1.00  0.00    -0.237 OA
ATOM     74  O   UNL A   1      39.144  33.935  37.188  1.00  0.00    -0.744 OA
ENDBRANCH  67  71
ENDBRANCH  50  64
BRANCH  51  75
ATOM     75  C   UNL A   1      42.394  24.413  27.311  1.00  0.00     0.023 A 
ATOM     76  C   UNL A   1      41.608  23.251  27.357  1.00  0.00     0.031 A 
ATOM     77  C   UNL A   1      43.272  24.571  26.223  1.00  0.00     0.131 A 
ATOM     78  C   UNL A   1      41.752  22.267  26.367  1.00  0.00     0.055 A 
ATOM     79  C   UNL A   1      43.368  23.618  25.208  1.00  0.00     0.041 A 
ATOM     80  F   UNL A   1      44.045  25.664  26.126  1.00  0.00    -0.206 F 
ATOM     81  C   UNL A   1      42.616  22.450  25.285  1.00  0.00     0.022 A 
BRANCH  78  82
ATOM     82  S   UNL A   1      40.865  20.698  26.566  1.00  0.00     0.124 S 
ATOM     83  O   UNL A   1      39.546  21.035  26.042  1.00  0.00    -0.237 OA
ATOM     84  O   UNL A   1      41.668  19.792  25.751  1.00  0.00    -0.237 OA
ATOM     85  O   UNL A   1      40.923  20.455  28.007  1.00  0.00    -0.744 OA
ENDBRANCH  78  82
ENDBRANCH  51  75
BRANCH  63  86
ATOM     86  C   UNL A   1      46.609  25.957  32.653  1.00  0.00     0.023 A 
ATOM     87  C   UNL A   1      46.594  24.900  33.580  1.00  0.00     0.031 A 
ATOM     88  C   UNL A   1      47.858  26.422  32.202  1.00  0.00     0.131 A 
ATOM     89  C   UNL A   1      47.802  24.385  34.072  1.00  0.00     0.055 A 
ATOM     90  C   UNL A   1      49.056  25.859  32.643  1.00  0.00     0.041 A 
ATOM     91  F   UNL A   1      47.934  27.432  31.321  1.00  0.00    -0.206 F 
ATOM     92  C   UNL A   1      49.033  24.844  33.595  1.00  0.00     0.022 A 
BRANCH  89  93
ATOM     93  S   UNL A   1      47.747  23.177  35.423  1.00  0.00     0.124 S 
ATOM     94  O   UNL A   1      47.749  21.911  34.698  1.00  0.00    -0.237 OA
ATOM     95  O   UNL A   1      48.962  23.487  36.170  1.00  0.00    -0.237 OA
ATOM     96  O   UNL A   1      46.498  23.494  36.115  1.00  0.00    -0.744 OA
ENDBRANCH  89  93
ENDBRANCH  63  86
ENDBRANCH  37  38
ENDBRANCH  29  32
ENDBRANCH  27  28
ENDBRANCH   1  27
TORSDOF 16
ENDMDL
