MODEL 1
REMARK VINA RESULT:     -11.5      0.000      0.000
REMARK SMILES CC(C)[NH2+][C@@]1(C(=O)NCCCNC(=O)c2ccc(-c3c4nc(c(-c5cc(S(=O)(=O)[O-])ccc5F)c5ccc([nH]5)c(-c5cc(S(=O)(=O)[O-])ccc5F)c5nc(c(-c6cc(S(=O)(=O)[O-])ccc6F)c6ccc3[nH]6)C=C5)C=C4)cc2)CC[C@H](Oc2ccccc2F)C1
REMARK SMILES IDX 10 1 9 2 8 3 6 4 7 5 5 7 78 8 89 9 79 10 80 11 4 12 2 15
REMARK SMILES IDX 1 16 3 17 81 18 82 19 83 20 87 21 84 22 86 23 88 24 85 25
REMARK SMILES IDX 11 26 12 27 13 28 14 30 15 31 16 32 77 33 17 34 76 35 18 36
REMARK SMILES IDX 19 37 20 38 70 39 21 40 75 41 69 42 71 43 22 44 74 45 68 46
REMARK SMILES IDX 67 47 23 49 55 50 35 51 54 52 36 53 39 54 53 55 72 56 37 57
REMARK SMILES IDX 38 58 52 60 73 61 40 62 24 63 25 64 33 65 26 66 32 67 34 68
REMARK SMILES IDX 31 69 27 70 28 71 29 72 30 73 56 74 57 75 65 76 58 77 64 78
REMARK SMILES IDX 66 79 63 80 59 81 60 82 61 83 62 84 41 85 42 86 50 87 43 88
REMARK SMILES IDX 49 89 51 90 48 91 44 92 45 93 46 94 47 95
REMARK H PARENT 8 6 4 13 4 14 12 29 71 48 39 59
REMARK Flexibility Score: inf
ROOT
ATOM      1  C   UNL A   1      33.730  28.789  24.913  1.00  0.00     0.042 C 
ENDROOT
BRANCH   1   2
ATOM      2  C   UNL A   1      33.279  28.953  23.471  1.00  0.00     0.118 C 
BRANCH   2   3
ATOM      3  N   UNL A   1      33.708  27.858  22.634  1.00  0.00    -0.351 N 
ATOM      4  C   UNL A   1      33.252  26.599  22.412  1.00  0.00     0.281 C 
ATOM      5  O   UNL A   1      33.968  25.958  21.626  1.00  0.00    -0.268 OA
ATOM      6  H   UNL A   1      34.511  28.070  22.106  1.00  0.00     0.163 HD
BRANCH   4   7
ATOM      7  C   UNL A   1      31.976  25.932  23.091  1.00  0.00     0.179 C 
ATOM      8  C   UNL A   1      31.954  25.764  24.610  1.00  0.00     0.083 C 
ATOM      9  C   UNL A   1      31.798  24.499  22.535  1.00  0.00     0.124 C 
ATOM     10  C   UNL A   1      32.222  24.307  24.939  1.00  0.00     0.052 C 
ATOM     11  C   UNL A   1      31.941  23.484  23.689  1.00  0.00     0.180 C 
BRANCH   7  12
ATOM     12  N   UNL A   1      30.778  26.741  22.692  1.00  0.00    -0.332 N 
ATOM     13  H   UNL A   1      31.107  27.516  22.117  1.00  0.00     0.347 HD
ATOM     14  H   UNL A   1      30.161  26.082  22.217  1.00  0.00     0.347 HD
BRANCH  12  15
ATOM     15  C   UNL A   1      29.964  27.310  23.779  1.00  0.00     0.176 C 
ATOM     16  C   UNL A   1      29.807  28.807  23.501  1.00  0.00     0.075 C 
ATOM     17  C   UNL A   1      28.571  26.678  23.876  1.00  0.00     0.075 C 
ENDBRANCH  12  15
ENDBRANCH   7  12
BRANCH  11  18
ATOM     18  O   UNL A   1      32.926  22.537  23.275  1.00  0.00    -0.487 OA
BRANCH  18  19
ATOM     19  C   UNL A   1      34.211  22.490  23.720  1.00  0.00     0.155 A 
ATOM     20  C   UNL A   1      35.275  23.285  23.305  1.00  0.00     0.049 A 
ATOM     21  C   UNL A   1      34.475  21.451  24.626  1.00  0.00     0.165 A 
ATOM     22  C   UNL A   1      36.587  22.953  23.672  1.00  0.00     0.004 A 
ATOM     23  C   UNL A   1      35.771  21.132  25.016  1.00  0.00     0.043 A 
ATOM     24  F   UNL A   1      33.468  20.681  25.067  1.00  0.00    -0.203 F 
ATOM     25  C   UNL A   1      36.838  21.866  24.511  1.00  0.00     0.003 A 
ENDBRANCH  18  19
ENDBRANCH  11  18
ENDBRANCH   4   7
ENDBRANCH   2   3
ENDBRANCH   1   2
BRANCH   1  26
ATOM     26  C   UNL A   1      32.642  29.103  25.932  1.00  0.00     0.118 C 
BRANCH  26  27
ATOM     27  N   UNL A   1      32.482  30.544  26.103  1.00  0.00    -0.352 N 
ATOM     28  C   UNL A   1      33.066  31.424  26.983  1.00  0.00     0.251 C 
ATOM     29  H   UNL A   1      31.845  30.958  25.476  1.00  0.00     0.163 HD
ATOM     30  O   UNL A   1      32.519  32.513  27.158  1.00  0.00    -0.269 OA
BRANCH  28  31
ATOM     31  C   UNL A   1      34.318  31.104  27.717  1.00  0.00     0.039 A 
ATOM     32  C   UNL A   1      34.483  29.815  28.242  1.00  0.00     0.014 A 
ATOM     33  C   UNL A   1      35.288  32.069  27.982  1.00  0.00     0.014 A 
ATOM     34  C   UNL A   1      35.629  29.491  28.982  1.00  0.00     0.010 A 
ATOM     35  C   UNL A   1      36.475  31.721  28.628  1.00  0.00     0.010 A 
ATOM     36  C   UNL A   1      36.651  30.435  29.158  1.00  0.00    -0.014 A 
BRANCH  36  37
ATOM     37  C   UNL A   1      37.888  30.128  29.932  1.00  0.00     0.031 A 
ATOM     38  C   UNL A   1      38.911  29.173  29.367  1.00  0.00     0.074 A 
ATOM     39  C   UNL A   1      38.057  30.637  31.168  1.00  0.00     0.049 A 
ATOM     40  N   UNL A   1      39.984  28.675  29.928  1.00  0.00    -0.248 NA
ATOM     41  C   UNL A   1      38.671  28.686  28.001  1.00  0.00     0.031 C 
ATOM     42  C   UNL A   1      37.129  31.545  31.843  1.00  0.00     0.029 A 
ATOM     43  N   UNL A   1      39.063  30.453  32.085  1.00  0.00    -0.354 N 
ATOM     44  C   UNL A   1      40.526  27.793  28.997  1.00  0.00     0.074 A 
ATOM     45  C   UNL A   1      39.627  27.780  27.864  1.00  0.00     0.031 C 
ATOM     46  C   UNL A   1      37.616  31.853  33.055  1.00  0.00     0.029 A 
ATOM     47  C   UNL A   1      38.865  31.130  33.266  1.00  0.00     0.049 A 
ATOM     48  H   UNL A   1      39.851  29.888  31.913  1.00  0.00     0.167 HD
ATOM     49  C   UNL A   1      41.679  27.079  29.070  1.00  0.00     0.034 A 
ATOM     50  C   UNL A   1      39.598  31.156  34.398  1.00  0.00     0.034 A 
ATOM     51  C   UNL A   1      42.578  27.124  30.197  1.00  0.00     0.049 A 
ATOM     52  C   UNL A   1      40.865  30.342  34.465  1.00  0.00     0.074 A 
ATOM     53  C   UNL A   1      43.805  26.501  30.348  1.00  0.00     0.029 A 
ATOM     54  N   UNL A   1      42.346  27.829  31.373  1.00  0.00    -0.354 N 
ATOM     55  N   UNL A   1      41.390  29.551  33.557  1.00  0.00    -0.248 NA
ATOM     56  C   UNL A   1      41.643  30.433  35.707  1.00  0.00     0.031 C 
ATOM     57  C   UNL A   1      44.281  26.772  31.636  1.00  0.00     0.029 A 
ATOM     58  C   UNL A   1      43.391  27.628  32.264  1.00  0.00     0.049 A 
ATOM     59  H   UNL A   1      41.556  28.388  31.547  1.00  0.00     0.167 HD
ATOM     60  C   UNL A   1      42.577  29.077  34.108  1.00  0.00     0.074 A 
ATOM     61  C   UNL A   1      42.694  29.680  35.420  1.00  0.00     0.031 C 
ATOM     62  C   UNL A   1      43.491  28.226  33.574  1.00  0.00     0.034 A 
BRANCH  49  63
ATOM     63  C   UNL A   1      42.007  26.171  27.905  1.00  0.00     0.023 A 
ATOM     64  C   UNL A   1      41.566  24.837  27.857  1.00  0.00     0.031 A 
ATOM     65  C   UNL A   1      42.811  26.632  26.846  1.00  0.00     0.131 A 
ATOM     66  C   UNL A   1      42.008  23.986  26.832  1.00  0.00     0.055 A 
ATOM     67  C   UNL A   1      43.171  25.805  25.779  1.00  0.00     0.041 A 
ATOM     68  F   UNL A   1      43.279  27.890  26.840  1.00  0.00    -0.206 F 
ATOM     69  C   UNL A   1      42.787  24.468  25.778  1.00  0.00     0.022 A 
BRANCH  66  70
ATOM     70  S   UNL A   1      41.692  22.207  26.990  1.00  0.00     0.124 S 
ATOM     71  O   UNL A   1      42.653  21.828  28.024  1.00  0.00    -0.237 OA
ATOM     72  O   UNL A   1      40.288  22.169  27.376  1.00  0.00    -0.237 OA
ATOM     73  O   UNL A   1      41.989  21.687  25.655  1.00  0.00    -0.744 OA
ENDBRANCH  66  70
ENDBRANCH  49  63
BRANCH  50  74
ATOM     74  C   UNL A   1      39.158  31.977  35.560  1.00  0.00     0.023 A 
ATOM     75  C   UNL A   1      38.444  31.398  36.621  1.00  0.00     0.031 A 
ATOM     76  C   UNL A   1      39.420  33.358  35.617  1.00  0.00     0.131 A 
ATOM     77  C   UNL A   1      37.981  32.201  37.676  1.00  0.00     0.055 A 
ATOM     78  C   UNL A   1      39.000  34.144  36.692  1.00  0.00     0.041 A 
ATOM     79  F   UNL A   1      40.104  33.960  34.632  1.00  0.00    -0.206 F 
ATOM     80  C   UNL A   1      38.265  33.567  37.724  1.00  0.00     0.022 A 
BRANCH  77  81
ATOM     81  S   UNL A   1      36.941  31.442  38.952  1.00  0.00     0.124 S 
ATOM     82  O   UNL A   1      37.779  31.577  40.138  1.00  0.00    -0.237 OA
ATOM     83  O   UNL A   1      35.748  32.280  38.910  1.00  0.00    -0.237 OA
ATOM     84  O   UNL A   1      36.755  30.074  38.471  1.00  0.00    -0.744 OA
ENDBRANCH  77  81
ENDBRANCH  50  74
BRANCH  62  85
ATOM     85  C   UNL A   1      44.723  27.939  34.398  1.00  0.00     0.023 A 
ATOM     86  C   UNL A   1      44.787  26.849  35.284  1.00  0.00     0.031 A 
ATOM     87  C   UNL A   1      45.847  28.780  34.301  1.00  0.00     0.131 A 
ATOM     88  C   UNL A   1      45.928  26.662  36.079  1.00  0.00     0.055 A 
ATOM     89  C   UNL A   1      47.002  28.551  35.048  1.00  0.00     0.041 A 
ATOM     90  F   UNL A   1      45.840  29.837  33.474  1.00  0.00    -0.206 F 
ATOM     91  C   UNL A   1      47.042  27.495  35.953  1.00  0.00     0.022 A 
BRANCH  88  92
ATOM     92  S   UNL A   1      45.903  25.367  37.349  1.00  0.00     0.124 S 
ATOM     93  O   UNL A   1      45.623  26.133  38.559  1.00  0.00    -0.237 OA
ATOM     94  O   UNL A   1      44.829  24.494  36.884  1.00  0.00    -0.237 OA
ATOM     95  O   UNL A   1      47.244  24.789  37.277  1.00  0.00    -0.744 OA
ENDBRANCH  88  92
ENDBRANCH  62  85
ENDBRANCH  36  37
ENDBRANCH  28  31
ENDBRANCH  26  27
ENDBRANCH   1  26
TORSDOF 17
ENDMDL
MODEL 2
REMARK VINA RESULT:     -11.5      5.236     10.146
REMARK SMILES CC(C)[NH2+][C@@]1(C(=O)NCCCNC(=O)c2ccc(-c3c4nc(c(-c5cc(S(=O)(=O)[O-])ccc5F)c5ccc([nH]5)c(-c5cc(S(=O)(=O)[O-])ccc5F)c5nc(c(-c6cc(S(=O)(=O)[O-])ccc6F)c6ccc3[nH]6)C=C5)C=C4)cc2)CC[C@H](Oc2ccccc2F)C1
REMARK SMILES IDX 10 1 9 2 8 3 6 4 7 5 5 7 78 8 89 9 79 10 80 11 4 12 2 15
REMARK SMILES IDX 1 16 3 17 81 18 82 19 83 20 87 21 84 22 86 23 88 24 85 25
REMARK SMILES IDX 11 26 12 27 13 28 14 30 15 31 16 32 77 33 17 34 76 35 18 36
REMARK SMILES IDX 19 37 20 38 70 39 21 40 75 41 69 42 71 43 22 44 74 45 68 46
REMARK SMILES IDX 67 47 23 49 55 50 35 51 54 52 36 53 39 54 53 55 72 56 37 57
REMARK SMILES IDX 38 58 52 60 73 61 40 62 24 63 25 64 33 65 26 66 32 67 34 68
REMARK SMILES IDX 31 69 27 70 28 71 29 72 30 73 56 74 57 75 65 76 58 77 64 78
REMARK SMILES IDX 66 79 63 80 59 81 60 82 61 83 62 84 41 85 42 86 50 87 43 88
REMARK SMILES IDX 49 89 51 90 48 91 44 92 45 93 46 94 47 95
REMARK H PARENT 8 6 4 13 4 14 12 29 71 48 39 59
REMARK Flexibility Score: inf
ROOT
ATOM      1  C   UNL A   1      34.778  21.657  26.913  1.00  0.00     0.042 C 
ENDROOT
BRANCH   1   2
ATOM      2  C   UNL A   1      34.012  22.883  27.383  1.00  0.00     0.118 C 
BRANCH   2   3
ATOM      3  N   UNL A   1      32.655  22.905  26.891  1.00  0.00    -0.351 N 
ATOM      4  C   UNL A   1      32.076  23.276  25.721  1.00  0.00     0.281 C 
ATOM      5  O   UNL A   1      30.839  23.172  25.741  1.00  0.00    -0.268 OA
ATOM      6  H   UNL A   1      32.003  22.577  27.552  1.00  0.00     0.163 HD
BRANCH   4   7
ATOM      7  C   UNL A   1      32.833  23.844  24.442  1.00  0.00     0.179 C 
ATOM      8  C   UNL A   1      34.070  24.718  24.645  1.00  0.00     0.083 C 
ATOM      9  C   UNL A   1      31.857  24.728  23.628  1.00  0.00     0.124 C 
ATOM     10  C   UNL A   1      33.686  26.164  24.393  1.00  0.00     0.052 C 
ATOM     11  C   UNL A   1      32.394  26.174  23.588  1.00  0.00     0.180 C 
BRANCH   7  12
ATOM     12  N   UNL A   1      33.222  22.671  23.591  1.00  0.00    -0.332 N 
ATOM     13  H   UNL A   1      33.292  23.000  22.628  1.00  0.00     0.347 HD
ATOM     14  H   UNL A   1      34.095  22.330  23.995  1.00  0.00     0.347 HD
BRANCH  12  15
ATOM     15  C   UNL A   1      32.318  21.510  23.600  1.00  0.00     0.176 C 
ATOM     16  C   UNL A   1      31.925  21.221  22.149  1.00  0.00     0.075 C 
ATOM     17  C   UNL A   1      32.965  20.254  24.194  1.00  0.00     0.075 C 
ENDBRANCH  12  15
ENDBRANCH   7  12
BRANCH  11  18
ATOM     18  O   UNL A   1      31.330  27.012  24.039  1.00  0.00    -0.487 OA
BRANCH  18  19
ATOM     19  C   UNL A   1      31.438  27.985  24.986  1.00  0.00     0.155 A 
ATOM     20  C   UNL A   1      31.752  29.326  24.782  1.00  0.00     0.049 A 
ATOM     21  C   UNL A   1      31.305  27.528  26.306  1.00  0.00     0.165 A 
ATOM     22  C   UNL A   1      32.069  30.146  25.873  1.00  0.00     0.004 A 
ATOM     23  C   UNL A   1      31.592  28.344  27.394  1.00  0.00     0.043 A 
ATOM     24  F   UNL A   1      30.979  26.247  26.537  1.00  0.00    -0.203 F 
ATOM     25  C   UNL A   1      32.008  29.653  27.177  1.00  0.00     0.003 A 
ENDBRANCH  18  19
ENDBRANCH  11  18
ENDBRANCH   4   7
ENDBRANCH   2   3
ENDBRANCH   1   2
BRANCH   1  26
ATOM     26  C   UNL A   1      35.884  21.974  25.915  1.00  0.00     0.118 C 
BRANCH  26  27
ATOM     27  N   UNL A   1      36.884  20.911  25.884  1.00  0.00    -0.352 N 
ATOM     28  C   UNL A   1      38.257  20.957  25.836  1.00  0.00     0.251 C 
ATOM     29  H   UNL A   1      36.508  20.001  25.902  1.00  0.00     0.163 HD
ATOM     30  O   UNL A   1      38.856  19.945  25.472  1.00  0.00    -0.269 OA
BRANCH  28  31
ATOM     31  C   UNL A   1      39.026  22.175  26.203  1.00  0.00     0.039 A 
ATOM     32  C   UNL A   1      40.167  22.037  27.006  1.00  0.00     0.014 A 
ATOM     33  C   UNL A   1      38.596  23.454  25.856  1.00  0.00     0.014 A 
ATOM     34  C   UNL A   1      40.889  23.169  27.412  1.00  0.00     0.010 A 
ATOM     35  C   UNL A   1      39.370  24.571  26.172  1.00  0.00     0.010 A 
ATOM     36  C   UNL A   1      40.513  24.447  26.974  1.00  0.00    -0.014 A 
BRANCH  36  37
ATOM     37  C   UNL A   1      41.258  25.673  27.377  1.00  0.00     0.031 A 
ATOM     38  C   UNL A   1      40.582  26.718  28.230  1.00  0.00     0.074 A 
ATOM     39  C   UNL A   1      42.506  25.889  26.918  1.00  0.00     0.049 A 
ATOM     40  N   UNL A   1      41.005  27.906  28.583  1.00  0.00    -0.248 NA
ATOM     41  C   UNL A   1      39.234  26.395  28.719  1.00  0.00     0.031 C 
ATOM     42  C   UNL A   1      43.262  24.975  26.060  1.00  0.00     0.029 A 
ATOM     43  N   UNL A   1      43.358  26.952  27.094  1.00  0.00    -0.354 N 
ATOM     44  C   UNL A   1      39.963  28.483  29.305  1.00  0.00     0.074 A 
ATOM     45  C   UNL A   1      38.869  27.536  29.282  1.00  0.00     0.031 C 
ATOM     46  C   UNL A   1      44.467  25.506  25.801  1.00  0.00     0.029 A 
ATOM     47  C   UNL A   1      44.557  26.818  26.433  1.00  0.00     0.049 A 
ATOM     48  H   UNL A   1      43.131  27.738  27.643  1.00  0.00     0.167 HD
ATOM     49  C   UNL A   1      39.930  29.678  29.947  1.00  0.00     0.034 A 
ATOM     50  C   UNL A   1      45.604  27.660  26.332  1.00  0.00     0.034 A 
ATOM     51  C   UNL A   1      41.040  30.599  29.981  1.00  0.00     0.049 A 
ATOM     52  C   UNL A   1      45.541  28.991  27.038  1.00  0.00     0.074 A 
ATOM     53  C   UNL A   1      41.143  31.802  30.659  1.00  0.00     0.029 A 
ATOM     54  N   UNL A   1      42.241  30.423  29.304  1.00  0.00    -0.354 N 
ATOM     55  N   UNL A   1      44.567  29.501  27.758  1.00  0.00    -0.248 NA
ATOM     56  C   UNL A   1      46.722  29.855  26.925  1.00  0.00     0.031 C 
ATOM     57  C   UNL A   1      42.375  32.384  30.337  1.00  0.00     0.029 A 
ATOM     58  C   UNL A   1      43.076  31.510  29.521  1.00  0.00     0.049 A 
ATOM     59  H   UNL A   1      42.466  29.641  28.751  1.00  0.00     0.167 HD
ATOM     60  C   UNL A   1      45.034  30.731  28.209  1.00  0.00     0.074 A 
ATOM     61  C   UNL A   1      46.379  30.881  27.690  1.00  0.00     0.031 C 
ATOM     62  C   UNL A   1      44.411  31.652  28.989  1.00  0.00     0.034 A 
BRANCH  49  63
ATOM     63  C   UNL A   1      38.638  30.060  30.637  1.00  0.00     0.023 A 
ATOM     64  C   UNL A   1      37.604  30.727  29.957  1.00  0.00     0.031 A 
ATOM     65  C   UNL A   1      38.455  29.794  32.006  1.00  0.00     0.131 A 
ATOM     66  C   UNL A   1      36.482  31.190  30.663  1.00  0.00     0.055 A 
ATOM     67  C   UNL A   1      37.294  30.175  32.683  1.00  0.00     0.041 A 
ATOM     68  F   UNL A   1      39.411  29.175  32.716  1.00  0.00    -0.206 F 
ATOM     69  C   UNL A   1      36.308  30.895  32.016  1.00  0.00     0.022 A 
BRANCH  66  70
ATOM     70  S   UNL A   1      35.343  32.326  29.824  1.00  0.00     0.124 S 
ATOM     71  O   UNL A   1      34.857  31.497  28.723  1.00  0.00    -0.237 OA
ATOM     72  O   UNL A   1      34.377  32.634  30.869  1.00  0.00    -0.237 OA
ATOM     73  O   UNL A   1      36.205  33.438  29.421  1.00  0.00    -0.744 OA
ENDBRANCH  66  70
ENDBRANCH  49  63
BRANCH  50  74
ATOM     74  C   UNL A   1      46.804  27.277  25.536  1.00  0.00     0.023 A 
ATOM     75  C   UNL A   1      46.976  27.746  24.223  1.00  0.00     0.031 A 
ATOM     76  C   UNL A   1      47.783  26.416  26.063  1.00  0.00     0.131 A 
ATOM     77  C   UNL A   1      48.079  27.321  23.466  1.00  0.00     0.055 A 
ATOM     78  C   UNL A   1      48.904  26.035  25.323  1.00  0.00     0.041 A 
ATOM     79  F   UNL A   1      47.670  25.945  27.314  1.00  0.00    -0.206 F 
ATOM     80  C   UNL A   1      49.050  26.479  24.012  1.00  0.00     0.022 A 
BRANCH  77  81
ATOM     81  S   UNL A   1      48.189  27.834  21.731  1.00  0.00     0.124 S 
ATOM     82  O   UNL A   1      48.407  26.559  21.058  1.00  0.00    -0.237 OA
ATOM     83  O   UNL A   1      46.889  28.459  21.516  1.00  0.00    -0.237 OA
ATOM     84  O   UNL A   1      49.328  28.750  21.719  1.00  0.00    -0.744 OA
ENDBRANCH  77  81
ENDBRANCH  50  74
BRANCH  62  85
ATOM     85  C   UNL A   1      45.203  32.881  29.366  1.00  0.00     0.023 A 
ATOM     86  C   UNL A   1      45.170  34.053  28.589  1.00  0.00     0.031 A 
ATOM     87  C   UNL A   1      46.013  32.871  30.515  1.00  0.00     0.131 A 
ATOM     88  C   UNL A   1      45.975  35.146  28.942  1.00  0.00     0.055 A 
ATOM     89  C   UNL A   1      46.764  33.984  30.895  1.00  0.00     0.041 A 
ATOM     90  F   UNL A   1      46.086  31.778  31.291  1.00  0.00    -0.206 F 
ATOM     91  C   UNL A   1      46.758  35.125  30.099  1.00  0.00     0.022 A 
BRANCH  88  92
ATOM     92  S   UNL A   1      46.058  36.566  27.816  1.00  0.00     0.124 S 
ATOM     93  O   UNL A   1      44.652  36.777  27.490  1.00  0.00    -0.237 OA
ATOM     94  O   UNL A   1      46.680  37.590  28.649  1.00  0.00    -0.237 OA
ATOM     95  O   UNL A   1      46.885  36.081  26.711  1.00  0.00    -0.744 OA
ENDBRANCH  88  92
ENDBRANCH  62  85
ENDBRANCH  36  37
ENDBRANCH  28  31
ENDBRANCH  26  27
ENDBRANCH   1  26
TORSDOF 17
ENDMDL
MODEL 3
REMARK VINA RESULT:     -11.3      5.164      9.994
REMARK SMILES CC(C)[NH2+][C@@]1(C(=O)NCCCNC(=O)c2ccc(-c3c4nc(c(-c5cc(S(=O)(=O)[O-])ccc5F)c5ccc([nH]5)c(-c5cc(S(=O)(=O)[O-])ccc5F)c5nc(c(-c6cc(S(=O)(=O)[O-])ccc6F)c6ccc3[nH]6)C=C5)C=C4)cc2)CC[C@H](Oc2ccccc2F)C1
REMARK SMILES IDX 10 1 9 2 8 3 6 4 7 5 5 7 78 8 89 9 79 10 80 11 4 12 2 15
REMARK SMILES IDX 1 16 3 17 81 18 82 19 83 20 87 21 84 22 86 23 88 24 85 25
REMARK SMILES IDX 11 26 12 27 13 28 14 30 15 31 16 32 77 33 17 34 76 35 18 36
REMARK SMILES IDX 19 37 20 38 70 39 21 40 75 41 69 42 71 43 22 44 74 45 68 46
REMARK SMILES IDX 67 47 23 49 55 50 35 51 54 52 36 53 39 54 53 55 72 56 37 57
REMARK SMILES IDX 38 58 52 60 73 61 40 62 24 63 25 64 33 65 26 66 32 67 34 68
REMARK SMILES IDX 31 69 27 70 28 71 29 72 30 73 56 74 57 75 65 76 58 77 64 78
REMARK SMILES IDX 66 79 63 80 59 81 60 82 61 83 62 84 41 85 42 86 50 87 43 88
REMARK SMILES IDX 49 89 51 90 48 91 44 92 45 93 46 94 47 95
REMARK H PARENT 8 6 4 13 4 14 12 29 71 48 39 59
REMARK Flexibility Score: inf
ROOT
ATOM      1  C   UNL A   1      35.184  22.624  26.889  1.00  0.00     0.042 C 
ENDROOT
BRANCH   1   2
ATOM      2  C   UNL A   1      33.877  21.893  27.152  1.00  0.00     0.118 C 
BRANCH   2   3
ATOM      3  N   UNL A   1      32.782  22.800  27.398  1.00  0.00    -0.351 N 
ATOM      4  C   UNL A   1      31.904  23.464  26.604  1.00  0.00     0.281 C 
ATOM      5  O   UNL A   1      31.132  24.196  27.245  1.00  0.00    -0.268 OA
ATOM      6  H   UNL A   1      32.639  22.978  28.356  1.00  0.00     0.163 HD
BRANCH   4   7
ATOM      7  C   UNL A   1      31.846  23.401  25.015  1.00  0.00     0.179 C 
ATOM      8  C   UNL A   1      33.031  23.940  24.213  1.00  0.00     0.083 C 
ATOM      9  C   UNL A   1      30.631  24.222  24.520  1.00  0.00     0.124 C 
ATOM     10  C   UNL A   1      32.649  25.291  23.636  1.00  0.00     0.052 C 
ATOM     11  C   UNL A   1      31.131  25.395  23.651  1.00  0.00     0.180 C 
BRANCH   7  12
ATOM     12  N   UNL A   1      31.632  21.968  24.628  1.00  0.00    -0.332 N 
ATOM     13  H   UNL A   1      31.689  21.408  25.478  1.00  0.00     0.347 HD
ATOM     14  H   UNL A   1      30.725  21.953  24.161  1.00  0.00     0.347 HD
BRANCH  12  15
ATOM     15  C   UNL A   1      32.571  21.392  23.652  1.00  0.00     0.176 C 
ATOM     16  C   UNL A   1      32.955  19.996  24.152  1.00  0.00     0.075 C 
ATOM     17  C   UNL A   1      31.971  21.265  22.248  1.00  0.00     0.075 C 
ENDBRANCH  12  15
ENDBRANCH   7  12
BRANCH  11  18
ATOM     18  O   UNL A   1      30.546  26.578  24.195  1.00  0.00    -0.487 OA
BRANCH  18  19
ATOM     19  C   UNL A   1      29.929  27.556  23.477  1.00  0.00     0.155 A 
ATOM     20  C   UNL A   1      30.532  28.620  22.812  1.00  0.00     0.049 A 
ATOM     21  C   UNL A   1      28.527  27.505  23.511  1.00  0.00     0.165 A 
ATOM     22  C   UNL A   1      29.752  29.680  22.328  1.00  0.00     0.004 A 
ATOM     23  C   UNL A   1      27.745  28.540  23.009  1.00  0.00     0.043 A 
ATOM     24  F   UNL A   1      27.913  26.480  24.122  1.00  0.00    -0.203 F 
ATOM     25  C   UNL A   1      28.361  29.650  22.442  1.00  0.00     0.003 A 
ENDBRANCH  18  19
ENDBRANCH  11  18
ENDBRANCH   4   7
ENDBRANCH   2   3
ENDBRANCH   1   2
BRANCH   1  26
ATOM     26  C   UNL A   1      35.793  22.313  25.527  1.00  0.00     0.118 C 
BRANCH  26  27
ATOM     27  N   UNL A   1      36.751  21.215  25.619  1.00  0.00    -0.352 N 
ATOM     28  C   UNL A   1      38.120  21.212  25.749  1.00  0.00     0.251 C 
ATOM     29  H   UNL A   1      36.344  20.318  25.583  1.00  0.00     0.163 HD
ATOM     30  O   UNL A   1      38.725  20.180  25.459  1.00  0.00    -0.269 OA
BRANCH  28  31
ATOM     31  C   UNL A   1      38.877  22.401  26.220  1.00  0.00     0.039 A 
ATOM     32  C   UNL A   1      38.518  23.667  25.737  1.00  0.00     0.014 A 
ATOM     33  C   UNL A   1      39.991  22.288  27.050  1.00  0.00     0.014 A 
ATOM     34  C   UNL A   1      39.241  24.805  26.122  1.00  0.00     0.010 A 
ATOM     35  C   UNL A   1      40.647  23.428  27.515  1.00  0.00     0.010 A 
ATOM     36  C   UNL A   1      40.297  24.699  27.039  1.00  0.00    -0.014 A 
BRANCH  36  37
ATOM     37  C   UNL A   1      41.085  25.886  27.479  1.00  0.00     0.031 A 
ATOM     38  C   UNL A   1      40.417  26.980  28.275  1.00  0.00     0.074 A 
ATOM     39  C   UNL A   1      42.370  26.023  27.100  1.00  0.00     0.049 A 
ATOM     40  N   UNL A   1      40.885  28.146  28.642  1.00  0.00    -0.248 NA
ATOM     41  C   UNL A   1      39.023  26.742  28.678  1.00  0.00     0.031 C 
ATOM     42  C   UNL A   1      43.125  25.055  26.302  1.00  0.00     0.029 A 
ATOM     43  N   UNL A   1      43.269  27.038  27.321  1.00  0.00    -0.354 N 
ATOM     44  C   UNL A   1      39.833  28.792  29.288  1.00  0.00     0.074 A 
ATOM     45  C   UNL A   1      38.690  27.910  29.204  1.00  0.00     0.031 C 
ATOM     46  C   UNL A   1      44.373  25.511  26.118  1.00  0.00     0.029 A 
ATOM     47  C   UNL A   1      44.498  26.825  26.741  1.00  0.00     0.049 A 
ATOM     48  H   UNL A   1      43.053  27.843  27.846  1.00  0.00     0.167 HD
ATOM     49  C   UNL A   1      39.829  29.997  29.914  1.00  0.00     0.034 A 
ATOM     50  C   UNL A   1      45.598  27.604  26.701  1.00  0.00     0.034 A 
ATOM     51  C   UNL A   1      40.987  30.852  30.012  1.00  0.00     0.049 A 
ATOM     52  C   UNL A   1      45.567  28.946  27.387  1.00  0.00     0.074 A 
ATOM     53  C   UNL A   1      41.116  32.057  30.683  1.00  0.00     0.029 A 
ATOM     54  N   UNL A   1      42.217  30.597  29.418  1.00  0.00    -0.354 N 
ATOM     55  N   UNL A   1      44.580  29.521  28.036  1.00  0.00    -0.248 NA
ATOM     56  C   UNL A   1      46.802  29.739  27.343  1.00  0.00     0.031 C 
ATOM     57  C   UNL A   1      42.398  32.562  30.437  1.00  0.00     0.029 A 
ATOM     58  C   UNL A   1      43.098  31.637  29.678  1.00  0.00     0.049 A 
ATOM     59  H   UNL A   1      42.431  29.796  28.888  1.00  0.00     0.167 HD
ATOM     60  C   UNL A   1      45.088  30.729  28.505  1.00  0.00     0.074 A 
ATOM     61  C   UNL A   1      46.470  30.793  28.074  1.00  0.00     0.031 C 
ATOM     62  C   UNL A   1      44.470  31.695  29.233  1.00  0.00     0.034 A 
BRANCH  49  63
ATOM     63  C   UNL A   1      38.520  30.462  30.514  1.00  0.00     0.023 A 
ATOM     64  C   UNL A   1      37.565  31.164  29.757  1.00  0.00     0.031 A 
ATOM     65  C   UNL A   1      38.240  30.240  31.875  1.00  0.00     0.131 A 
ATOM     66  C   UNL A   1      36.429  31.702  30.381  1.00  0.00     0.055 A 
ATOM     67  C   UNL A   1      37.062  30.698  32.470  1.00  0.00     0.041 A 
ATOM     68  F   UNL A   1      39.117  29.592  32.657  1.00  0.00    -0.206 F 
ATOM     69  C   UNL A   1      36.157  31.451  31.727  1.00  0.00     0.022 A 
BRANCH  66  70
ATOM     70  S   UNL A   1      35.405  32.873  29.448  1.00  0.00     0.124 S 
ATOM     71  O   UNL A   1      36.192  34.100  29.552  1.00  0.00    -0.237 OA
ATOM     72  O   UNL A   1      35.346  32.260  28.129  1.00  0.00    -0.237 OA
ATOM     73  O   UNL A   1      34.143  32.889  30.189  1.00  0.00    -0.744 OA
ENDBRANCH  66  70
ENDBRANCH  49  63
BRANCH  50  74
ATOM     74  C   UNL A   1      46.822  27.141  25.989  1.00  0.00     0.023 A 
ATOM     75  C   UNL A   1      47.865  26.511  26.686  1.00  0.00     0.031 A 
ATOM     76  C   UNL A   1      46.982  27.347  24.607  1.00  0.00     0.131 A 
ATOM     77  C   UNL A   1      49.038  26.142  26.010  1.00  0.00     0.055 A 
ATOM     78  C   UNL A   1      48.131  26.934  23.928  1.00  0.00     0.041 A 
ATOM     79  F   UNL A   1      46.013  27.940  23.892  1.00  0.00    -0.206 F 
ATOM     80  C   UNL A   1      49.172  26.338  24.633  1.00  0.00     0.022 A 
BRANCH  77  81
ATOM     81  S   UNL A   1      50.417  25.461  26.970  1.00  0.00     0.124 S 
ATOM     82  O   UNL A   1      50.790  26.600  27.801  1.00  0.00    -0.237 OA
ATOM     83  O   UNL A   1      49.783  24.344  27.661  1.00  0.00    -0.237 OA
ATOM     84  O   UNL A   1      51.392  25.087  25.948  1.00  0.00    -0.744 OA
ENDBRANCH  77  81
ENDBRANCH  50  74
BRANCH  62  85
ATOM     85  C   UNL A   1      45.307  32.881  29.648  1.00  0.00     0.023 A 
ATOM     86  C   UNL A   1      45.391  34.042  28.861  1.00  0.00     0.031 A 
ATOM     87  C   UNL A   1      46.041  32.840  30.847  1.00  0.00     0.131 A 
ATOM     88  C   UNL A   1      46.235  35.092  29.254  1.00  0.00     0.055 A 
ATOM     89  C   UNL A   1      46.829  33.912  31.264  1.00  0.00     0.041 A 
ATOM     90  F   UNL A   1      46.001  31.754  31.636  1.00  0.00    -0.206 F 
ATOM     91  C   UNL A   1      46.940  35.042  30.459  1.00  0.00     0.022 A 
BRANCH  88  92
ATOM     92  S   UNL A   1      46.471  36.491  28.123  1.00  0.00     0.124 S 
ATOM     93  O   UNL A   1      45.440  37.421  28.571  1.00  0.00    -0.237 OA
ATOM     94  O   UNL A   1      47.849  36.885  28.397  1.00  0.00    -0.237 OA
ATOM     95  O   UNL A   1      46.246  35.906  26.802  1.00  0.00    -0.744 OA
ENDBRANCH  88  92
ENDBRANCH  62  85
ENDBRANCH  36  37
ENDBRANCH  28  31
ENDBRANCH  26  27
ENDBRANCH   1  26
TORSDOF 17
ENDMDL
