MODEL 1
REMARK VINA RESULT:     -10.5      0.000      0.000
REMARK SMILES O=C(C[C@@H](c1c[nH]c2ccccc12)C(F)(F)F)NCCCNC(=O)c1ccc(-c2c3nc(c(-c4cc(S(=O)(=O)[O-])ccc4F)c4ccc([nH]4)c(-c4cc(S(=O)(=O)[O-])ccc4F)c4nc(c(-c5cc(S(=O)(=O)[O-])ccc5F)c5ccc2[nH]5)C=C4)C=C3)cc1
REMARK SMILES IDX 20 1 19 2 18 3 1 4 2 5 3 7 4 8 5 9 6 10 13 11 7 12 8 13
REMARK SMILES IDX 12 14 9 16 11 17 10 18 14 19 15 20 16 21 17 22 21 23 22 24
REMARK SMILES IDX 23 25 24 27 25 28 26 29 87 30 27 31 86 32 28 33 29 34 30 35
REMARK SMILES IDX 80 36 31 37 85 38 79 39 81 40 32 41 84 42 78 43 77 44 33 46
REMARK SMILES IDX 65 47 45 48 64 49 46 50 49 51 63 52 82 53 47 54 48 55 62 57
REMARK SMILES IDX 83 58 50 59 34 60 35 61 43 62 36 63 42 64 44 65 41 66 37 67
REMARK SMILES IDX 38 68 39 69 40 70 66 71 67 72 75 73 68 74 74 75 76 76 73 77
REMARK SMILES IDX 69 78 70 79 71 80 72 81 51 82 52 83 60 84 53 85 59 86 61 87
REMARK SMILES IDX 58 88 54 89 55 90 56 91 57 92
REMARK H PARENT 18 6 7 15 22 26 81 45 49 56
REMARK Flexibility Score: inf
ROOT
ATOM      1  C   UNL A   1      34.108  34.907  28.150  1.00  0.00     0.042 C 
ENDROOT
BRANCH   1   2
ATOM      2  C   UNL A   1      33.512  35.633  29.350  1.00  0.00     0.117 C 
BRANCH   2   3
ATOM      3  N   UNL A   1      34.150  35.247  30.592  1.00  0.00    -0.356 N 
ATOM      4  O   UNL A   1      33.379  36.984  31.886  1.00  0.00    -0.275 OA
ATOM      5  C   UNL A   1      34.007  35.937  31.770  1.00  0.00     0.220 C 
ATOM      6  H   UNL A   1      34.719  34.444  30.590  1.00  0.00     0.163 HD
BRANCH   5   7
ATOM      7  C   UNL A   1      34.675  35.270  32.953  1.00  0.00     0.117 C 
BRANCH   7   8
ATOM      8  C   UNL A   1      35.602  34.133  32.492  1.00  0.00     0.136 C 
BRANCH   8   9
ATOM      9  C   UNL A   1      36.971  34.220  33.142  1.00  0.00    -0.010 A 
ATOM     10  C   UNL A   1      37.251  34.336  34.493  1.00  0.00     0.087 A 
ATOM     11  C   UNL A   1      38.231  34.274  32.458  1.00  0.00     0.003 A 
ATOM     12  N   UNL A   1      38.603  34.485  34.646  1.00  0.00    -0.361 N 
ATOM     13  C   UNL A   1      39.221  34.474  33.419  1.00  0.00     0.046 A 
ATOM     14  C   UNL A   1      38.618  34.204  31.102  1.00  0.00     0.010 A 
ATOM     15  H   UNL A   1      39.066  34.586  35.510  1.00  0.00     0.166 HD
ATOM     16  C   UNL A   1      40.575  34.626  33.095  1.00  0.00     0.026 A 
ATOM     17  C   UNL A   1      39.969  34.337  30.762  1.00  0.00     0.001 A 
ATOM     18  C   UNL A   1      40.930  34.552  31.745  1.00  0.00     0.002 A 
ENDBRANCH   8   9
BRANCH   8  19
ATOM     19  C   UNL A   1      34.924  32.788  32.719  1.00  0.00     0.396 C 
ATOM     20  F   UNL A   1      35.822  31.865  33.142  1.00  0.00    -0.170 F 
ATOM     21  F   UNL A   1      33.963  32.859  33.669  1.00  0.00    -0.170 F 
ATOM     22  F   UNL A   1      34.358  32.303  31.591  1.00  0.00    -0.170 F 
ENDBRANCH   8  19
ENDBRANCH   7   8
ENDBRANCH   5   7
ENDBRANCH   2   3
ENDBRANCH   1   2
BRANCH   1  23
ATOM     23  C   UNL A   1      34.712  33.537  28.450  1.00  0.00     0.118 C 
BRANCH  23  24
ATOM     24  N   UNL A   1      34.049  32.437  27.766  1.00  0.00    -0.352 N 
ATOM     25  C   UNL A   1      34.476  31.134  27.622  1.00  0.00     0.251 C 
ATOM     26  H   UNL A   1      33.182  32.651  27.352  1.00  0.00     0.163 HD
ATOM     27  O   UNL A   1      33.845  30.352  26.916  1.00  0.00    -0.269 OA
BRANCH  25  28
ATOM     28  C   UNL A   1      35.711  30.689  28.307  1.00  0.00     0.039 A 
ATOM     29  C   UNL A   1      35.612  29.903  29.459  1.00  0.00     0.014 A 
ATOM     30  C   UNL A   1      36.967  31.028  27.796  1.00  0.00     0.014 A 
ATOM     31  C   UNL A   1      36.771  29.383  30.048  1.00  0.00     0.010 A 
ATOM     32  C   UNL A   1      38.114  30.463  28.350  1.00  0.00     0.010 A 
ATOM     33  C   UNL A   1      38.028  29.622  29.472  1.00  0.00    -0.014 A 
BRANCH  33  34
ATOM     34  C   UNL A   1      39.272  28.995  29.999  1.00  0.00     0.031 A 
ATOM     35  C   UNL A   1      39.994  29.620  31.161  1.00  0.00     0.074 A 
ATOM     36  C   UNL A   1      39.809  27.932  29.368  1.00  0.00     0.049 A 
ATOM     37  N   UNL A   1      41.177  29.346  31.648  1.00  0.00    -0.248 NA
ATOM     38  C   UNL A   1      39.300  30.721  31.845  1.00  0.00     0.031 C 
ATOM     39  C   UNL A   1      39.220  27.244  28.217  1.00  0.00     0.029 A 
ATOM     40  N   UNL A   1      40.988  27.259  29.586  1.00  0.00    -0.354 N 
ATOM     41  C   UNL A   1      41.383  30.256  32.680  1.00  0.00     0.074 A 
ATOM     42  C   UNL A   1      40.217  31.116  32.714  1.00  0.00     0.031 C 
ATOM     43  C   UNL A   1      40.036  26.249  27.834  1.00  0.00     0.029 A 
ATOM     44  C   UNL A   1      41.231  26.259  28.673  1.00  0.00     0.049 A 
ATOM     45  H   UNL A   1      41.600  27.473  30.327  1.00  0.00     0.167 HD
ATOM     46  C   UNL A   1      42.438  30.356  33.528  1.00  0.00     0.034 A 
ATOM     47  C   UNL A   1      42.305  25.460  28.507  1.00  0.00     0.034 A 
ATOM     48  C   UNL A   1      43.585  29.481  33.492  1.00  0.00     0.049 A 
ATOM     49  C   UNL A   1      43.481  25.607  29.441  1.00  0.00     0.074 A 
ATOM     50  C   UNL A   1      44.685  29.466  34.333  1.00  0.00     0.029 A 
ATOM     51  N   UNL A   1      43.784  28.466  32.564  1.00  0.00    -0.354 N 
ATOM     52  N   UNL A   1      43.651  26.460  30.425  1.00  0.00    -0.248 NA
ATOM     53  C   UNL A   1      44.606  24.682  29.245  1.00  0.00     0.031 C 
ATOM     54  C   UNL A   1      45.574  28.486  33.878  1.00  0.00     0.029 A 
ATOM     55  C   UNL A   1      44.998  27.838  32.798  1.00  0.00     0.049 A 
ATOM     56  H   UNL A   1      43.155  28.227  31.845  1.00  0.00     0.167 HD
ATOM     57  C   UNL A   1      44.885  26.145  30.989  1.00  0.00     0.074 A 
ATOM     58  C   UNL A   1      45.415  25.028  30.236  1.00  0.00     0.031 C 
ATOM     59  C   UNL A   1      45.515  26.721  32.043  1.00  0.00     0.034 A 
BRANCH  46  60
ATOM     60  C   UNL A   1      42.410  31.474  34.542  1.00  0.00     0.023 A 
ATOM     61  C   UNL A   1      41.493  31.481  35.607  1.00  0.00     0.031 A 
ATOM     62  C   UNL A   1      43.294  32.562  34.429  1.00  0.00     0.131 A 
ATOM     63  C   UNL A   1      41.426  32.587  36.466  1.00  0.00     0.055 A 
ATOM     64  C   UNL A   1      43.280  33.621  35.339  1.00  0.00     0.041 A 
ATOM     65  F   UNL A   1      44.179  32.622  33.421  1.00  0.00    -0.206 F 
ATOM     66  C   UNL A   1      42.331  33.646  36.356  1.00  0.00     0.022 A 
BRANCH  63  67
ATOM     67  S   UNL A   1      40.043  32.691  37.635  1.00  0.00     0.124 S 
ATOM     68  O   UNL A   1      39.588  34.065  37.428  1.00  0.00    -0.237 OA
ATOM     69  O   UNL A   1      39.147  31.644  37.159  1.00  0.00    -0.237 OA
ATOM     70  O   UNL A   1      40.669  32.440  38.930  1.00  0.00    -0.744 OA
ENDBRANCH  63  67
ENDBRANCH  46  60
BRANCH  47  71
ATOM     71  C   UNL A   1      42.338  24.461  27.401  1.00  0.00     0.023 A 
ATOM     72  C   UNL A   1      41.586  23.278  27.475  1.00  0.00     0.031 A 
ATOM     73  C   UNL A   1      43.152  24.657  26.272  1.00  0.00     0.131 A 
ATOM     74  C   UNL A   1      41.696  22.316  26.461  1.00  0.00     0.055 A 
ATOM     75  C   UNL A   1      43.220  23.718  25.241  1.00  0.00     0.041 A 
ATOM     76  F   UNL A   1      43.887  25.774  26.150  1.00  0.00    -0.206 F 
ATOM     77  C   UNL A   1      42.498  22.532  25.338  1.00  0.00     0.022 A 
BRANCH  74  78
ATOM     78  S   UNL A   1      40.834  20.733  26.669  1.00  0.00     0.124 S 
ATOM     79  O   UNL A   1      40.819  20.593  28.121  1.00  0.00    -0.237 OA
ATOM     80  O   UNL A   1      39.548  21.004  26.036  1.00  0.00    -0.237 OA
ATOM     81  O   UNL A   1      41.688  19.784  25.958  1.00  0.00    -0.744 OA
ENDBRANCH  74  78
ENDBRANCH  47  71
BRANCH  59  82
ATOM     82  C   UNL A   1      46.817  26.106  32.491  1.00  0.00     0.023 A 
ATOM     83  C   UNL A   1      46.871  25.109  33.479  1.00  0.00     0.031 A 
ATOM     84  C   UNL A   1      48.023  26.522  31.900  1.00  0.00     0.131 A 
ATOM     85  C   UNL A   1      48.113  24.588  33.874  1.00  0.00     0.055 A 
ATOM     86  C   UNL A   1      49.251  25.965  32.263  1.00  0.00     0.041 A 
ATOM     87  F   UNL A   1      48.028  27.473  30.951  1.00  0.00    -0.206 F 
ATOM     88  C   UNL A   1      49.300  24.998  33.262  1.00  0.00     0.022 A 
BRANCH  85  89
ATOM     89  S   UNL A   1      48.166  23.400  35.246  1.00  0.00     0.124 S 
ATOM     90  O   UNL A   1      48.446  22.147  34.551  1.00  0.00    -0.237 OA
ATOM     91  O   UNL A   1      49.247  23.925  36.073  1.00  0.00    -0.237 OA
ATOM     92  O   UNL A   1      46.833  23.497  35.836  1.00  0.00    -0.744 OA
ENDBRANCH  85  89
ENDBRANCH  59  82
ENDBRANCH  33  34
ENDBRANCH  25  28
ENDBRANCH  23  24
ENDBRANCH   1  23
TORSDOF 16
ENDMDL
MODEL 2
REMARK VINA RESULT:     -10.4      4.480     11.944
REMARK SMILES O=C(C[C@@H](c1c[nH]c2ccccc12)C(F)(F)F)NCCCNC(=O)c1ccc(-c2c3nc(c(-c4cc(S(=O)(=O)[O-])ccc4F)c4ccc([nH]4)c(-c4cc(S(=O)(=O)[O-])ccc4F)c4nc(c(-c5cc(S(=O)(=O)[O-])ccc5F)c5ccc2[nH]5)C=C4)C=C3)cc1
REMARK SMILES IDX 20 1 19 2 18 3 1 4 2 5 3 7 4 8 5 9 6 10 13 11 7 12 8 13
REMARK SMILES IDX 12 14 9 16 11 17 10 18 14 19 15 20 16 21 17 22 21 23 22 24
REMARK SMILES IDX 23 25 24 27 25 28 26 29 87 30 27 31 86 32 28 33 29 34 30 35
REMARK SMILES IDX 80 36 31 37 85 38 79 39 81 40 32 41 84 42 78 43 77 44 33 46
REMARK SMILES IDX 65 47 45 48 64 49 46 50 49 51 63 52 82 53 47 54 48 55 62 57
REMARK SMILES IDX 83 58 50 59 34 60 35 61 43 62 36 63 42 64 44 65 41 66 37 67
REMARK SMILES IDX 38 68 39 69 40 70 66 71 67 72 75 73 68 74 74 75 76 76 73 77
REMARK SMILES IDX 69 78 70 79 71 80 72 81 51 82 52 83 60 84 53 85 59 86 61 87
REMARK SMILES IDX 58 88 54 89 55 90 56 91 57 92
REMARK H PARENT 18 6 7 15 22 26 81 45 49 56
REMARK Flexibility Score: inf
ROOT
ATOM      1  C   UNL A   1      41.438  19.751  26.777  1.00  0.00     0.042 C 
ENDROOT
BRANCH   1   2
ATOM      2  C   UNL A   1      42.629  19.352  25.913  1.00  0.00     0.117 C 
BRANCH   2   3
ATOM      3  N   UNL A   1      43.620  20.405  25.831  1.00  0.00    -0.356 N 
ATOM      4  O   UNL A   1      45.343  19.140  24.982  1.00  0.00    -0.275 OA
ATOM      5  C   UNL A   1      44.890  20.221  25.343  1.00  0.00     0.220 C 
ATOM      6  H   UNL A   1      43.369  21.303  26.146  1.00  0.00     0.163 HD
BRANCH   5   7
ATOM      7  C   UNL A   1      45.699  21.497  25.250  1.00  0.00     0.117 C 
BRANCH   7   8
ATOM      8  C   UNL A   1      44.894  22.697  25.778  1.00  0.00     0.136 C 
BRANCH   8   9
ATOM      9  C   UNL A   1      45.749  23.623  26.625  1.00  0.00    -0.010 A 
ATOM     10  C   UNL A   1      46.989  24.147  26.302  1.00  0.00     0.087 A 
ATOM     11  C   UNL A   1      45.454  24.063  27.958  1.00  0.00     0.003 A 
ATOM     12  N   UNL A   1      47.459  24.850  27.379  1.00  0.00    -0.361 N 
ATOM     13  C   UNL A   1      46.552  24.795  28.410  1.00  0.00     0.046 A 
ATOM     14  C   UNL A   1      44.364  23.880  28.836  1.00  0.00     0.010 A 
ATOM     15  H   UNL A   1      48.321  25.325  27.411  1.00  0.00     0.166 HD
ATOM     16  C   UNL A   1      46.626  25.335  29.700  1.00  0.00     0.026 A 
ATOM     17  C   UNL A   1      44.414  24.427  30.123  1.00  0.00     0.001 A 
ATOM     18  C   UNL A   1      45.532  25.138  30.548  1.00  0.00     0.002 A 
ENDBRANCH   8   9
BRANCH   8  19
ATOM     19  C   UNL A   1      44.215  23.415  24.619  1.00  0.00     0.396 C 
ATOM     20  F   UNL A   1      44.417  24.753  24.701  1.00  0.00    -0.170 F 
ATOM     21  F   UNL A   1      44.706  23.021  23.421  1.00  0.00    -0.170 F 
ATOM     22  F   UNL A   1      42.878  23.215  24.606  1.00  0.00    -0.170 F 
ENDBRANCH   8  19
ENDBRANCH   7   8
ENDBRANCH   5   7
ENDBRANCH   2   3
ENDBRANCH   1   2
BRANCH   1  23
ATOM     23  C   UNL A   1      41.038  21.222  26.695  1.00  0.00     0.118 C 
BRANCH  23  24
ATOM     24  N   UNL A   1      39.675  21.439  26.233  1.00  0.00    -0.352 N 
ATOM     25  C   UNL A   1      38.934  22.600  26.260  1.00  0.00     0.251 C 
ATOM     26  H   UNL A   1      39.224  20.652  25.850  1.00  0.00     0.163 HD
ATOM     27  O   UNL A   1      37.752  22.587  25.929  1.00  0.00    -0.269 OA
BRANCH  25  28
ATOM     28  C   UNL A   1      39.566  23.861  26.712  1.00  0.00     0.039 A 
ATOM     29  C   UNL A   1      40.097  24.741  25.765  1.00  0.00     0.014 A 
ATOM     30  C   UNL A   1      39.611  24.184  28.071  1.00  0.00     0.014 A 
ATOM     31  C   UNL A   1      40.593  25.985  26.172  1.00  0.00     0.010 A 
ATOM     32  C   UNL A   1      40.053  25.445  28.468  1.00  0.00     0.010 A 
ATOM     33  C   UNL A   1      40.534  26.366  27.522  1.00  0.00    -0.014 A 
BRANCH  33  34
ATOM     34  C   UNL A   1      40.944  27.722  27.981  1.00  0.00     0.031 A 
ATOM     35  C   UNL A   1      42.404  28.058  28.120  1.00  0.00     0.074 A 
ATOM     36  C   UNL A   1      40.010  28.611  28.376  1.00  0.00     0.049 A 
ATOM     37  N   UNL A   1      42.967  29.101  28.673  1.00  0.00    -0.248 NA
ATOM     38  C   UNL A   1      43.354  27.070  27.589  1.00  0.00     0.031 C 
ATOM     39  C   UNL A   1      38.563  28.401  28.312  1.00  0.00     0.029 A 
ATOM     40  N   UNL A   1      40.139  29.859  28.936  1.00  0.00    -0.354 N 
ATOM     41  C   UNL A   1      44.339  28.886  28.582  1.00  0.00     0.074 A 
ATOM     42  C   UNL A   1      44.515  27.589  27.958  1.00  0.00     0.031 C 
ATOM     43  C   UNL A   1      37.940  29.481  28.809  1.00  0.00     0.029 A 
ATOM     44  C   UNL A   1      38.938  30.437  29.278  1.00  0.00     0.049 A 
ATOM     45  H   UNL A   1      41.008  30.298  29.078  1.00  0.00     0.167 HD
ATOM     46  C   UNL A   1      45.354  29.698  28.968  1.00  0.00     0.034 A 
ATOM     47  C   UNL A   1      38.669  31.591  29.923  1.00  0.00     0.034 A 
ATOM     48  C   UNL A   1      45.163  30.994  29.573  1.00  0.00     0.049 A 
ATOM     49  C   UNL A   1      39.812  32.466  30.372  1.00  0.00     0.074 A 
ATOM     50  C   UNL A   1      46.121  31.917  29.960  1.00  0.00     0.029 A 
ATOM     51  N   UNL A   1      43.930  31.554  29.885  1.00  0.00    -0.354 N 
ATOM     52  N   UNL A   1      41.104  32.256  30.260  1.00  0.00    -0.248 NA
ATOM     53  C   UNL A   1      39.463  33.733  31.029  1.00  0.00     0.031 C 
ATOM     54  C   UNL A   1      45.472  33.003  30.557  1.00  0.00     0.029 A 
ATOM     55  C   UNL A   1      44.105  32.795  30.479  1.00  0.00     0.049 A 
ATOM     56  H   UNL A   1      43.058  31.131  29.709  1.00  0.00     0.167 HD
ATOM     57  C   UNL A   1      41.718  33.386  30.797  1.00  0.00     0.074 A 
ATOM     58  C   UNL A   1      40.658  34.270  31.233  1.00  0.00     0.031 C 
ATOM     59  C   UNL A   1      43.040  33.670  30.906  1.00  0.00     0.034 A 
BRANCH  46  60
ATOM     60  C   UNL A   1      46.762  29.188  28.777  1.00  0.00     0.023 A 
ATOM     61  C   UNL A   1      47.327  29.043  27.498  1.00  0.00     0.031 A 
ATOM     62  C   UNL A   1      47.543  28.817  29.886  1.00  0.00     0.131 A 
ATOM     63  C   UNL A   1      48.597  28.465  27.355  1.00  0.00     0.055 A 
ATOM     64  C   UNL A   1      48.841  28.323  29.742  1.00  0.00     0.041 A 
ATOM     65  F   UNL A   1      47.052  28.915  31.132  1.00  0.00    -0.206 F 
ATOM     66  C   UNL A   1      49.370  28.129  28.469  1.00  0.00     0.022 A 
BRANCH  63  67
ATOM     67  S   UNL A   1      49.162  28.023  25.690  1.00  0.00     0.124 S 
ATOM     68  O   UNL A   1      50.271  28.956  25.500  1.00  0.00    -0.237 OA
ATOM     69  O   UNL A   1      49.528  26.620  25.842  1.00  0.00    -0.237 OA
ATOM     70  O   UNL A   1      47.993  28.278  24.852  1.00  0.00    -0.744 OA
ENDBRANCH  63  67
ENDBRANCH  46  60
BRANCH  47  71
ATOM     71  C   UNL A   1      37.259  31.984  30.208  1.00  0.00     0.023 A 
ATOM     72  C   UNL A   1      36.476  32.621  29.232  1.00  0.00     0.031 A 
ATOM     73  C   UNL A   1      36.686  31.762  31.472  1.00  0.00     0.131 A 
ATOM     74  C   UNL A   1      35.181  33.055  29.550  1.00  0.00     0.055 A 
ATOM     75  C   UNL A   1      35.379  32.151  31.768  1.00  0.00     0.041 A 
ATOM     76  F   UNL A   1      37.391  31.151  32.439  1.00  0.00    -0.206 F 
ATOM     77  C   UNL A   1      34.621  32.813  30.806  1.00  0.00     0.022 A 
BRANCH  74  78
ATOM     78  S   UNL A   1      34.261  34.015  28.316  1.00  0.00     0.124 S 
ATOM     79  O   UNL A   1      33.251  33.054  27.885  1.00  0.00    -0.237 OA
ATOM     80  O   UNL A   1      33.779  35.142  29.109  1.00  0.00    -0.237 OA
ATOM     81  O   UNL A   1      35.275  34.347  27.317  1.00  0.00    -0.744 OA
ENDBRANCH  74  78
ENDBRANCH  47  71
BRANCH  59  82
ATOM     82  C   UNL A   1      43.413  35.023  31.457  1.00  0.00     0.023 A 
ATOM     83  C   UNL A   1      43.564  36.150  30.631  1.00  0.00     0.031 A 
ATOM     84  C   UNL A   1      43.605  35.183  32.841  1.00  0.00     0.131 A 
ATOM     85  C   UNL A   1      43.936  37.380  31.194  1.00  0.00     0.055 A 
ATOM     86  C   UNL A   1      43.926  36.421  33.400  1.00  0.00     0.041 A 
ATOM     87  F   UNL A   1      43.472  34.138  33.675  1.00  0.00    -0.206 F 
ATOM     88  C   UNL A   1      44.103  37.526  32.574  1.00  0.00     0.022 A 
BRANCH  85  89
ATOM     89  S   UNL A   1      44.257  38.785  30.091  1.00  0.00     0.124 S 
ATOM     90  O   UNL A   1      43.351  38.512  28.979  1.00  0.00    -0.237 OA
ATOM     91  O   UNL A   1      43.910  39.927  30.930  1.00  0.00    -0.237 OA
ATOM     92  O   UNL A   1      45.678  38.659  29.778  1.00  0.00    -0.744 OA
ENDBRANCH  85  89
ENDBRANCH  59  82
ENDBRANCH  33  34
ENDBRANCH  25  28
ENDBRANCH  23  24
ENDBRANCH   1  23
TORSDOF 16
ENDMDL
MODEL 3
REMARK VINA RESULT:     -10.4      1.813      2.169
REMARK SMILES O=C(C[C@@H](c1c[nH]c2ccccc12)C(F)(F)F)NCCCNC(=O)c1ccc(-c2c3nc(c(-c4cc(S(=O)(=O)[O-])ccc4F)c4ccc([nH]4)c(-c4cc(S(=O)(=O)[O-])ccc4F)c4nc(c(-c5cc(S(=O)(=O)[O-])ccc5F)c5ccc2[nH]5)C=C4)C=C3)cc1
REMARK SMILES IDX 20 1 19 2 18 3 1 4 2 5 3 7 4 8 5 9 6 10 13 11 7 12 8 13
REMARK SMILES IDX 12 14 9 16 11 17 10 18 14 19 15 20 16 21 17 22 21 23 22 24
REMARK SMILES IDX 23 25 24 27 25 28 26 29 87 30 27 31 86 32 28 33 29 34 30 35
REMARK SMILES IDX 80 36 31 37 85 38 79 39 81 40 32 41 84 42 78 43 77 44 33 46
REMARK SMILES IDX 65 47 45 48 64 49 46 50 49 51 63 52 82 53 47 54 48 55 62 57
REMARK SMILES IDX 83 58 50 59 34 60 35 61 43 62 36 63 42 64 44 65 41 66 37 67
REMARK SMILES IDX 38 68 39 69 40 70 66 71 67 72 75 73 68 74 74 75 76 76 73 77
REMARK SMILES IDX 69 78 70 79 71 80 72 81 51 82 52 83 60 84 53 85 59 86 61 87
REMARK SMILES IDX 58 88 54 89 55 90 56 91 57 92
REMARK H PARENT 18 6 7 15 22 26 81 45 49 56
REMARK Flexibility Score: inf
ROOT
ATOM      1  C   UNL A   1      33.864  34.499  28.340  1.00  0.00     0.042 C 
ENDROOT
BRANCH   1   2
ATOM      2  C   UNL A   1      33.287  35.311  29.494  1.00  0.00     0.117 C 
BRANCH   2   3
ATOM      3  N   UNL A   1      34.138  35.271  30.665  1.00  0.00    -0.356 N 
ATOM      4  O   UNL A   1      33.131  36.976  31.834  1.00  0.00    -0.275 OA
ATOM      5  C   UNL A   1      33.972  36.087  31.757  1.00  0.00     0.220 C 
ATOM      6  H   UNL A   1      34.878  34.622  30.679  1.00  0.00     0.163 HD
BRANCH   5   7
ATOM      7  C   UNL A   1      34.911  35.774  32.902  1.00  0.00     0.117 C 
BRANCH   7   8
ATOM      8  C   UNL A   1      35.481  34.351  32.772  1.00  0.00     0.136 C 
BRANCH   8   9
ATOM      9  C   UNL A   1      36.999  34.346  32.770  1.00  0.00    -0.010 A 
ATOM     10  C   UNL A   1      37.839  34.713  33.808  1.00  0.00     0.087 A 
ATOM     11  C   UNL A   1      37.842  34.030  31.653  1.00  0.00     0.003 A 
ATOM     12  N   UNL A   1      39.132  34.659  33.361  1.00  0.00    -0.361 N 
ATOM     13  C   UNL A   1      39.160  34.269  32.044  1.00  0.00     0.046 A 
ATOM     14  C   UNL A   1      37.603  33.593  30.333  1.00  0.00     0.010 A 
ATOM     15  H   UNL A   1      39.926  34.870  33.903  1.00  0.00     0.166 HD
ATOM     16  C   UNL A   1      40.249  34.111  31.177  1.00  0.00     0.026 A 
ATOM     17  C   UNL A   1      38.682  33.415  29.459  1.00  0.00     0.001 A 
ATOM     18  C   UNL A   1      39.983  33.677  29.876  1.00  0.00     0.002 A 
ENDBRANCH   8   9
BRANCH   8  19
ATOM     19  C   UNL A   1      34.888  33.457  33.854  1.00  0.00     0.396 C 
ATOM     20  F   UNL A   1      33.598  33.151  33.567  1.00  0.00    -0.170 F 
ATOM     21  F   UNL A   1      35.551  32.283  33.960  1.00  0.00    -0.170 F 
ATOM     22  F   UNL A   1      34.894  34.050  35.069  1.00  0.00    -0.170 F 
ENDBRANCH   8  19
ENDBRANCH   7   8
ENDBRANCH   5   7
ENDBRANCH   2   3
ENDBRANCH   1   2
BRANCH   1  23
ATOM     23  C   UNL A   1      34.322  33.088  28.701  1.00  0.00     0.118 C 
BRANCH  23  24
ATOM     24  N   UNL A   1      33.827  32.058  27.799  1.00  0.00    -0.352 N 
ATOM     25  C   UNL A   1      34.410  30.853  27.470  1.00  0.00     0.251 C 
ATOM     26  H   UNL A   1      32.962  32.246  27.369  1.00  0.00     0.163 HD
ATOM     27  O   UNL A   1      33.911  30.142  26.603  1.00  0.00    -0.269 OA
BRANCH  25  28
ATOM     28  C   UNL A   1      35.654  30.431  28.153  1.00  0.00     0.039 A 
ATOM     29  C   UNL A   1      35.576  29.832  29.414  1.00  0.00     0.014 A 
ATOM     30  C   UNL A   1      36.896  30.607  27.537  1.00  0.00     0.014 A 
ATOM     31  C   UNL A   1      36.735  29.328  30.017  1.00  0.00     0.010 A 
ATOM     32  C   UNL A   1      38.039  30.054  28.112  1.00  0.00     0.010 A 
ATOM     33  C   UNL A   1      37.969  29.394  29.350  1.00  0.00    -0.014 A 
BRANCH  33  34
ATOM     34  C   UNL A   1      39.202  28.770  29.904  1.00  0.00     0.031 A 
ATOM     35  C   UNL A   1      39.866  29.365  31.116  1.00  0.00     0.074 A 
ATOM     36  C   UNL A   1      39.783  27.739  29.258  1.00  0.00     0.049 A 
ATOM     37  N   UNL A   1      41.034  29.094  31.640  1.00  0.00    -0.248 NA
ATOM     38  C   UNL A   1      39.127  30.429  31.809  1.00  0.00     0.031 C 
ATOM     39  C   UNL A   1      39.252  27.083  28.062  1.00  0.00     0.029 A 
ATOM     40  N   UNL A   1      40.964  27.079  29.500  1.00  0.00    -0.354 N 
ATOM     41  C   UNL A   1      41.182  29.970  32.711  1.00  0.00     0.074 A 
ATOM     42  C   UNL A   1      40.001  30.808  32.728  1.00  0.00     0.031 C 
ATOM     43  C   UNL A   1      40.101  26.116  27.678  1.00  0.00     0.029 A 
ATOM     44  C   UNL A   1      41.261  26.116  28.563  1.00  0.00     0.049 A 
ATOM     45  H   UNL A   1      41.543  27.276  30.272  1.00  0.00     0.167 HD
ATOM     46  C   UNL A   1      42.201  30.057  33.603  1.00  0.00     0.034 A 
ATOM     47  C   UNL A   1      42.355  25.341  28.413  1.00  0.00     0.034 A 
ATOM     48  C   UNL A   1      43.364  29.203  33.582  1.00  0.00     0.049 A 
ATOM     49  C   UNL A   1      43.491  25.474  29.397  1.00  0.00     0.074 A 
ATOM     50  C   UNL A   1      44.431  29.176  34.465  1.00  0.00     0.029 A 
ATOM     51  N   UNL A   1      43.619  28.225  32.628  1.00  0.00    -0.354 N 
ATOM     52  N   UNL A   1      43.606  26.295  30.416  1.00  0.00    -0.248 NA
ATOM     53  C   UNL A   1      44.638  24.576  29.214  1.00  0.00     0.031 C 
ATOM     54  C   UNL A   1      45.355  28.228  34.013  1.00  0.00     0.029 A 
ATOM     55  C   UNL A   1      44.833  27.609  32.888  1.00  0.00     0.049 A 
ATOM     56  H   UNL A   1      43.022  28.002  31.877  1.00  0.00     0.167 HD
ATOM     57  C   UNL A   1      44.822  25.981  31.018  1.00  0.00     0.074 A 
ATOM     58  C   UNL A   1      45.402  24.900  30.248  1.00  0.00     0.031 C 
ATOM     59  C   UNL A   1      45.400  26.529  32.116  1.00  0.00     0.034 A 
BRANCH  46  60
ATOM     60  C   UNL A   1      42.113  31.137  34.653  1.00  0.00     0.023 A 
ATOM     61  C   UNL A   1      42.350  32.488  34.345  1.00  0.00     0.031 A 
ATOM     62  C   UNL A   1      41.814  30.811  35.988  1.00  0.00     0.131 A 
ATOM     63  C   UNL A   1      42.365  33.448  35.366  1.00  0.00     0.055 A 
ATOM     64  C   UNL A   1      41.745  31.784  36.987  1.00  0.00     0.041 A 
ATOM     65  F   UNL A   1      41.598  29.536  36.349  1.00  0.00    -0.206 F 
ATOM     66  C   UNL A   1      42.037  33.111  36.682  1.00  0.00     0.022 A 
BRANCH  63  67
ATOM     67  S   UNL A   1      42.963  35.115  34.978  1.00  0.00     0.124 S 
ATOM     68  O   UNL A   1      41.815  35.681  34.272  1.00  0.00    -0.237 OA
ATOM     69  O   UNL A   1      43.238  35.668  36.299  1.00  0.00    -0.237 OA
ATOM     70  O   UNL A   1      44.138  34.872  34.144  1.00  0.00    -0.744 OA
ENDBRANCH  63  67
ENDBRANCH  46  60
BRANCH  47  71
ATOM     71  C   UNL A   1      42.449  24.383  27.275  1.00  0.00     0.023 A 
ATOM     72  C   UNL A   1      41.898  23.096  27.368  1.00  0.00     0.031 A 
ATOM     73  C   UNL A   1      43.126  24.728  26.091  1.00  0.00     0.131 A 
ATOM     74  C   UNL A   1      42.071  22.184  26.316  1.00  0.00     0.055 A 
ATOM     75  C   UNL A   1      43.252  23.833  25.027  1.00  0.00     0.041 A 
ATOM     76  F   UNL A   1      43.667  25.949  25.950  1.00  0.00    -0.206 F 
ATOM     77  C   UNL A   1      42.732  22.547  25.141  1.00  0.00     0.022 A 
BRANCH  74  78
ATOM     78  S   UNL A   1      41.485  20.482  26.539  1.00  0.00     0.124 S 
ATOM     79  O   UNL A   1      40.037  20.663  26.529  1.00  0.00    -0.237 OA
ATOM     80  O   UNL A   1      42.056  19.811  25.376  1.00  0.00    -0.237 OA
ATOM     81  O   UNL A   1      42.057  20.090  27.825  1.00  0.00    -0.744 OA
ENDBRANCH  74  78
ENDBRANCH  47  71
BRANCH  59  82
ATOM     82  C   UNL A   1      46.694  25.920  32.593  1.00  0.00     0.023 A 
ATOM     83  C   UNL A   1      47.936  26.281  32.045  1.00  0.00     0.031 A 
ATOM     84  C   UNL A   1      46.676  24.969  33.629  1.00  0.00     0.131 A 
ATOM     85  C   UNL A   1      49.108  25.665  32.511  1.00  0.00     0.055 A 
ATOM     86  C   UNL A   1      47.850  24.396  34.122  1.00  0.00     0.041 A 
ATOM     87  F   UNL A   1      45.516  24.588  34.188  1.00  0.00    -0.206 F 
ATOM     88  C   UNL A   1      49.074  24.738  33.555  1.00  0.00     0.022 A 
BRANCH  85  89
ATOM     89  S   UNL A   1      50.683  26.051  31.694  1.00  0.00     0.124 S 
ATOM     90  O   UNL A   1      50.463  25.530  30.349  1.00  0.00    -0.237 OA
ATOM     91  O   UNL A   1      50.749  27.503  31.813  1.00  0.00    -0.237 OA
ATOM     92  O   UNL A   1      51.668  25.321  32.489  1.00  0.00    -0.744 OA
ENDBRANCH  85  89
ENDBRANCH  59  82
ENDBRANCH  33  34
ENDBRANCH  25  28
ENDBRANCH  23  24
ENDBRANCH   1  23
TORSDOF 16
ENDMDL
