MODEL 1
REMARK VINA RESULT:     -11.4      0.000      0.000
REMARK SMILES CCc1nc(COC)cc(N2CCCC[C@H]2C(=O)NCCCNC(=O)c2ccc(-c3c4nc(c(-c5cc(S(=O)(=O)[O-])ccc5F)c5ccc([nH]5)c(-c5cc(S(=O)(=O)[O-])ccc5F)c5nc(c(-c6cc(S(=O)(=O)[O-])ccc6F)c6ccc3[nH]6)C=C5)C=C4)cc2)n1
REMARK SMILES IDX 21 1 20 2 19 3 17 4 18 5 16 7 11 8 12 9 13 10 15 11 14 12
REMARK SMILES IDX 10 13 3 14 4 15 89 16 5 17 9 18 2 19 1 20 6 21 7 22 8 23
REMARK SMILES IDX 22 24 23 25 24 26 25 28 26 29 27 30 88 31 28 32 87 33 29 34
REMARK SMILES IDX 30 35 31 36 81 37 32 38 86 39 80 40 82 41 33 42 85 43 79 44
REMARK SMILES IDX 78 45 34 47 66 48 46 49 65 50 47 51 50 52 64 53 83 54 48 55
REMARK SMILES IDX 49 56 63 58 84 59 51 60 35 61 36 62 44 63 37 64 43 65 45 66
REMARK SMILES IDX 42 67 38 68 39 69 40 70 41 71 67 72 68 73 76 74 69 75 75 76
REMARK SMILES IDX 77 77 74 78 70 79 71 80 72 81 73 82 52 83 53 84 61 85 54 86
REMARK SMILES IDX 60 87 62 88 59 89 55 90 56 91 57 92 58 93
REMARK H PARENT 19 6 23 27 82 46 50 57
REMARK Flexibility Score: inf
ROOT
ATOM      1  C   UNL A   1      32.119  29.030  26.642  1.00  0.00     0.042 C 
ENDROOT
BRANCH   1   2
ATOM      2  C   UNL A   1      32.538  27.594  26.814  1.00  0.00     0.117 C 
BRANCH   2   3
ATOM      3  N   UNL A   1      31.469  26.664  27.053  1.00  0.00    -0.354 N 
ATOM      4  C   UNL A   1      31.327  25.429  26.480  1.00  0.00     0.242 C 
ATOM      5  O   UNL A   1      30.404  24.726  26.896  1.00  0.00    -0.273 OA
ATOM      6  H   UNL A   1      30.772  26.943  27.690  1.00  0.00     0.163 HD
BRANCH   4   7
ATOM      7  C   UNL A   1      32.304  24.987  25.344  1.00  0.00     0.173 C 
ATOM      8  N   UNL A   1      32.232  23.519  25.107  1.00  0.00    -0.344 N 
ATOM      9  C   UNL A   1      31.063  23.014  24.398  1.00  0.00     0.119 C 
ATOM     10  C   UNL A   1      30.803  23.781  23.105  1.00  0.00     0.022 C 
ATOM     11  C   UNL A   1      32.001  25.770  24.055  1.00  0.00     0.035 C 
ATOM     12  C   UNL A   1      30.742  25.285  23.339  1.00  0.00     0.004 C 
BRANCH   8  13
ATOM     13  C   UNL A   1      33.419  22.795  24.994  1.00  0.00     0.133 A 
ATOM     14  C   UNL A   1      35.706  22.596  24.948  1.00  0.00     0.130 A 
ATOM     15  N   UNL A   1      35.690  21.250  24.927  1.00  0.00    -0.235 NA
ATOM     16  N   UNL A   1      34.616  23.397  25.028  1.00  0.00    -0.216 NA
ATOM     17  C   UNL A   1      34.492  20.671  24.820  1.00  0.00     0.072 A 
ATOM     18  C   UNL A   1      33.344  21.431  24.777  1.00  0.00     0.073 A 
BRANCH  14  19
ATOM     19  C   UNL A   1      37.057  23.225  24.740  1.00  0.00     0.074 C 
ATOM     20  C   UNL A   1      37.585  23.802  26.051  1.00  0.00     0.012 C 
ENDBRANCH  14  19
BRANCH  17  21
ATOM     21  C   UNL A   1      34.412  19.164  24.706  1.00  0.00     0.216 C 
BRANCH  21  22
ATOM     22  O   UNL A   1      33.135  18.692  24.272  1.00  0.00    -0.378 OA
ATOM     23  C   UNL A   1      32.972  17.289  24.418  1.00  0.00     0.195 C 
ENDBRANCH  21  22
ENDBRANCH  17  21
ENDBRANCH   8  13
ENDBRANCH   4   7
ENDBRANCH   2   3
ENDBRANCH   1   2
BRANCH   1  24
ATOM     24  C   UNL A   1      33.249  29.934  26.210  1.00  0.00     0.118 C 
BRANCH  24  25
ATOM     25  N   UNL A   1      33.109  31.301  26.701  1.00  0.00    -0.352 N 
ATOM     26  C   UNL A   1      33.875  31.994  27.610  1.00  0.00     0.251 C 
ATOM     27  H   UNL A   1      32.351  31.804  26.324  1.00  0.00     0.163 HD
ATOM     28  O   UNL A   1      33.481  33.084  28.018  1.00  0.00    -0.269 OA
BRANCH  26  29
ATOM     29  C   UNL A   1      35.138  31.409  28.113  1.00  0.00     0.039 A 
ATOM     30  C   UNL A   1      36.312  32.163  28.071  1.00  0.00     0.014 A 
ATOM     31  C   UNL A   1      35.160  30.123  28.651  1.00  0.00     0.014 A 
ATOM     32  C   UNL A   1      37.482  31.648  28.635  1.00  0.00     0.010 A 
ATOM     33  C   UNL A   1      36.275  29.680  29.346  1.00  0.00     0.010 A 
ATOM     34  C   UNL A   1      37.463  30.417  29.313  1.00  0.00    -0.014 A 
BRANCH  34  35
ATOM     35  C   UNL A   1      38.686  29.841  29.928  1.00  0.00     0.031 A 
ATOM     36  C   UNL A   1      39.116  30.308  31.297  1.00  0.00     0.074 A 
ATOM     37  C   UNL A   1      39.435  28.953  29.244  1.00  0.00     0.049 A 
ATOM     38  N   UNL A   1      40.187  29.997  31.982  1.00  0.00    -0.248 NA
ATOM     39  C   UNL A   1      38.250  31.293  31.965  1.00  0.00     0.031 C 
ATOM     40  C   UNL A   1      39.150  28.469  27.891  1.00  0.00     0.029 A 
ATOM     41  N   UNL A   1      40.589  28.299  29.593  1.00  0.00    -0.354 N 
ATOM     42  C   UNL A   1      40.128  30.761  33.143  1.00  0.00     0.074 A 
ATOM     43  C   UNL A   1      38.970  31.616  33.025  1.00  0.00     0.031 C 
ATOM     44  C   UNL A   1      40.079  27.562  27.544  1.00  0.00     0.029 A 
ATOM     45  C   UNL A   1      41.052  27.438  28.624  1.00  0.00     0.049 A 
ATOM     46  H   UNL A   1      41.044  28.433  30.455  1.00  0.00     0.167 HD
ATOM     47  C   UNL A   1      40.941  30.726  34.226  1.00  0.00     0.034 A 
ATOM     48  C   UNL A   1      42.139  26.640  28.610  1.00  0.00     0.034 A 
ATOM     49  C   UNL A   1      42.075  29.844  34.337  1.00  0.00     0.049 A 
ATOM     50  C   UNL A   1      43.033  26.619  29.826  1.00  0.00     0.074 A 
ATOM     51  C   UNL A   1      42.940  29.682  35.405  1.00  0.00     0.029 A 
ATOM     52  N   UNL A   1      42.503  28.973  33.343  1.00  0.00    -0.354 N 
ATOM     53  N   UNL A   1      42.935  27.311  30.938  1.00  0.00    -0.248 NA
ATOM     54  C   UNL A   1      44.172  25.695  29.790  1.00  0.00     0.031 C 
ATOM     55  C   UNL A   1      43.931  28.768  35.029  1.00  0.00     0.029 A 
ATOM     56  C   UNL A   1      43.633  28.290  33.762  1.00  0.00     0.049 A 
ATOM     57  H   UNL A   1      42.066  28.857  32.468  1.00  0.00     0.167 HD
ATOM     58  C   UNL A   1      43.978  26.872  31.751  1.00  0.00     0.074 A 
ATOM     59  C   UNL A   1      44.679  25.848  31.004  1.00  0.00     0.031 C 
ATOM     60  C   UNL A   1      44.321  27.272  33.002  1.00  0.00     0.034 A 
BRANCH  47  61
ATOM     61  C   UNL A   1      40.634  31.680  35.359  1.00  0.00     0.023 A 
ATOM     62  C   UNL A   1      39.544  31.476  36.226  1.00  0.00     0.031 A 
ATOM     63  C   UNL A   1      41.415  32.833  35.552  1.00  0.00     0.131 A 
ATOM     64  C   UNL A   1      39.215  32.447  37.182  1.00  0.00     0.055 A 
ATOM     65  C   UNL A   1      41.137  33.749  36.568  1.00  0.00     0.041 A 
ATOM     66  F   UNL A   1      42.452  33.099  34.742  1.00  0.00    -0.206 F 
ATOM     67  C   UNL A   1      40.021  33.569  37.379  1.00  0.00     0.022 A 
BRANCH  64  68
ATOM     68  S   UNL A   1      37.628  32.304  38.049  1.00  0.00     0.124 S 
ATOM     69  O   UNL A   1      37.958  32.855  39.362  1.00  0.00    -0.237 OA
ATOM     70  O   UNL A   1      36.742  33.115  37.222  1.00  0.00    -0.237 OA
ATOM     71  O   UNL A   1      37.356  30.869  38.034  1.00  0.00    -0.744 OA
ENDBRANCH  64  68
ENDBRANCH  47  61
BRANCH  48  72
ATOM     72  C   UNL A   1      42.442  25.792  27.422  1.00  0.00     0.023 A 
ATOM     73  C   UNL A   1      42.020  24.454  27.361  1.00  0.00     0.031 A 
ATOM     74  C   UNL A   1      43.201  26.291  26.348  1.00  0.00     0.131 A 
ATOM     75  C   UNL A   1      42.405  23.647  26.278  1.00  0.00     0.055 A 
ATOM     76  C   UNL A   1      43.530  25.502  25.245  1.00  0.00     0.041 A 
ATOM     77  F   UNL A   1      43.626  27.565  26.351  1.00  0.00    -0.206 F 
ATOM     78  C   UNL A   1      43.145  24.165  25.214  1.00  0.00     0.022 A 
BRANCH  75  79
ATOM     79  S   UNL A   1      42.007  21.877  26.330  1.00  0.00     0.124 S 
ATOM     80  O   UNL A   1      40.576  21.887  26.052  1.00  0.00    -0.237 OA
ATOM     81  O   UNL A   1      42.863  21.344  25.276  1.00  0.00    -0.237 OA
ATOM     82  O   UNL A   1      42.377  21.486  27.689  1.00  0.00    -0.744 OA
ENDBRANCH  75  79
ENDBRANCH  48  72
BRANCH  60  83
ATOM     83  C   UNL A   1      45.471  26.550  33.663  1.00  0.00     0.023 A 
ATOM     84  C   UNL A   1      45.283  25.375  34.409  1.00  0.00     0.031 A 
ATOM     85  C   UNL A   1      46.776  27.063  33.557  1.00  0.00     0.131 A 
ATOM     86  C   UNL A   1      46.369  24.790  35.077  1.00  0.00     0.055 A 
ATOM     87  C   UNL A   1      47.865  26.437  34.163  1.00  0.00     0.041 A 
ATOM     88  F   UNL A   1      47.017  28.186  32.859  1.00  0.00    -0.206 F 
ATOM     89  C   UNL A   1      47.663  25.302  34.943  1.00  0.00     0.022 A 
BRANCH  86  90
ATOM     90  S   UNL A   1      46.050  23.420  36.222  1.00  0.00     0.124 S 
ATOM     91  O   UNL A   1      45.902  24.118  37.496  1.00  0.00    -0.237 OA
ATOM     92  O   UNL A   1      44.833  22.833  35.673  1.00  0.00    -0.237 OA
ATOM     93  O   UNL A   1      47.248  22.590  36.105  1.00  0.00    -0.744 OA
ENDBRANCH  86  90
ENDBRANCH  60  83
ENDBRANCH  34  35
ENDBRANCH  26  29
ENDBRANCH  24  25
ENDBRANCH   1  24
TORSDOF 17
ENDMDL
MODEL 2
REMARK VINA RESULT:     -11.3      1.608      1.867
REMARK SMILES CCc1nc(COC)cc(N2CCCC[C@H]2C(=O)NCCCNC(=O)c2ccc(-c3c4nc(c(-c5cc(S(=O)(=O)[O-])ccc5F)c5ccc([nH]5)c(-c5cc(S(=O)(=O)[O-])ccc5F)c5nc(c(-c6cc(S(=O)(=O)[O-])ccc6F)c6ccc3[nH]6)C=C5)C=C4)cc2)n1
REMARK SMILES IDX 21 1 20 2 19 3 17 4 18 5 16 7 11 8 12 9 13 10 15 11 14 12
REMARK SMILES IDX 10 13 3 14 4 15 89 16 5 17 9 18 2 19 1 20 6 21 7 22 8 23
REMARK SMILES IDX 22 24 23 25 24 26 25 28 26 29 27 30 88 31 28 32 87 33 29 34
REMARK SMILES IDX 30 35 31 36 81 37 32 38 86 39 80 40 82 41 33 42 85 43 79 44
REMARK SMILES IDX 78 45 34 47 66 48 46 49 65 50 47 51 50 52 64 53 83 54 48 55
REMARK SMILES IDX 49 56 63 58 84 59 51 60 35 61 36 62 44 63 37 64 43 65 45 66
REMARK SMILES IDX 42 67 38 68 39 69 40 70 41 71 67 72 68 73 76 74 69 75 75 76
REMARK SMILES IDX 77 77 74 78 70 79 71 80 72 81 73 82 52 83 53 84 61 85 54 86
REMARK SMILES IDX 60 87 62 88 59 89 55 90 56 91 57 92 58 93
REMARK H PARENT 19 6 23 27 82 46 50 57
REMARK Flexibility Score: inf
ROOT
ATOM      1  C   UNL A   1      31.625  28.895  27.091  1.00  0.00     0.042 C 
ENDROOT
BRANCH   1   2
ATOM      2  C   UNL A   1      31.643  27.434  26.730  1.00  0.00     0.117 C 
BRANCH   2   3
ATOM      3  N   UNL A   1      30.732  27.045  25.690  1.00  0.00    -0.354 N 
ATOM      4  C   UNL A   1      30.995  26.175  24.667  1.00  0.00     0.242 C 
ATOM      5  O   UNL A   1      30.049  25.874  23.934  1.00  0.00    -0.273 OA
ATOM      6  H   UNL A   1      29.830  27.442  25.717  1.00  0.00     0.163 HD
BRANCH   4   7
ATOM      7  C   UNL A   1      32.446  25.631  24.469  1.00  0.00     0.173 C 
ATOM      8  N   UNL A   1      32.473  24.493  23.509  1.00  0.00    -0.344 N 
ATOM      9  C   UNL A   1      32.320  24.809  22.095  1.00  0.00     0.119 C 
ATOM     10  C   UNL A   1      33.276  25.911  21.648  1.00  0.00     0.022 C 
ATOM     11  C   UNL A   1      33.375  26.766  24.005  1.00  0.00     0.035 C 
ATOM     12  C   UNL A   1      33.177  27.143  22.538  1.00  0.00     0.004 C 
BRANCH   8  13
ATOM     13  C   UNL A   1      33.198  23.348  23.841  1.00  0.00     0.133 A 
ATOM     14  C   UNL A   1      35.074  22.247  24.579  1.00  0.00     0.130 A 
ATOM     15  N   UNL A   1      34.473  21.044  24.626  1.00  0.00    -0.235 NA
ATOM     16  N   UNL A   1      34.474  23.416  24.246  1.00  0.00    -0.216 NA
ATOM     17  C   UNL A   1      33.226  20.982  24.152  1.00  0.00     0.072 A 
ATOM     18  C   UNL A   1      32.595  22.113  23.684  1.00  0.00     0.073 A 
BRANCH  14  19
ATOM     19  C   UNL A   1      36.561  22.232  24.806  1.00  0.00     0.074 C 
ATOM     20  C   UNL A   1      37.030  23.572  25.368  1.00  0.00     0.012 C 
ENDBRANCH  14  19
BRANCH  17  21
ATOM     21  C   UNL A   1      32.526  19.642  24.097  1.00  0.00     0.216 C 
BRANCH  21  22
ATOM     22  O   UNL A   1      32.325  19.051  25.382  1.00  0.00    -0.378 OA
ATOM     23  C   UNL A   1      32.531  17.646  25.395  1.00  0.00     0.195 C 
ENDBRANCH  21  22
ENDBRANCH  17  21
ENDBRANCH   8  13
ENDBRANCH   4   7
ENDBRANCH   2   3
ENDBRANCH   1   2
BRANCH   1  24
ATOM     24  C   UNL A   1      32.520  29.739  26.214  1.00  0.00     0.118 C 
BRANCH  24  25
ATOM     25  N   UNL A   1      32.370  31.171  26.451  1.00  0.00    -0.352 N 
ATOM     26  C   UNL A   1      33.130  32.021  27.220  1.00  0.00     0.251 C 
ATOM     27  H   UNL A   1      31.609  31.592  25.990  1.00  0.00     0.163 HD
ATOM     28  O   UNL A   1      32.728  33.165  27.426  1.00  0.00    -0.269 OA
BRANCH  26  29
ATOM     29  C   UNL A   1      34.397  31.545  27.819  1.00  0.00     0.039 A 
ATOM     30  C   UNL A   1      35.441  32.447  28.033  1.00  0.00     0.014 A 
ATOM     31  C   UNL A   1      34.547  30.211  28.196  1.00  0.00     0.014 A 
ATOM     32  C   UNL A   1      36.599  32.019  28.687  1.00  0.00     0.010 A 
ATOM     33  C   UNL A   1      35.624  29.828  28.981  1.00  0.00     0.010 A 
ATOM     34  C   UNL A   1      36.684  30.714  29.202  1.00  0.00    -0.014 A 
BRANCH  34  35
ATOM     35  C   UNL A   1      37.896  30.225  29.908  1.00  0.00     0.031 A 
ATOM     36  C   UNL A   1      38.160  30.674  31.323  1.00  0.00     0.074 A 
ATOM     37  C   UNL A   1      38.780  29.435  29.267  1.00  0.00     0.049 A 
ATOM     38  N   UNL A   1      39.191  30.434  32.092  1.00  0.00    -0.248 NA
ATOM     39  C   UNL A   1      37.151  31.552  31.940  1.00  0.00     0.031 C 
ATOM     40  C   UNL A   1      38.661  28.981  27.879  1.00  0.00     0.029 A 
ATOM     41  N   UNL A   1      39.955  28.873  29.697  1.00  0.00    -0.354 N 
ATOM     42  C   UNL A   1      38.961  31.144  33.267  1.00  0.00     0.074 A 
ATOM     43  C   UNL A   1      37.743  31.896  33.071  1.00  0.00     0.031 C 
ATOM     44  C   UNL A   1      39.695  28.175  27.589  1.00  0.00     0.029 A 
ATOM     45  C   UNL A   1      40.578  28.096  28.748  1.00  0.00     0.049 A 
ATOM     46  H   UNL A   1      40.319  29.014  30.601  1.00  0.00     0.167 HD
ATOM     47  C   UNL A   1      39.676  31.139  34.417  1.00  0.00     0.034 A 
ATOM     48  C   UNL A   1      41.731  27.399  28.808  1.00  0.00     0.034 A 
ATOM     49  C   UNL A   1      40.873  30.358  34.602  1.00  0.00     0.049 A 
ATOM     50  C   UNL A   1      42.514  27.411  30.098  1.00  0.00     0.074 A 
ATOM     51  C   UNL A   1      41.653  30.232  35.738  1.00  0.00     0.029 A 
ATOM     52  N   UNL A   1      41.464  29.568  33.624  1.00  0.00    -0.354 N 
ATOM     53  N   UNL A   1      42.256  28.047  31.217  1.00  0.00    -0.248 NA
ATOM     54  C   UNL A   1      43.732  26.594  30.137  1.00  0.00     0.031 C 
ATOM     55  C   UNL A   1      42.753  29.425  35.425  1.00  0.00     0.029 A 
ATOM     56  C   UNL A   1      42.612  28.973  34.122  1.00  0.00     0.049 A 
ATOM     57  H   UNL A   1      41.118  29.448  32.710  1.00  0.00     0.167 HD
ATOM     58  C   UNL A   1      43.260  27.671  32.108  1.00  0.00     0.074 A 
ATOM     59  C   UNL A   1      44.116  26.744  31.395  1.00  0.00     0.031 C 
ATOM     60  C   UNL A   1      43.454  28.051  33.396  1.00  0.00     0.034 A 
BRANCH  47  61
ATOM     61  C   UNL A   1      39.185  32.016  35.546  1.00  0.00     0.023 A 
ATOM     62  C   UNL A   1      39.588  33.359  35.670  1.00  0.00     0.031 A 
ATOM     63  C   UNL A   1      38.337  31.494  36.539  1.00  0.00     0.131 A 
ATOM     64  C   UNL A   1      39.215  34.104  36.799  1.00  0.00     0.055 A 
ATOM     65  C   UNL A   1      37.893  32.270  37.611  1.00  0.00     0.041 A 
ATOM     66  F   UNL A   1      37.939  30.213  36.492  1.00  0.00    -0.206 F 
ATOM     67  C   UNL A   1      38.346  33.578  37.756  1.00  0.00     0.022 A 
BRANCH  64  68
ATOM     68  S   UNL A   1      40.016  35.707  37.081  1.00  0.00     0.124 S 
ATOM     69  O   UNL A   1      41.420  35.318  37.194  1.00  0.00    -0.237 OA
ATOM     70  O   UNL A   1      39.655  36.455  35.883  1.00  0.00    -0.237 OA
ATOM     71  O   UNL A   1      39.407  36.182  38.322  1.00  0.00    -0.744 OA
ENDBRANCH  64  68
ENDBRANCH  47  61
BRANCH  48  72
ATOM     72  C   UNL A   1      42.214  26.629  27.626  1.00  0.00     0.023 A 
ATOM     73  C   UNL A   1      41.906  25.267  27.474  1.00  0.00     0.031 A 
ATOM     74  C   UNL A   1      43.032  27.229  26.652  1.00  0.00     0.131 A 
ATOM     75  C   UNL A   1      42.455  24.539  26.407  1.00  0.00     0.055 A 
ATOM     76  C   UNL A   1      43.528  26.516  25.560  1.00  0.00     0.041 A 
ATOM     77  F   UNL A   1      43.354  28.529  26.744  1.00  0.00    -0.206 F 
ATOM     78  C   UNL A   1      43.253  25.156  25.442  1.00  0.00     0.022 A 
BRANCH  75  79
ATOM     79  S   UNL A   1      42.193  22.744  26.355  1.00  0.00     0.124 S 
ATOM     80  O   UNL A   1      40.759  22.647  26.601  1.00  0.00    -0.237 OA
ATOM     81  O   UNL A   1      42.638  22.413  25.005  1.00  0.00    -0.237 OA
ATOM     82  O   UNL A   1      43.047  22.245  27.430  1.00  0.00    -0.744 OA
ENDBRANCH  75  79
ENDBRANCH  48  72
BRANCH  60  83
ATOM     83  C   UNL A   1      44.604  27.409  34.136  1.00  0.00     0.023 A 
ATOM     84  C   UNL A   1      44.461  26.193  34.824  1.00  0.00     0.031 A 
ATOM     85  C   UNL A   1      45.861  28.041  34.165  1.00  0.00     0.131 A 
ATOM     86  C   UNL A   1      45.535  25.681  35.569  1.00  0.00     0.055 A 
ATOM     87  C   UNL A   1      46.946  27.490  34.847  1.00  0.00     0.041 A 
ATOM     88  F   UNL A   1      46.056  29.207  33.527  1.00  0.00    -0.206 F 
ATOM     89  C   UNL A   1      46.782  26.312  35.569  1.00  0.00     0.022 A 
BRANCH  86  90
ATOM     90  S   UNL A   1      45.245  24.244  36.637  1.00  0.00     0.124 S 
ATOM     91  O   UNL A   1      44.489  24.832  37.738  1.00  0.00    -0.237 OA
ATOM     92  O   UNL A   1      44.499  23.349  35.758  1.00  0.00    -0.237 OA
ATOM     93  O   UNL A   1      46.594  23.795  36.980  1.00  0.00    -0.744 OA
ENDBRANCH  86  90
ENDBRANCH  60  83
ENDBRANCH  34  35
ENDBRANCH  26  29
ENDBRANCH  24  25
ENDBRANCH   1  24
TORSDOF 17
ENDMDL
MODEL 3
REMARK VINA RESULT:     -11.0      1.764      2.051
REMARK SMILES CCc1nc(COC)cc(N2CCCC[C@H]2C(=O)NCCCNC(=O)c2ccc(-c3c4nc(c(-c5cc(S(=O)(=O)[O-])ccc5F)c5ccc([nH]5)c(-c5cc(S(=O)(=O)[O-])ccc5F)c5nc(c(-c6cc(S(=O)(=O)[O-])ccc6F)c6ccc3[nH]6)C=C5)C=C4)cc2)n1
REMARK SMILES IDX 21 1 20 2 19 3 17 4 18 5 16 7 11 8 12 9 13 10 15 11 14 12
REMARK SMILES IDX 10 13 3 14 4 15 89 16 5 17 9 18 2 19 1 20 6 21 7 22 8 23
REMARK SMILES IDX 22 24 23 25 24 26 25 28 26 29 27 30 88 31 28 32 87 33 29 34
REMARK SMILES IDX 30 35 31 36 81 37 32 38 86 39 80 40 82 41 33 42 85 43 79 44
REMARK SMILES IDX 78 45 34 47 66 48 46 49 65 50 47 51 50 52 64 53 83 54 48 55
REMARK SMILES IDX 49 56 63 58 84 59 51 60 35 61 36 62 44 63 37 64 43 65 45 66
REMARK SMILES IDX 42 67 38 68 39 69 40 70 41 71 67 72 68 73 76 74 69 75 75 76
REMARK SMILES IDX 77 77 74 78 70 79 71 80 72 81 73 82 52 83 53 84 61 85 54 86
REMARK SMILES IDX 60 87 62 88 59 89 55 90 56 91 57 92 58 93
REMARK H PARENT 19 6 23 27 82 46 50 57
REMARK Flexibility Score: inf
ROOT
ATOM      1  C   UNL A   1      32.237  29.024  26.839  1.00  0.00     0.042 C 
ENDROOT
BRANCH   1   2
ATOM      2  C   UNL A   1      32.219  27.543  27.104  1.00  0.00     0.117 C 
BRANCH   2   3
ATOM      3  N   UNL A   1      31.074  26.839  26.595  1.00  0.00    -0.354 N 
ATOM      4  C   UNL A   1      31.096  25.743  25.775  1.00  0.00     0.242 C 
ATOM      5  O   UNL A   1      30.013  25.206  25.535  1.00  0.00    -0.273 OA
ATOM      6  H   UNL A   1      30.189  27.178  26.861  1.00  0.00     0.163 HD
BRANCH   4   7
ATOM      7  C   UNL A   1      32.455  25.248  25.184  1.00  0.00     0.173 C 
ATOM      8  N   UNL A   1      32.286  23.978  24.425  1.00  0.00    -0.344 N 
ATOM      9  C   UNL A   1      31.662  24.063  23.111  1.00  0.00     0.119 C 
ATOM     10  C   UNL A   1      32.314  25.129  22.236  1.00  0.00     0.022 C 
ATOM     11  C   UNL A   1      33.073  26.342  24.296  1.00  0.00     0.035 C 
ATOM     12  C   UNL A   1      32.384  26.478  22.940  1.00  0.00     0.004 C 
BRANCH   8  13
ATOM     13  C   UNL A   1      33.186  22.935  24.646  1.00  0.00     0.133 A 
ATOM     14  C   UNL A   1      35.189  22.069  25.362  1.00  0.00     0.130 A 
ATOM     15  N   UNL A   1      34.811  20.788  25.194  1.00  0.00    -0.235 NA
ATOM     16  N   UNL A   1      34.408  23.156  25.152  1.00  0.00    -0.216 NA
ATOM     17  C   UNL A   1      33.620  20.589  24.623  1.00  0.00     0.072 A 
ATOM     18  C   UNL A   1      32.821  21.655  24.273  1.00  0.00     0.073 A 
BRANCH  14  19
ATOM     19  C   UNL A   1      36.642  22.271  25.696  1.00  0.00     0.074 C 
ATOM     20  C   UNL A   1      37.087  23.680  25.312  1.00  0.00     0.012 C 
ENDBRANCH  14  19
BRANCH  17  21
ATOM     21  C   UNL A   1      33.174  19.174  24.327  1.00  0.00     0.216 C 
BRANCH  21  22
ATOM     22  O   UNL A   1      32.383  18.596  25.367  1.00  0.00    -0.378 OA
ATOM     23  C   UNL A   1      32.527  17.187  25.471  1.00  0.00     0.195 C 
ENDBRANCH  21  22
ENDBRANCH  17  21
ENDBRANCH   8  13
ENDBRANCH   4   7
ENDBRANCH   2   3
ENDBRANCH   1   2
BRANCH   1  24
ATOM     24  C   UNL A   1      33.622  29.625  26.893  1.00  0.00     0.118 C 
BRANCH  24  25
ATOM     25  N   UNL A   1      33.614  31.066  27.124  1.00  0.00    -0.352 N 
ATOM     26  C   UNL A   1      34.444  31.838  27.902  1.00  0.00     0.251 C 
ATOM     27  H   UNL A   1      32.906  31.560  26.651  1.00  0.00     0.163 HD
ATOM     28  O   UNL A   1      34.156  33.017  28.099  1.00  0.00    -0.269 OA
BRANCH  26  29
ATOM     29  C   UNL A   1      35.648  31.240  28.522  1.00  0.00     0.039 A 
ATOM     30  C   UNL A   1      35.535  30.046  29.236  1.00  0.00     0.014 A 
ATOM     31  C   UNL A   1      36.896  31.844  28.377  1.00  0.00     0.014 A 
ATOM     32  C   UNL A   1      36.686  29.431  29.738  1.00  0.00     0.010 A 
ATOM     33  C   UNL A   1      38.046  31.158  28.736  1.00  0.00     0.010 A 
ATOM     34  C   UNL A   1      37.956  29.963  29.457  1.00  0.00    -0.014 A 
BRANCH  34  35
ATOM     35  C   UNL A   1      39.201  29.334  29.969  1.00  0.00     0.031 A 
ATOM     36  C   UNL A   1      39.853  29.888  31.211  1.00  0.00     0.074 A 
ATOM     37  C   UNL A   1      39.772  28.317  29.294  1.00  0.00     0.049 A 
ATOM     38  N   UNL A   1      40.978  29.544  31.782  1.00  0.00    -0.248 NA
ATOM     39  C   UNL A   1      39.170  31.011  31.875  1.00  0.00     0.031 C 
ATOM     40  C   UNL A   1      39.265  27.734  28.049  1.00  0.00     0.029 A 
ATOM     41  N   UNL A   1      40.906  27.593  29.559  1.00  0.00    -0.354 N 
ATOM     42  C   UNL A   1      41.143  30.419  32.851  1.00  0.00     0.074 A 
ATOM     43  C   UNL A   1      40.053  31.365  32.791  1.00  0.00     0.031 C 
ATOM     44  C   UNL A   1      40.060  26.714  27.685  1.00  0.00     0.029 A 
ATOM     45  C   UNL A   1      41.159  26.602  28.638  1.00  0.00     0.049 A 
ATOM     46  H   UNL A   1      41.486  27.766  30.336  1.00  0.00     0.167 HD
ATOM     47  C   UNL A   1      42.093  30.412  33.817  1.00  0.00     0.034 A 
ATOM     48  C   UNL A   1      42.165  25.707  28.571  1.00  0.00     0.034 A 
ATOM     49  C   UNL A   1      43.156  29.440  33.876  1.00  0.00     0.049 A 
ATOM     50  C   UNL A   1      43.214  25.718  29.656  1.00  0.00     0.074 A 
ATOM     51  C   UNL A   1      44.144  29.300  34.834  1.00  0.00     0.029 A 
ATOM     52  N   UNL A   1      43.369  28.441  32.935  1.00  0.00    -0.354 N 
ATOM     53  N   UNL A   1      43.328  26.520  30.689  1.00  0.00    -0.248 NA
ATOM     54  C   UNL A   1      44.258  24.691  29.574  1.00  0.00     0.031 C 
ATOM     55  C   UNL A   1      44.995  28.264  34.435  1.00  0.00     0.029 A 
ATOM     56  C   UNL A   1      44.487  27.697  33.276  1.00  0.00     0.049 A 
ATOM     57  H   UNL A   1      42.807  28.283  32.142  1.00  0.00     0.167 HD
ATOM     58  C   UNL A   1      44.434  26.065  31.404  1.00  0.00     0.074 A 
ATOM     59  C   UNL A   1      44.939  24.911  30.688  1.00  0.00     0.031 C 
ATOM     60  C   UNL A   1      44.978  26.549  32.549  1.00  0.00     0.034 A 
BRANCH  47  61
ATOM     61  C   UNL A   1      42.025  31.495  34.870  1.00  0.00     0.023 A 
ATOM     62  C   UNL A   1      41.024  31.505  35.860  1.00  0.00     0.031 A 
ATOM     63  C   UNL A   1      42.945  32.558  34.861  1.00  0.00     0.131 A 
ATOM     64  C   UNL A   1      40.916  32.593  36.739  1.00  0.00     0.055 A 
ATOM     65  C   UNL A   1      42.888  33.590  35.799  1.00  0.00     0.041 A 
ATOM     66  F   UNL A   1      43.907  32.621  33.926  1.00  0.00    -0.206 F 
ATOM     67  C   UNL A   1      41.858  33.622  36.734  1.00  0.00     0.022 A 
BRANCH  64  68
ATOM     68  S   UNL A   1      39.431  32.724  37.773  1.00  0.00     0.124 S 
ATOM     69  O   UNL A   1      38.923  34.041  37.393  1.00  0.00    -0.237 OA
ATOM     70  O   UNL A   1      38.638  31.583  37.333  1.00  0.00    -0.237 OA
ATOM     71  O   UNL A   1      39.952  32.636  39.135  1.00  0.00    -0.744 OA
ENDBRANCH  64  68
ENDBRANCH  47  61
BRANCH  48  72
ATOM     72  C   UNL A   1      42.231  24.722  27.452  1.00  0.00     0.023 A 
ATOM     73  C   UNL A   1      41.574  23.485  27.537  1.00  0.00     0.031 A 
ATOM     74  C   UNL A   1      42.992  24.984  26.299  1.00  0.00     0.131 A 
ATOM     75  C   UNL A   1      41.734  22.534  26.516  1.00  0.00     0.055 A 
ATOM     76  C   UNL A   1      43.100  24.060  25.259  1.00  0.00     0.041 A 
ATOM     77  F   UNL A   1      43.637  26.153  26.162  1.00  0.00    -0.206 F 
ATOM     78  C   UNL A   1      42.481  22.818  25.372  1.00  0.00     0.022 A 
BRANCH  75  79
ATOM     79  S   UNL A   1      41.031  20.879  26.753  1.00  0.00     0.124 S 
ATOM     80  O   UNL A   1      39.847  20.936  25.904  1.00  0.00    -0.237 OA
ATOM     81  O   UNL A   1      42.115  20.021  26.288  1.00  0.00    -0.237 OA
ATOM     82  O   UNL A   1      40.768  20.824  28.190  1.00  0.00    -0.744 OA
ENDBRANCH  75  79
ENDBRANCH  48  72
BRANCH  60  83
ATOM     83  C   UNL A   1      46.146  25.788  33.131  1.00  0.00     0.023 A 
ATOM     84  C   UNL A   1      47.463  25.992  32.689  1.00  0.00     0.031 A 
ATOM     85  C   UNL A   1      45.927  24.827  34.135  1.00  0.00     0.131 A 
ATOM     86  C   UNL A   1      48.502  25.198  33.198  1.00  0.00     0.055 A 
ATOM     87  C   UNL A   1      46.974  24.091  34.690  1.00  0.00     0.041 A 
ATOM     88  F   UNL A   1      44.688  24.587  34.595  1.00  0.00    -0.206 F 
ATOM     89  C   UNL A   1      48.269  24.263  34.211  1.00  0.00     0.022 A 
BRANCH  86  90
ATOM     90  S   UNL A   1      50.143  25.320  32.435  1.00  0.00     0.124 S 
ATOM     91  O   UNL A   1      50.755  26.399  33.203  1.00  0.00    -0.237 OA
ATOM     92  O   UNL A   1      50.690  23.986  32.661  1.00  0.00    -0.237 OA
ATOM     93  O   UNL A   1      49.848  25.641  31.039  1.00  0.00    -0.744 OA
ENDBRANCH  86  90
ENDBRANCH  60  83
ENDBRANCH  34  35
ENDBRANCH  26  29
ENDBRANCH  24  25
ENDBRANCH   1  24
TORSDOF 17
ENDMDL
