MODEL 1
REMARK VINA RESULT:     -12.7      0.000      0.000
REMARK SMILES CS(=O)(=O)c1ccc(N2N=C(C(=O)NCCCNC(=O)c3ccc(-c4c5nc(c(-c6cc(S(=O)(=O)[O-])ccc6F)c6ccc([nH]6)c(-c6cc(S(=O)(=O)[O-])ccc6F)c6nc(c(-c7cc(S(=O)(=O)[O-])ccc7F)c7ccc4[nH]7)C=C6)C=C5)cc3)C[C@H]2c2ccco2)cc1
REMARK SMILES IDX 16 1 15 2 14 3 12 4 13 5 11 7 9 8 10 9 85 10 84 11 8 12 5 13
REMARK SMILES IDX 6 14 92 15 7 16 91 17 2 18 1 19 3 20 4 21 86 22 87 23 90 24
REMARK SMILES IDX 88 25 89 26 17 27 18 28 19 29 20 31 21 32 22 33 83 34 23 35
REMARK SMILES IDX 82 36 24 37 25 38 26 39 76 40 27 41 81 42 75 43 77 44 28 45
REMARK SMILES IDX 80 46 74 47 73 48 29 50 61 51 41 52 60 53 42 54 45 55 59 56
REMARK SMILES IDX 78 57 43 58 44 59 58 61 79 62 46 63 30 64 31 65 39 66 32 67
REMARK SMILES IDX 38 68 40 69 37 70 33 71 34 72 35 73 36 74 62 75 63 76 71 77
REMARK SMILES IDX 64 78 70 79 72 80 69 81 65 82 66 83 67 84 68 85 47 86 48 87
REMARK SMILES IDX 56 88 49 89 55 90 57 91 54 92 50 93 51 94 52 95 53 96
REMARK H PARENT 14 6 18 30 77 49 45 60
REMARK Flexibility Score: inf
ROOT
ATOM      1  C   UNL A   1      32.223  27.867  27.062  1.00  0.00     0.042 C 
ENDROOT
BRANCH   1   2
ATOM      2  C   UNL A   1      31.611  26.982  25.984  1.00  0.00     0.118 C 
BRANCH   2   3
ATOM      3  N   UNL A   1      30.814  25.911  26.558  1.00  0.00    -0.351 N 
ATOM      4  C   UNL A   1      30.879  24.541  26.548  1.00  0.00     0.267 C 
ATOM      5  O   UNL A   1      29.961  23.925  27.088  1.00  0.00    -0.268 OA
ATOM      6  H   UNL A   1      30.047  26.247  27.075  1.00  0.00     0.163 HD
BRANCH   4   7
ATOM      7  C   UNL A   1      32.029  23.742  25.954  1.00  0.00     0.128 C 
ATOM      8  N   UNL A   1      33.312  22.060  25.603  1.00  0.00    -0.254 N 
ATOM      9  N   UNL A   1      32.124  22.460  26.146  1.00  0.00    -0.171 NA
ATOM     10  C   UNL A   1      33.953  23.113  24.799  1.00  0.00     0.180 C 
ATOM     11  C   UNL A   1      33.121  24.350  25.150  1.00  0.00     0.099 C 
BRANCH   8  12
ATOM     12  C   UNL A   1      33.471  20.724  25.227  1.00  0.00     0.060 A 
ATOM     13  C   UNL A   1      33.759  18.000  24.605  1.00  0.00     0.067 A 
ATOM     14  C   UNL A   1      34.891  18.811  24.696  1.00  0.00     0.022 A 
ATOM     15  C   UNL A   1      32.485  18.536  24.796  1.00  0.00     0.022 A 
ATOM     16  C   UNL A   1      34.740  20.171  24.990  1.00  0.00     0.029 A 
ATOM     17  C   UNL A   1      32.351  19.890  25.103  1.00  0.00     0.029 A 
BRANCH  13  18
ATOM     18  S   UNL A   1      33.934  16.266  24.268  1.00  0.00     0.175 S 
ATOM     19  C   UNL A   1      35.354  15.762  25.201  1.00  0.00     0.163 C 
ATOM     20  O   UNL A   1      34.276  16.123  22.863  1.00  0.00    -0.224 OA
ATOM     21  O   UNL A   1      32.768  15.608  24.819  1.00  0.00    -0.224 OA
ENDBRANCH  13  18
ENDBRANCH   8  12
BRANCH  10  22
ATOM     22  C   UNL A   1      35.427  23.338  25.001  1.00  0.00     0.128 A 
ATOM     23  C   UNL A   1      36.507  23.321  24.139  1.00  0.00     0.048 A 
ATOM     24  O   UNL A   1      35.862  23.654  26.259  1.00  0.00    -0.467 OA
ATOM     25  C   UNL A   1      37.651  23.633  24.913  1.00  0.00     0.042 A 
ATOM     26  C   UNL A   1      37.201  23.843  26.193  1.00  0.00     0.195 A 
ENDBRANCH  10  22
ENDBRANCH   4   7
ENDBRANCH   2   3
ENDBRANCH   1   2
BRANCH   1  27
ATOM     27  C   UNL A   1      33.540  28.509  26.638  1.00  0.00     0.118 C 
BRANCH  27  28
ATOM     28  N   UNL A   1      33.512  29.959  26.777  1.00  0.00    -0.352 N 
ATOM     29  C   UNL A   1      34.321  30.799  27.502  1.00  0.00     0.251 C 
ATOM     30  H   UNL A   1      32.797  30.409  26.270  1.00  0.00     0.163 HD
ATOM     31  O   UNL A   1      33.963  31.961  27.681  1.00  0.00    -0.269 OA
BRANCH  29  32
ATOM     32  C   UNL A   1      35.597  30.315  28.072  1.00  0.00     0.039 A 
ATOM     33  C   UNL A   1      35.604  29.781  29.364  1.00  0.00     0.014 A 
ATOM     34  C   UNL A   1      36.792  30.420  27.356  1.00  0.00     0.014 A 
ATOM     35  C   UNL A   1      36.795  29.296  29.909  1.00  0.00     0.010 A 
ATOM     36  C   UNL A   1      37.961  29.861  27.866  1.00  0.00     0.010 A 
ATOM     37  C   UNL A   1      37.977  29.299  29.152  1.00  0.00    -0.014 A 
BRANCH  37  38
ATOM     38  C   UNL A   1      39.245  28.737  29.685  1.00  0.00     0.031 A 
ATOM     39  C   UNL A   1      39.932  29.402  30.847  1.00  0.00     0.074 A 
ATOM     40  C   UNL A   1      39.816  27.680  29.073  1.00  0.00     0.049 A 
ATOM     41  N   UNL A   1      41.095  29.139  31.384  1.00  0.00    -0.248 NA
ATOM     42  C   UNL A   1      39.228  30.536  31.464  1.00  0.00     0.031 C 
ATOM     43  C   UNL A   1      39.267  26.977  27.911  1.00  0.00     0.029 A 
ATOM     44  N   UNL A   1      40.991  27.021  29.332  1.00  0.00    -0.354 N 
ATOM     45  C   UNL A   1      41.274  30.089  32.386  1.00  0.00     0.074 A 
ATOM     46  C   UNL A   1      40.124  30.967  32.339  1.00  0.00     0.031 C 
ATOM     47  C   UNL A   1      40.094  25.976  27.571  1.00  0.00     0.029 A 
ATOM     48  C   UNL A   1      41.253  25.992  28.458  1.00  0.00     0.049 A 
ATOM     49  H   UNL A   1      41.590  27.261  30.076  1.00  0.00     0.167 HD
ATOM     50  C   UNL A   1      42.293  30.204  33.274  1.00  0.00     0.034 A 
ATOM     51  C   UNL A   1      42.314  25.166  28.370  1.00  0.00     0.034 A 
ATOM     52  C   UNL A   1      43.420  29.304  33.321  1.00  0.00     0.049 A 
ATOM     53  C   UNL A   1      43.435  25.314  29.365  1.00  0.00     0.074 A 
ATOM     54  C   UNL A   1      44.476  29.288  34.216  1.00  0.00     0.029 A 
ATOM     55  N   UNL A   1      43.642  28.261  32.429  1.00  0.00    -0.354 N 
ATOM     56  N   UNL A   1      43.568  26.188  30.336  1.00  0.00    -0.248 NA
ATOM     57  C   UNL A   1      44.544  24.357  29.261  1.00  0.00     0.031 C 
ATOM     58  C   UNL A   1      45.364  28.278  33.831  1.00  0.00     0.029 A 
ATOM     59  C   UNL A   1      44.829  27.614  32.738  1.00  0.00     0.049 A 
ATOM     60  H   UNL A   1      43.042  28.017  31.688  1.00  0.00     0.167 HD
ATOM     61  C   UNL A   1      44.762  25.867  30.975  1.00  0.00     0.074 A 
ATOM     62  C   UNL A   1      45.302  24.710  30.288  1.00  0.00     0.031 C 
ATOM     63  C   UNL A   1      45.358  26.469  32.035  1.00  0.00     0.034 A 
BRANCH  50  64
ATOM     64  C   UNL A   1      42.238  31.358  34.248  1.00  0.00     0.023 A 
ATOM     65  C   UNL A   1      41.375  31.347  35.359  1.00  0.00     0.031 A 
ATOM     66  C   UNL A   1      43.032  32.499  34.046  1.00  0.00     0.131 A 
ATOM     67  C   UNL A   1      41.267  32.484  36.174  1.00  0.00     0.055 A 
ATOM     68  C   UNL A   1      42.983  33.595  34.911  1.00  0.00     0.041 A 
ATOM     69  F   UNL A   1      43.861  32.578  32.994  1.00  0.00    -0.206 F 
ATOM     70  C   UNL A   1      42.083  33.598  35.974  1.00  0.00     0.022 A 
BRANCH  67  71
ATOM     71  S   UNL A   1      39.938  32.539  37.407  1.00  0.00     0.124 S 
ATOM     72  O   UNL A   1      39.098  31.421  36.984  1.00  0.00    -0.237 OA
ATOM     73  O   UNL A   1      40.661  32.356  38.660  1.00  0.00    -0.237 OA
ATOM     74  O   UNL A   1      39.346  33.861  37.214  1.00  0.00    -0.744 OA
ENDBRANCH  67  71
ENDBRANCH  50  64
BRANCH  51  75
ATOM     75  C   UNL A   1      42.376  24.130  27.299  1.00  0.00     0.023 A 
ATOM     76  C   UNL A   1      41.607  22.959  27.382  1.00  0.00     0.031 A 
ATOM     77  C   UNL A   1      43.232  24.282  26.194  1.00  0.00     0.131 A 
ATOM     78  C   UNL A   1      41.741  21.964  26.402  1.00  0.00     0.055 A 
ATOM     79  C   UNL A   1      43.326  23.311  25.196  1.00  0.00     0.041 A 
ATOM     80  F   UNL A   1      43.982  25.387  26.063  1.00  0.00    -0.206 F 
ATOM     81  C   UNL A   1      42.587  22.136  25.303  1.00  0.00     0.022 A 
BRANCH  78  82
ATOM     82  S   UNL A   1      40.848  20.401  26.624  1.00  0.00     0.124 S 
ATOM     83  O   UNL A   1      39.536  20.728  26.077  1.00  0.00    -0.237 OA
ATOM     84  O   UNL A   1      41.658  19.476  25.839  1.00  0.00    -0.237 OA
ATOM     85  O   UNL A   1      40.888  20.189  28.070  1.00  0.00    -0.744 OA
ENDBRANCH  78  82
ENDBRANCH  51  75
BRANCH  63  86
ATOM     86  C   UNL A   1      46.639  25.853  32.539  1.00  0.00     0.023 A 
ATOM     87  C   UNL A   1      47.876  26.115  31.926  1.00  0.00     0.031 A 
ATOM     88  C   UNL A   1      46.616  24.980  33.640  1.00  0.00     0.131 A 
ATOM     89  C   UNL A   1      49.033  25.467  32.384  1.00  0.00     0.055 A 
ATOM     90  C   UNL A   1      47.779  24.383  34.129  1.00  0.00     0.041 A 
ATOM     91  F   UNL A   1      45.461  24.693  34.262  1.00  0.00    -0.206 F 
ATOM     92  C   UNL A   1      48.995  24.614  33.491  1.00  0.00     0.022 A 
BRANCH  89  93
ATOM     93  S   UNL A   1      50.577  25.683  31.458  1.00  0.00     0.124 S 
ATOM     94  O   UNL A   1      50.268  26.833  30.616  1.00  0.00    -0.237 OA
ATOM     95  O   UNL A   1      51.550  25.913  32.521  1.00  0.00    -0.237 OA
ATOM     96  O   UNL A   1      50.731  24.415  30.745  1.00  0.00    -0.744 OA
ENDBRANCH  89  93
ENDBRANCH  63  86
ENDBRANCH  37  38
ENDBRANCH  29  32
ENDBRANCH  27  28
ENDBRANCH   1  27
TORSDOF 16
ENDMDL
MODEL 2
REMARK VINA RESULT:     -12.6      2.497      7.769
REMARK SMILES CS(=O)(=O)c1ccc(N2N=C(C(=O)NCCCNC(=O)c3ccc(-c4c5nc(c(-c6cc(S(=O)(=O)[O-])ccc6F)c6ccc([nH]6)c(-c6cc(S(=O)(=O)[O-])ccc6F)c6nc(c(-c7cc(S(=O)(=O)[O-])ccc7F)c7ccc4[nH]7)C=C6)C=C5)cc3)C[C@H]2c2ccco2)cc1
REMARK SMILES IDX 16 1 15 2 14 3 12 4 13 5 11 7 9 8 10 9 85 10 84 11 8 12 5 13
REMARK SMILES IDX 6 14 92 15 7 16 91 17 2 18 1 19 3 20 4 21 86 22 87 23 90 24
REMARK SMILES IDX 88 25 89 26 17 27 18 28 19 29 20 31 21 32 22 33 83 34 23 35
REMARK SMILES IDX 82 36 24 37 25 38 26 39 76 40 27 41 81 42 75 43 77 44 28 45
REMARK SMILES IDX 80 46 74 47 73 48 29 50 61 51 41 52 60 53 42 54 45 55 59 56
REMARK SMILES IDX 78 57 43 58 44 59 58 61 79 62 46 63 30 64 31 65 39 66 32 67
REMARK SMILES IDX 38 68 40 69 37 70 33 71 34 72 35 73 36 74 62 75 63 76 71 77
REMARK SMILES IDX 64 78 70 79 72 80 69 81 65 82 66 83 67 84 68 85 47 86 48 87
REMARK SMILES IDX 56 88 49 89 55 90 57 91 54 92 50 93 51 94 52 95 53 96
REMARK H PARENT 14 6 18 30 77 49 45 60
REMARK Flexibility Score: inf
ROOT
ATOM      1  C   UNL A   1      31.778  28.244  25.576  1.00  0.00     0.042 C 
ENDROOT
BRANCH   1   2
ATOM      2  C   UNL A   1      32.272  27.156  26.520  1.00  0.00     0.118 C 
BRANCH   2   3
ATOM      3  N   UNL A   1      31.251  26.149  26.759  1.00  0.00    -0.351 N 
ATOM      4  C   UNL A   1      31.128  24.810  26.492  1.00  0.00     0.267 C 
ATOM      5  O   UNL A   1      30.058  24.272  26.769  1.00  0.00    -0.268 OA
ATOM      6  H   UNL A   1      30.462  26.514  27.221  1.00  0.00     0.163 HD
BRANCH   4   7
ATOM      7  C   UNL A   1      32.240  23.945  25.918  1.00  0.00     0.128 C 
ATOM      8  N   UNL A   1      33.435  22.194  25.597  1.00  0.00    -0.254 N 
ATOM      9  N   UNL A   1      32.264  22.662  26.123  1.00  0.00    -0.171 NA
ATOM     10  C   UNL A   1      34.140  23.203  24.791  1.00  0.00     0.180 C 
ATOM     11  C   UNL A   1      33.372  24.486  25.121  1.00  0.00     0.099 C 
BRANCH   8  12
ATOM     12  C   UNL A   1      33.527  20.847  25.235  1.00  0.00     0.060 A 
ATOM     13  C   UNL A   1      33.695  18.106  24.645  1.00  0.00     0.067 A 
ATOM     14  C   UNL A   1      34.842  18.900  24.576  1.00  0.00     0.022 A 
ATOM     15  C   UNL A   1      32.463  18.668  24.982  1.00  0.00     0.022 A 
ATOM     16  C   UNL A   1      34.748  20.268  24.854  1.00  0.00     0.029 A 
ATOM     17  C   UNL A   1      32.388  20.031  25.271  1.00  0.00     0.029 A 
BRANCH  13  18
ATOM     18  S   UNL A   1      33.802  16.363  24.330  1.00  0.00     0.175 S 
ATOM     19  C   UNL A   1      35.189  15.811  25.285  1.00  0.00     0.163 C 
ATOM     20  O   UNL A   1      34.154  16.189  22.931  1.00  0.00    -0.224 OA
ATOM     21  O   UNL A   1      32.603  15.760  24.873  1.00  0.00    -0.224 OA
ENDBRANCH  13  18
ENDBRANCH   8  12
BRANCH  10  22
ATOM     22  C   UNL A   1      35.621  23.352  25.007  1.00  0.00     0.128 A 
ATOM     23  C   UNL A   1      36.722  23.011  24.243  1.00  0.00     0.048 A 
ATOM     24  O   UNL A   1      36.045  23.960  26.157  1.00  0.00    -0.467 OA
ATOM     25  C   UNL A   1      37.866  23.426  24.968  1.00  0.00     0.042 A 
ATOM     26  C   UNL A   1      37.397  24.012  26.118  1.00  0.00     0.195 A 
ENDBRANCH  10  22
ENDBRANCH   4   7
ENDBRANCH   2   3
ENDBRANCH   1   2
BRANCH   1  27
ATOM     27  C   UNL A   1      32.813  29.335  25.322  1.00  0.00     0.118 C 
BRANCH  27  28
ATOM     28  N   UNL A   1      32.354  30.641  25.778  1.00  0.00    -0.352 N 
ATOM     29  C   UNL A   1      32.784  31.419  26.825  1.00  0.00     0.251 C 
ATOM     30  H   UNL A   1      31.617  31.028  25.251  1.00  0.00     0.163 HD
ATOM     31  O   UNL A   1      32.090  32.366  27.186  1.00  0.00    -0.269 OA
BRANCH  29  32
ATOM     32  C   UNL A   1      34.054  31.117  27.520  1.00  0.00     0.039 A 
ATOM     33  C   UNL A   1      34.967  32.152  27.745  1.00  0.00     0.014 A 
ATOM     34  C   UNL A   1      34.367  29.815  27.917  1.00  0.00     0.014 A 
ATOM     35  C   UNL A   1      36.161  31.891  28.422  1.00  0.00     0.010 A 
ATOM     36  C   UNL A   1      35.517  29.571  28.664  1.00  0.00     0.010 A 
ATOM     37  C   UNL A   1      36.430  30.605  28.919  1.00  0.00    -0.014 A 
BRANCH  37  38
ATOM     38  C   UNL A   1      37.665  30.312  29.693  1.00  0.00     0.031 A 
ATOM     39  C   UNL A   1      38.718  29.406  29.113  1.00  0.00     0.074 A 
ATOM     40  C   UNL A   1      37.799  30.796  30.944  1.00  0.00     0.049 A 
ATOM     41  N   UNL A   1      39.805  28.937  29.668  1.00  0.00    -0.248 NA
ATOM     42  C   UNL A   1      38.497  28.940  27.735  1.00  0.00     0.031 C 
ATOM     43  C   UNL A   1      36.826  31.649  31.630  1.00  0.00     0.029 A 
ATOM     44  N   UNL A   1      38.799  30.627  31.868  1.00  0.00    -0.354 N 
ATOM     45  C   UNL A   1      40.386  28.102  28.718  1.00  0.00     0.074 A 
ATOM     46  C   UNL A   1      39.497  28.087  27.576  1.00  0.00     0.031 C 
ATOM     47  C   UNL A   1      37.286  31.944  32.856  1.00  0.00     0.029 A 
ATOM     48  C   UNL A   1      38.562  31.265  33.063  1.00  0.00     0.049 A 
ATOM     49  H   UNL A   1      39.612  30.100  31.691  1.00  0.00     0.167 HD
ATOM     50  C   UNL A   1      41.561  27.428  28.785  1.00  0.00     0.034 A 
ATOM     51  C   UNL A   1      39.281  31.287  34.202  1.00  0.00     0.034 A 
ATOM     52  C   UNL A   1      42.446  27.474  29.924  1.00  0.00     0.049 A 
ATOM     53  C   UNL A   1      40.582  30.529  34.255  1.00  0.00     0.074 A 
ATOM     54  C   UNL A   1      43.689  26.883  30.077  1.00  0.00     0.029 A 
ATOM     55  N   UNL A   1      42.180  28.147  31.111  1.00  0.00    -0.354 N 
ATOM     56  N   UNL A   1      41.140  29.781  33.332  1.00  0.00    -0.248 NA
ATOM     57  C   UNL A   1      41.354  30.626  35.500  1.00  0.00     0.031 C 
ATOM     58  C   UNL A   1      44.145  27.146  31.373  1.00  0.00     0.029 A 
ATOM     59  C   UNL A   1      43.222  27.963  32.008  1.00  0.00     0.049 A 
ATOM     60  H   UNL A   1      41.370  28.677  31.288  1.00  0.00     0.167 HD
ATOM     61  C   UNL A   1      42.344  29.343  33.876  1.00  0.00     0.074 A 
ATOM     62  C   UNL A   1      42.436  29.923  35.201  1.00  0.00     0.031 C 
ATOM     63  C   UNL A   1      43.291  28.538  33.330  1.00  0.00     0.034 A 
BRANCH  50  64
ATOM     64  C   UNL A   1      41.938  26.569  27.600  1.00  0.00     0.023 A 
ATOM     65  C   UNL A   1      41.640  25.196  27.558  1.00  0.00     0.031 A 
ATOM     66  C   UNL A   1      42.636  27.122  26.513  1.00  0.00     0.131 A 
ATOM     67  C   UNL A   1      42.108  24.408  26.496  1.00  0.00     0.055 A 
ATOM     68  C   UNL A   1      43.026  26.349  25.417  1.00  0.00     0.041 A 
ATOM     69  F   UNL A   1      42.967  28.423  26.502  1.00  0.00    -0.206 F 
ATOM     70  C   UNL A   1      42.777  24.979  25.413  1.00  0.00     0.022 A 
BRANCH  67  71
ATOM     71  S   UNL A   1      41.961  22.605  26.627  1.00  0.00     0.124 S 
ATOM     72  O   UNL A   1      40.550  22.450  26.977  1.00  0.00    -0.237 OA
ATOM     73  O   UNL A   1      42.340  22.159  25.292  1.00  0.00    -0.237 OA
ATOM     74  O   UNL A   1      42.899  22.260  27.692  1.00  0.00    -0.744 OA
ENDBRANCH  67  71
ENDBRANCH  50  64
BRANCH  51  75
ATOM     75  C   UNL A   1      38.790  32.044  35.389  1.00  0.00     0.023 A 
ATOM     76  C   UNL A   1      38.263  31.374  36.504  1.00  0.00     0.031 A 
ATOM     77  C   UNL A   1      38.811  33.449  35.413  1.00  0.00     0.131 A 
ATOM     78  C   UNL A   1      37.735  32.109  37.577  1.00  0.00     0.055 A 
ATOM     79  C   UNL A   1      38.331  34.175  36.503  1.00  0.00     0.041 A 
ATOM     80  F   UNL A   1      39.314  34.138  34.376  1.00  0.00    -0.206 F 
ATOM     81  C   UNL A   1      37.776  33.505  37.589  1.00  0.00     0.022 A 
BRANCH  78  82
ATOM     82  S   UNL A   1      36.924  31.212  38.928  1.00  0.00     0.124 S 
ATOM     83  O   UNL A   1      35.691  31.974  39.092  1.00  0.00    -0.237 OA
ATOM     84  O   UNL A   1      36.781  29.875  38.360  1.00  0.00    -0.237 OA
ATOM     85  O   UNL A   1      37.877  31.321  40.030  1.00  0.00    -0.744 OA
ENDBRANCH  78  82
ENDBRANCH  51  75
BRANCH  63  86
ATOM     86  C   UNL A   1      44.526  28.280  34.156  1.00  0.00     0.023 A 
ATOM     87  C   UNL A   1      44.615  27.182  35.028  1.00  0.00     0.031 A 
ATOM     88  C   UNL A   1      45.623  29.155  34.078  1.00  0.00     0.131 A 
ATOM     89  C   UNL A   1      45.755  27.017  35.829  1.00  0.00     0.055 A 
ATOM     90  C   UNL A   1      46.779  28.955  34.834  1.00  0.00     0.041 A 
ATOM     91  F   UNL A   1      45.591  30.222  33.262  1.00  0.00    -0.206 F 
ATOM     92  C   UNL A   1      46.844  27.888  35.726  1.00  0.00     0.022 A 
BRANCH  89  93
ATOM     93  S   UNL A   1      45.763  25.699  37.074  1.00  0.00     0.124 S 
ATOM     94  O   UNL A   1      46.021  24.515  36.262  1.00  0.00    -0.237 OA
ATOM     95  O   UNL A   1      46.846  26.113  37.961  1.00  0.00    -0.237 OA
ATOM     96  O   UNL A   1      44.425  25.771  37.659  1.00  0.00    -0.744 OA
ENDBRANCH  89  93
ENDBRANCH  63  86
ENDBRANCH  37  38
ENDBRANCH  29  32
ENDBRANCH  27  28
ENDBRANCH   1  27
TORSDOF 16
ENDMDL
MODEL 3
REMARK VINA RESULT:     -12.4      4.356      9.948
REMARK SMILES CS(=O)(=O)c1ccc(N2N=C(C(=O)NCCCNC(=O)c3ccc(-c4c5nc(c(-c6cc(S(=O)(=O)[O-])ccc6F)c6ccc([nH]6)c(-c6cc(S(=O)(=O)[O-])ccc6F)c6nc(c(-c7cc(S(=O)(=O)[O-])ccc7F)c7ccc4[nH]7)C=C6)C=C5)cc3)C[C@H]2c2ccco2)cc1
REMARK SMILES IDX 16 1 15 2 14 3 12 4 13 5 11 7 9 8 10 9 85 10 84 11 8 12 5 13
REMARK SMILES IDX 6 14 92 15 7 16 91 17 2 18 1 19 3 20 4 21 86 22 87 23 90 24
REMARK SMILES IDX 88 25 89 26 17 27 18 28 19 29 20 31 21 32 22 33 83 34 23 35
REMARK SMILES IDX 82 36 24 37 25 38 26 39 76 40 27 41 81 42 75 43 77 44 28 45
REMARK SMILES IDX 80 46 74 47 73 48 29 50 61 51 41 52 60 53 42 54 45 55 59 56
REMARK SMILES IDX 78 57 43 58 44 59 58 61 79 62 46 63 30 64 31 65 39 66 32 67
REMARK SMILES IDX 38 68 40 69 37 70 33 71 34 72 35 73 36 74 62 75 63 76 71 77
REMARK SMILES IDX 64 78 70 79 72 80 69 81 65 82 66 83 67 84 68 85 47 86 48 87
REMARK SMILES IDX 56 88 49 89 55 90 57 91 54 92 50 93 51 94 52 95 53 96
REMARK H PARENT 14 6 18 30 77 49 45 60
REMARK Flexibility Score: inf
ROOT
ATOM      1  C   UNL A   1      36.946  22.744  24.054  1.00  0.00     0.042 C 
ENDROOT
BRANCH   1   2
ATOM      2  C   UNL A   1      35.685  23.444  23.563  1.00  0.00     0.118 C 
BRANCH   2   3
ATOM      3  N   UNL A   1      34.489  22.683  23.886  1.00  0.00    -0.351 N 
ATOM      4  C   UNL A   1      33.268  22.982  24.434  1.00  0.00     0.267 C 
ATOM      5  O   UNL A   1      32.498  22.048  24.647  1.00  0.00    -0.268 OA
ATOM      6  H   UNL A   1      34.576  21.730  23.659  1.00  0.00     0.163 HD
BRANCH   4   7
ATOM      7  C   UNL A   1      32.794  24.392  24.751  1.00  0.00     0.128 C 
ATOM      8  N   UNL A   1      32.083  26.382  24.386  1.00  0.00    -0.254 N 
ATOM      9  N   UNL A   1      32.293  25.154  23.825  1.00  0.00    -0.171 NA
ATOM     10  C   UNL A   1      32.252  26.376  25.849  1.00  0.00     0.180 C 
ATOM     11  C   UNL A   1      32.886  25.005  26.102  1.00  0.00     0.099 C 
BRANCH   8  12
ATOM     12  C   UNL A   1      31.139  27.239  23.814  1.00  0.00     0.060 A 
ATOM     13  C   UNL A   1      29.269  29.055  22.769  1.00  0.00     0.067 A 
ATOM     14  C   UNL A   1      28.825  27.884  23.386  1.00  0.00     0.022 A 
ATOM     15  C   UNL A   1      30.633  29.318  22.645  1.00  0.00     0.022 A 
ATOM     16  C   UNL A   1      29.763  26.975  23.890  1.00  0.00     0.029 A 
ATOM     17  C   UNL A   1      31.556  28.410  23.165  1.00  0.00     0.029 A 
BRANCH  13  18
ATOM     18  S   UNL A   1      28.094  30.235  22.155  1.00  0.00     0.175 S 
ATOM     19  C   UNL A   1      28.816  31.817  22.495  1.00  0.00     0.163 C 
ATOM     20  O   UNL A   1      26.897  30.130  22.972  1.00  0.00    -0.224 OA
ATOM     21  O   UNL A   1      28.029  30.061  20.719  1.00  0.00    -0.224 OA
ENDBRANCH  13  18
ENDBRANCH   8  12
BRANCH  10  22
ATOM     22  C   UNL A   1      33.049  27.496  26.459  1.00  0.00     0.128 A 
ATOM     23  C   UNL A   1      32.876  28.262  27.597  1.00  0.00     0.048 A 
ATOM     24  O   UNL A   1      34.206  27.876  25.835  1.00  0.00    -0.467 OA
ATOM     25  C   UNL A   1      33.976  29.152  27.661  1.00  0.00     0.042 A 
ATOM     26  C   UNL A   1      34.764  28.864  26.573  1.00  0.00     0.195 A 
ENDBRANCH  10  22
ENDBRANCH   4   7
ENDBRANCH   2   3
ENDBRANCH   1   2
BRANCH   1  27
ATOM     27  C   UNL A   1      37.116  22.802  25.568  1.00  0.00     0.118 C 
BRANCH  27  28
ATOM     28  N   UNL A   1      38.104  21.842  26.044  1.00  0.00    -0.352 N 
ATOM     29  C   UNL A   1      39.377  22.038  26.521  1.00  0.00     0.251 C 
ATOM     30  H   UNL A   1      37.812  20.901  26.019  1.00  0.00     0.163 HD
ATOM     31  O   UNL A   1      40.127  21.071  26.627  1.00  0.00    -0.269 OA
BRANCH  29  32
ATOM     32  C   UNL A   1      39.847  23.391  26.889  1.00  0.00     0.039 A 
ATOM     33  C   UNL A   1      39.687  24.437  25.976  1.00  0.00     0.014 A 
ATOM     34  C   UNL A   1      40.478  23.626  28.113  1.00  0.00     0.014 A 
ATOM     35  C   UNL A   1      40.103  25.726  26.316  1.00  0.00     0.010 A 
ATOM     36  C   UNL A   1      40.815  24.924  28.485  1.00  0.00     0.010 A 
ATOM     37  C   UNL A   1      40.638  25.989  27.588  1.00  0.00    -0.014 A 
BRANCH  37  38
ATOM     38  C   UNL A   1      41.034  27.361  27.999  1.00  0.00     0.031 A 
ATOM     39  C   UNL A   1      42.489  27.746  28.026  1.00  0.00     0.074 A 
ATOM     40  C   UNL A   1      40.094  28.230  28.420  1.00  0.00     0.049 A 
ATOM     41  N   UNL A   1      43.048  28.846  28.460  1.00  0.00    -0.248 NA
ATOM     42  C   UNL A   1      43.444  26.742  27.531  1.00  0.00     0.031 C 
ATOM     43  C   UNL A   1      38.656  27.956  28.479  1.00  0.00     0.029 A 
ATOM     44  N   UNL A   1      40.206  29.512  28.894  1.00  0.00    -0.354 N 
ATOM     45  C   UNL A   1      44.419  28.659  28.312  1.00  0.00     0.074 A 
ATOM     46  C   UNL A   1      44.605  27.317  27.804  1.00  0.00     0.031 C 
ATOM     47  C   UNL A   1      38.020  29.044  28.943  1.00  0.00     0.029 A 
ATOM     48  C   UNL A   1      39.004  30.074  29.259  1.00  0.00     0.049 A 
ATOM     49  H   UNL A   1      41.066  29.986  28.965  1.00  0.00     0.167 HD
ATOM     50  C   UNL A   1      45.426  29.534  28.558  1.00  0.00     0.034 A 
ATOM     51  C   UNL A   1      38.729  31.276  29.800  1.00  0.00     0.034 A 
ATOM     52  C   UNL A   1      45.219  30.878  29.043  1.00  0.00     0.049 A 
ATOM     53  C   UNL A   1      39.863  32.231  30.068  1.00  0.00     0.074 A 
ATOM     54  C   UNL A   1      46.159  31.869  29.268  1.00  0.00     0.029 A 
ATOM     55  N   UNL A   1      43.985  31.418  29.384  1.00  0.00    -0.354 N 
ATOM     56  N   UNL A   1      41.151  32.056  29.880  1.00  0.00    -0.248 NA
ATOM     57  C   UNL A   1      39.507  33.548  30.611  1.00  0.00     0.031 C 
ATOM     58  C   UNL A   1      45.503  32.984  29.800  1.00  0.00     0.029 A 
ATOM     59  C   UNL A   1      44.143  32.718  29.841  1.00  0.00     0.049 A 
ATOM     60  H   UNL A   1      43.124  30.947  29.310  1.00  0.00     0.167 HD
ATOM     61  C   UNL A   1      41.754  33.253  30.256  1.00  0.00     0.074 A 
ATOM     62  C   UNL A   1      40.688  34.145  30.666  1.00  0.00     0.031 C 
ATOM     63  C   UNL A   1      43.069  33.589  30.258  1.00  0.00     0.034 A 
BRANCH  50  64
ATOM     64  C   UNL A   1      46.839  29.050  28.327  1.00  0.00     0.023 A 
ATOM     65  C   UNL A   1      47.352  28.859  27.031  1.00  0.00     0.031 A 
ATOM     66  C   UNL A   1      47.674  28.742  29.415  1.00  0.00     0.131 A 
ATOM     67  C   UNL A   1      48.625  28.297  26.857  1.00  0.00     0.055 A 
ATOM     68  C   UNL A   1      48.974  28.264  29.234  1.00  0.00     0.041 A 
ATOM     69  F   UNL A   1      47.236  28.884  30.675  1.00  0.00    -0.206 F 
ATOM     70  C   UNL A   1      49.450  28.022  27.948  1.00  0.00     0.022 A 
BRANCH  67  71
ATOM     71  S   UNL A   1      49.127  27.794  25.188  1.00  0.00     0.124 S 
ATOM     72  O   UNL A   1      47.961  28.189  24.400  1.00  0.00    -0.237 OA
ATOM     73  O   UNL A   1      50.338  28.578  24.972  1.00  0.00    -0.237 OA
ATOM     74  O   UNL A   1      49.328  26.353  25.310  1.00  0.00    -0.744 OA
ENDBRANCH  67  71
ENDBRANCH  50  64
BRANCH  51  75
ATOM     75  C   UNL A   1      37.324  31.648  30.136  1.00  0.00     0.023 A 
ATOM     76  C   UNL A   1      36.483  32.229  29.175  1.00  0.00     0.031 A 
ATOM     77  C   UNL A   1      36.814  31.459  31.432  1.00  0.00     0.131 A 
ATOM     78  C   UNL A   1      35.191  32.643  29.534  1.00  0.00     0.055 A 
ATOM     79  C   UNL A   1      35.512  31.826  31.772  1.00  0.00     0.041 A 
ATOM     80  F   UNL A   1      37.575  30.898  32.386  1.00  0.00    -0.206 F 
ATOM     81  C   UNL A   1      34.695  32.434  30.824  1.00  0.00     0.022 A 
BRANCH  78  82
ATOM     82  S   UNL A   1      34.190  33.528  28.309  1.00  0.00     0.124 S 
ATOM     83  O   UNL A   1      35.216  34.101  27.444  1.00  0.00    -0.237 OA
ATOM     84  O   UNL A   1      33.394  32.449  27.732  1.00  0.00    -0.237 OA
ATOM     85  O   UNL A   1      33.441  34.492  29.113  1.00  0.00    -0.744 OA
ENDBRANCH  78  82
ENDBRANCH  51  75
BRANCH  63  86
ATOM     86  C   UNL A   1      43.415  34.996  30.677  1.00  0.00     0.023 A 
ATOM     87  C   UNL A   1      43.384  35.394  32.024  1.00  0.00     0.031 A 
ATOM     88  C   UNL A   1      43.765  35.954  29.709  1.00  0.00     0.131 A 
ATOM     89  C   UNL A   1      43.645  36.731  32.362  1.00  0.00     0.055 A 
ATOM     90  C   UNL A   1      44.081  37.268  30.057  1.00  0.00     0.041 A 
ATOM     91  F   UNL A   1      43.808  35.627  28.407  1.00  0.00    -0.206 F 
ATOM     92  C   UNL A   1      44.009  37.666  31.389  1.00  0.00     0.022 A 
BRANCH  89  93
ATOM     93  S   UNL A   1      43.418  37.254  34.084  1.00  0.00     0.124 S 
ATOM     94  O   UNL A   1      44.773  37.154  34.613  1.00  0.00    -0.237 OA
ATOM     95  O   UNL A   1      42.890  38.606  33.932  1.00  0.00    -0.237 OA
ATOM     96  O   UNL A   1      42.470  36.277  34.617  1.00  0.00    -0.744 OA
ENDBRANCH  89  93
ENDBRANCH  63  86
ENDBRANCH  37  38
ENDBRANCH  29  32
ENDBRANCH  27  28
ENDBRANCH   1  27
TORSDOF 16
ENDMDL
