MODEL 1
REMARK VINA RESULT:     -12.5      0.000      0.000
REMARK SMILES O=C(CSc1nc(O)cc(=O)[nH]1)Nc1cccc(C(=O)NCCCNC(=O)c2ccc(-c3c4nc(c(-c5cc(S(=O)(=O)[O-])ccc5F)c5ccc([nH]5)c(-c5cc(S(=O)(=O)[O-])ccc5F)c5nc(c(-c6cc(S(=O)(=O)[O-])ccc6F)c6ccc3[nH]6)C=C5)C=C4)cc2)c1
REMARK SMILES IDX 22 1 21 2 19 3 20 4 18 6 14 7 15 8 91 9 16 10 17 11 13 12
REMARK SMILES IDX 1 13 2 14 3 16 4 17 5 18 6 19 12 20 7 21 10 22 9 24 11 25
REMARK SMILES IDX 8 26 23 28 24 29 25 30 26 31 27 33 28 34 29 35 90 36 30 37
REMARK SMILES IDX 89 38 31 39 32 40 33 41 83 42 34 43 88 44 82 45 84 46 35 47
REMARK SMILES IDX 87 48 81 49 80 50 36 52 68 53 48 54 67 55 49 56 52 57 66 58
REMARK SMILES IDX 85 59 50 60 51 61 65 63 86 64 53 65 37 66 38 67 46 68 39 69
REMARK SMILES IDX 45 70 47 71 44 72 40 73 41 74 42 75 43 76 69 77 70 78 78 79
REMARK SMILES IDX 71 80 77 81 79 82 76 83 72 84 73 85 74 86 75 87 54 88 55 89
REMARK SMILES IDX 63 90 56 91 62 92 64 93 61 94 57 95 58 96 59 97 60 98
REMARK H PARENT 21 5 13 15 12 23 8 27 25 32 84 51 52 62
REMARK Flexibility Score: inf
ROOT
ATOM      1  C   UNL A   1      32.438  29.926  26.309  1.00  0.00     0.118 C 
ENDROOT
BRANCH   1   2
ATOM      2  N   UNL A   1      32.833  29.749  24.912  1.00  0.00    -0.352 N 
ATOM      3  C   UNL A   1      32.282  29.026  23.874  1.00  0.00     0.251 C 
ATOM      4  O   UNL A   1      32.835  29.053  22.776  1.00  0.00    -0.269 OA
ATOM      5  H   UNL A   1      33.650  30.241  24.664  1.00  0.00     0.163 HD
BRANCH   3   6
ATOM      6  C   UNL A   1      31.096  28.145  24.060  1.00  0.00     0.041 A 
ATOM      7  C   UNL A   1      30.220  25.946  24.514  1.00  0.00     0.041 A 
ATOM      8  C   UNL A   1      29.010  26.307  23.913  1.00  0.00     0.026 A 
ATOM      9  C   UNL A   1      31.181  26.927  24.728  1.00  0.00     0.040 A 
ATOM     10  C   UNL A   1      28.819  27.611  23.449  1.00  0.00     0.003 A 
ATOM     11  C   UNL A   1      29.881  28.515  23.475  1.00  0.00     0.014 A 
BRANCH   7  12
ATOM     12  N   UNL A   1      30.471  24.577  24.747  1.00  0.00    -0.325 N 
ATOM     13  O   UNL A   1      30.882  24.537  27.046  1.00  0.00    -0.274 OA
ATOM     14  C   UNL A   1      30.859  23.988  25.949  1.00  0.00     0.234 C 
ATOM     15  H   UNL A   1      30.361  23.973  23.978  1.00  0.00     0.169 HD
BRANCH  14  16
ATOM     16  C   UNL A   1      31.308  22.542  25.810  1.00  0.00     0.178 C 
BRANCH  16  17
ATOM     17  S   UNL A   1      31.990  22.199  24.163  1.00  0.00    -0.078 SA
BRANCH  17  18
ATOM     18  C   UNL A   1      32.187  20.476  24.265  1.00  0.00     0.172 A 
ATOM     19  N   UNL A   1      32.343  19.897  25.408  1.00  0.00    -0.189 NA
ATOM     20  N   UNL A   1      32.230  19.839  23.066  1.00  0.00    -0.301 N 
ATOM     21  C   UNL A   1      32.568  18.551  25.368  1.00  0.00     0.218 A 
ATOM     22  C   UNL A   1      32.445  18.499  22.976  1.00  0.00     0.255 A 
ATOM     23  H   UNL A   1      32.102  20.361  22.240  1.00  0.00     0.172 HD
ATOM     24  C   UNL A   1      32.632  17.813  24.259  1.00  0.00     0.139 A 
ATOM     25  O   UNL A   1      32.510  17.907  21.910  1.00  0.00    -0.269 OA
BRANCH  21  26
ATOM     26  O   UNL A   1      32.767  17.957  26.585  1.00  0.00    -0.493 OA
ATOM     27  H   UNL A   1      32.041  17.599  27.056  1.00  0.00     0.295 HD
ENDBRANCH  21  26
ENDBRANCH  17  18
ENDBRANCH  16  17
ENDBRANCH  14  16
ENDBRANCH   7  12
ENDBRANCH   3   6
ENDBRANCH   1   2
BRANCH   1  28
ATOM     28  C   UNL A   1      32.049  31.345  26.687  1.00  0.00     0.042 C 
BRANCH  28  29
ATOM     29  C   UNL A   1      33.215  32.265  26.997  1.00  0.00     0.118 C 
BRANCH  29  30
ATOM     30  N   UNL A   1      32.794  33.560  27.518  1.00  0.00    -0.352 N 
ATOM     31  C   UNL A   1      33.215  34.273  28.617  1.00  0.00     0.251 C 
ATOM     32  H   UNL A   1      32.086  34.000  26.994  1.00  0.00     0.163 HD
ATOM     33  O   UNL A   1      32.575  35.263  28.966  1.00  0.00    -0.269 OA
BRANCH  31  34
ATOM     34  C   UNL A   1      34.402  33.848  29.395  1.00  0.00     0.039 A 
ATOM     35  C   UNL A   1      34.222  33.036  30.519  1.00  0.00     0.014 A 
ATOM     36  C   UNL A   1      35.688  34.256  29.039  1.00  0.00     0.014 A 
ATOM     37  C   UNL A   1      35.335  32.563  31.223  1.00  0.00     0.010 A 
ATOM     38  C   UNL A   1      36.795  33.698  29.668  1.00  0.00     0.010 A 
ATOM     39  C   UNL A   1      36.633  32.846  30.771  1.00  0.00    -0.014 A 
BRANCH  39  40
ATOM     40  C   UNL A   1      37.836  32.270  31.431  1.00  0.00     0.031 A 
ATOM     41  C   UNL A   1      38.575  31.126  30.785  1.00  0.00     0.074 A 
ATOM     42  C   UNL A   1      38.214  32.721  32.646  1.00  0.00     0.049 A 
ATOM     43  N   UNL A   1      39.569  30.414  31.251  1.00  0.00    -0.248 NA
ATOM     44  C   UNL A   1      38.110  30.706  29.454  1.00  0.00     0.031 C 
ATOM     45  C   UNL A   1      37.551  33.794  33.391  1.00  0.00     0.029 A 
ATOM     46  N   UNL A   1      39.232  32.325  33.476  1.00  0.00    -0.354 N 
ATOM     47  C   UNL A   1      39.834  29.451  30.281  1.00  0.00     0.074 A 
ATOM     48  C   UNL A   1      38.855  29.634  29.232  1.00  0.00     0.031 C 
ATOM     49  C   UNL A   1      38.196  33.987  34.552  1.00  0.00     0.029 A 
ATOM     50  C   UNL A   1      39.277  33.015  34.667  1.00  0.00     0.049 A 
ATOM     51  H   UNL A   1      39.873  31.615  33.243  1.00  0.00     0.167 HD
ATOM     52  C   UNL A   1      40.816  28.517  30.261  1.00  0.00     0.034 A 
ATOM     53  C   UNL A   1      40.081  32.868  35.740  1.00  0.00     0.034 A 
ATOM     54  C   UNL A   1      41.795  28.364  31.309  1.00  0.00     0.049 A 
ATOM     55  C   UNL A   1      41.148  31.802  35.704  1.00  0.00     0.074 A 
ATOM     56  C   UNL A   1      42.873  27.500  31.357  1.00  0.00     0.029 A 
ATOM     57  N   UNL A   1      41.810  29.084  32.496  1.00  0.00    -0.354 N 
ATOM     58  N   UNL A   1      41.423  30.939  34.752  1.00  0.00    -0.248 NA
ATOM     59  C   UNL A   1      42.021  31.695  36.881  1.00  0.00     0.031 C 
ATOM     60  C   UNL A   1      43.489  27.636  32.605  1.00  0.00     0.029 A 
ATOM     61  C   UNL A   1      42.853  28.652  33.301  1.00  0.00     0.049 A 
ATOM     62  H   UNL A   1      41.172  29.797  32.733  1.00  0.00     0.167 HD
ATOM     63  C   UNL A   1      42.518  30.209  35.205  1.00  0.00     0.074 A 
ATOM     64  C   UNL A   1      42.864  30.745  36.504  1.00  0.00     0.031 C 
ATOM     65  C   UNL A   1      43.182  29.191  34.600  1.00  0.00     0.034 A 
BRANCH  52  66
ATOM     66  C   UNL A   1      40.862  27.572  29.083  1.00  0.00     0.023 A 
ATOM     67  C   UNL A   1      41.790  27.731  28.038  1.00  0.00     0.031 A 
ATOM     68  C   UNL A   1      39.959  26.497  29.000  1.00  0.00     0.131 A 
ATOM     69  C   UNL A   1      41.750  26.874  26.929  1.00  0.00     0.055 A 
ATOM     70  C   UNL A   1      39.979  25.598  27.933  1.00  0.00     0.041 A 
ATOM     71  F   UNL A   1      39.034  26.306  29.954  1.00  0.00    -0.206 F 
ATOM     72  C   UNL A   1      40.869  25.791  26.881  1.00  0.00     0.022 A 
BRANCH  69  73
ATOM     73  S   UNL A   1      42.771  27.278  25.484  1.00  0.00     0.124 S 
ATOM     74  O   UNL A   1      42.060  28.432  24.936  1.00  0.00    -0.237 OA
ATOM     75  O   UNL A   1      44.070  27.555  26.085  1.00  0.00    -0.237 OA
ATOM     76  O   UNL A   1      42.703  26.069  24.668  1.00  0.00    -0.744 OA
ENDBRANCH  69  73
ENDBRANCH  52  66
BRANCH  53  77
ATOM     77  C   UNL A   1      39.899  33.723  36.950  1.00  0.00     0.023 A 
ATOM     78  C   UNL A   1      39.236  33.238  38.088  1.00  0.00     0.031 A 
ATOM     79  C   UNL A   1      40.336  35.060  36.966  1.00  0.00     0.131 A 
ATOM     80  C   UNL A   1      38.981  34.096  39.171  1.00  0.00     0.055 A 
ATOM     81  C   UNL A   1      40.136  35.891  38.070  1.00  0.00     0.041 A 
ATOM     82  F   UNL A   1      40.976  35.579  35.906  1.00  0.00    -0.206 F 
ATOM     83  C   UNL A   1      39.441  35.414  39.176  1.00  0.00     0.022 A 
BRANCH  80  84
ATOM     84  S   UNL A   1      37.942  33.494  40.531  1.00  0.00     0.124 S 
ATOM     85  O   UNL A   1      37.894  34.659  41.405  1.00  0.00    -0.237 OA
ATOM     86  O   UNL A   1      36.702  33.159  39.838  1.00  0.00    -0.237 OA
ATOM     87  O   UNL A   1      38.692  32.352  41.049  1.00  0.00    -0.744 OA
ENDBRANCH  80  84
ENDBRANCH  53  77
BRANCH  65  88
ATOM     88  C   UNL A   1      44.380  28.622  35.322  1.00  0.00     0.023 A 
ATOM     89  C   UNL A   1      44.285  27.476  36.129  1.00  0.00     0.031 A 
ATOM     90  C   UNL A   1      45.637  29.240  35.195  1.00  0.00     0.131 A 
ATOM     91  C   UNL A   1      45.414  27.014  36.820  1.00  0.00     0.055 A 
ATOM     92  C   UNL A   1      46.772  28.735  35.830  1.00  0.00     0.041 A 
ATOM     93  F   UNL A   1      45.786  30.341  34.440  1.00  0.00    -0.206 F 
ATOM     94  C   UNL A   1      46.662  27.623  36.660  1.00  0.00     0.022 A 
BRANCH  91  95
ATOM     95  S   UNL A   1      45.213  25.658  38.009  1.00  0.00     0.124 S 
ATOM     96  O   UNL A   1      43.839  25.239  37.759  1.00  0.00    -0.237 OA
ATOM     97  O   UNL A   1      46.253  24.722  37.592  1.00  0.00    -0.237 OA
ATOM     98  O   UNL A   1      45.441  26.300  39.303  1.00  0.00    -0.744 OA
ENDBRANCH  91  95
ENDBRANCH  65  88
ENDBRANCH  39  40
ENDBRANCH  31  34
ENDBRANCH  29  30
ENDBRANCH  28  29
ENDBRANCH   1  28
TORSDOF 18
ENDMDL
MODEL 2
REMARK VINA RESULT:     -12.4      1.948      7.837
REMARK SMILES O=C(CSc1nc(O)cc(=O)[nH]1)Nc1cccc(C(=O)NCCCNC(=O)c2ccc(-c3c4nc(c(-c5cc(S(=O)(=O)[O-])ccc5F)c5ccc([nH]5)c(-c5cc(S(=O)(=O)[O-])ccc5F)c5nc(c(-c6cc(S(=O)(=O)[O-])ccc6F)c6ccc3[nH]6)C=C5)C=C4)cc2)c1
REMARK SMILES IDX 22 1 21 2 19 3 20 4 18 6 14 7 15 8 91 9 16 10 17 11 13 12
REMARK SMILES IDX 1 13 2 14 3 16 4 17 5 18 6 19 12 20 7 21 10 22 9 24 11 25
REMARK SMILES IDX 8 26 23 28 24 29 25 30 26 31 27 33 28 34 29 35 90 36 30 37
REMARK SMILES IDX 89 38 31 39 32 40 33 41 83 42 34 43 88 44 82 45 84 46 35 47
REMARK SMILES IDX 87 48 81 49 80 50 36 52 68 53 48 54 67 55 49 56 52 57 66 58
REMARK SMILES IDX 85 59 50 60 51 61 65 63 86 64 53 65 37 66 38 67 46 68 39 69
REMARK SMILES IDX 45 70 47 71 44 72 40 73 41 74 42 75 43 76 69 77 70 78 78 79
REMARK SMILES IDX 71 80 77 81 79 82 76 83 72 84 73 85 74 86 75 87 54 88 55 89
REMARK SMILES IDX 63 90 56 91 62 92 64 93 61 94 57 95 58 96 59 97 60 98
REMARK H PARENT 21 5 13 15 12 23 8 27 25 32 84 51 52 62
REMARK Flexibility Score: inf
ROOT
ATOM      1  C   UNL A   1      33.467  29.592  25.582  1.00  0.00     0.118 C 
ENDROOT
BRANCH   1   2
ATOM      2  N   UNL A   1      33.590  29.381  24.140  1.00  0.00    -0.352 N 
ATOM      3  C   UNL A   1      32.782  28.741  23.222  1.00  0.00     0.251 C 
ATOM      4  O   UNL A   1      33.135  28.710  22.044  1.00  0.00    -0.269 OA
ATOM      5  H   UNL A   1      34.404  29.771  23.748  1.00  0.00     0.163 HD
BRANCH   3   6
ATOM      6  C   UNL A   1      31.548  28.011  23.621  1.00  0.00     0.041 A 
ATOM      7  C   UNL A   1      30.511  25.942  24.296  1.00  0.00     0.041 A 
ATOM      8  C   UNL A   1      29.271  26.426  23.867  1.00  0.00     0.026 A 
ATOM      9  C   UNL A   1      31.597  26.808  24.321  1.00  0.00     0.040 A 
ATOM     10  C   UNL A   1      29.158  27.731  23.380  1.00  0.00     0.003 A 
ATOM     11  C   UNL A   1      30.306  28.505  23.208  1.00  0.00     0.014 A 
BRANCH   7  12
ATOM     12  N   UNL A   1      30.640  24.559  24.548  1.00  0.00    -0.325 N 
ATOM     13  O   UNL A   1      30.920  24.506  26.866  1.00  0.00    -0.274 OA
ATOM     14  C   UNL A   1      30.913  23.952  25.772  1.00  0.00     0.234 C 
ATOM     15  H   UNL A   1      30.524  23.959  23.777  1.00  0.00     0.169 HD
BRANCH  14  16
ATOM     16  C   UNL A   1      31.254  22.474  25.664  1.00  0.00     0.178 C 
BRANCH  16  17
ATOM     17  S   UNL A   1      32.147  22.094  24.130  1.00  0.00    -0.078 SA
BRANCH  17  18
ATOM     18  C   UNL A   1      32.267  20.366  24.265  1.00  0.00     0.172 A 
ATOM     19  N   UNL A   1      32.402  19.802  25.417  1.00  0.00    -0.189 NA
ATOM     20  N   UNL A   1      32.274  19.705  23.078  1.00  0.00    -0.301 N 
ATOM     21  C   UNL A   1      32.565  18.447  25.403  1.00  0.00     0.218 A 
ATOM     22  C   UNL A   1      32.428  18.355  23.013  1.00  0.00     0.255 A 
ATOM     23  H   UNL A   1      32.166  20.216  22.243  1.00  0.00     0.172 HD
ATOM     24  C   UNL A   1      32.590  17.686  24.307  1.00  0.00     0.139 A 
ATOM     25  O   UNL A   1      32.460  17.741  21.958  1.00  0.00    -0.269 OA
BRANCH  21  26
ATOM     26  O   UNL A   1      32.744  17.868  26.630  1.00  0.00    -0.493 OA
ATOM     27  H   UNL A   1      32.798  16.935  26.705  1.00  0.00     0.295 HD
ENDBRANCH  21  26
ENDBRANCH  17  18
ENDBRANCH  16  17
ENDBRANCH  14  16
ENDBRANCH   7  12
ENDBRANCH   3   6
ENDBRANCH   1   2
BRANCH   1  28
ATOM     28  C   UNL A   1      32.328  30.505  25.998  1.00  0.00     0.042 C 
BRANCH  28  29
ATOM     29  C   UNL A   1      32.482  31.133  27.371  1.00  0.00     0.118 C 
BRANCH  29  30
ATOM     30  N   UNL A   1      32.861  32.539  27.313  1.00  0.00    -0.352 N 
ATOM     31  C   UNL A   1      33.987  33.192  27.761  1.00  0.00     0.251 C 
ATOM     32  H   UNL A   1      32.197  33.123  26.880  1.00  0.00     0.163 HD
ATOM     33  O   UNL A   1      33.999  34.421  27.771  1.00  0.00    -0.269 OA
BRANCH  31  34
ATOM     34  C   UNL A   1      35.162  32.437  28.255  1.00  0.00     0.039 A 
ATOM     35  C   UNL A   1      36.407  33.073  28.305  1.00  0.00     0.014 A 
ATOM     36  C   UNL A   1      35.054  31.104  28.651  1.00  0.00     0.014 A 
ATOM     37  C   UNL A   1      37.512  32.402  28.838  1.00  0.00     0.010 A 
ATOM     38  C   UNL A   1      36.123  30.476  29.281  1.00  0.00     0.010 A 
ATOM     39  C   UNL A   1      37.367  31.115  29.381  1.00  0.00    -0.014 A 
BRANCH  39  40
ATOM     40  C   UNL A   1      38.496  30.416  30.053  1.00  0.00     0.031 A 
ATOM     41  C   UNL A   1      38.880  30.787  31.461  1.00  0.00     0.074 A 
ATOM     42  C   UNL A   1      39.223  29.508  29.368  1.00  0.00     0.049 A 
ATOM     43  N   UNL A   1      39.897  30.380  32.176  1.00  0.00    -0.248 NA
ATOM     44  C   UNL A   1      38.027  31.773  32.142  1.00  0.00     0.031 C 
ATOM     45  C   UNL A   1      38.974  29.097  27.984  1.00  0.00     0.029 A 
ATOM     46  N   UNL A   1      40.327  28.779  29.733  1.00  0.00    -0.354 N 
ATOM     47  C   UNL A   1      39.818  31.074  33.380  1.00  0.00     0.074 A 
ATOM     48  C   UNL A   1      38.688  31.971  33.272  1.00  0.00     0.031 C 
ATOM     49  C   UNL A   1      39.881  28.173  27.629  1.00  0.00     0.029 A 
ATOM     50  C   UNL A   1      40.813  27.969  28.731  1.00  0.00     0.049 A 
ATOM     51  H   UNL A   1      40.735  28.829  30.628  1.00  0.00     0.167 HD
ATOM     52  C   UNL A   1      40.602  30.956  34.480  1.00  0.00     0.034 A 
ATOM     53  C   UNL A   1      41.899  27.168  28.696  1.00  0.00     0.034 A 
ATOM     54  C   UNL A   1      41.712  30.040  34.575  1.00  0.00     0.049 A 
ATOM     55  C   UNL A   1      42.771  27.076  29.923  1.00  0.00     0.074 A 
ATOM     56  C   UNL A   1      42.527  29.790  35.664  1.00  0.00     0.029 A 
ATOM     57  N   UNL A   1      42.170  29.233  33.542  1.00  0.00    -0.354 N 
ATOM     58  N   UNL A   1      42.645  27.695  31.075  1.00  0.00    -0.248 NA
ATOM     59  C   UNL A   1      43.926  26.172  29.850  1.00  0.00     0.031 C 
ATOM     60  C   UNL A   1      43.527  28.897  35.266  1.00  0.00     0.029 A 
ATOM     61  C   UNL A   1      43.283  28.517  33.956  1.00  0.00     0.049 A 
ATOM     62  H   UNL A   1      41.765  29.179  32.646  1.00  0.00     0.167 HD
ATOM     63  C   UNL A   1      43.687  27.230  31.872  1.00  0.00     0.074 A 
ATOM     64  C   UNL A   1      44.419  26.267  31.076  1.00  0.00     0.031 C 
ATOM     65  C   UNL A   1      44.008  27.565  33.148  1.00  0.00     0.034 A 
BRANCH  52  66
ATOM     66  C   UNL A   1      40.303  31.857  35.655  1.00  0.00     0.023 A 
ATOM     67  C   UNL A   1      39.238  31.601  36.536  1.00  0.00     0.031 A 
ATOM     68  C   UNL A   1      41.095  32.995  35.896  1.00  0.00     0.131 A 
ATOM     69  C   UNL A   1      38.951  32.504  37.571  1.00  0.00     0.055 A 
ATOM     70  C   UNL A   1      40.856  33.844  36.978  1.00  0.00     0.041 A 
ATOM     71  F   UNL A   1      42.112  33.306  35.077  1.00  0.00    -0.206 F 
ATOM     72  C   UNL A   1      39.770  33.609  37.816  1.00  0.00     0.022 A 
BRANCH  69  73
ATOM     73  S   UNL A   1      37.412  32.289  38.508  1.00  0.00     0.124 S 
ATOM     74  O   UNL A   1      36.476  33.089  37.721  1.00  0.00    -0.237 OA
ATOM     75  O   UNL A   1      37.214  30.845  38.461  1.00  0.00    -0.237 OA
ATOM     76  O   UNL A   1      37.733  32.834  39.824  1.00  0.00    -0.744 OA
ENDBRANCH  69  73
ENDBRANCH  52  66
BRANCH  53  77
ATOM     77  C   UNL A   1      42.245  26.413  27.455  1.00  0.00     0.023 A 
ATOM     78  C   UNL A   1      41.926  25.052  27.322  1.00  0.00     0.031 A 
ATOM     79  C   UNL A   1      42.949  27.027  26.404  1.00  0.00     0.131 A 
ATOM     80  C   UNL A   1      42.359  24.337  26.193  1.00  0.00     0.055 A 
ATOM     81  C   UNL A   1      43.321  26.328  25.255  1.00  0.00     0.041 A 
ATOM     82  F   UNL A   1      43.280  28.326  26.475  1.00  0.00    -0.206 F 
ATOM     83  C   UNL A   1      43.040  24.969  25.151  1.00  0.00     0.022 A 
BRANCH  80  84
ATOM     84  S   UNL A   1      42.112  22.540  26.155  1.00  0.00     0.124 S 
ATOM     85  O   UNL A   1      40.657  22.442  26.154  1.00  0.00    -0.237 OA
ATOM     86  O   UNL A   1      42.783  22.170  24.913  1.00  0.00    -0.237 OA
ATOM     87  O   UNL A   1      42.769  22.082  27.377  1.00  0.00    -0.744 OA
ENDBRANCH  80  84
ENDBRANCH  53  77
BRANCH  65  88
ATOM     88  C   UNL A   1      45.178  26.846  33.777  1.00  0.00     0.023 A 
ATOM     89  C   UNL A   1      45.018  25.638  34.476  1.00  0.00     0.031 A 
ATOM     90  C   UNL A   1      46.474  27.382  33.669  1.00  0.00     0.131 A 
ATOM     91  C   UNL A   1      46.127  25.034  35.086  1.00  0.00     0.055 A 
ATOM     92  C   UNL A   1      47.583  26.741  34.219  1.00  0.00     0.041 A 
ATOM     93  F   UNL A   1      46.685  28.537  33.016  1.00  0.00    -0.206 F 
ATOM     94  C   UNL A   1      47.412  25.565  34.945  1.00  0.00     0.022 A 
BRANCH  91  95
ATOM     95  S   UNL A   1      45.856  23.589  36.149  1.00  0.00     0.124 S 
ATOM     96  O   UNL A   1      45.950  24.173  37.482  1.00  0.00    -0.237 OA
ATOM     97  O   UNL A   1      44.527  23.144  35.738  1.00  0.00    -0.237 OA
ATOM     98  O   UNL A   1      46.948  22.687  35.787  1.00  0.00    -0.744 OA
ENDBRANCH  91  95
ENDBRANCH  65  88
ENDBRANCH  39  40
ENDBRANCH  31  34
ENDBRANCH  29  30
ENDBRANCH  28  29
ENDBRANCH   1  28
TORSDOF 18
ENDMDL
MODEL 3
REMARK VINA RESULT:     -12.3      5.499      9.102
REMARK SMILES O=C(CSc1nc(O)cc(=O)[nH]1)Nc1cccc(C(=O)NCCCNC(=O)c2ccc(-c3c4nc(c(-c5cc(S(=O)(=O)[O-])ccc5F)c5ccc([nH]5)c(-c5cc(S(=O)(=O)[O-])ccc5F)c5nc(c(-c6cc(S(=O)(=O)[O-])ccc6F)c6ccc3[nH]6)C=C5)C=C4)cc2)c1
REMARK SMILES IDX 22 1 21 2 19 3 20 4 18 6 14 7 15 8 91 9 16 10 17 11 13 12
REMARK SMILES IDX 1 13 2 14 3 16 4 17 5 18 6 19 12 20 7 21 10 22 9 24 11 25
REMARK SMILES IDX 8 26 23 28 24 29 25 30 26 31 27 33 28 34 29 35 90 36 30 37
REMARK SMILES IDX 89 38 31 39 32 40 33 41 83 42 34 43 88 44 82 45 84 46 35 47
REMARK SMILES IDX 87 48 81 49 80 50 36 52 68 53 48 54 67 55 49 56 52 57 66 58
REMARK SMILES IDX 85 59 50 60 51 61 65 63 86 64 53 65 37 66 38 67 46 68 39 69
REMARK SMILES IDX 45 70 47 71 44 72 40 73 41 74 42 75 43 76 69 77 70 78 78 79
REMARK SMILES IDX 71 80 77 81 79 82 76 83 72 84 73 85 74 86 75 87 54 88 55 89
REMARK SMILES IDX 63 90 56 91 62 92 64 93 61 94 57 95 58 96 59 97 60 98
REMARK H PARENT 21 5 13 15 12 23 8 27 25 32 84 51 52 62
REMARK Flexibility Score: inf
ROOT
ATOM      1  C   UNL A   1      35.210  21.265  25.862  1.00  0.00     0.118 C 
ENDROOT
BRANCH   1   2
ATOM      2  N   UNL A   1      34.087  20.438  25.420  1.00  0.00    -0.352 N 
ATOM      3  C   UNL A   1      32.744  20.708  25.249  1.00  0.00     0.251 C 
ATOM      4  O   UNL A   1      32.005  19.806  24.858  1.00  0.00    -0.269 OA
ATOM      5  H   UNL A   1      34.336  19.511  25.202  1.00  0.00     0.163 HD
BRANCH   3   6
ATOM      6  C   UNL A   1      32.146  22.024  25.603  1.00  0.00     0.041 A 
ATOM      7  C   UNL A   1      31.267  24.147  24.873  1.00  0.00     0.041 A 
ATOM      8  C   UNL A   1      31.519  24.684  26.139  1.00  0.00     0.026 A 
ATOM      9  C   UNL A   1      31.428  22.780  24.680  1.00  0.00     0.040 A 
ATOM     10  C   UNL A   1      32.020  23.871  27.159  1.00  0.00     0.003 A 
ATOM     11  C   UNL A   1      32.382  22.554  26.876  1.00  0.00     0.014 A 
BRANCH   7  12
ATOM     12  N   UNL A   1      30.999  25.035  23.809  1.00  0.00    -0.325 N 
ATOM     13  O   UNL A   1      33.121  25.344  22.882  1.00  0.00    -0.274 OA
ATOM     14  C   UNL A   1      31.930  25.627  22.957  1.00  0.00     0.234 C 
ATOM     15  H   UNL A   1      30.055  25.259  23.651  1.00  0.00     0.169 HD
BRANCH  14  16
ATOM     16  C   UNL A   1      31.353  26.736  22.091  1.00  0.00     0.178 C 
BRANCH  16  17
ATOM     17  S   UNL A   1      31.708  28.381  22.770  1.00  0.00    -0.078 SA
BRANCH  17  18
ATOM     18  C   UNL A   1      30.129  29.100  22.672  1.00  0.00     0.172 A 
ATOM     19  N   UNL A   1      29.073  28.417  22.962  1.00  0.00    -0.189 NA
ATOM     20  N   UNL A   1      30.117  30.378  22.211  1.00  0.00    -0.301 N 
ATOM     21  C   UNL A   1      27.881  29.054  22.776  1.00  0.00     0.218 A 
ATOM     22  C   UNL A   1      28.954  31.056  22.015  1.00  0.00     0.255 A 
ATOM     23  H   UNL A   1      30.972  30.825  22.013  1.00  0.00     0.172 HD
ATOM     24  C   UNL A   1      27.736  30.303  22.330  1.00  0.00     0.139 A 
ATOM     25  O   UNL A   1      28.916  32.197  21.581  1.00  0.00    -0.269 OA
BRANCH  21  26
ATOM     26  O   UNL A   1      26.770  28.304  23.052  1.00  0.00    -0.493 OA
ATOM     27  H   UNL A   1      26.597  28.027  23.931  1.00  0.00     0.295 HD
ENDBRANCH  21  26
ENDBRANCH  17  18
ENDBRANCH  16  17
ENDBRANCH  14  16
ENDBRANCH   7  12
ENDBRANCH   3   6
ENDBRANCH   1   2
BRANCH   1  28
ATOM     28  C   UNL A   1      35.691  22.283  24.844  1.00  0.00     0.042 C 
BRANCH  28  29
ATOM     29  C   UNL A   1      37.078  22.023  24.288  1.00  0.00     0.118 C 
BRANCH  29  30
ATOM     30  N   UNL A   1      37.796  20.981  25.012  1.00  0.00    -0.352 N 
ATOM     31  C   UNL A   1      38.876  21.049  25.862  1.00  0.00     0.251 C 
ATOM     32  H   UNL A   1      37.448  20.071  24.868  1.00  0.00     0.163 HD
ATOM     33  O   UNL A   1      39.430  20.008  26.206  1.00  0.00    -0.269 OA
BRANCH  31  34
ATOM     34  C   UNL A   1      39.393  22.354  26.337  1.00  0.00     0.039 A 
ATOM     35  C   UNL A   1      40.559  22.382  27.109  1.00  0.00     0.014 A 
ATOM     36  C   UNL A   1      38.732  23.547  26.045  1.00  0.00     0.014 A 
ATOM     37  C   UNL A   1      41.104  23.608  27.504  1.00  0.00     0.010 A 
ATOM     38  C   UNL A   1      39.331  24.766  26.342  1.00  0.00     0.010 A 
ATOM     39  C   UNL A   1      40.524  24.813  27.078  1.00  0.00    -0.014 A 
BRANCH  39  40
ATOM     40  C   UNL A   1      41.139  26.133  27.388  1.00  0.00     0.031 A 
ATOM     41  C   UNL A   1      42.522  26.457  26.885  1.00  0.00     0.074 A 
ATOM     42  C   UNL A   1      40.487  27.003  28.187  1.00  0.00     0.049 A 
ATOM     43  N   UNL A   1      43.273  27.496  27.141  1.00  0.00    -0.248 NA
ATOM     44  C   UNL A   1      43.156  25.462  26.007  1.00  0.00     0.031 C 
ATOM     45  C   UNL A   1      39.160  26.784  28.770  1.00  0.00     0.029 A 
ATOM     46  N   UNL A   1      40.853  28.238  28.662  1.00  0.00    -0.354 N 
ATOM     47  C   UNL A   1      44.473  27.272  26.473  1.00  0.00     0.074 A 
ATOM     48  C   UNL A   1      44.370  25.969  25.854  1.00  0.00     0.031 C 
ATOM     49  C   UNL A   1      38.817  27.856  29.500  1.00  0.00     0.029 A 
ATOM     50  C   UNL A   1      39.917  28.813  29.492  1.00  0.00     0.049 A 
ATOM     51  H   UNL A   1      41.706  28.672  28.431  1.00  0.00     0.167 HD
ATOM     52  C   UNL A   1      45.552  28.087  26.371  1.00  0.00     0.034 A 
ATOM     53  C   UNL A   1      39.949  29.970  30.186  1.00  0.00     0.034 A 
ATOM     54  C   UNL A   1      45.628  29.392  26.980  1.00  0.00     0.049 A 
ATOM     55  C   UNL A   1      41.172  30.846  30.077  1.00  0.00     0.074 A 
ATOM     56  C   UNL A   1      46.641  30.328  26.882  1.00  0.00     0.029 A 
ATOM     57  N   UNL A   1      44.658  29.941  27.809  1.00  0.00    -0.354 N 
ATOM     58  N   UNL A   1      42.275  30.644  29.392  1.00  0.00    -0.248 NA
ATOM     59  C   UNL A   1      41.154  32.109  30.826  1.00  0.00     0.031 C 
ATOM     60  C   UNL A   1      46.325  31.405  27.716  1.00  0.00     0.029 A 
ATOM     61  C   UNL A   1      45.071  31.185  28.263  1.00  0.00     0.049 A 
ATOM     62  H   UNL A   1      43.803  29.511  28.041  1.00  0.00     0.167 HD
ATOM     63  C   UNL A   1      43.066  31.770  29.605  1.00  0.00     0.074 A 
ATOM     64  C   UNL A   1      42.307  32.653  30.465  1.00  0.00     0.031 C 
ATOM     65  C   UNL A   1      44.306  32.052  29.128  1.00  0.00     0.034 A 
BRANCH  52  66
ATOM     66  C   UNL A   1      46.744  27.580  25.595  1.00  0.00     0.023 A 
ATOM     67  C   UNL A   1      46.996  27.982  24.271  1.00  0.00     0.031 A 
ATOM     68  C   UNL A   1      47.643  26.673  26.186  1.00  0.00     0.131 A 
ATOM     69  C   UNL A   1      48.073  27.430  23.563  1.00  0.00     0.055 A 
ATOM     70  C   UNL A   1      48.762  26.192  25.504  1.00  0.00     0.041 A 
ATOM     71  F   UNL A   1      47.444  26.233  27.439  1.00  0.00    -0.206 F 
ATOM     72  C   UNL A   1      48.975  26.558  24.179  1.00  0.00     0.022 A 
BRANCH  69  73
ATOM     73  S   UNL A   1      48.201  27.758  21.783  1.00  0.00     0.124 S 
ATOM     74  O   UNL A   1      49.349  28.661  21.733  1.00  0.00    -0.237 OA
ATOM     75  O   UNL A   1      48.412  26.426  21.231  1.00  0.00    -0.237 OA
ATOM     76  O   UNL A   1      46.918  28.376  21.456  1.00  0.00    -0.744 OA
ENDBRANCH  69  73
ENDBRANCH  52  66
BRANCH  53  77
ATOM     77  C   UNL A   1      38.808  30.359  31.067  1.00  0.00     0.023 A 
ATOM     78  C   UNL A   1      37.713  31.076  30.560  1.00  0.00     0.031 A 
ATOM     79  C   UNL A   1      38.822  30.067  32.443  1.00  0.00     0.131 A 
ATOM     80  C   UNL A   1      36.705  31.524  31.430  1.00  0.00     0.055 A 
ATOM     81  C   UNL A   1      37.786  30.461  33.292  1.00  0.00     0.041 A 
ATOM     82  F   UNL A   1      39.843  29.384  32.983  1.00  0.00    -0.206 F 
ATOM     83  C   UNL A   1      36.726  31.208  32.789  1.00  0.00     0.022 A 
BRANCH  80  84
ATOM     84  S   UNL A   1      35.418  32.623  30.776  1.00  0.00     0.124 S 
ATOM     85  O   UNL A   1      34.309  32.351  31.682  1.00  0.00    -0.237 OA
ATOM     86  O   UNL A   1      36.047  33.934  30.904  1.00  0.00    -0.237 OA
ATOM     87  O   UNL A   1      35.236  32.152  29.405  1.00  0.00    -0.744 OA
ENDBRANCH  80  84
ENDBRANCH  53  77
BRANCH  65  88
ATOM     88  C   UNL A   1      44.897  33.393  29.493  1.00  0.00     0.023 A 
ATOM     89  C   UNL A   1      44.622  34.552  28.749  1.00  0.00     0.031 A 
ATOM     90  C   UNL A   1      45.748  33.507  30.607  1.00  0.00     0.131 A 
ATOM     91  C   UNL A   1      45.235  35.765  29.096  1.00  0.00     0.055 A 
ATOM     92  C   UNL A   1      46.299  34.730  30.988  1.00  0.00     0.041 A 
ATOM     93  F   UNL A   1      46.049  32.431  31.352  1.00  0.00    -0.206 F 
ATOM     94  C   UNL A   1      46.055  35.867  30.223  1.00  0.00     0.022 A 
BRANCH  91  95
ATOM     95  S   UNL A   1      45.021  37.194  27.999  1.00  0.00     0.124 S 
ATOM     96  O   UNL A   1      44.270  36.614  26.891  1.00  0.00    -0.237 OA
ATOM     97  O   UNL A   1      44.287  38.130  28.846  1.00  0.00    -0.237 OA
ATOM     98  O   UNL A   1      46.391  37.591  27.680  1.00  0.00    -0.744 OA
ENDBRANCH  91  95
ENDBRANCH  65  88
ENDBRANCH  39  40
ENDBRANCH  31  34
ENDBRANCH  29  30
ENDBRANCH  28  29
ENDBRANCH   1  28
TORSDOF 18
ENDMDL
