MODEL 1
REMARK VINA RESULT:     -13.2      0.000      0.000
REMARK SMILES O=C(NCCCNC(=O)[C@H]1CCCCN1c1cc(-c2ccccc2)nc(-c2cccc(Cl)c2)n1)c1ccc(-c2c3nc(c(-c4cc(S(=O)(=O)[O-])ccc4F)c4ccc([nH]4)c(-c4cc(S(=O)(=O)[O-])ccc4F)c4nc(c(-c5cc(S(=O)(=O)[O-])ccc5F)c5ccc2[nH]5)C=C4)C=C3)cc1
REMARK SMILES IDX 4 1 3 2 1 3 2 4 35 6 36 7 97 8 37 9 96 10 38 11 39 12 40 13
REMARK SMILES IDX 90 14 41 15 95 16 89 17 91 18 42 19 94 20 88 21 87 22 43 24
REMARK SMILES IDX 75 25 55 26 74 27 56 28 59 29 73 30 92 31 57 32 58 33 72 35
REMARK SMILES IDX 93 36 60 37 44 38 45 39 53 40 46 41 52 42 54 43 51 44 47 45
REMARK SMILES IDX 48 46 49 47 50 48 76 49 77 50 85 51 78 52 84 53 86 54 83 55
REMARK SMILES IDX 79 56 80 57 81 58 82 59 61 60 62 61 70 62 63 63 69 64 71 65
REMARK SMILES IDX 68 66 64 67 65 68 66 69 67 70 5 71 6 72 7 73 8 74 9 76 10 77
REMARK SMILES IDX 11 78 15 79 12 80 14 81 13 82 16 83 17 84 34 85 18 86 26 87
REMARK SMILES IDX 25 88 19 89 20 90 24 91 21 92 23 93 22 94 27 95 28 96 33 97
REMARK SMILES IDX 29 98 31 99 30 100 32 101
REMARK H PARENT 3 5 91 23 59 34 7 75
REMARK Flexibility Score: inf
ROOT
ATOM      1  C   UNL A   1      33.744  29.333  25.505  1.00  0.00     0.118 C 
ENDROOT
BRANCH   1   2
ATOM      2  N   UNL A   1      33.264  30.595  26.048  1.00  0.00    -0.352 N 
ATOM      3  O   UNL A   1      33.073  32.299  27.505  1.00  0.00    -0.269 OA
ATOM      4  C   UNL A   1      33.710  31.321  27.131  1.00  0.00     0.251 C 
ATOM      5  H   UNL A   1      32.504  30.992  25.566  1.00  0.00     0.163 HD
BRANCH   4   6
ATOM      6  C   UNL A   1      34.929  30.905  27.861  1.00  0.00     0.039 A 
ATOM      7  C   UNL A   1      35.033  29.636  28.433  1.00  0.00     0.014 A 
ATOM      8  C   UNL A   1      35.995  31.803  27.966  1.00  0.00     0.014 A 
ATOM      9  C   UNL A   1      36.113  29.329  29.255  1.00  0.00     0.010 A 
ATOM     10  C   UNL A   1      37.127  31.456  28.708  1.00  0.00     0.010 A 
ATOM     11  C   UNL A   1      37.179  30.231  29.393  1.00  0.00    -0.014 A 
BRANCH  11  12
ATOM     12  C   UNL A   1      38.354  29.870  30.231  1.00  0.00     0.031 A 
ATOM     13  C   UNL A   1      38.515  30.437  31.615  1.00  0.00     0.074 A 
ATOM     14  C   UNL A   1      39.279  29.027  29.735  1.00  0.00     0.049 A 
ATOM     15  N   UNL A   1      39.512  30.304  32.453  1.00  0.00    -0.248 NA
ATOM     16  C   UNL A   1      37.418  31.276  32.114  1.00  0.00     0.031 C 
ATOM     17  C   UNL A   1      39.227  28.404  28.409  1.00  0.00     0.029 A 
ATOM     18  N   UNL A   1      40.443  28.548  30.280  1.00  0.00    -0.354 N 
ATOM     19  C   UNL A   1      39.175  31.063  33.570  1.00  0.00     0.074 A 
ATOM     20  C   UNL A   1      37.896  31.680  33.283  1.00  0.00     0.031 C 
ATOM     21  C   UNL A   1      40.295  27.609  28.254  1.00  0.00     0.029 A 
ATOM     22  C   UNL A   1      41.146  27.725  29.432  1.00  0.00     0.049 A 
ATOM     23  H   UNL A   1      40.746  28.771  31.189  1.00  0.00     0.167 HD
ATOM     24  C   UNL A   1      39.868  31.223  34.727  1.00  0.00     0.034 A 
ATOM     25  C   UNL A   1      42.360  27.156  29.566  1.00  0.00     0.034 A 
ATOM     26  C   UNL A   1      41.141  30.595  34.993  1.00  0.00     0.049 A 
ATOM     27  C   UNL A   1      43.135  27.387  30.832  1.00  0.00     0.074 A 
ATOM     28  C   UNL A   1      41.918  30.665  36.138  1.00  0.00     0.029 A 
ATOM     29  N   UNL A   1      41.834  29.787  34.098  1.00  0.00    -0.354 N 
ATOM     30  N   UNL A   1      42.808  28.110  31.878  1.00  0.00    -0.248 NA
ATOM     31  C   UNL A   1      44.441  26.726  30.938  1.00  0.00     0.031 C 
ATOM     32  C   UNL A   1      43.105  29.959  35.910  1.00  0.00     0.029 A 
ATOM     33  C   UNL A   1      43.039  29.380  34.652  1.00  0.00     0.049 A 
ATOM     34  H   UNL A   1      41.515  29.539  33.200  1.00  0.00     0.167 HD
ATOM     35  C   UNL A   1      43.857  27.970  32.778  1.00  0.00     0.074 A 
ATOM     36  C   UNL A   1      44.825  27.089  32.153  1.00  0.00     0.031 C 
ATOM     37  C   UNL A   1      44.002  28.512  34.014  1.00  0.00     0.034 A 
BRANCH  24  38
ATOM     38  C   UNL A   1      39.283  32.158  35.762  1.00  0.00     0.023 A 
ATOM     39  C   UNL A   1      39.681  33.504  35.857  1.00  0.00     0.031 A 
ATOM     40  C   UNL A   1      38.346  31.686  36.699  1.00  0.00     0.131 A 
ATOM     41  C   UNL A   1      39.216  34.300  36.916  1.00  0.00     0.055 A 
ATOM     42  C   UNL A   1      37.819  32.508  37.696  1.00  0.00     0.041 A 
ATOM     43  F   UNL A   1      37.941  30.406  36.673  1.00  0.00    -0.206 F 
ATOM     44  C   UNL A   1      38.268  33.819  37.822  1.00  0.00     0.022 A 
BRANCH  41  45
ATOM     45  S   UNL A   1      39.998  35.914  37.193  1.00  0.00     0.124 S 
ATOM     46  O   UNL A   1      39.692  36.609  35.943  1.00  0.00    -0.237 OA
ATOM     47  O   UNL A   1      39.305  36.400  38.380  1.00  0.00    -0.237 OA
ATOM     48  O   UNL A   1      41.410  35.583  37.382  1.00  0.00    -0.744 OA
ENDBRANCH  41  45
ENDBRANCH  24  38
BRANCH  25  49
ATOM     49  C   UNL A   1      42.924  26.355  28.445  1.00  0.00     0.023 A 
ATOM     50  C   UNL A   1      43.936  26.868  27.621  1.00  0.00     0.031 A 
ATOM     51  C   UNL A   1      42.462  25.050  28.193  1.00  0.00     0.131 A 
ATOM     52  C   UNL A   1      44.440  26.088  26.568  1.00  0.00     0.055 A 
ATOM     53  C   UNL A   1      42.998  24.260  27.176  1.00  0.00     0.041 A 
ATOM     54  F   UNL A   1      41.501  24.511  28.960  1.00  0.00    -0.206 F 
ATOM     55  C   UNL A   1      43.988  24.783  26.350  1.00  0.00     0.022 A 
BRANCH  52  56
ATOM     56  S   UNL A   1      45.669  26.820  25.456  1.00  0.00     0.124 S 
ATOM     57  O   UNL A   1      46.008  25.688  24.601  1.00  0.00    -0.237 OA
ATOM     58  O   UNL A   1      44.909  27.895  24.827  1.00  0.00    -0.237 OA
ATOM     59  O   UNL A   1      46.729  27.259  26.362  1.00  0.00    -0.744 OA
ENDBRANCH  52  56
ENDBRANCH  25  49
BRANCH  37  60
ATOM     60  C   UNL A   1      45.233  28.121  34.792  1.00  0.00     0.023 A 
ATOM     61  C   UNL A   1      45.255  26.995  35.634  1.00  0.00     0.031 A 
ATOM     62  C   UNL A   1      46.403  28.896  34.688  1.00  0.00     0.131 A 
ATOM     63  C   UNL A   1      46.412  26.701  36.373  1.00  0.00     0.055 A 
ATOM     64  C   UNL A   1      47.565  28.567  35.385  1.00  0.00     0.041 A 
ATOM     65  F   UNL A   1      46.433  29.983  33.901  1.00  0.00    -0.206 F 
ATOM     66  C   UNL A   1      47.571  27.471  36.241  1.00  0.00     0.022 A 
BRANCH  63  67
ATOM     67  S   UNL A   1      46.362  25.337  37.567  1.00  0.00     0.124 S 
ATOM     68  O   UNL A   1      46.160  26.045  38.828  1.00  0.00    -0.237 OA
ATOM     69  O   UNL A   1      45.231  24.546  37.093  1.00  0.00    -0.237 OA
ATOM     70  O   UNL A   1      47.669  24.700  37.417  1.00  0.00    -0.744 OA
ENDBRANCH  63  67
ENDBRANCH  37  60
ENDBRANCH  11  12
ENDBRANCH   4   6
ENDBRANCH   1   2
BRANCH   1  71
ATOM     71  C   UNL A   1      33.136  28.980  24.153  1.00  0.00     0.042 C 
BRANCH  71  72
ATOM     72  C   UNL A   1      33.841  27.864  23.395  1.00  0.00     0.117 C 
BRANCH  72  73
ATOM     73  N   UNL A   1      32.917  26.910  22.818  1.00  0.00    -0.354 N 
ATOM     74  C   UNL A   1      32.508  25.687  23.247  1.00  0.00     0.242 C 
ATOM     75  H   UNL A   1      32.515  27.197  21.966  1.00  0.00     0.163 HD
ATOM     76  O   UNL A   1      31.745  25.090  22.476  1.00  0.00    -0.273 OA
BRANCH  74  77
ATOM     77  C   UNL A   1      32.992  25.078  24.600  1.00  0.00     0.173 C 
ATOM     78  C   UNL A   1      32.431  25.780  25.847  1.00  0.00     0.035 C 
ATOM     79  N   UNL A   1      32.575  23.664  24.664  1.00  0.00    -0.344 N 
ATOM     80  C   UNL A   1      30.922  25.585  25.972  1.00  0.00     0.004 C 
ATOM     81  C   UNL A   1      31.155  23.356  24.788  1.00  0.00     0.119 C 
ATOM     82  C   UNL A   1      30.569  24.100  25.988  1.00  0.00     0.022 C 
BRANCH  79  83
ATOM     83  C   UNL A   1      33.519  22.681  24.838  1.00  0.00     0.133 A 
ATOM     84  C   UNL A   1      33.170  21.354  24.697  1.00  0.00     0.076 A 
ATOM     85  N   UNL A   1      34.771  23.043  25.151  1.00  0.00    -0.211 NA
ATOM     86  C   UNL A   1      34.157  20.409  24.888  1.00  0.00     0.076 A 
ATOM     87  C   UNL A   1      35.666  22.058  25.338  1.00  0.00     0.162 A 
ATOM     88  N   UNL A   1      35.415  20.742  25.225  1.00  0.00    -0.228 NA
BRANCH  86  89
ATOM     89  C   UNL A   1      33.887  18.973  24.747  1.00  0.00     0.000 A 
ATOM     90  C   UNL A   1      34.910  18.084  24.376  1.00  0.00     0.010 A 
ATOM     91  C   UNL A   1      32.606  18.449  24.988  1.00  0.00     0.010 A 
ATOM     92  C   UNL A   1      34.664  16.713  24.265  1.00  0.00     0.001 A 
ATOM     93  C   UNL A   1      32.357  17.079  24.865  1.00  0.00     0.001 A 
ATOM     94  C   UNL A   1      33.387  16.212  24.510  1.00  0.00     0.000 A 
ENDBRANCH  86  89
BRANCH  87  95
ATOM     95  C   UNL A   1      37.021  22.447  25.739  1.00  0.00     0.021 A 
ATOM     96  C   UNL A   1      37.318  23.780  26.078  1.00  0.00     0.012 A 
ATOM     97  C   UNL A   1      38.056  21.500  25.802  1.00  0.00     0.032 A 
ATOM     98  C   UNL A   1      38.605  24.157  26.472  1.00  0.00     0.002 A 
ATOM     99  C   UNL A   1      39.344  21.882  26.180  1.00  0.00     0.041 A 
ATOM    100  C   UNL A   1      39.621  23.205  26.518  1.00  0.00     0.020 A 
ATOM    101  Cl  UNL A   1      40.603  20.709  26.232  1.00  0.00    -0.084 Cl
ENDBRANCH  87  95
ENDBRANCH  79  83
ENDBRANCH  74  77
ENDBRANCH  72  73
ENDBRANCH  71  72
ENDBRANCH   1  71
TORSDOF 16
ENDMDL
MODEL 2
REMARK VINA RESULT:     -13.2      1.479      7.301
REMARK SMILES O=C(NCCCNC(=O)[C@H]1CCCCN1c1cc(-c2ccccc2)nc(-c2cccc(Cl)c2)n1)c1ccc(-c2c3nc(c(-c4cc(S(=O)(=O)[O-])ccc4F)c4ccc([nH]4)c(-c4cc(S(=O)(=O)[O-])ccc4F)c4nc(c(-c5cc(S(=O)(=O)[O-])ccc5F)c5ccc2[nH]5)C=C4)C=C3)cc1
REMARK SMILES IDX 4 1 3 2 1 3 2 4 35 6 36 7 97 8 37 9 96 10 38 11 39 12 40 13
REMARK SMILES IDX 90 14 41 15 95 16 89 17 91 18 42 19 94 20 88 21 87 22 43 24
REMARK SMILES IDX 75 25 55 26 74 27 56 28 59 29 73 30 92 31 57 32 58 33 72 35
REMARK SMILES IDX 93 36 60 37 44 38 45 39 53 40 46 41 52 42 54 43 51 44 47 45
REMARK SMILES IDX 48 46 49 47 50 48 76 49 77 50 85 51 78 52 84 53 86 54 83 55
REMARK SMILES IDX 79 56 80 57 81 58 82 59 61 60 62 61 70 62 63 63 69 64 71 65
REMARK SMILES IDX 68 66 64 67 65 68 66 69 67 70 5 71 6 72 7 73 8 74 9 76 10 77
REMARK SMILES IDX 11 78 15 79 12 80 14 81 13 82 16 83 17 84 34 85 18 86 26 87
REMARK SMILES IDX 25 88 19 89 20 90 24 91 21 92 23 93 22 94 27 95 28 96 33 97
REMARK SMILES IDX 29 98 31 99 30 100 32 101
REMARK H PARENT 3 5 91 23 59 34 7 75
REMARK Flexibility Score: inf
ROOT
ATOM      1  C   UNL A   1      33.772  28.915  25.853  1.00  0.00     0.118 C 
ENDROOT
BRANCH   1   2
ATOM      2  N   UNL A   1      33.314  30.251  26.205  1.00  0.00    -0.352 N 
ATOM      3  O   UNL A   1      33.176  32.165  27.379  1.00  0.00    -0.269 OA
ATOM      4  C   UNL A   1      33.797  31.136  27.144  1.00  0.00     0.251 C 
ATOM      5  H   UNL A   1      32.539  30.572  25.691  1.00  0.00     0.163 HD
BRANCH   4   6
ATOM      6  C   UNL A   1      35.039  30.831  27.890  1.00  0.00     0.039 A 
ATOM      7  C   UNL A   1      35.243  29.581  28.477  1.00  0.00     0.014 A 
ATOM      8  C   UNL A   1      36.024  31.817  27.996  1.00  0.00     0.014 A 
ATOM      9  C   UNL A   1      36.336  29.375  29.313  1.00  0.00     0.010 A 
ATOM     10  C   UNL A   1      37.173  31.574  28.754  1.00  0.00     0.010 A 
ATOM     11  C   UNL A   1      37.321  30.364  29.452  1.00  0.00    -0.014 A 
BRANCH  11  12
ATOM     12  C   UNL A   1      38.512  30.112  30.306  1.00  0.00     0.031 A 
ATOM     13  C   UNL A   1      39.643  29.251  29.813  1.00  0.00     0.074 A 
ATOM     14  C   UNL A   1      38.569  30.662  31.533  1.00  0.00     0.049 A 
ATOM     15  N   UNL A   1      40.717  28.852  30.446  1.00  0.00    -0.248 NA
ATOM     16  C   UNL A   1      39.544  28.763  28.431  1.00  0.00     0.031 C 
ATOM     17  C   UNL A   1      37.538  31.525  32.118  1.00  0.00     0.029 A 
ATOM     18  N   UNL A   1      39.527  30.582  32.512  1.00  0.00    -0.354 N 
ATOM     19  C   UNL A   1      41.411  28.043  29.551  1.00  0.00     0.074 A 
ATOM     20  C   UNL A   1      40.614  27.985  28.342  1.00  0.00     0.031 C 
ATOM     21  C   UNL A   1      37.929  31.911  33.341  1.00  0.00     0.029 A 
ATOM     22  C   UNL A   1      39.197  31.265  33.659  1.00  0.00     0.049 A 
ATOM     23  H   UNL A   1      40.369  30.084  32.403  1.00  0.00     0.167 HD
ATOM     24  C   UNL A   1      42.604  27.417  29.722  1.00  0.00     0.034 A 
ATOM     25  C   UNL A   1      39.821  31.334  34.850  1.00  0.00     0.034 A 
ATOM     26  C   UNL A   1      43.382  27.492  30.936  1.00  0.00     0.049 A 
ATOM     27  C   UNL A   1      41.112  30.591  35.038  1.00  0.00     0.074 A 
ATOM     28  C   UNL A   1      44.614  26.920  31.211  1.00  0.00     0.029 A 
ATOM     29  N   UNL A   1      43.001  28.174  32.086  1.00  0.00    -0.354 N 
ATOM     30  N   UNL A   1      41.756  29.828  34.185  1.00  0.00    -0.248 NA
ATOM     31  C   UNL A   1      41.765  30.718  36.346  1.00  0.00     0.031 C 
ATOM     32  C   UNL A   1      44.943  27.199  32.542  1.00  0.00     0.029 A 
ATOM     33  C   UNL A   1      43.957  28.012  33.079  1.00  0.00     0.049 A 
ATOM     34  H   UNL A   1      42.173  28.698  32.182  1.00  0.00     0.167 HD
ATOM     35  C   UNL A   1      42.903  29.404  34.846  1.00  0.00     0.074 A 
ATOM     36  C   UNL A   1      42.864  30.001  36.167  1.00  0.00     0.031 C 
ATOM     37  C   UNL A   1      43.901  28.602  34.397  1.00  0.00     0.034 A 
BRANCH  24  38
ATOM     38  C   UNL A   1      43.101  26.552  28.585  1.00  0.00     0.023 A 
ATOM     39  C   UNL A   1      44.167  26.952  27.759  1.00  0.00     0.031 A 
ATOM     40  C   UNL A   1      42.470  25.330  28.292  1.00  0.00     0.131 A 
ATOM     41  C   UNL A   1      44.508  26.185  26.633  1.00  0.00     0.055 A 
ATOM     42  C   UNL A   1      42.872  24.527  27.223  1.00  0.00     0.041 A 
ATOM     43  F   UNL A   1      41.434  24.902  29.031  1.00  0.00    -0.206 F 
ATOM     44  C   UNL A   1      43.884  24.962  26.374  1.00  0.00     0.022 A 
BRANCH  41  45
ATOM     45  S   UNL A   1      45.656  26.894  25.420  1.00  0.00     0.124 S 
ATOM     46  O   UNL A   1      46.006  25.719  24.622  1.00  0.00    -0.237 OA
ATOM     47  O   UNL A   1      44.831  27.895  24.754  1.00  0.00    -0.237 OA
ATOM     48  O   UNL A   1      46.742  27.423  26.243  1.00  0.00    -0.744 OA
ENDBRANCH  41  45
ENDBRANCH  24  38
BRANCH  25  49
ATOM     49  C   UNL A   1      39.197  32.102  35.963  1.00  0.00     0.023 A 
ATOM     50  C   UNL A   1      38.429  31.462  36.947  1.00  0.00     0.031 A 
ATOM     51  C   UNL A   1      39.376  33.494  36.062  1.00  0.00     0.131 A 
ATOM     52  C   UNL A   1      37.850  32.219  37.978  1.00  0.00     0.055 A 
ATOM     53  C   UNL A   1      38.838  34.235  37.114  1.00  0.00     0.041 A 
ATOM     54  F   UNL A   1      40.110  34.151  35.149  1.00  0.00    -0.206 F 
ATOM     55  C   UNL A   1      38.062  33.597  38.076  1.00  0.00     0.022 A 
BRANCH  52  56
ATOM     56  S   UNL A   1      36.775  31.379  39.172  1.00  0.00     0.124 S 
ATOM     57  O   UNL A   1      37.627  31.330  40.355  1.00  0.00    -0.237 OA
ATOM     58  O   UNL A   1      35.632  32.282  39.241  1.00  0.00    -0.237 OA
ATOM     59  O   UNL A   1      36.509  30.088  38.540  1.00  0.00    -0.744 OA
ENDBRANCH  52  56
ENDBRANCH  25  49
BRANCH  37  60
ATOM     60  C   UNL A   1      45.063  28.369  35.330  1.00  0.00     0.023 A 
ATOM     61  C   UNL A   1      45.080  27.301  36.245  1.00  0.00     0.031 A 
ATOM     62  C   UNL A   1      46.168  29.238  35.302  1.00  0.00     0.131 A 
ATOM     63  C   UNL A   1      46.165  27.156  37.125  1.00  0.00     0.055 A 
ATOM     64  C   UNL A   1      47.266  29.057  36.143  1.00  0.00     0.041 A 
ATOM     65  F   UNL A   1      46.199  30.275  34.450  1.00  0.00    -0.206 F 
ATOM     66  C   UNL A   1      47.264  28.017  37.067  1.00  0.00     0.022 A 
BRANCH  63  67
ATOM     67  S   UNL A   1      46.091  25.866  38.397  1.00  0.00     0.124 S 
ATOM     68  O   UNL A   1      44.759  26.071  38.959  1.00  0.00    -0.237 OA
ATOM     69  O   UNL A   1      46.273  24.645  37.618  1.00  0.00    -0.237 OA
ATOM     70  O   UNL A   1      47.197  26.201  39.291  1.00  0.00    -0.744 OA
ENDBRANCH  63  67
ENDBRANCH  37  60
ENDBRANCH  11  12
ENDBRANCH   4   6
ENDBRANCH   1   2
BRANCH   1  71
ATOM     71  C   UNL A   1      34.008  28.724  24.361  1.00  0.00     0.042 C 
BRANCH  71  72
ATOM     72  C   UNL A   1      32.811  28.210  23.573  1.00  0.00     0.117 C 
BRANCH  72  73
ATOM     73  N   UNL A   1      33.182  27.249  22.555  1.00  0.00    -0.354 N 
ATOM     74  C   UNL A   1      33.411  25.912  22.627  1.00  0.00     0.242 C 
ATOM     75  H   UNL A   1      33.287  27.632  21.654  1.00  0.00     0.163 HD
ATOM     76  O   UNL A   1      33.779  25.387  21.568  1.00  0.00    -0.273 OA
BRANCH  74  77
ATOM     77  C   UNL A   1      33.245  25.112  23.957  1.00  0.00     0.173 C 
ATOM     78  C   UNL A   1      32.086  25.591  24.844  1.00  0.00     0.035 C 
ATOM     79  N   UNL A   1      32.998  23.693  23.633  1.00  0.00    -0.344 N 
ATOM     80  C   UNL A   1      30.731  25.333  24.188  1.00  0.00     0.004 C 
ATOM     81  C   UNL A   1      31.733  23.327  23.006  1.00  0.00     0.119 C 
ATOM     82  C   UNL A   1      30.569  23.854  23.846  1.00  0.00     0.022 C 
BRANCH  79  83
ATOM     83  C   UNL A   1      33.838  22.725  24.126  1.00  0.00     0.133 A 
ATOM     84  C   UNL A   1      33.432  21.406  24.155  1.00  0.00     0.076 A 
ATOM     85  N   UNL A   1      35.046  23.092  24.577  1.00  0.00    -0.211 NA
ATOM     86  C   UNL A   1      34.314  20.476  24.664  1.00  0.00     0.076 A 
ATOM     87  C   UNL A   1      35.835  22.124  25.075  1.00  0.00     0.162 A 
ATOM     88  N   UNL A   1      35.522  20.820  25.145  1.00  0.00    -0.228 NA
BRANCH  86  89
ATOM     89  C   UNL A   1      33.980  19.049  24.726  1.00  0.00     0.000 A 
ATOM     90  C   UNL A   1      34.952  18.071  24.456  1.00  0.00     0.010 A 
ATOM     91  C   UNL A   1      32.684  18.621  25.062  1.00  0.00     0.010 A 
ATOM     92  C   UNL A   1      34.645  16.711  24.537  1.00  0.00     0.001 A 
ATOM     93  C   UNL A   1      32.373  17.261  25.132  1.00  0.00     0.001 A 
ATOM     94  C   UNL A   1      33.355  16.307  24.875  1.00  0.00     0.000 A 
ENDBRANCH  86  89
BRANCH  87  95
ATOM     95  C   UNL A   1      37.132  22.531  25.624  1.00  0.00     0.021 A 
ATOM     96  C   UNL A   1      37.352  23.854  26.052  1.00  0.00     0.012 A 
ATOM     97  C   UNL A   1      38.186  21.612  25.744  1.00  0.00     0.032 A 
ATOM     98  C   UNL A   1      38.582  24.246  26.587  1.00  0.00     0.002 A 
ATOM     99  C   UNL A   1      39.418  22.010  26.263  1.00  0.00     0.041 A 
ATOM    100  C   UNL A   1      39.618  23.321  26.688  1.00  0.00     0.020 A 
ATOM    101  Cl  UNL A   1      40.704  20.871  26.382  1.00  0.00    -0.084 Cl
ENDBRANCH  87  95
ENDBRANCH  79  83
ENDBRANCH  74  77
ENDBRANCH  72  73
ENDBRANCH  71  72
ENDBRANCH   1  71
TORSDOF 16
ENDMDL
MODEL 3
REMARK VINA RESULT:     -13.2      4.934     10.396
REMARK SMILES O=C(NCCCNC(=O)[C@H]1CCCCN1c1cc(-c2ccccc2)nc(-c2cccc(Cl)c2)n1)c1ccc(-c2c3nc(c(-c4cc(S(=O)(=O)[O-])ccc4F)c4ccc([nH]4)c(-c4cc(S(=O)(=O)[O-])ccc4F)c4nc(c(-c5cc(S(=O)(=O)[O-])ccc5F)c5ccc2[nH]5)C=C4)C=C3)cc1
REMARK SMILES IDX 4 1 3 2 1 3 2 4 35 6 36 7 97 8 37 9 96 10 38 11 39 12 40 13
REMARK SMILES IDX 90 14 41 15 95 16 89 17 91 18 42 19 94 20 88 21 87 22 43 24
REMARK SMILES IDX 75 25 55 26 74 27 56 28 59 29 73 30 92 31 57 32 58 33 72 35
REMARK SMILES IDX 93 36 60 37 44 38 45 39 53 40 46 41 52 42 54 43 51 44 47 45
REMARK SMILES IDX 48 46 49 47 50 48 76 49 77 50 85 51 78 52 84 53 86 54 83 55
REMARK SMILES IDX 79 56 80 57 81 58 82 59 61 60 62 61 70 62 63 63 69 64 71 65
REMARK SMILES IDX 68 66 64 67 65 68 66 69 67 70 5 71 6 72 7 73 8 74 9 76 10 77
REMARK SMILES IDX 11 78 15 79 12 80 14 81 13 82 16 83 17 84 34 85 18 86 26 87
REMARK SMILES IDX 25 88 19 89 20 90 24 91 21 92 23 93 22 94 27 95 28 96 33 97
REMARK SMILES IDX 29 98 31 99 30 100 32 101
REMARK H PARENT 3 5 91 23 59 34 7 75
REMARK Flexibility Score: inf
ROOT
ATOM      1  C   UNL A   1      36.334  22.165  25.506  1.00  0.00     0.118 C 
ENDROOT
BRANCH   1   2
ATOM      2  N   UNL A   1      37.312  21.094  25.626  1.00  0.00    -0.352 N 
ATOM      3  O   UNL A   1      39.331  20.132  25.878  1.00  0.00    -0.269 OA
ATOM      4  C   UNL A   1      38.645  21.144  25.970  1.00  0.00     0.251 C 
ATOM      5  H   UNL A   1      36.966  20.193  25.433  1.00  0.00     0.163 HD
BRANCH   4   6
ATOM      6  C   UNL A   1      39.256  22.418  26.414  1.00  0.00     0.039 A 
ATOM      7  C   UNL A   1      38.719  23.649  26.034  1.00  0.00     0.014 A 
ATOM      8  C   UNL A   1      40.386  22.376  27.235  1.00  0.00     0.014 A 
ATOM      9  C   UNL A   1      39.405  24.825  26.320  1.00  0.00     0.010 A 
ATOM     10  C   UNL A   1      41.019  23.566  27.608  1.00  0.00     0.010 A 
ATOM     11  C   UNL A   1      40.557  24.799  27.121  1.00  0.00    -0.014 A 
BRANCH  11  12
ATOM     12  C   UNL A   1      41.251  26.068  27.466  1.00  0.00     0.031 A 
ATOM     13  C   UNL A   1      42.619  26.371  26.917  1.00  0.00     0.074 A 
ATOM     14  C   UNL A   1      40.642  26.949  28.282  1.00  0.00     0.049 A 
ATOM     15  N   UNL A   1      43.410  27.381  27.175  1.00  0.00    -0.248 NA
ATOM     16  C   UNL A   1      43.175  25.401  25.964  1.00  0.00     0.031 C 
ATOM     17  C   UNL A   1      39.310  26.772  28.869  1.00  0.00     0.029 A 
ATOM     18  N   UNL A   1      41.055  28.166  28.761  1.00  0.00    -0.354 N 
ATOM     19  C   UNL A   1      44.569  27.158  26.438  1.00  0.00     0.074 A 
ATOM     20  C   UNL A   1      44.386  25.896  25.750  1.00  0.00     0.031 C 
ATOM     21  C   UNL A   1      39.009  27.848  29.608  1.00  0.00     0.029 A 
ATOM     22  C   UNL A   1      40.150  28.755  29.613  1.00  0.00     0.049 A 
ATOM     23  H   UNL A   1      41.916  28.578  28.519  1.00  0.00     0.167 HD
ATOM     24  C   UNL A   1      45.677  27.937  26.341  1.00  0.00     0.034 A 
ATOM     25  C   UNL A   1      40.240  29.879  30.350  1.00  0.00     0.034 A 
ATOM     26  C   UNL A   1      45.835  29.195  27.034  1.00  0.00     0.049 A 
ATOM     27  C   UNL A   1      41.495  30.701  30.270  1.00  0.00     0.074 A 
ATOM     28  C   UNL A   1      46.902  30.078  26.990  1.00  0.00     0.029 A 
ATOM     29  N   UNL A   1      44.906  29.746  27.909  1.00  0.00    -0.354 N 
ATOM     30  N   UNL A   1      42.585  30.476  29.573  1.00  0.00    -0.248 NA
ATOM     31  C   UNL A   1      41.534  31.928  31.074  1.00  0.00     0.031 C 
ATOM     32  C   UNL A   1      46.647  31.124  27.885  1.00  0.00     0.029 A 
ATOM     33  C   UNL A   1      45.386  30.938  28.431  1.00  0.00     0.049 A 
ATOM     34  H   UNL A   1      44.031  29.348  28.126  1.00  0.00     0.167 HD
ATOM     35  C   UNL A   1      43.430  31.548  29.835  1.00  0.00     0.074 A 
ATOM     36  C   UNL A   1      42.720  32.421  30.750  1.00  0.00     0.031 C 
ATOM     37  C   UNL A   1      44.675  31.793  29.354  1.00  0.00     0.034 A 
BRANCH  24  38
ATOM     38  C   UNL A   1      46.820  27.416  25.498  1.00  0.00     0.023 A 
ATOM     39  C   UNL A   1      47.094  27.932  24.219  1.00  0.00     0.031 A 
ATOM     40  C   UNL A   1      47.618  26.355  25.961  1.00  0.00     0.131 A 
ATOM     41  C   UNL A   1      48.075  27.329  23.416  1.00  0.00     0.055 A 
ATOM     42  C   UNL A   1      48.651  25.818  25.191  1.00  0.00     0.041 A 
ATOM     43  F   UNL A   1      47.393  25.806  27.165  1.00  0.00    -0.206 F 
ATOM     44  C   UNL A   1      48.873  26.291  23.903  1.00  0.00     0.022 A 
BRANCH  41  45
ATOM     45  S   UNL A   1      48.173  27.806  21.667  1.00  0.00     0.124 S 
ATOM     46  O   UNL A   1      48.363  26.509  21.017  1.00  0.00    -0.237 OA
ATOM     47  O   UNL A   1      46.885  28.449  21.443  1.00  0.00    -0.237 OA
ATOM     48  O   UNL A   1      49.334  28.693  21.618  1.00  0.00    -0.744 OA
ENDBRANCH  41  45
ENDBRANCH  24  38
BRANCH  25  49
ATOM     49  C   UNL A   1      39.122  30.254  31.257  1.00  0.00     0.023 A 
ATOM     50  C   UNL A   1      38.227  31.282  30.924  1.00  0.00     0.031 A 
ATOM     51  C   UNL A   1      38.925  29.572  32.473  1.00  0.00     0.131 A 
ATOM     52  C   UNL A   1      37.188  31.613  31.808  1.00  0.00     0.055 A 
ATOM     53  C   UNL A   1      37.863  29.873  33.325  1.00  0.00     0.041 A 
ATOM     54  F   UNL A   1      39.749  28.574  32.832  1.00  0.00    -0.206 F 
ATOM     55  C   UNL A   1      36.991  30.906  32.997  1.00  0.00     0.022 A 
BRANCH  52  56
ATOM     56  S   UNL A   1      36.116  33.017  31.399  1.00  0.00     0.124 S 
ATOM     57  O   UNL A   1      36.666  33.447  30.119  1.00  0.00    -0.237 OA
ATOM     58  O   UNL A   1      34.799  32.392  31.354  1.00  0.00    -0.237 OA
ATOM     59  O   UNL A   1      36.327  33.941  32.512  1.00  0.00    -0.744 OA
ENDBRANCH  52  56
ENDBRANCH  25  49
BRANCH  37  60
ATOM     60  C   UNL A   1      45.326  33.088  29.771  1.00  0.00     0.023 A 
ATOM     61  C   UNL A   1      45.173  34.271  29.026  1.00  0.00     0.031 A 
ATOM     62  C   UNL A   1      46.117  33.132  30.933  1.00  0.00     0.131 A 
ATOM     63  C   UNL A   1      45.839  35.439  29.431  1.00  0.00     0.055 A 
ATOM     64  C   UNL A   1      46.732  34.309  31.358  1.00  0.00     0.041 A 
ATOM     65  F   UNL A   1      46.297  32.029  31.677  1.00  0.00    -0.206 F 
ATOM     66  C   UNL A   1      46.604  35.468  30.601  1.00  0.00     0.022 A 
BRANCH  63  67
ATOM     67  S   UNL A   1      45.751  36.907  28.369  1.00  0.00     0.124 S 
ATOM     68  O   UNL A   1      44.935  36.428  27.258  1.00  0.00    -0.237 OA
ATOM     69  O   UNL A   1      45.122  37.890  29.244  1.00  0.00    -0.237 OA
ATOM     70  O   UNL A   1      47.150  37.176  28.039  1.00  0.00    -0.744 OA
ENDBRANCH  63  67
ENDBRANCH  37  60
ENDBRANCH  11  12
ENDBRANCH   4   6
ENDBRANCH   1   2
BRANCH   1  71
ATOM     71  C   UNL A   1      35.100  21.966  26.377  1.00  0.00     0.042 C 
BRANCH  71  72
ATOM     72  C   UNL A   1      34.611  23.211  27.105  1.00  0.00     0.117 C 
BRANCH  72  73
ATOM     73  N   UNL A   1      33.171  23.238  27.259  1.00  0.00    -0.354 N 
ATOM     74  C   UNL A   1      32.211  23.927  26.587  1.00  0.00     0.242 C 
ATOM     75  H   UNL A   1      32.828  22.657  27.976  1.00  0.00     0.163 HD
ATOM     76  O   UNL A   1      31.060  23.772  27.015  1.00  0.00    -0.273 OA
BRANCH  74  77
ATOM     77  C   UNL A   1      32.550  24.861  25.383  1.00  0.00     0.173 C 
ATOM     78  C   UNL A   1      33.013  24.123  24.119  1.00  0.00     0.035 C 
ATOM     79  N   UNL A   1      31.344  25.635  25.026  1.00  0.00    -0.344 N 
ATOM     80  C   UNL A   1      31.893  23.278  23.516  1.00  0.00     0.004 C 
ATOM     81  C   UNL A   1      30.209  24.934  24.439  1.00  0.00     0.119 C 
ATOM     82  C   UNL A   1      30.670  24.141  23.215  1.00  0.00     0.022 C 
BRANCH  79  83
ATOM     83  C   UNL A   1      31.389  27.008  25.033  1.00  0.00     0.133 A 
ATOM     84  C   UNL A   1      30.529  27.731  24.231  1.00  0.00     0.076 A 
ATOM     85  N   UNL A   1      32.283  27.618  25.823  1.00  0.00    -0.211 NA
ATOM     86  C   UNL A   1      30.620  29.108  24.274  1.00  0.00     0.076 A 
ATOM     87  C   UNL A   1      32.318  28.961  25.789  1.00  0.00     0.162 A 
ATOM     88  N   UNL A   1      31.524  29.744  25.040  1.00  0.00    -0.228 NA
BRANCH  86  89
ATOM     89  C   UNL A   1      29.741  29.964  23.469  1.00  0.00     0.000 A 
ATOM     90  C   UNL A   1      29.207  31.148  24.004  1.00  0.00     0.010 A 
ATOM     91  C   UNL A   1      29.417  29.628  22.144  1.00  0.00     0.010 A 
ATOM     92  C   UNL A   1      28.389  31.979  23.235  1.00  0.00     0.001 A 
ATOM     93  C   UNL A   1      28.589  30.453  21.377  1.00  0.00     0.001 A 
ATOM     94  C   UNL A   1      28.081  31.631  21.921  1.00  0.00     0.000 A 
ENDBRANCH  86  89
BRANCH  87  95
ATOM     95  C   UNL A   1      33.335  29.628  26.607  1.00  0.00     0.021 A 
ATOM     96  C   UNL A   1      34.487  28.939  27.031  1.00  0.00     0.012 A 
ATOM     97  C   UNL A   1      33.191  30.973  26.983  1.00  0.00     0.032 A 
ATOM     98  C   UNL A   1      35.466  29.572  27.801  1.00  0.00     0.002 A 
ATOM     99  C   UNL A   1      34.162  31.598  27.766  1.00  0.00     0.041 A 
ATOM    100  C   UNL A   1      35.299  30.904  28.173  1.00  0.00     0.020 A 
ATOM    101  Cl  UNL A   1      33.956  33.242  28.233  1.00  0.00    -0.084 Cl
ENDBRANCH  87  95
ENDBRANCH  79  83
ENDBRANCH  74  77
ENDBRANCH  72  73
ENDBRANCH  71  72
ENDBRANCH   1  71
TORSDOF 16
ENDMDL
