MODEL 1
REMARK VINA RESULT:     -12.5      0.000      0.000
REMARK SMILES CS(=O)(=O)c1ccc(/C=C(/C(=O)NCCCNC(=O)c2ccc(-c3c4nc(c(-c5cc(S(=O)(=O)[O-])ccc5F)c5ccc([nH]5)c(-c5cc(S(=O)(=O)[O-])ccc5F)c5nc(c(-c6cc(S(=O)(=O)[O-])ccc6F)c6ccc3[nH]6)C=C5)C=C4)cc2)c2ccc(F)cc2)cc1
REMARK SMILES IDX 15 1 14 2 13 3 11 4 12 5 10 7 9 8 8 9 5 10 6 11 91 12 7 13
REMARK SMILES IDX 90 14 2 15 1 16 3 17 4 18 83 19 84 20 89 21 85 22 88 23
REMARK SMILES IDX 86 24 87 25 16 26 17 27 18 28 19 30 20 31 21 32 82 33 22 34
REMARK SMILES IDX 81 35 23 36 24 37 25 38 75 39 26 40 80 41 74 42 76 43 27 44
REMARK SMILES IDX 79 45 73 46 72 47 28 49 60 50 40 51 59 52 41 53 44 54 58 55
REMARK SMILES IDX 77 56 42 57 43 58 57 60 78 61 45 62 29 63 30 64 38 65 31 66
REMARK SMILES IDX 37 67 39 68 36 69 32 70 33 71 34 72 35 73 61 74 62 75 70 76
REMARK SMILES IDX 63 77 69 78 71 79 68 80 64 81 65 82 66 83 67 84 46 85 47 86
REMARK SMILES IDX 55 87 48 88 54 89 56 90 53 91 49 92 50 93 51 94 52 95
REMARK H PARENT 13 6 17 29 76 48 44 59
REMARK Flexibility Score: inf
ROOT
ATOM      1  C   UNL A   1      36.156  23.567  24.517  1.00  0.00     0.042 C 
ENDROOT
BRANCH   1   2
ATOM      2  C   UNL A   1      34.696  23.877  24.182  1.00  0.00     0.118 C 
BRANCH   2   3
ATOM      3  N   UNL A   1      33.816  23.490  25.271  1.00  0.00    -0.352 N 
ATOM      4  C   UNL A   1      32.735  24.059  25.866  1.00  0.00     0.251 C 
ATOM      5  O   UNL A   1      32.219  23.413  26.782  1.00  0.00    -0.269 OA
ATOM      6  H   UNL A   1      34.056  22.620  25.666  1.00  0.00     0.163 HD
BRANCH   4   7
ATOM      7  C   UNL A   1      32.109  25.358  25.409  1.00  0.00     0.047 C 
ATOM      8  C   UNL A   1      31.318  25.426  24.315  1.00  0.00     0.022 C 
BRANCH   8   9
ATOM      9  C   UNL A   1      30.573  26.581  23.766  1.00  0.00    -0.025 A 
ATOM     10  C   UNL A   1      29.040  28.752  22.863  1.00  0.00     0.067 A 
ATOM     11  C   UNL A   1      30.415  28.727  22.627  1.00  0.00     0.021 A 
ATOM     12  C   UNL A   1      28.410  27.680  23.493  1.00  0.00     0.021 A 
ATOM     13  C   UNL A   1      31.171  27.634  23.064  1.00  0.00     0.009 A 
ATOM     14  C   UNL A   1      29.179  26.602  23.944  1.00  0.00     0.009 A 
BRANCH  10  15
ATOM     15  S   UNL A   1      28.090  30.154  22.324  1.00  0.00     0.175 S 
ATOM     16  C   UNL A   1      29.124  31.536  22.736  1.00  0.00     0.163 C 
ATOM     17  O   UNL A   1      26.903  30.235  23.148  1.00  0.00    -0.224 OA
ATOM     18  O   UNL A   1      27.995  30.079  20.876  1.00  0.00    -0.224 OA
ENDBRANCH  10  15
ENDBRANCH   8   9
BRANCH   7  19
ATOM     19  C   UNL A   1      32.546  26.591  26.113  1.00  0.00    -0.013 A 
ATOM     20  C   UNL A   1      33.819  27.121  25.824  1.00  0.00     0.012 A 
ATOM     21  C   UNL A   1      31.710  27.278  27.003  1.00  0.00     0.012 A 
ATOM     22  C   UNL A   1      34.238  28.322  26.393  1.00  0.00     0.040 A 
ATOM     23  C   UNL A   1      32.129  28.488  27.565  1.00  0.00     0.040 A 
ATOM     24  C   UNL A   1      33.384  29.000  27.251  1.00  0.00     0.123 A 
ATOM     25  F   UNL A   1      33.772  30.169  27.779  1.00  0.00    -0.207 F 
ENDBRANCH   7  19
ENDBRANCH   4   7
ENDBRANCH   2   3
ENDBRANCH   1   2
BRANCH   1  26
ATOM     26  C   UNL A   1      36.390  23.175  25.978  1.00  0.00     0.118 C 
BRANCH  26  27
ATOM     27  N   UNL A   1      37.492  22.237  26.126  1.00  0.00    -0.352 N 
ATOM     28  C   UNL A   1      38.820  22.469  26.390  1.00  0.00     0.251 C 
ATOM     29  H   UNL A   1      37.248  21.288  26.021  1.00  0.00     0.163 HD
ATOM     30  O   UNL A   1      39.621  21.546  26.250  1.00  0.00    -0.269 OA
BRANCH  28  31
ATOM     31  C   UNL A   1      39.292  23.804  26.820  1.00  0.00     0.039 A 
ATOM     32  C   UNL A   1      39.814  24.675  25.858  1.00  0.00     0.014 A 
ATOM     33  C   UNL A   1      39.279  24.184  28.166  1.00  0.00     0.014 A 
ATOM     34  C   UNL A   1      40.270  25.942  26.235  1.00  0.00     0.010 A 
ATOM     35  C   UNL A   1      39.680  25.469  28.531  1.00  0.00     0.010 A 
ATOM     36  C   UNL A   1      40.183  26.361  27.572  1.00  0.00    -0.014 A 
BRANCH  36  37
ATOM     37  C   UNL A   1      40.620  27.721  27.984  1.00  0.00     0.031 A 
ATOM     38  C   UNL A   1      42.081  28.083  27.972  1.00  0.00     0.074 A 
ATOM     39  C   UNL A   1      39.709  28.610  28.426  1.00  0.00     0.049 A 
ATOM     40  N   UNL A   1      42.667  29.182  28.373  1.00  0.00    -0.248 NA
ATOM     41  C   UNL A   1      43.005  27.058  27.466  1.00  0.00     0.031 C 
ATOM     42  C   UNL A   1      38.267  28.370  28.510  1.00  0.00     0.029 A 
ATOM     43  N   UNL A   1      39.860  29.890  28.896  1.00  0.00    -0.354 N 
ATOM     44  C   UNL A   1      44.031  28.977  28.184  1.00  0.00     0.074 A 
ATOM     45  C   UNL A   1      44.180  27.625  27.686  1.00  0.00     0.031 C 
ATOM     46  C   UNL A   1      37.665  29.473  28.983  1.00  0.00     0.029 A 
ATOM     47  C   UNL A   1      38.677  30.482  29.276  1.00  0.00     0.049 A 
ATOM     48  H   UNL A   1      40.732  30.343  28.956  1.00  0.00     0.167 HD
ATOM     49  C   UNL A   1      45.058  29.841  28.387  1.00  0.00     0.034 A 
ATOM     50  C   UNL A   1      38.438  31.696  29.812  1.00  0.00     0.034 A 
ATOM     51  C   UNL A   1      44.890  31.188  28.876  1.00  0.00     0.049 A 
ATOM     52  C   UNL A   1      39.596  32.626  30.060  1.00  0.00     0.074 A 
ATOM     53  C   UNL A   1      45.852  32.166  29.069  1.00  0.00     0.029 A 
ATOM     54  N   UNL A   1      43.677  31.750  29.258  1.00  0.00    -0.354 N 
ATOM     55  N   UNL A   1      40.876  32.432  29.838  1.00  0.00    -0.248 NA
ATOM     56  C   UNL A   1      39.274  33.944  30.624  1.00  0.00     0.031 C 
ATOM     57  C   UNL A   1      45.233  33.293  29.623  1.00  0.00     0.029 A 
ATOM     58  C   UNL A   1      43.872  33.047  29.713  1.00  0.00     0.049 A 
ATOM     59  H   UNL A   1      42.806  31.294  29.213  1.00  0.00     0.167 HD
ATOM     60  C   UNL A   1      41.507  33.616  30.208  1.00  0.00     0.074 A 
ATOM     61  C   UNL A   1      40.467  34.520  30.656  1.00  0.00     0.031 C 
ATOM     62  C   UNL A   1      42.827  33.932  30.171  1.00  0.00     0.034 A 
BRANCH  49  63
ATOM     63  C   UNL A   1      46.453  29.331  28.107  1.00  0.00     0.023 A 
ATOM     64  C   UNL A   1      46.867  28.989  26.808  1.00  0.00     0.031 A 
ATOM     65  C   UNL A   1      47.369  29.139  29.158  1.00  0.00     0.131 A 
ATOM     66  C   UNL A   1      48.118  28.388  26.604  1.00  0.00     0.055 A 
ATOM     67  C   UNL A   1      48.647  28.622  28.936  1.00  0.00     0.041 A 
ATOM     68  F   UNL A   1      47.028  29.429  30.423  1.00  0.00    -0.206 F 
ATOM     69  C   UNL A   1      49.021  28.223  27.656  1.00  0.00     0.022 A 
BRANCH  66  70
ATOM     70  S   UNL A   1      48.478  27.672  24.976  1.00  0.00     0.124 S 
ATOM     71  O   UNL A   1      47.383  28.206  24.170  1.00  0.00    -0.237 OA
ATOM     72  O   UNL A   1      49.805  28.204  24.685  1.00  0.00    -0.237 OA
ATOM     73  O   UNL A   1      48.420  26.231  25.215  1.00  0.00    -0.744 OA
ENDBRANCH  66  70
ENDBRANCH  49  63
BRANCH  50  74
ATOM     74  C   UNL A   1      37.048  32.106  30.153  1.00  0.00     0.023 A 
ATOM     75  C   UNL A   1      36.221  32.710  29.195  1.00  0.00     0.031 A 
ATOM     76  C   UNL A   1      36.537  31.931  31.452  1.00  0.00     0.131 A 
ATOM     77  C   UNL A   1      34.941  33.156  29.556  1.00  0.00     0.055 A 
ATOM     78  C   UNL A   1      35.246  32.335  31.795  1.00  0.00     0.041 A 
ATOM     79  F   UNL A   1      37.286  31.351  32.404  1.00  0.00    -0.206 F 
ATOM     80  C   UNL A   1      34.443  32.962  30.847  1.00  0.00     0.022 A 
BRANCH  77  81
ATOM     81  S   UNL A   1      33.958  34.058  28.328  1.00  0.00     0.124 S 
ATOM     82  O   UNL A   1      34.996  34.647  27.491  1.00  0.00    -0.237 OA
ATOM     83  O   UNL A   1      33.174  32.988  27.722  1.00  0.00    -0.237 OA
ATOM     84  O   UNL A   1      33.193  35.007  29.136  1.00  0.00    -0.744 OA
ENDBRANCH  77  81
ENDBRANCH  50  74
BRANCH  62  85
ATOM     85  C   UNL A   1      43.204  35.332  30.589  1.00  0.00     0.023 A 
ATOM     86  C   UNL A   1      43.322  35.694  31.941  1.00  0.00     0.031 A 
ATOM     87  C   UNL A   1      43.424  36.322  29.615  1.00  0.00     0.131 A 
ATOM     88  C   UNL A   1      43.598  37.026  32.286  1.00  0.00     0.055 A 
ATOM     89  C   UNL A   1      43.753  37.632  29.962  1.00  0.00     0.041 A 
ATOM     90  F   UNL A   1      43.322  36.030  28.308  1.00  0.00    -0.206 F 
ATOM     91  C   UNL A   1      43.829  37.994  31.305  1.00  0.00     0.022 A 
BRANCH  88  92
ATOM     92  S   UNL A   1      43.568  37.499  34.037  1.00  0.00     0.124 S 
ATOM     93  O   UNL A   1      44.989  37.544  34.364  1.00  0.00    -0.237 OA
ATOM     94  O   UNL A   1      42.881  38.786  34.001  1.00  0.00    -0.237 OA
ATOM     95  O   UNL A   1      42.819  36.416  34.672  1.00  0.00    -0.744 OA
ENDBRANCH  88  92
ENDBRANCH  62  85
ENDBRANCH  36  37
ENDBRANCH  28  31
ENDBRANCH  26  27
ENDBRANCH   1  26
TORSDOF 16
ENDMDL
MODEL 2
REMARK VINA RESULT:     -12.4      2.380      7.788
REMARK SMILES CS(=O)(=O)c1ccc(/C=C(/C(=O)NCCCNC(=O)c2ccc(-c3c4nc(c(-c5cc(S(=O)(=O)[O-])ccc5F)c5ccc([nH]5)c(-c5cc(S(=O)(=O)[O-])ccc5F)c5nc(c(-c6cc(S(=O)(=O)[O-])ccc6F)c6ccc3[nH]6)C=C5)C=C4)cc2)c2ccc(F)cc2)cc1
REMARK SMILES IDX 15 1 14 2 13 3 11 4 12 5 10 7 9 8 8 9 5 10 6 11 91 12 7 13
REMARK SMILES IDX 90 14 2 15 1 16 3 17 4 18 83 19 84 20 89 21 85 22 88 23
REMARK SMILES IDX 86 24 87 25 16 26 17 27 18 28 19 30 20 31 21 32 82 33 22 34
REMARK SMILES IDX 81 35 23 36 24 37 25 38 75 39 26 40 80 41 74 42 76 43 27 44
REMARK SMILES IDX 79 45 73 46 72 47 28 49 60 50 40 51 59 52 41 53 44 54 58 55
REMARK SMILES IDX 77 56 42 57 43 58 57 60 78 61 45 62 29 63 30 64 38 65 31 66
REMARK SMILES IDX 37 67 39 68 36 69 32 70 33 71 34 72 35 73 61 74 62 75 70 76
REMARK SMILES IDX 63 77 69 78 71 79 68 80 64 81 65 82 66 83 67 84 46 85 47 86
REMARK SMILES IDX 55 87 48 88 54 89 56 90 53 91 49 92 50 93 51 94 52 95
REMARK H PARENT 13 6 17 29 76 48 44 59
REMARK Flexibility Score: inf
ROOT
ATOM      1  C   UNL A   1      35.216  22.557  24.518  1.00  0.00     0.042 C 
ENDROOT
BRANCH   1   2
ATOM      2  C   UNL A   1      34.180  23.679  24.623  1.00  0.00     0.118 C 
BRANCH   2   3
ATOM      3  N   UNL A   1      33.273  23.451  25.734  1.00  0.00    -0.352 N 
ATOM      4  C   UNL A   1      32.244  24.152  26.277  1.00  0.00     0.251 C 
ATOM      5  O   UNL A   1      31.677  23.623  27.238  1.00  0.00    -0.269 OA
ATOM      6  H   UNL A   1      33.440  22.597  26.196  1.00  0.00     0.163 HD
BRANCH   4   7
ATOM      7  C   UNL A   1      31.728  25.459  25.719  1.00  0.00     0.047 C 
ATOM      8  C   UNL A   1      30.931  25.507  24.628  1.00  0.00     0.022 C 
BRANCH   8   9
ATOM      9  C   UNL A   1      30.282  26.675  23.991  1.00  0.00    -0.025 A 
ATOM     10  C   UNL A   1      28.912  28.868  22.899  1.00  0.00     0.067 A 
ATOM     11  C   UNL A   1      30.307  28.839  22.875  1.00  0.00     0.021 A 
ATOM     12  C   UNL A   1      28.190  27.790  23.408  1.00  0.00     0.021 A 
ATOM     13  C   UNL A   1      30.984  27.735  23.405  1.00  0.00     0.009 A 
ATOM     14  C   UNL A   1      28.877  26.701  23.954  1.00  0.00     0.009 A 
BRANCH  10  15
ATOM     15  S   UNL A   1      28.061  30.283  22.244  1.00  0.00     0.175 S 
ATOM     16  C   UNL A   1      29.208  31.612  22.502  1.00  0.00     0.163 C 
ATOM     17  O   UNL A   1      26.905  30.537  23.077  1.00  0.00    -0.224 OA
ATOM     18  O   UNL A   1      27.923  30.079  20.812  1.00  0.00    -0.224 OA
ENDBRANCH  10  15
ENDBRANCH   8   9
BRANCH   7  19
ATOM     19  C   UNL A   1      32.280  26.702  26.316  1.00  0.00    -0.013 A 
ATOM     20  C   UNL A   1      33.579  27.108  25.956  1.00  0.00     0.012 A 
ATOM     21  C   UNL A   1      31.527  27.517  27.173  1.00  0.00     0.012 A 
ATOM     22  C   UNL A   1      34.108  28.310  26.421  1.00  0.00     0.040 A 
ATOM     23  C   UNL A   1      32.055  28.728  27.631  1.00  0.00     0.040 A 
ATOM     24  C   UNL A   1      33.336  29.114  27.247  1.00  0.00     0.123 A 
ATOM     25  F   UNL A   1      33.828  30.285  27.675  1.00  0.00    -0.207 F 
ENDBRANCH   7  19
ENDBRANCH   4   7
ENDBRANCH   2   3
ENDBRANCH   1   2
BRANCH   1  26
ATOM     26  C   UNL A   1      35.836  22.156  25.859  1.00  0.00     0.118 C 
BRANCH  26  27
ATOM     27  N   UNL A   1      36.808  21.082  25.716  1.00  0.00    -0.352 N 
ATOM     28  C   UNL A   1      38.181  21.127  25.720  1.00  0.00     0.251 C 
ATOM     29  H   UNL A   1      36.421  20.184  25.598  1.00  0.00     0.163 HD
ATOM     30  O   UNL A   1      38.806  20.133  25.358  1.00  0.00    -0.269 OA
BRANCH  28  31
ATOM     31  C   UNL A   1      38.904  22.350  26.136  1.00  0.00     0.039 A 
ATOM     32  C   UNL A   1      40.048  22.217  26.930  1.00  0.00     0.014 A 
ATOM     33  C   UNL A   1      38.436  23.624  25.801  1.00  0.00     0.014 A 
ATOM     34  C   UNL A   1      40.751  23.355  27.340  1.00  0.00     0.010 A 
ATOM     35  C   UNL A   1      39.170  24.754  26.161  1.00  0.00     0.010 A 
ATOM     36  C   UNL A   1      40.333  24.633  26.937  1.00  0.00    -0.014 A 
BRANCH  36  37
ATOM     37  C   UNL A   1      41.094  25.850  27.325  1.00  0.00     0.031 A 
ATOM     38  C   UNL A   1      40.431  26.930  28.138  1.00  0.00     0.074 A 
ATOM     39  C   UNL A   1      42.360  26.012  26.895  1.00  0.00     0.049 A 
ATOM     40  N   UNL A   1      40.896  28.098  28.502  1.00  0.00    -0.248 NA
ATOM     41  C   UNL A   1      39.052  26.669  28.572  1.00  0.00     0.031 C 
ATOM     42  C   UNL A   1      43.104  25.050  26.080  1.00  0.00     0.029 A 
ATOM     43  N   UNL A   1      43.243  27.046  27.075  1.00  0.00    -0.354 N 
ATOM     44  C   UNL A   1      39.861  28.719  29.196  1.00  0.00     0.074 A 
ATOM     45  C   UNL A   1      38.729  27.816  29.147  1.00  0.00     0.031 C 
ATOM     46  C   UNL A   1      44.336  25.530  25.848  1.00  0.00     0.029 A 
ATOM     47  C   UNL A   1      44.457  26.850  26.458  1.00  0.00     0.049 A 
ATOM     48  H   UNL A   1      43.029  27.853  27.597  1.00  0.00     0.167 HD
ATOM     49  C   UNL A   1      39.862  29.920  29.831  1.00  0.00     0.034 A 
ATOM     50  C   UNL A   1      45.541  27.648  26.383  1.00  0.00     0.034 A 
ATOM     51  C   UNL A   1      41.002  30.803  29.877  1.00  0.00     0.049 A 
ATOM     52  C   UNL A   1      45.509  28.990  27.066  1.00  0.00     0.074 A 
ATOM     53  C   UNL A   1      41.132  32.016  30.532  1.00  0.00     0.029 A 
ATOM     54  N   UNL A   1      42.212  30.574  29.232  1.00  0.00    -0.354 N 
ATOM     55  N   UNL A   1      44.537  29.546  27.752  1.00  0.00    -0.248 NA
ATOM     56  C   UNL A   1      46.725  29.808  26.970  1.00  0.00     0.031 C 
ATOM     57  C   UNL A   1      42.393  32.547  30.236  1.00  0.00     0.029 A 
ATOM     58  C   UNL A   1      43.080  31.635  29.451  1.00  0.00     0.049 A 
ATOM     59  H   UNL A   1      42.423  29.775  28.698  1.00  0.00     0.167 HD
ATOM     60  C   UNL A   1      45.037  30.767  28.195  1.00  0.00     0.074 A 
ATOM     61  C   UNL A   1      46.398  30.860  27.707  1.00  0.00     0.031 C 
ATOM     62  C   UNL A   1      44.430  31.721  28.946  1.00  0.00     0.034 A 
BRANCH  49  63
ATOM     63  C   UNL A   1      38.574  30.349  30.495  1.00  0.00     0.023 A 
ATOM     64  C   UNL A   1      37.663  31.207  29.855  1.00  0.00     0.031 A 
ATOM     65  C   UNL A   1      38.273  29.932  31.805  1.00  0.00     0.131 A 
ATOM     66  C   UNL A   1      36.549  31.695  30.554  1.00  0.00     0.055 A 
ATOM     67  C   UNL A   1      37.115  30.352  32.464  1.00  0.00     0.041 A 
ATOM     68  F   UNL A   1      39.110  29.127  32.477  1.00  0.00    -0.206 F 
ATOM     69  C   UNL A   1      36.255  31.256  31.846  1.00  0.00     0.022 A 
BRANCH  66  70
ATOM     70  S   UNL A   1      35.585  33.041  29.810  1.00  0.00     0.124 S 
ATOM     71  O   UNL A   1      36.122  33.074  28.452  1.00  0.00    -0.237 OA
ATOM     72  O   UNL A   1      34.215  32.558  29.944  1.00  0.00    -0.237 OA
ATOM     73  O   UNL A   1      35.923  34.201  30.634  1.00  0.00    -0.744 OA
ENDBRANCH  66  70
ENDBRANCH  49  63
BRANCH  50  74
ATOM     74  C   UNL A   1      46.749  27.207  25.632  1.00  0.00     0.023 A 
ATOM     75  C   UNL A   1      47.022  27.707  24.351  1.00  0.00     0.031 A 
ATOM     76  C   UNL A   1      47.631  26.254  26.171  1.00  0.00     0.131 A 
ATOM     77  C   UNL A   1      48.125  27.225  23.631  1.00  0.00     0.055 A 
ATOM     78  C   UNL A   1      48.753  25.810  25.470  1.00  0.00     0.041 A 
ATOM     79  F   UNL A   1      47.419  25.749  27.397  1.00  0.00    -0.206 F 
ATOM     80  C   UNL A   1      48.999  26.288  24.186  1.00  0.00     0.022 A 
BRANCH  77  81
ATOM     81  S   UNL A   1      48.362  27.791  21.924  1.00  0.00     0.124 S 
ATOM     82  O   UNL A   1      48.478  26.528  21.205  1.00  0.00    -0.237 OA
ATOM     83  O   UNL A   1      47.142  28.556  21.687  1.00  0.00    -0.237 OA
ATOM     84  O   UNL A   1      49.588  28.585  21.997  1.00  0.00    -0.744 OA
ENDBRANCH  77  81
ENDBRANCH  50  74
BRANCH  62  85
ATOM     85  C   UNL A   1      45.260  32.925  29.316  1.00  0.00     0.023 A 
ATOM     86  C   UNL A   1      45.278  34.085  28.523  1.00  0.00     0.031 A 
ATOM     87  C   UNL A   1      46.062  32.899  30.471  1.00  0.00     0.131 A 
ATOM     88  C   UNL A   1      46.123  35.152  28.864  1.00  0.00     0.055 A 
ATOM     89  C   UNL A   1      46.859  33.984  30.835  1.00  0.00     0.041 A 
ATOM     90  F   UNL A   1      46.084  31.815  31.264  1.00  0.00    -0.206 F 
ATOM     91  C   UNL A   1      46.903  35.115  30.023  1.00  0.00     0.022 A 
BRANCH  88  92
ATOM     92  S   UNL A   1      46.257  36.557  27.725  1.00  0.00     0.124 S 
ATOM     93  O   UNL A   1      47.356  37.319  28.311  1.00  0.00    -0.237 OA
ATOM     94  O   UNL A   1      46.544  35.903  26.453  1.00  0.00    -0.237 OA
ATOM     95  O   UNL A   1      44.945  37.195  27.811  1.00  0.00    -0.744 OA
ENDBRANCH  88  92
ENDBRANCH  62  85
ENDBRANCH  36  37
ENDBRANCH  28  31
ENDBRANCH  26  27
ENDBRANCH   1  26
TORSDOF 16
ENDMDL
MODEL 3
REMARK VINA RESULT:     -12.2      4.564      9.785
REMARK SMILES CS(=O)(=O)c1ccc(/C=C(/C(=O)NCCCNC(=O)c2ccc(-c3c4nc(c(-c5cc(S(=O)(=O)[O-])ccc5F)c5ccc([nH]5)c(-c5cc(S(=O)(=O)[O-])ccc5F)c5nc(c(-c6cc(S(=O)(=O)[O-])ccc6F)c6ccc3[nH]6)C=C5)C=C4)cc2)c2ccc(F)cc2)cc1
REMARK SMILES IDX 15 1 14 2 13 3 11 4 12 5 10 7 9 8 8 9 5 10 6 11 91 12 7 13
REMARK SMILES IDX 90 14 2 15 1 16 3 17 4 18 83 19 84 20 89 21 85 22 88 23
REMARK SMILES IDX 86 24 87 25 16 26 17 27 18 28 19 30 20 31 21 32 82 33 22 34
REMARK SMILES IDX 81 35 23 36 24 37 25 38 75 39 26 40 80 41 74 42 76 43 27 44
REMARK SMILES IDX 79 45 73 46 72 47 28 49 60 50 40 51 59 52 41 53 44 54 58 55
REMARK SMILES IDX 77 56 42 57 43 58 57 60 78 61 45 62 29 63 30 64 38 65 31 66
REMARK SMILES IDX 37 67 39 68 36 69 32 70 33 71 34 72 35 73 61 74 62 75 70 76
REMARK SMILES IDX 63 77 69 78 71 79 68 80 64 81 65 82 66 83 67 84 46 85 47 86
REMARK SMILES IDX 55 87 48 88 54 89 56 90 53 91 49 92 50 93 51 94 52 95
REMARK H PARENT 13 6 17 29 76 48 44 59
REMARK Flexibility Score: inf
ROOT
ATOM      1  C   UNL A   1      33.853  27.880  25.995  1.00  0.00     0.042 C 
ENDROOT
BRANCH   1   2
ATOM      2  C   UNL A   1      32.878  26.968  25.247  1.00  0.00     0.118 C 
BRANCH   2   3
ATOM      3  N   UNL A   1      33.176  26.937  23.826  1.00  0.00    -0.352 N 
ATOM      4  C   UNL A   1      33.558  25.965  22.957  1.00  0.00     0.251 C 
ATOM      5  O   UNL A   1      33.711  26.317  21.784  1.00  0.00    -0.269 OA
ATOM      6  H   UNL A   1      33.079  27.818  23.396  1.00  0.00     0.163 HD
BRANCH   4   7
ATOM      7  C   UNL A   1      33.709  24.508  23.337  1.00  0.00     0.047 C 
ATOM      8  C   UNL A   1      32.674  23.642  23.280  1.00  0.00     0.022 C 
BRANCH   8   9
ATOM      9  C   UNL A   1      32.653  22.185  23.541  1.00  0.00    -0.025 A 
ATOM     10  C   UNL A   1      32.660  19.397  23.863  1.00  0.00     0.067 A 
ATOM     11  C   UNL A   1      32.980  20.221  24.942  1.00  0.00     0.021 A 
ATOM     12  C   UNL A   1      32.280  19.948  22.640  1.00  0.00     0.021 A 
ATOM     13  C   UNL A   1      32.958  21.610  24.781  1.00  0.00     0.009 A 
ATOM     14  C   UNL A   1      32.281  21.337  22.484  1.00  0.00     0.009 A 
BRANCH  10  15
ATOM     15  S   UNL A   1      32.711  17.633  24.069  1.00  0.00     0.175 S 
ATOM     16  C   UNL A   1      34.370  17.330  24.621  1.00  0.00     0.163 C 
ATOM     17  O   UNL A   1      32.567  17.023  22.765  1.00  0.00    -0.224 OA
ATOM     18  O   UNL A   1      31.808  17.299  25.158  1.00  0.00    -0.224 OA
ENDBRANCH  10  15
ENDBRANCH   8   9
BRANCH   7  19
ATOM     19  C   UNL A   1      35.004  24.111  23.948  1.00  0.00    -0.013 A 
ATOM     20  C   UNL A   1      35.263  24.475  25.283  1.00  0.00     0.012 A 
ATOM     21  C   UNL A   1      35.945  23.331  23.261  1.00  0.00     0.012 A 
ATOM     22  C   UNL A   1      36.424  24.051  25.927  1.00  0.00     0.040 A 
ATOM     23  C   UNL A   1      37.104  22.899  23.912  1.00  0.00     0.040 A 
ATOM     24  C   UNL A   1      37.330  23.258  25.237  1.00  0.00     0.123 A 
ATOM     25  F   UNL A   1      38.435  22.825  25.860  1.00  0.00    -0.207 F 
ENDBRANCH   7  19
ENDBRANCH   4   7
ENDBRANCH   2   3
ENDBRANCH   1   2
BRANCH   1  26
ATOM     26  C   UNL A   1      33.243  28.575  27.215  1.00  0.00     0.118 C 
BRANCH  26  27
ATOM     27  N   UNL A   1      33.406  30.020  27.163  1.00  0.00    -0.352 N 
ATOM     28  C   UNL A   1      34.401  30.816  27.678  1.00  0.00     0.251 C 
ATOM     29  H   UNL A   1      32.693  30.502  26.684  1.00  0.00     0.163 HD
ATOM     30  O   UNL A   1      34.226  32.032  27.713  1.00  0.00    -0.269 OA
BRANCH  28  31
ATOM     31  C   UNL A   1      35.657  30.230  28.197  1.00  0.00     0.039 A 
ATOM     32  C   UNL A   1      36.777  30.190  27.361  1.00  0.00     0.014 A 
ATOM     33  C   UNL A   1      35.726  29.668  29.476  1.00  0.00     0.014 A 
ATOM     34  C   UNL A   1      37.977  29.639  27.823  1.00  0.00     0.010 A 
ATOM     35  C   UNL A   1      36.938  29.173  29.956  1.00  0.00     0.010 A 
ATOM     36  C   UNL A   1      38.076  29.150  29.134  1.00  0.00    -0.014 A 
BRANCH  36  37
ATOM     37  C   UNL A   1      39.356  28.603  29.659  1.00  0.00     0.031 A 
ATOM     38  C   UNL A   1      39.999  29.215  30.874  1.00  0.00     0.074 A 
ATOM     39  C   UNL A   1      39.969  27.597  29.006  1.00  0.00     0.049 A 
ATOM     40  N   UNL A   1      41.150  28.939  31.433  1.00  0.00    -0.248 NA
ATOM     41  C   UNL A   1      39.258  30.302  31.530  1.00  0.00     0.031 C 
ATOM     42  C   UNL A   1      39.460  26.938  27.802  1.00  0.00     0.029 A 
ATOM     43  N   UNL A   1      41.157  26.959  29.257  1.00  0.00    -0.354 N 
ATOM     44  C   UNL A   1      41.280  29.827  32.496  1.00  0.00     0.074 A 
ATOM     45  C   UNL A   1      40.114  30.686  32.463  1.00  0.00     0.031 C 
ATOM     46  C   UNL A   1      40.321  25.976  27.431  1.00  0.00     0.029 A 
ATOM     47  C   UNL A   1      41.460  25.977  28.341  1.00  0.00     0.049 A 
ATOM     48  H   UNL A   1      41.739  27.182  30.019  1.00  0.00     0.167 HD
ATOM     49  C   UNL A   1      42.269  29.905  33.424  1.00  0.00     0.034 A 
ATOM     50  C   UNL A   1      42.540  25.177  28.240  1.00  0.00     0.034 A 
ATOM     51  C   UNL A   1      43.419  29.035  33.447  1.00  0.00     0.049 A 
ATOM     52  C   UNL A   1      43.641  25.303  29.261  1.00  0.00     0.074 A 
ATOM     53  C   UNL A   1      44.453  28.991  34.368  1.00  0.00     0.029 A 
ATOM     54  N   UNL A   1      43.697  28.058  32.498  1.00  0.00    -0.354 N 
ATOM     55  N   UNL A   1      43.731  26.121  30.285  1.00  0.00    -0.248 NA
ATOM     56  C   UNL A   1      44.783  24.391  29.115  1.00  0.00     0.031 C 
ATOM     57  C   UNL A   1      45.382  28.032  33.944  1.00  0.00     0.029 A 
ATOM     58  C   UNL A   1      44.897  27.428  32.795  1.00  0.00     0.049 A 
ATOM     59  H   UNL A   1      43.124  27.843  31.726  1.00  0.00     0.167 HD
ATOM     60  C   UNL A   1      44.925  25.799  30.922  1.00  0.00     0.074 A 
ATOM     61  C   UNL A   1      45.515  24.708  30.174  1.00  0.00     0.031 C 
ATOM     62  C   UNL A   1      45.480  26.350  32.032  1.00  0.00     0.034 A 
BRANCH  49  63
ATOM     63  C   UNL A   1      42.150  30.994  34.466  1.00  0.00     0.023 A 
ATOM     64  C   UNL A   1      42.655  32.287  34.243  1.00  0.00     0.031 A 
ATOM     65  C   UNL A   1      41.568  30.724  35.718  1.00  0.00     0.131 A 
ATOM     66  C   UNL A   1      42.654  33.230  35.282  1.00  0.00     0.055 A 
ATOM     67  C   UNL A   1      41.490  31.695  36.719  1.00  0.00     0.041 A 
ATOM     68  F   UNL A   1      41.084  29.504  35.999  1.00  0.00    -0.206 F 
ATOM     69  C   UNL A   1      42.053  32.951  36.511  1.00  0.00     0.022 A 
BRANCH  66  70
ATOM     70  S   UNL A   1      43.598  34.763  35.058  1.00  0.00     0.124 S 
ATOM     71  O   UNL A   1      43.042  35.608  36.113  1.00  0.00    -0.237 OA
ATOM     72  O   UNL A   1      44.973  34.317  35.254  1.00  0.00    -0.237 OA
ATOM     73  O   UNL A   1      43.262  35.177  33.697  1.00  0.00    -0.744 OA
ENDBRANCH  66  70
ENDBRANCH  49  63
BRANCH  50  74
ATOM     74  C   UNL A   1      42.641  24.185  27.134  1.00  0.00     0.023 A 
ATOM     75  C   UNL A   1      42.064  22.913  27.255  1.00  0.00     0.031 A 
ATOM     76  C   UNL A   1      43.346  24.483  25.954  1.00  0.00     0.131 A 
ATOM     77  C   UNL A   1      42.233  21.968  26.232  1.00  0.00     0.055 A 
ATOM     78  C   UNL A   1      43.473  23.555  24.919  1.00  0.00     0.041 A 
ATOM     79  F   UNL A   1      43.911  25.689  25.786  1.00  0.00    -0.206 F 
ATOM     80  C   UNL A   1      42.923  22.284  25.059  1.00  0.00     0.022 A 
BRANCH  77  81
ATOM     81  S   UNL A   1      41.593  20.290  26.486  1.00  0.00     0.124 S 
ATOM     82  O   UNL A   1      42.089  19.982  27.823  1.00  0.00    -0.237 OA
ATOM     83  O   UNL A   1      40.154  20.494  26.366  1.00  0.00    -0.237 OA
ATOM     84  O   UNL A   1      42.205  19.525  25.401  1.00  0.00    -0.744 OA
ENDBRANCH  77  81
ENDBRANCH  50  74
BRANCH  62  85
ATOM     85  C   UNL A   1      46.772  25.742  32.520  1.00  0.00     0.023 A 
ATOM     86  C   UNL A   1      48.001  26.011  31.894  1.00  0.00     0.031 A 
ATOM     87  C   UNL A   1      46.764  24.860  33.616  1.00  0.00     0.131 A 
ATOM     88  C   UNL A   1      49.165  25.363  32.333  1.00  0.00     0.055 A 
ATOM     89  C   UNL A   1      47.934  24.261  34.083  1.00  0.00     0.041 A 
ATOM     90  F   UNL A   1      45.617  24.566  34.249  1.00  0.00    -0.206 F 
ATOM     91  C   UNL A   1      49.142  24.501  33.433  1.00  0.00     0.022 A 
BRANCH  88  92
ATOM     92  S   UNL A   1      50.699  25.594  31.394  1.00  0.00     0.124 S 
ATOM     93  O   UNL A   1      51.601  24.651  32.048  1.00  0.00    -0.237 OA
ATOM     94  O   UNL A   1      50.291  25.247  30.037  1.00  0.00    -0.237 OA
ATOM     95  O   UNL A   1      51.020  27.005  31.601  1.00  0.00    -0.744 OA
ENDBRANCH  88  92
ENDBRANCH  62  85
ENDBRANCH  36  37
ENDBRANCH  28  31
ENDBRANCH  26  27
ENDBRANCH   1  26
TORSDOF 16
ENDMDL
