MODEL 1
REMARK VINA RESULT:     -11.0      0.000      0.000
REMARK SMILES CN(C(=O)[C@H]1CCCC[C@H]1C(=O)NCCCNC(=O)c1ccc(-c2c3nc(c(-c4cc(S(=O)(=O)[O-])ccc4F)c4ccc([nH]4)c(-c4cc(S(=O)(=O)[O-])ccc4F)c4nc(c(-c5cc(S(=O)(=O)[O-])ccc5F)c5ccc2[nH]5)C=C4)C=C3)cc1)C1CC1
REMARK SMILES IDX 15 1 14 2 13 3 11 4 12 5 10 7 5 8 6 9 7 10 9 11 8 12 3 13
REMARK SMILES IDX 4 14 2 15 1 16 83 17 84 18 85 19 16 20 17 21 18 22 19 24
REMARK SMILES IDX 20 25 21 26 82 27 22 28 81 29 23 30 24 31 25 32 75 33 26 34
REMARK SMILES IDX 80 35 74 36 76 37 27 38 79 39 73 40 72 41 28 43 60 44 40 45
REMARK SMILES IDX 59 46 41 47 44 48 58 49 77 50 42 51 43 52 57 54 78 55 45 56
REMARK SMILES IDX 29 57 30 58 38 59 31 60 37 61 39 62 36 63 32 64 33 65 34 66
REMARK SMILES IDX 35 67 61 68 62 69 70 70 63 71 69 72 71 73 68 74 64 75 65 76
REMARK SMILES IDX 66 77 67 78 46 79 47 80 55 81 48 82 54 83 56 84 53 85 49 86
REMARK SMILES IDX 50 87 51 88 52 89
REMARK H PARENT 13 6 17 23 76 42 44 53
REMARK Flexibility Score: inf
ROOT
ATOM      1  C   UNL A   1      32.913  28.985  23.682  1.00  0.00     0.042 C 
ENDROOT
BRANCH   1   2
ATOM      2  C   UNL A   1      33.910  28.323  22.736  1.00  0.00     0.117 C 
BRANCH   2   3
ATOM      3  N   UNL A   1      33.275  27.251  21.989  1.00  0.00    -0.356 N 
ATOM      4  C   UNL A   1      33.361  25.904  22.076  1.00  0.00     0.223 C 
ATOM      5  O   UNL A   1      32.856  25.271  21.137  1.00  0.00    -0.275 OA
ATOM      6  H   UNL A   1      32.664  27.565  21.284  1.00  0.00     0.163 HD
BRANCH   4   7
ATOM      7  C   UNL A   1      34.014  25.128  23.219  1.00  0.00     0.091 C 
ATOM      8  C   UNL A   1      33.443  25.412  24.625  1.00  0.00     0.091 C 
ATOM      9  C   UNL A   1      34.402  24.847  25.694  1.00  0.00     0.014 C 
ATOM     10  C   UNL A   1      34.802  23.391  25.430  1.00  0.00     0.001 C 
ATOM     11  C   UNL A   1      34.417  23.679  22.949  1.00  0.00     0.014 C 
ATOM     12  C   UNL A   1      35.378  23.185  24.031  1.00  0.00     0.001 C 
BRANCH   8  13
ATOM     13  C   UNL A   1      32.042  24.859  24.907  1.00  0.00     0.226 C 
ATOM     14  O   UNL A   1      31.884  23.647  25.072  1.00  0.00    -0.275 OA
BRANCH  13  15
ATOM     15  N   UNL A   1      30.975  25.756  25.001  1.00  0.00    -0.343 N 
ATOM     16  C   UNL A   1      30.739  26.692  26.099  1.00  0.00     0.147 C 
BRANCH  15  17
ATOM     17  C   UNL A   1      30.065  25.885  23.875  1.00  0.00     0.084 C 
ATOM     18  C   UNL A   1      28.773  26.652  23.971  1.00  0.00     0.027 C 
ATOM     19  C   UNL A   1      29.881  27.168  23.104  1.00  0.00     0.027 C 
ENDBRANCH  15  17
ENDBRANCH  13  15
ENDBRANCH   8  13
ENDBRANCH   4   7
ENDBRANCH   2   3
ENDBRANCH   1   2
BRANCH   1  20
ATOM     20  C   UNL A   1      33.462  29.229  25.080  1.00  0.00     0.118 C 
BRANCH  20  21
ATOM     21  N   UNL A   1      32.930  30.450  25.668  1.00  0.00    -0.352 N 
ATOM     22  C   UNL A   1      33.299  31.128  26.806  1.00  0.00     0.251 C 
ATOM     23  H   UNL A   1      32.185  30.856  25.169  1.00  0.00     0.163 HD
ATOM     24  O   UNL A   1      32.542  31.986  27.253  1.00  0.00    -0.269 OA
BRANCH  22  25
ATOM     25  C   UNL A   1      34.573  30.831  27.507  1.00  0.00     0.039 A 
ATOM     26  C   UNL A   1      35.528  31.847  27.629  1.00  0.00     0.014 A 
ATOM     27  C   UNL A   1      34.866  29.554  27.989  1.00  0.00     0.014 A 
ATOM     28  C   UNL A   1      36.735  31.602  28.294  1.00  0.00     0.010 A 
ATOM     29  C   UNL A   1      36.033  29.330  28.721  1.00  0.00     0.010 A 
ATOM     30  C   UNL A   1      36.981  30.353  28.883  1.00  0.00    -0.014 A 
BRANCH  30  31
ATOM     31  C   UNL A   1      38.211  30.088  29.678  1.00  0.00     0.031 A 
ATOM     32  C   UNL A   1      39.254  29.131  29.167  1.00  0.00     0.074 A 
ATOM     33  C   UNL A   1      38.347  30.644  30.900  1.00  0.00     0.049 A 
ATOM     34  N   UNL A   1      40.317  28.663  29.769  1.00  0.00    -0.248 NA
ATOM     35  C   UNL A   1      39.058  28.612  27.805  1.00  0.00     0.031 C 
ATOM     36  C   UNL A   1      37.396  31.571  31.517  1.00  0.00     0.029 A 
ATOM     37  N   UNL A   1      39.329  30.498  31.849  1.00  0.00    -0.354 N 
ATOM     38  C   UNL A   1      40.907  27.779  28.870  1.00  0.00     0.074 A 
ATOM     39  C   UNL A   1      40.053  27.742  27.702  1.00  0.00     0.031 C 
ATOM     40  C   UNL A   1      37.846  31.920  32.733  1.00  0.00     0.029 A 
ATOM     41  C   UNL A   1      39.085  31.199  33.007  1.00  0.00     0.049 A 
ATOM     42  H   UNL A   1      40.130  29.944  31.713  1.00  0.00     0.167 HD
ATOM     43  C   UNL A   1      42.061  27.078  29.002  1.00  0.00     0.034 A 
ATOM     44  C   UNL A   1      39.765  31.238  34.171  1.00  0.00     0.034 A 
ATOM     45  C   UNL A   1      42.911  27.139  30.167  1.00  0.00     0.049 A 
ATOM     46  C   UNL A   1      41.017  30.410  34.313  1.00  0.00     0.074 A 
ATOM     47  C   UNL A   1      44.136  26.528  30.374  1.00  0.00     0.029 A 
ATOM     48  N   UNL A   1      42.620  27.845  31.327  1.00  0.00    -0.354 N 
ATOM     49  N   UNL A   1      41.582  29.611  33.437  1.00  0.00    -0.248 NA
ATOM     50  C   UNL A   1      41.721  30.487  35.601  1.00  0.00     0.031 C 
ATOM     51  C   UNL A   1      44.550  26.807  31.681  1.00  0.00     0.029 A 
ATOM     52  C   UNL A   1      43.620  27.648  32.268  1.00  0.00     0.049 A 
ATOM     53  H   UNL A   1      41.819  28.402  31.463  1.00  0.00     0.167 HD
ATOM     54  C   UNL A   1      42.718  29.106  34.063  1.00  0.00     0.074 A 
ATOM     55  C   UNL A   1      42.766  29.701  35.383  1.00  0.00     0.031 C 
ATOM     56  C   UNL A   1      43.640  28.230  33.590  1.00  0.00     0.034 A 
BRANCH  43  57
ATOM     57  C   UNL A   1      42.454  26.164  27.865  1.00  0.00     0.023 A 
ATOM     58  C   UNL A   1      41.918  24.871  27.736  1.00  0.00     0.031 A 
ATOM     59  C   UNL A   1      43.393  26.585  26.906  1.00  0.00     0.131 A 
ATOM     60  C   UNL A   1      42.378  24.019  26.720  1.00  0.00     0.055 A 
ATOM     61  C   UNL A   1      43.789  25.760  25.850  1.00  0.00     0.041 A 
ATOM     62  F   UNL A   1      43.953  27.802  26.985  1.00  0.00    -0.206 F 
ATOM     63  C   UNL A   1      43.292  24.463  25.761  1.00  0.00     0.022 A 
BRANCH  60  64
ATOM     64  S   UNL A   1      41.869  22.279  26.753  1.00  0.00     0.124 S 
ATOM     65  O   UNL A   1      42.261  21.883  28.104  1.00  0.00    -0.237 OA
ATOM     66  O   UNL A   1      40.435  22.365  26.504  1.00  0.00    -0.237 OA
ATOM     67  O   UNL A   1      42.654  21.671  25.681  1.00  0.00    -0.744 OA
ENDBRANCH  60  64
ENDBRANCH  43  57
BRANCH  44  68
ATOM     68  C   UNL A   1      39.262  32.058  35.310  1.00  0.00     0.023 A 
ATOM     69  C   UNL A   1      39.712  33.373  35.504  1.00  0.00     0.031 A 
ATOM     70  C   UNL A   1      38.352  31.526  36.241  1.00  0.00     0.131 A 
ATOM     71  C   UNL A   1      39.282  34.099  36.626  1.00  0.00     0.055 A 
ATOM     72  C   UNL A   1      37.888  32.270  37.327  1.00  0.00     0.041 A 
ATOM     73  F   UNL A   1      37.886  30.274  36.099  1.00  0.00    -0.206 F 
ATOM     74  C   UNL A   1      38.364  33.562  37.531  1.00  0.00     0.022 A 
BRANCH  71  75
ATOM     75  S   UNL A   1      40.003  35.736  36.929  1.00  0.00     0.124 S 
ATOM     76  O   UNL A   1      41.417  35.413  37.079  1.00  0.00    -0.237 OA
ATOM     77  O   UNL A   1      39.634  36.457  35.714  1.00  0.00    -0.237 OA
ATOM     78  O   UNL A   1      39.330  36.184  38.146  1.00  0.00    -0.744 OA
ENDBRANCH  71  75
ENDBRANCH  44  68
BRANCH  56  79
ATOM     79  C   UNL A   1      44.789  27.885  34.504  1.00  0.00     0.023 A 
ATOM     80  C   UNL A   1      44.730  26.782  35.372  1.00  0.00     0.031 A 
ATOM     81  C   UNL A   1      45.954  28.673  34.507  1.00  0.00     0.131 A 
ATOM     82  C   UNL A   1      45.801  26.520  36.240  1.00  0.00     0.055 A 
ATOM     83  C   UNL A   1      47.037  28.376  35.336  1.00  0.00     0.041 A 
ATOM     84  F   UNL A   1      46.059  29.740  33.699  1.00  0.00    -0.206 F 
ATOM     85  C   UNL A   1      46.960  27.300  36.215  1.00  0.00     0.022 A 
BRANCH  82  86
ATOM     86  S   UNL A   1      45.634  25.182  37.452  1.00  0.00     0.124 S 
ATOM     87  O   UNL A   1      46.564  25.600  38.496  1.00  0.00    -0.237 OA
ATOM     88  O   UNL A   1      44.217  25.245  37.798  1.00  0.00    -0.237 OA
ATOM     89  O   UNL A   1      46.035  23.990  36.706  1.00  0.00    -0.744 OA
ENDBRANCH  82  86
ENDBRANCH  56  79
ENDBRANCH  30  31
ENDBRANCH  22  25
ENDBRANCH  20  21
ENDBRANCH   1  20
TORSDOF 16
ENDMDL
MODEL 2
REMARK VINA RESULT:     -11.0      5.181      9.990
REMARK SMILES CN(C(=O)[C@H]1CCCC[C@H]1C(=O)NCCCNC(=O)c1ccc(-c2c3nc(c(-c4cc(S(=O)(=O)[O-])ccc4F)c4ccc([nH]4)c(-c4cc(S(=O)(=O)[O-])ccc4F)c4nc(c(-c5cc(S(=O)(=O)[O-])ccc5F)c5ccc2[nH]5)C=C4)C=C3)cc1)C1CC1
REMARK SMILES IDX 15 1 14 2 13 3 11 4 12 5 10 7 5 8 6 9 7 10 9 11 8 12 3 13
REMARK SMILES IDX 4 14 2 15 1 16 83 17 84 18 85 19 16 20 17 21 18 22 19 24
REMARK SMILES IDX 20 25 21 26 82 27 22 28 81 29 23 30 24 31 25 32 75 33 26 34
REMARK SMILES IDX 80 35 74 36 76 37 27 38 79 39 73 40 72 41 28 43 60 44 40 45
REMARK SMILES IDX 59 46 41 47 44 48 58 49 77 50 42 51 43 52 57 54 78 55 45 56
REMARK SMILES IDX 29 57 30 58 38 59 31 60 37 61 39 62 36 63 32 64 33 65 34 66
REMARK SMILES IDX 35 67 61 68 62 69 70 70 63 71 69 72 71 73 68 74 64 75 65 76
REMARK SMILES IDX 66 77 67 78 46 79 47 80 55 81 48 82 54 83 56 84 53 85 49 86
REMARK SMILES IDX 50 87 51 88 52 89
REMARK H PARENT 13 6 17 23 76 42 44 53
REMARK Flexibility Score: inf
ROOT
ATOM      1  C   UNL A   1      35.279  22.259  26.045  1.00  0.00     0.042 C 
ENDROOT
BRANCH   1   2
ATOM      2  C   UNL A   1      34.775  23.696  26.136  1.00  0.00     0.117 C 
BRANCH   2   3
ATOM      3  N   UNL A   1      33.357  23.725  26.451  1.00  0.00    -0.356 N 
ATOM      4  C   UNL A   1      32.478  24.741  26.608  1.00  0.00     0.223 C 
ATOM      5  O   UNL A   1      31.381  24.433  27.096  1.00  0.00    -0.275 OA
ATOM      6  H   UNL A   1      32.959  22.833  26.572  1.00  0.00     0.163 HD
BRANCH   4   7
ATOM      7  C   UNL A   1      32.733  26.201  26.235  1.00  0.00     0.091 C 
ATOM      8  C   UNL A   1      32.694  26.516  24.723  1.00  0.00     0.091 C 
ATOM      9  C   UNL A   1      33.301  27.911  24.472  1.00  0.00     0.014 C 
ATOM     10  C   UNL A   1      32.711  28.994  25.383  1.00  0.00     0.001 C 
ATOM     11  C   UNL A   1      32.147  27.276  27.149  1.00  0.00     0.014 C 
ATOM     12  C   UNL A   1      32.800  28.629  26.863  1.00  0.00     0.001 C 
BRANCH   8  13
ATOM     13  C   UNL A   1      31.312  26.475  24.063  1.00  0.00     0.226 C 
ATOM     14  O   UNL A   1      30.328  26.133  24.722  1.00  0.00    -0.275 OA
BRANCH  13  15
ATOM     15  N   UNL A   1      31.199  26.862  22.725  1.00  0.00    -0.343 N 
ATOM     16  C   UNL A   1      31.854  26.215  21.589  1.00  0.00     0.147 C 
BRANCH  15  17
ATOM     17  C   UNL A   1      30.264  27.919  22.376  1.00  0.00     0.084 C 
ATOM     18  C   UNL A   1      29.806  28.948  23.376  1.00  0.00     0.027 C 
ATOM     19  C   UNL A   1      30.670  29.364  22.224  1.00  0.00     0.027 C 
ENDBRANCH  15  17
ENDBRANCH  13  15
ENDBRANCH   8  13
ENDBRANCH   4   7
ENDBRANCH   2   3
ENDBRANCH   1   2
BRANCH   1  20
ATOM     20  C   UNL A   1      36.350  22.049  24.986  1.00  0.00     0.118 C 
BRANCH  20  21
ATOM     21  N   UNL A   1      37.238  20.946  25.321  1.00  0.00    -0.352 N 
ATOM     22  C   UNL A   1      38.547  20.949  25.741  1.00  0.00     0.251 C 
ATOM     23  H   UNL A   1      36.835  20.052  25.232  1.00  0.00     0.163 HD
ATOM     24  O   UNL A   1      39.179  19.896  25.710  1.00  0.00    -0.269 OA
BRANCH  22  25
ATOM     25  C   UNL A   1      39.209  22.192  26.209  1.00  0.00     0.039 A 
ATOM     26  C   UNL A   1      40.281  22.090  27.103  1.00  0.00     0.014 A 
ATOM     27  C   UNL A   1      38.751  23.455  25.830  1.00  0.00     0.014 A 
ATOM     28  C   UNL A   1      40.932  23.243  27.554  1.00  0.00     0.010 A 
ATOM     29  C   UNL A   1      39.449  24.600  26.215  1.00  0.00     0.010 A 
ATOM     30  C   UNL A   1      40.549  24.507  27.081  1.00  0.00    -0.014 A 
BRANCH  30  31
ATOM     31  C   UNL A   1      41.282  25.744  27.466  1.00  0.00     0.031 A 
ATOM     32  C   UNL A   1      40.600  26.805  28.289  1.00  0.00     0.074 A 
ATOM     33  C   UNL A   1      42.531  25.951  27.003  1.00  0.00     0.049 A 
ATOM     34  N   UNL A   1      41.015  28.006  28.605  1.00  0.00    -0.248 NA
ATOM     35  C   UNL A   1      39.260  26.479  28.800  1.00  0.00     0.031 C 
ATOM     36  C   UNL A   1      43.292  25.009  26.179  1.00  0.00     0.029 A 
ATOM     37  N   UNL A   1      43.375  27.025  27.142  1.00  0.00    -0.354 N 
ATOM     38  C   UNL A   1      39.982  28.587  29.334  1.00  0.00     0.074 A 
ATOM     39  C   UNL A   1      38.903  27.622  29.369  1.00  0.00     0.031 C 
ATOM     40  C   UNL A   1      44.493  25.541  25.898  1.00  0.00     0.029 A 
ATOM     41  C   UNL A   1      44.567  26.881  26.470  1.00  0.00     0.049 A 
ATOM     42  H   UNL A   1      43.149  27.822  27.673  1.00  0.00     0.167 HD
ATOM     43  C   UNL A   1      39.946  29.804  29.932  1.00  0.00     0.034 A 
ATOM     44  C   UNL A   1      45.593  27.741  26.306  1.00  0.00     0.034 A 
ATOM     45  C   UNL A   1      41.037  30.748  29.902  1.00  0.00     0.049 A 
ATOM     46  C   UNL A   1      45.508  29.108  26.936  1.00  0.00     0.074 A 
ATOM     47  C   UNL A   1      41.133  31.976  30.534  1.00  0.00     0.029 A 
ATOM     48  N   UNL A   1      42.219  30.575  29.194  1.00  0.00    -0.354 N 
ATOM     49  N   UNL A   1      44.540  29.626  27.656  1.00  0.00    -0.248 NA
ATOM     50  C   UNL A   1      46.652  30.007  26.727  1.00  0.00     0.031 C 
ATOM     51  C   UNL A   1      42.339  32.574  30.152  1.00  0.00     0.029 A 
ATOM     52  C   UNL A   1      43.030  31.691  29.337  1.00  0.00     0.049 A 
ATOM     53  H   UNL A   1      42.448  29.776  28.664  1.00  0.00     0.167 HD
ATOM     54  C   UNL A   1      44.969  30.904  28.003  1.00  0.00     0.074 A 
ATOM     55  C   UNL A   1      46.286  31.073  27.425  1.00  0.00     0.031 C 
ATOM     56  C   UNL A   1      44.332  31.854  28.734  1.00  0.00     0.034 A 
BRANCH  43  57
ATOM     57  C   UNL A   1      38.672  30.192  30.645  1.00  0.00     0.023 A 
ATOM     58  C   UNL A   1      37.647  30.903  29.995  1.00  0.00     0.031 A 
ATOM     59  C   UNL A   1      38.485  29.863  32.000  1.00  0.00     0.131 A 
ATOM     60  C   UNL A   1      36.520  31.325  30.717  1.00  0.00     0.055 A 
ATOM     61  C   UNL A   1      37.325  30.218  32.692  1.00  0.00     0.041 A 
ATOM     62  F   UNL A   1      39.435  29.200  32.678  1.00  0.00    -0.206 F 
ATOM     63  C   UNL A   1      36.341  30.966  32.055  1.00  0.00     0.022 A 
BRANCH  60  64
ATOM     64  S   UNL A   1      35.359  32.467  29.919  1.00  0.00     0.124 S 
ATOM     65  O   UNL A   1      34.402  32.714  30.996  1.00  0.00    -0.237 OA
ATOM     66  O   UNL A   1      36.217  33.588  29.558  1.00  0.00    -0.237 OA
ATOM     67  O   UNL A   1      34.835  31.693  28.795  1.00  0.00    -0.744 OA
ENDBRANCH  60  64
ENDBRANCH  43  57
BRANCH  44  68
ATOM     68  C   UNL A   1      46.774  27.355  25.482  1.00  0.00     0.023 A 
ATOM     69  C   UNL A   1      46.924  27.832  24.170  1.00  0.00     0.031 A 
ATOM     70  C   UNL A   1      47.752  26.477  25.982  1.00  0.00     0.131 A 
ATOM     71  C   UNL A   1      48.005  27.395  23.388  1.00  0.00     0.055 A 
ATOM     72  C   UNL A   1      48.852  26.085  25.218  1.00  0.00     0.041 A 
ATOM     73  F   UNL A   1      47.659  25.996  27.233  1.00  0.00    -0.206 F 
ATOM     74  C   UNL A   1      48.976  26.536  23.907  1.00  0.00     0.022 A 
BRANCH  71  75
ATOM     75  S   UNL A   1      48.082  27.907  21.651  1.00  0.00     0.124 S 
ATOM     76  O   UNL A   1      49.225  28.813  21.660  1.00  0.00    -0.237 OA
ATOM     77  O   UNL A   1      48.278  26.631  20.968  1.00  0.00    -0.237 OA
ATOM     78  O   UNL A   1      46.784  28.539  21.424  1.00  0.00    -0.744 OA
ENDBRANCH  71  75
ENDBRANCH  44  68
BRANCH  56  79
ATOM     79  C   UNL A   1      45.069  33.148  28.965  1.00  0.00     0.023 A 
ATOM     80  C   UNL A   1      44.768  34.306  28.227  1.00  0.00     0.031 A 
ATOM     81  C   UNL A   1      46.086  33.223  29.933  1.00  0.00     0.131 A 
ATOM     82  C   UNL A   1      45.506  35.480  28.438  1.00  0.00     0.055 A 
ATOM     83  C   UNL A   1      46.781  34.409  30.175  1.00  0.00     0.041 A 
ATOM     84  F   UNL A   1      46.414  32.145  30.663  1.00  0.00    -0.206 F 
ATOM     85  C   UNL A   1      46.500  35.543  29.420  1.00  0.00     0.022 A 
BRANCH  82  86
ATOM     86  S   UNL A   1      45.196  36.910  27.368  1.00  0.00     0.124 S 
ATOM     87  O   UNL A   1      44.168  36.398  26.468  1.00  0.00    -0.237 OA
ATOM     88  O   UNL A   1      44.760  37.928  28.320  1.00  0.00    -0.237 OA
ATOM     89  O   UNL A   1      46.495  37.162  26.746  1.00  0.00    -0.744 OA
ENDBRANCH  82  86
ENDBRANCH  56  79
ENDBRANCH  30  31
ENDBRANCH  22  25
ENDBRANCH  20  21
ENDBRANCH   1  20
TORSDOF 16
ENDMDL
MODEL 3
REMARK VINA RESULT:     -10.8      4.711      9.754
REMARK SMILES CN(C(=O)[C@H]1CCCC[C@H]1C(=O)NCCCNC(=O)c1ccc(-c2c3nc(c(-c4cc(S(=O)(=O)[O-])ccc4F)c4ccc([nH]4)c(-c4cc(S(=O)(=O)[O-])ccc4F)c4nc(c(-c5cc(S(=O)(=O)[O-])ccc5F)c5ccc2[nH]5)C=C4)C=C3)cc1)C1CC1
REMARK SMILES IDX 15 1 14 2 13 3 11 4 12 5 10 7 5 8 6 9 7 10 9 11 8 12 3 13
REMARK SMILES IDX 4 14 2 15 1 16 83 17 84 18 85 19 16 20 17 21 18 22 19 24
REMARK SMILES IDX 20 25 21 26 82 27 22 28 81 29 23 30 24 31 25 32 75 33 26 34
REMARK SMILES IDX 80 35 74 36 76 37 27 38 79 39 73 40 72 41 28 43 60 44 40 45
REMARK SMILES IDX 59 46 41 47 44 48 58 49 77 50 42 51 43 52 57 54 78 55 45 56
REMARK SMILES IDX 29 57 30 58 38 59 31 60 37 61 39 62 36 63 32 64 33 65 34 66
REMARK SMILES IDX 35 67 61 68 62 69 70 70 63 71 69 72 71 73 68 74 64 75 65 76
REMARK SMILES IDX 66 77 67 78 46 79 47 80 55 81 48 82 54 83 56 84 53 85 49 86
REMARK SMILES IDX 50 87 51 88 52 89
REMARK H PARENT 13 6 17 23 76 42 44 53
REMARK Flexibility Score: inf
ROOT
ATOM      1  C   UNL A   1      34.540  22.123  26.839  1.00  0.00     0.042 C 
ENDROOT
BRANCH   1   2
ATOM      2  C   UNL A   1      33.328  22.196  25.916  1.00  0.00     0.117 C 
BRANCH   2   3
ATOM      3  N   UNL A   1      32.096  22.225  26.686  1.00  0.00    -0.356 N 
ATOM      4  C   UNL A   1      31.018  23.041  26.652  1.00  0.00     0.223 C 
ATOM      5  O   UNL A   1      30.228  22.928  27.600  1.00  0.00    -0.275 OA
ATOM      6  H   UNL A   1      32.033  21.512  27.361  1.00  0.00     0.163 HD
BRANCH   4   7
ATOM      7  C   UNL A   1      30.712  24.062  25.557  1.00  0.00     0.091 C 
ATOM      8  C   UNL A   1      30.809  25.543  25.985  1.00  0.00     0.091 C 
ATOM      9  C   UNL A   1      30.148  26.433  24.912  1.00  0.00     0.014 C 
ATOM     10  C   UNL A   1      30.642  26.127  23.493  1.00  0.00     0.001 C 
ATOM     11  C   UNL A   1      31.201  23.749  24.143  1.00  0.00     0.014 C 
ATOM     12  C   UNL A   1      30.499  24.651  23.128  1.00  0.00     0.001 C 
BRANCH   8  13
ATOM     13  C   UNL A   1      32.221  26.079  26.240  1.00  0.00     0.226 C 
ATOM     14  O   UNL A   1      33.191  25.322  26.144  1.00  0.00    -0.275 OA
BRANCH  13  15
ATOM     15  N   UNL A   1      32.378  27.433  26.547  1.00  0.00    -0.343 N 
ATOM     16  C   UNL A   1      31.721  28.143  27.644  1.00  0.00     0.147 C 
BRANCH  15  17
ATOM     17  C   UNL A   1      33.361  28.211  25.811  1.00  0.00     0.084 C 
ATOM     18  C   UNL A   1      33.617  27.999  24.343  1.00  0.00     0.027 C 
ATOM     19  C   UNL A   1      32.991  29.277  24.811  1.00  0.00     0.027 C 
ENDBRANCH  15  17
ENDBRANCH  13  15
ENDBRANCH   8  13
ENDBRANCH   4   7
ENDBRANCH   2   3
ENDBRANCH   1   2
BRANCH   1  20
ATOM     20  C   UNL A   1      35.848  22.517  26.169  1.00  0.00     0.118 C 
BRANCH  20  21
ATOM     21  N   UNL A   1      36.733  21.376  25.989  1.00  0.00    -0.352 N 
ATOM     22  C   UNL A   1      38.104  21.311  25.916  1.00  0.00     0.251 C 
ATOM     23  H   UNL A   1      36.274  20.508  25.907  1.00  0.00     0.163 HD
ATOM     24  O   UNL A   1      38.625  20.280  25.498  1.00  0.00    -0.269 OA
BRANCH  22  25
ATOM     25  C   UNL A   1      38.957  22.459  26.314  1.00  0.00     0.039 A 
ATOM     26  C   UNL A   1      38.708  23.713  25.744  1.00  0.00     0.014 A 
ATOM     27  C   UNL A   1      40.034  22.306  27.189  1.00  0.00     0.014 A 
ATOM     28  C   UNL A   1      39.488  24.817  26.107  1.00  0.00     0.010 A 
ATOM     29  C   UNL A   1      40.759  23.420  27.612  1.00  0.00     0.010 A 
ATOM     30  C   UNL A   1      40.494  24.690  27.076  1.00  0.00    -0.014 A 
BRANCH  30  31
ATOM     31  C   UNL A   1      41.276  25.862  27.554  1.00  0.00     0.031 A 
ATOM     32  C   UNL A   1      40.610  26.937  28.371  1.00  0.00     0.074 A 
ATOM     33  C   UNL A   1      42.565  26.001  27.180  1.00  0.00     0.049 A 
ATOM     34  N   UNL A   1      41.079  28.096  28.758  1.00  0.00    -0.248 NA
ATOM     35  C   UNL A   1      39.221  26.683  28.783  1.00  0.00     0.031 C 
ATOM     36  C   UNL A   1      43.318  25.040  26.371  1.00  0.00     0.029 A 
ATOM     37  N   UNL A   1      43.464  27.012  27.414  1.00  0.00    -0.354 N 
ATOM     38  C   UNL A   1      40.039  28.719  29.441  1.00  0.00     0.074 A 
ATOM     39  C   UNL A   1      38.901  27.827  29.371  1.00  0.00     0.031 C 
ATOM     40  C   UNL A   1      44.566  25.500  26.188  1.00  0.00     0.029 A 
ATOM     41  C   UNL A   1      44.686  26.813  26.814  1.00  0.00     0.049 A 
ATOM     42  H   UNL A   1      43.254  27.804  27.959  1.00  0.00     0.167 HD
ATOM     43  C   UNL A   1      40.040  29.915  30.082  1.00  0.00     0.034 A 
ATOM     44  C   UNL A   1      45.774  27.608  26.749  1.00  0.00     0.034 A 
ATOM     45  C   UNL A   1      41.189  30.785  30.158  1.00  0.00     0.049 A 
ATOM     46  C   UNL A   1      45.734  28.955  27.424  1.00  0.00     0.074 A 
ATOM     47  C   UNL A   1      41.321  31.982  30.841  1.00  0.00     0.029 A 
ATOM     48  N   UNL A   1      42.402  30.559  29.521  1.00  0.00    -0.354 N 
ATOM     49  N   UNL A   1      44.755  29.511  28.101  1.00  0.00    -0.248 NA
ATOM     50  C   UNL A   1      46.944  29.784  27.324  1.00  0.00     0.031 C 
ATOM     51  C   UNL A   1      42.585  32.512  30.560  1.00  0.00     0.029 A 
ATOM     52  C   UNL A   1      43.271  31.613  29.759  1.00  0.00     0.049 A 
ATOM     53  H   UNL A   1      42.614  29.765  28.977  1.00  0.00     0.167 HD
ATOM     54  C   UNL A   1      45.240  30.746  28.523  1.00  0.00     0.074 A 
ATOM     55  C   UNL A   1      46.601  30.847  28.038  1.00  0.00     0.031 C 
ATOM     56  C   UNL A   1      44.617  31.710  29.247  1.00  0.00     0.034 A 
BRANCH  43  57
ATOM     57  C   UNL A   1      38.749  30.362  30.726  1.00  0.00     0.023 A 
ATOM     58  C   UNL A   1      37.736  30.999  29.988  1.00  0.00     0.031 A 
ATOM     59  C   UNL A   1      38.534  30.164  32.102  1.00  0.00     0.131 A 
ATOM     60  C   UNL A   1      36.591  31.482  30.641  1.00  0.00     0.055 A 
ATOM     61  C   UNL A   1      37.357  30.576  32.731  1.00  0.00     0.041 A 
ATOM     62  F   UNL A   1      39.471  29.576  32.862  1.00  0.00    -0.206 F 
ATOM     63  C   UNL A   1      36.384  31.253  32.003  1.00  0.00     0.022 A 
BRANCH  60  64
ATOM     64  S   UNL A   1      35.444  32.534  29.711  1.00  0.00     0.124 S 
ATOM     65  O   UNL A   1      35.036  31.640  28.629  1.00  0.00    -0.237 OA
ATOM     66  O   UNL A   1      34.422  32.841  30.704  1.00  0.00    -0.237 OA
ATOM     67  O   UNL A   1      36.273  33.663  29.296  1.00  0.00    -0.744 OA
ENDBRANCH  60  64
ENDBRANCH  43  57
BRANCH  44  68
ATOM     68  C   UNL A   1      46.980  27.174  25.989  1.00  0.00     0.023 A 
ATOM     69  C   UNL A   1      48.054  26.547  26.640  1.00  0.00     0.031 A 
ATOM     70  C   UNL A   1      47.091  27.410  24.607  1.00  0.00     0.131 A 
ATOM     71  C   UNL A   1      49.211  26.215  25.917  1.00  0.00     0.055 A 
ATOM     72  C   UNL A   1      48.223  27.032  23.883  1.00  0.00     0.041 A 
ATOM     73  F   UNL A   1      46.090  28.001  23.935  1.00  0.00    -0.206 F 
ATOM     74  C   UNL A   1      49.297  26.441  24.542  1.00  0.00     0.022 A 
BRANCH  71  75
ATOM     75  S   UNL A   1      50.637  25.550  26.818  1.00  0.00     0.124 S 
ATOM     76  O   UNL A   1      50.031  24.453  27.564  1.00  0.00    -0.237 OA
ATOM     77  O   UNL A   1      51.532  25.170  25.729  1.00  0.00    -0.237 OA
ATOM     78  O   UNL A   1      51.087  26.681  27.626  1.00  0.00    -0.744 OA
ENDBRANCH  71  75
ENDBRANCH  44  68
BRANCH  56  79
ATOM     79  C   UNL A   1      45.418  32.945  29.574  1.00  0.00     0.023 A 
ATOM     80  C   UNL A   1      45.412  34.069  28.730  1.00  0.00     0.031 A 
ATOM     81  C   UNL A   1      46.199  32.996  30.742  1.00  0.00     0.131 A 
ATOM     82  C   UNL A   1      46.206  35.182  29.044  1.00  0.00     0.055 A 
ATOM     83  C   UNL A   1      46.945  34.127  31.076  1.00  0.00     0.041 A 
ATOM     84  F   UNL A   1      46.242  31.948  31.581  1.00  0.00    -0.206 F 
ATOM     85  C   UNL A   1      46.959  35.224  30.221  1.00  0.00     0.022 A 
BRANCH  82  86
ATOM     86  S   UNL A   1      46.293  36.553  27.861  1.00  0.00     0.124 S 
ATOM     87  O   UNL A   1      44.909  36.650  27.406  1.00  0.00    -0.237 OA
ATOM     88  O   UNL A   1      46.769  37.656  28.691  1.00  0.00    -0.237 OA
ATOM     89  O   UNL A   1      47.244  36.081  26.857  1.00  0.00    -0.744 OA
ENDBRANCH  82  86
ENDBRANCH  56  79
ENDBRANCH  30  31
ENDBRANCH  22  25
ENDBRANCH  20  21
ENDBRANCH   1  20
TORSDOF 16
ENDMDL
