MODEL 1
REMARK VINA RESULT:     -10.0      0.000      0.000
REMARK SMILES C#CCN(CC(=O)NCCCNC(=O)c1ccc(-c2c3nc(c(-c4cc(S(=O)(=O)[O-])ccc4F)c4ccc([nH]4)c(-c4cc(S(=O)(=O)[O-])ccc4F)c4nc(c(-c5cc(S(=O)(=O)[O-])ccc5F)c5ccc2[nH]5)C=C4)C=C3)cc1)C(=O)NCC[C@@H]1CCCO1
REMARK SMILES IDX 9 1 8 2 6 3 7 4 5 6 4 7 3 8 2 9 1 10 78 11 79 12 80 13 81 15
REMARK SMILES IDX 82 16 83 17 84 18 87 19 85 20 86 21 10 22 11 23 12 24 13 25
REMARK SMILES IDX 14 27 15 28 16 29 77 30 17 31 76 32 18 33 19 34 20 35 70 36
REMARK SMILES IDX 21 37 75 38 69 39 71 40 22 41 74 42 68 43 67 44 23 46 55 47
REMARK SMILES IDX 35 48 54 49 36 50 39 51 53 52 72 53 37 54 38 55 52 57 73 58
REMARK SMILES IDX 40 59 24 60 25 61 33 62 26 63 32 64 34 65 31 66 27 67 28 68
REMARK SMILES IDX 29 69 30 70 56 71 57 72 65 73 58 74 64 75 66 76 63 77 59 78
REMARK SMILES IDX 60 79 61 80 62 81 41 82 42 83 50 84 43 85 49 86 51 87 48 88
REMARK SMILES IDX 44 89 45 90 46 91 47 92
REMARK H PARENT 8 5 80 14 12 26 71 45 39 56
REMARK Flexibility Score: inf
ROOT
ATOM      1  C   UNL A   1      31.407  27.933  26.136  1.00  0.00     0.117 C 
ENDROOT
BRANCH   1   2
ATOM      2  N   UNL A   1      31.071  26.582  26.534  1.00  0.00    -0.354 N 
ATOM      3  C   UNL A   1      31.725  25.411  26.286  1.00  0.00     0.239 C 
ATOM      4  O   UNL A   1      31.443  24.451  27.011  1.00  0.00    -0.273 OA
ATOM      5  H   UNL A   1      30.246  26.495  27.065  1.00  0.00     0.163 HD
BRANCH   3   6
ATOM      6  C   UNL A   1      32.877  25.318  25.270  1.00  0.00     0.222 C 
BRANCH   6   7
ATOM      7  N   UNL A   1      32.469  25.131  23.881  1.00  0.00    -0.304 N 
BRANCH   7   8
ATOM      8  C   UNL A   1      33.305  25.762  22.870  1.00  0.00     0.211 C 
BRANCH   8   9
ATOM      9  C   UNL A   1      33.606  27.222  23.164  1.00  0.00    -0.085 C 
ATOM     10  C   UNL A   1      33.865  28.475  23.417  1.00  0.00     0.006 C 
ENDBRANCH   8   9
ENDBRANCH   7   8
BRANCH   7  11
ATOM     11  C   UNL A   1      31.401  24.420  23.417  1.00  0.00     0.318 C 
ATOM     12  O   UNL A   1      30.255  24.882  23.457  1.00  0.00    -0.249 OA
ATOM     13  N   UNL A   1      31.477  23.190  22.894  1.00  0.00    -0.338 N 
ATOM     14  H   UNL A   1      30.583  22.869  22.639  1.00  0.00     0.165 HD
BRANCH  13  15
ATOM     15  C   UNL A   1      32.485  22.187  22.587  1.00  0.00     0.120 C 
BRANCH  15  16
ATOM     16  C   UNL A   1      32.754  21.292  23.799  1.00  0.00     0.053 C 
BRANCH  16  17
ATOM     17  C   UNL A   1      33.918  21.810  24.643  1.00  0.00     0.120 C 
ATOM     18  C   UNL A   1      35.003  22.495  23.824  1.00  0.00     0.034 C 
ATOM     19  O   UNL A   1      34.555  20.706  25.317  1.00  0.00    -0.378 OA
ATOM     20  C   UNL A   1      36.234  22.222  24.652  1.00  0.00     0.031 C 
ATOM     21  C   UNL A   1      35.971  20.815  25.134  1.00  0.00     0.160 C 
ENDBRANCH  16  17
ENDBRANCH  15  16
ENDBRANCH  13  15
ENDBRANCH   7  11
ENDBRANCH   6   7
ENDBRANCH   3   6
ENDBRANCH   1   2
BRANCH   1  22
ATOM     22  C   UNL A   1      31.972  28.782  27.269  1.00  0.00     0.042 C 
BRANCH  22  23
ATOM     23  C   UNL A   1      33.401  29.271  27.051  1.00  0.00     0.118 C 
BRANCH  23  24
ATOM     24  N   UNL A   1      33.534  30.708  27.241  1.00  0.00    -0.352 N 
ATOM     25  C   UNL A   1      34.432  31.446  27.967  1.00  0.00     0.251 C 
ATOM     26  H   UNL A   1      32.862  31.244  26.764  1.00  0.00     0.163 HD
ATOM     27  O   UNL A   1      34.178  32.639  28.159  1.00  0.00    -0.269 OA
BRANCH  25  28
ATOM     28  C   UNL A   1      35.674  30.860  28.519  1.00  0.00     0.039 A 
ATOM     29  C   UNL A   1      36.902  31.310  28.021  1.00  0.00     0.014 A 
ATOM     30  C   UNL A   1      35.653  29.815  29.448  1.00  0.00     0.014 A 
ATOM     31  C   UNL A   1      38.096  30.745  28.475  1.00  0.00     0.010 A 
ATOM     32  C   UNL A   1      36.847  29.304  29.959  1.00  0.00     0.010 A 
ATOM     33  C   UNL A   1      38.081  29.751  29.465  1.00  0.00    -0.014 A 
BRANCH  33  34
ATOM     34  C   UNL A   1      39.346  29.146  29.963  1.00  0.00     0.031 A 
ATOM     35  C   UNL A   1      40.021  29.704  31.188  1.00  0.00     0.074 A 
ATOM     36  C   UNL A   1      39.905  28.120  29.291  1.00  0.00     0.049 A 
ATOM     37  N   UNL A   1      41.148  29.347  31.750  1.00  0.00    -0.248 NA
ATOM     38  C   UNL A   1      39.352  30.832  31.853  1.00  0.00     0.031 C 
ATOM     39  C   UNL A   1      39.366  27.518  28.070  1.00  0.00     0.029 A 
ATOM     40  N   UNL A   1      41.050  27.405  29.535  1.00  0.00    -0.354 N 
ATOM     41  C   UNL A   1      41.330  30.213  32.824  1.00  0.00     0.074 A 
ATOM     42  C   UNL A   1      40.228  31.151  32.794  1.00  0.00     0.031 C 
ATOM     43  C   UNL A   1      40.165  26.509  27.688  1.00  0.00     0.029 A 
ATOM     44  C   UNL A   1      41.292  26.416  28.610  1.00  0.00     0.049 A 
ATOM     45  H   UNL A   1      41.643  27.582  30.301  1.00  0.00     0.167 HD
ATOM     46  C   UNL A   1      42.312  30.212  33.761  1.00  0.00     0.034 A 
ATOM     47  C   UNL A   1      42.311  25.540  28.511  1.00  0.00     0.034 A 
ATOM     48  C   UNL A   1      43.396  29.260  33.786  1.00  0.00     0.049 A 
ATOM     49  C   UNL A   1      43.398  25.565  29.556  1.00  0.00     0.074 A 
ATOM     50  C   UNL A   1      44.414  29.133  34.716  1.00  0.00     0.029 A 
ATOM     51  N   UNL A   1      43.609  28.273  32.830  1.00  0.00    -0.354 N 
ATOM     52  N   UNL A   1      43.529  26.361  30.593  1.00  0.00    -0.248 NA
ATOM     53  C   UNL A   1      44.465  24.567  29.423  1.00  0.00     0.031 C 
ATOM     54  C   UNL A   1      45.272  28.111  34.293  1.00  0.00     0.029 A 
ATOM     55  C   UNL A   1      44.755  27.552  33.136  1.00  0.00     0.049 A 
ATOM     56  H   UNL A   1      43.030  28.108  32.051  1.00  0.00     0.167 HD
ATOM     57  C   UNL A   1      44.681  25.939  31.249  1.00  0.00     0.074 A 
ATOM     58  C   UNL A   1      45.194  24.809  30.502  1.00  0.00     0.031 C 
ATOM     59  C   UNL A   1      45.263  26.437  32.370  1.00  0.00     0.034 A 
BRANCH  46  60
ATOM     60  C   UNL A   1      42.263  31.291  34.818  1.00  0.00     0.023 A 
ATOM     61  C   UNL A   1      42.888  32.538  34.631  1.00  0.00     0.031 A 
ATOM     62  C   UNL A   1      41.610  31.062  36.042  1.00  0.00     0.131 A 
ATOM     63  C   UNL A   1      42.918  33.471  35.677  1.00  0.00     0.055 A 
ATOM     64  C   UNL A   1      41.571  32.029  37.049  1.00  0.00     0.041 A 
ATOM     65  F   UNL A   1      41.011  29.887  36.288  1.00  0.00    -0.206 F 
ATOM     66  C   UNL A   1      42.242  33.237  36.877  1.00  0.00     0.022 A 
BRANCH  63  67
ATOM     67  S   UNL A   1      43.976  34.935  35.502  1.00  0.00     0.124 S 
ATOM     68  O   UNL A   1      45.273  34.326  35.218  1.00  0.00    -0.237 OA
ATOM     69  O   UNL A   1      43.349  35.648  34.395  1.00  0.00    -0.237 OA
ATOM     70  O   UNL A   1      43.876  35.589  36.804  1.00  0.00    -0.744 OA
ENDBRANCH  63  67
ENDBRANCH  46  60
BRANCH  47  71
ATOM     71  C   UNL A   1      42.362  24.565  27.384  1.00  0.00     0.023 A 
ATOM     72  C   UNL A   1      41.606  23.383  27.418  1.00  0.00     0.031 A 
ATOM     73  C   UNL A   1      43.200  24.782  26.277  1.00  0.00     0.131 A 
ATOM     74  C   UNL A   1      41.735  22.441  26.386  1.00  0.00     0.055 A 
ATOM     75  C   UNL A   1      43.288  23.865  25.229  1.00  0.00     0.041 A 
ATOM     76  F   UNL A   1      43.940  25.899  26.193  1.00  0.00    -0.206 F 
ATOM     77  C   UNL A   1      42.563  22.679  25.286  1.00  0.00     0.022 A 
BRANCH  74  78
ATOM     78  S   UNL A   1      40.865  20.857  26.543  1.00  0.00     0.124 S 
ATOM     79  O   UNL A   1      41.732  19.964  25.784  1.00  0.00    -0.237 OA
ATOM     80  O   UNL A   1      40.849  20.662  27.989  1.00  0.00    -0.237 OA
ATOM     81  O   UNL A   1      39.561  21.125  25.938  1.00  0.00    -0.744 OA
ENDBRANCH  74  78
ENDBRANCH  47  71
BRANCH  59  82
ATOM     82  C   UNL A   1      46.500  25.730  32.867  1.00  0.00     0.023 A 
ATOM     83  C   UNL A   1      47.766  25.983  32.312  1.00  0.00     0.031 A 
ATOM     84  C   UNL A   1      46.404  24.774  33.894  1.00  0.00     0.131 A 
ATOM     85  C   UNL A   1      48.878  25.244  32.744  1.00  0.00     0.055 A 
ATOM     86  C   UNL A   1      47.524  24.085  34.360  1.00  0.00     0.041 A 
ATOM     87  F   UNL A   1      45.219  24.493  34.458  1.00  0.00    -0.206 F 
ATOM     88  C   UNL A   1      48.767  24.308  33.776  1.00  0.00     0.022 A 
BRANCH  85  89
ATOM     89  S   UNL A   1      50.456  25.456  31.875  1.00  0.00     0.124 S 
ATOM     90  O   UNL A   1      51.285  26.082  32.899  1.00  0.00    -0.237 OA
ATOM     91  O   UNL A   1      50.805  24.083  31.524  1.00  0.00    -0.237 OA
ATOM     92  O   UNL A   1      50.111  26.315  30.744  1.00  0.00    -0.744 OA
ENDBRANCH  85  89
ENDBRANCH  59  82
ENDBRANCH  33  34
ENDBRANCH  25  28
ENDBRANCH  23  24
ENDBRANCH  22  23
ENDBRANCH   1  22
TORSDOF 20
ENDMDL
MODEL 2
REMARK VINA RESULT:      -9.8      3.160      8.195
REMARK SMILES C#CCN(CC(=O)NCCCNC(=O)c1ccc(-c2c3nc(c(-c4cc(S(=O)(=O)[O-])ccc4F)c4ccc([nH]4)c(-c4cc(S(=O)(=O)[O-])ccc4F)c4nc(c(-c5cc(S(=O)(=O)[O-])ccc5F)c5ccc2[nH]5)C=C4)C=C3)cc1)C(=O)NCC[C@@H]1CCCO1
REMARK SMILES IDX 9 1 8 2 6 3 7 4 5 6 4 7 3 8 2 9 1 10 78 11 79 12 80 13 81 15
REMARK SMILES IDX 82 16 83 17 84 18 87 19 85 20 86 21 10 22 11 23 12 24 13 25
REMARK SMILES IDX 14 27 15 28 16 29 77 30 17 31 76 32 18 33 19 34 20 35 70 36
REMARK SMILES IDX 21 37 75 38 69 39 71 40 22 41 74 42 68 43 67 44 23 46 55 47
REMARK SMILES IDX 35 48 54 49 36 50 39 51 53 52 72 53 37 54 38 55 52 57 73 58
REMARK SMILES IDX 40 59 24 60 25 61 33 62 26 63 32 64 34 65 31 66 27 67 28 68
REMARK SMILES IDX 29 69 30 70 56 71 57 72 65 73 58 74 64 75 66 76 63 77 59 78
REMARK SMILES IDX 60 79 61 80 62 81 41 82 42 83 50 84 43 85 49 86 51 87 48 88
REMARK SMILES IDX 44 89 45 90 46 91 47 92
REMARK H PARENT 8 5 80 14 12 26 71 45 39 56
REMARK Flexibility Score: inf
ROOT
ATOM      1  C   UNL A   1      32.028  27.490  23.851  1.00  0.00     0.117 C 
ENDROOT
BRANCH   1   2
ATOM      2  N   UNL A   1      31.307  26.240  23.969  1.00  0.00    -0.354 N 
ATOM      3  C   UNL A   1      31.643  25.099  24.636  1.00  0.00     0.239 C 
ATOM      4  O   UNL A   1      30.728  24.306  24.879  1.00  0.00    -0.273 OA
ATOM      5  H   UNL A   1      30.444  26.209  23.497  1.00  0.00     0.163 HD
BRANCH   3   6
ATOM      6  C   UNL A   1      33.053  24.873  25.209  1.00  0.00     0.222 C 
BRANCH   6   7
ATOM      7  N   UNL A   1      33.998  24.228  24.303  1.00  0.00    -0.304 N 
BRANCH   7   8
ATOM      8  C   UNL A   1      35.406  24.317  24.665  1.00  0.00     0.211 C 
BRANCH   8   9
ATOM      9  C   UNL A   1      36.179  23.037  24.392  1.00  0.00    -0.085 C 
ATOM     10  C   UNL A   1      36.842  21.938  24.158  1.00  0.00     0.006 C 
ENDBRANCH   8   9
ENDBRANCH   7   8
BRANCH   7  11
ATOM     11  C   UNL A   1      33.717  23.539  23.160  1.00  0.00     0.318 C 
ATOM     12  O   UNL A   1      33.909  24.037  22.045  1.00  0.00    -0.249 OA
ATOM     13  N   UNL A   1      33.215  22.298  23.126  1.00  0.00    -0.338 N 
ATOM     14  H   UNL A   1      33.080  22.007  22.196  1.00  0.00     0.165 HD
BRANCH  13  15
ATOM     15  C   UNL A   1      32.811  21.250  24.051  1.00  0.00     0.120 C 
BRANCH  15  16
ATOM     16  C   UNL A   1      32.285  20.027  23.296  1.00  0.00     0.053 C 
BRANCH  16  17
ATOM     17  C   UNL A   1      32.746  18.719  23.938  1.00  0.00     0.120 C 
ATOM     18  C   UNL A   1      34.159  18.786  24.501  1.00  0.00     0.034 C 
ATOM     19  O   UNL A   1      32.754  17.671  22.948  1.00  0.00    -0.378 OA
ATOM     20  C   UNL A   1      34.617  17.356  24.358  1.00  0.00     0.031 C 
ATOM     21  C   UNL A   1      33.999  16.969  23.035  1.00  0.00     0.160 C 
ENDBRANCH  16  17
ENDBRANCH  15  16
ENDBRANCH  13  15
ENDBRANCH   7  11
ENDBRANCH   6   7
ENDBRANCH   3   6
ENDBRANCH   1   2
BRANCH   1  22
ATOM     22  C   UNL A   1      31.743  28.470  24.984  1.00  0.00     0.042 C 
BRANCH  22  23
ATOM     23  C   UNL A   1      32.937  29.318  25.413  1.00  0.00     0.118 C 
BRANCH  23  24
ATOM     24  N   UNL A   1      32.547  30.650  25.849  1.00  0.00    -0.352 N 
ATOM     25  C   UNL A   1      33.010  31.442  26.867  1.00  0.00     0.251 C 
ATOM     26  H   UNL A   1      31.824  31.055  25.319  1.00  0.00     0.163 HD
ATOM     27  O   UNL A   1      32.343  32.433  27.178  1.00  0.00    -0.269 OA
BRANCH  25  28
ATOM     28  C   UNL A   1      34.266  31.143  27.591  1.00  0.00     0.039 A 
ATOM     29  C   UNL A   1      34.418  29.875  28.166  1.00  0.00     0.014 A 
ATOM     30  C   UNL A   1      35.255  32.110  27.793  1.00  0.00     0.014 A 
ATOM     31  C   UNL A   1      35.564  29.570  28.904  1.00  0.00     0.010 A 
ATOM     32  C   UNL A   1      36.434  31.781  28.463  1.00  0.00     0.010 A 
ATOM     33  C   UNL A   1      36.594  30.514  29.042  1.00  0.00    -0.014 A 
BRANCH  33  34
ATOM     34  C   UNL A   1      37.823  30.198  29.819  1.00  0.00     0.031 A 
ATOM     35  C   UNL A   1      38.873  29.288  29.238  1.00  0.00     0.074 A 
ATOM     36  C   UNL A   1      37.976  30.702  31.059  1.00  0.00     0.049 A 
ATOM     37  N   UNL A   1      39.987  28.857  29.775  1.00  0.00    -0.248 NA
ATOM     38  C   UNL A   1      38.622  28.771  27.885  1.00  0.00     0.031 C 
ATOM     39  C   UNL A   1      37.011  31.565  31.744  1.00  0.00     0.029 A 
ATOM     40  N   UNL A   1      38.995  30.559  31.967  1.00  0.00    -0.354 N 
ATOM     41  C   UNL A   1      40.561  28.010  28.832  1.00  0.00     0.074 A 
ATOM     42  C   UNL A   1      39.640  27.941  27.718  1.00  0.00     0.031 C 
ATOM     43  C   UNL A   1      37.497  31.894  32.952  1.00  0.00     0.029 A 
ATOM     44  C   UNL A   1      38.786  31.238  33.145  1.00  0.00     0.049 A 
ATOM     45  H   UNL A   1      39.801  30.021  31.791  1.00  0.00     0.167 HD
ATOM     46  C   UNL A   1      41.756  27.368  28.880  1.00  0.00     0.034 A 
ATOM     47  C   UNL A   1      39.542  31.315  34.257  1.00  0.00     0.034 A 
ATOM     48  C   UNL A   1      42.671  27.461  29.992  1.00  0.00     0.049 A 
ATOM     49  C   UNL A   1      40.860  30.584  34.294  1.00  0.00     0.074 A 
ATOM     50  C   UNL A   1      43.929  26.898  30.126  1.00  0.00     0.029 A 
ATOM     51  N   UNL A   1      42.424  28.158  31.170  1.00  0.00    -0.354 N 
ATOM     52  N   UNL A   1      41.411  29.826  33.374  1.00  0.00    -0.248 NA
ATOM     53  C   UNL A   1      41.663  30.731  35.514  1.00  0.00     0.031 C 
ATOM     54  C   UNL A   1      44.416  27.204  31.402  1.00  0.00     0.029 A 
ATOM     55  C   UNL A   1      43.494  28.016  32.042  1.00  0.00     0.049 A 
ATOM     56  H   UNL A   1      41.609  28.677  31.356  1.00  0.00     0.167 HD
ATOM     57  C   UNL A   1      42.637  29.427  33.897  1.00  0.00     0.074 A 
ATOM     58  C   UNL A   1      42.752  30.045  35.202  1.00  0.00     0.031 C 
ATOM     59  C   UNL A   1      43.586  28.626  33.348  1.00  0.00     0.034 A 
BRANCH  46  60
ATOM     60  C   UNL A   1      42.123  26.494  27.703  1.00  0.00     0.023 A 
ATOM     61  C   UNL A   1      41.734  25.143  27.637  1.00  0.00     0.031 A 
ATOM     62  C   UNL A   1      42.896  27.007  26.647  1.00  0.00     0.131 A 
ATOM     63  C   UNL A   1      42.188  24.334  26.585  1.00  0.00     0.055 A 
ATOM     64  C   UNL A   1      43.275  26.216  25.559  1.00  0.00     0.041 A 
ATOM     65  F   UNL A   1      43.314  28.282  26.661  1.00  0.00    -0.206 F 
ATOM     66  C   UNL A   1      42.934  24.866  25.531  1.00  0.00     0.022 A 
BRANCH  63  67
ATOM     67  S   UNL A   1      41.912  22.544  26.688  1.00  0.00     0.124 S 
ATOM     68  O   UNL A   1      40.497  22.486  27.046  1.00  0.00    -0.237 OA
ATOM     69  O   UNL A   1      42.249  22.094  25.343  1.00  0.00    -0.237 OA
ATOM     70  O   UNL A   1      42.831  22.115  27.740  1.00  0.00    -0.744 OA
ENDBRANCH  63  67
ENDBRANCH  46  60
BRANCH  47  71
ATOM     71  C   UNL A   1      39.080  32.110  35.431  1.00  0.00     0.023 A 
ATOM     72  C   UNL A   1      38.459  31.486  36.525  1.00  0.00     0.031 A 
ATOM     73  C   UNL A   1      39.217  33.508  35.457  1.00  0.00     0.131 A 
ATOM     74  C   UNL A   1      37.957  32.264  37.579  1.00  0.00     0.055 A 
ATOM     75  C   UNL A   1      38.760  34.273  36.531  1.00  0.00     0.041 A 
ATOM     76  F   UNL A   1      39.809  34.152  34.439  1.00  0.00    -0.206 F 
ATOM     77  C   UNL A   1      38.113  33.653  37.596  1.00  0.00     0.022 A 
BRANCH  74  78
ATOM     78  S   UNL A   1      37.021  31.440  38.896  1.00  0.00     0.124 S 
ATOM     79  O   UNL A   1      37.927  31.568  40.031  1.00  0.00    -0.237 OA
ATOM     80  O   UNL A   1      35.804  32.243  38.952  1.00  0.00    -0.237 OA
ATOM     81  O   UNL A   1      36.845  30.080  38.388  1.00  0.00    -0.744 OA
ENDBRANCH  74  78
ENDBRANCH  47  71
BRANCH  59  82
ATOM     82  C   UNL A   1      44.842  28.408  34.155  1.00  0.00     0.023 A 
ATOM     83  C   UNL A   1      44.938  27.380  35.109  1.00  0.00     0.031 A 
ATOM     84  C   UNL A   1      45.950  29.257  33.981  1.00  0.00     0.131 A 
ATOM     85  C   UNL A   1      46.093  27.264  35.896  1.00  0.00     0.055 A 
ATOM     86  C   UNL A   1      47.119  29.099  34.726  1.00  0.00     0.041 A 
ATOM     87  F   UNL A   1      45.912  30.255  33.084  1.00  0.00    -0.206 F 
ATOM     88  C   UNL A   1      47.190  28.108  35.700  1.00  0.00     0.022 A 
BRANCH  85  89
ATOM     89  S   UNL A   1      46.108  26.054  37.248  1.00  0.00     0.124 S 
ATOM     90  O   UNL A   1      47.037  25.048  36.745  1.00  0.00    -0.237 OA
ATOM     91  O   UNL A   1      46.580  26.851  38.375  1.00  0.00    -0.237 OA
ATOM     92  O   UNL A   1      44.714  25.622  37.336  1.00  0.00    -0.744 OA
ENDBRANCH  85  89
ENDBRANCH  59  82
ENDBRANCH  33  34
ENDBRANCH  25  28
ENDBRANCH  23  24
ENDBRANCH  22  23
ENDBRANCH   1  22
TORSDOF 20
ENDMDL
MODEL 3
REMARK VINA RESULT:      -9.8      1.553      2.608
REMARK SMILES C#CCN(CC(=O)NCCCNC(=O)c1ccc(-c2c3nc(c(-c4cc(S(=O)(=O)[O-])ccc4F)c4ccc([nH]4)c(-c4cc(S(=O)(=O)[O-])ccc4F)c4nc(c(-c5cc(S(=O)(=O)[O-])ccc5F)c5ccc2[nH]5)C=C4)C=C3)cc1)C(=O)NCC[C@@H]1CCCO1
REMARK SMILES IDX 9 1 8 2 6 3 7 4 5 6 4 7 3 8 2 9 1 10 78 11 79 12 80 13 81 15
REMARK SMILES IDX 82 16 83 17 84 18 87 19 85 20 86 21 10 22 11 23 12 24 13 25
REMARK SMILES IDX 14 27 15 28 16 29 77 30 17 31 76 32 18 33 19 34 20 35 70 36
REMARK SMILES IDX 21 37 75 38 69 39 71 40 22 41 74 42 68 43 67 44 23 46 55 47
REMARK SMILES IDX 35 48 54 49 36 50 39 51 53 52 72 53 37 54 38 55 52 57 73 58
REMARK SMILES IDX 40 59 24 60 25 61 33 62 26 63 32 64 34 65 31 66 27 67 28 68
REMARK SMILES IDX 29 69 30 70 56 71 57 72 65 73 58 74 64 75 66 76 63 77 59 78
REMARK SMILES IDX 60 79 61 80 62 81 41 82 42 83 50 84 43 85 49 86 51 87 48 88
REMARK SMILES IDX 44 89 45 90 46 91 47 92
REMARK H PARENT 8 5 80 14 12 26 71 45 39 56
REMARK Flexibility Score: inf
ROOT
ATOM      1  C   UNL A   1      33.311  26.654  26.135  1.00  0.00     0.117 C 
ENDROOT
BRANCH   1   2
ATOM      2  N   UNL A   1      32.009  26.031  26.011  1.00  0.00    -0.354 N 
ATOM      3  C   UNL A   1      31.584  24.807  26.438  1.00  0.00     0.239 C 
ATOM      4  O   UNL A   1      30.363  24.642  26.529  1.00  0.00    -0.273 OA
ATOM      5  H   UNL A   1      31.328  26.572  25.551  1.00  0.00     0.163 HD
BRANCH   3   6
ATOM      6  C   UNL A   1      32.563  23.732  26.943  1.00  0.00     0.222 C 
BRANCH   6   7
ATOM      7  N   UNL A   1      32.930  22.715  25.962  1.00  0.00    -0.304 N 
BRANCH   7   8
ATOM      8  C   UNL A   1      34.306  22.239  26.008  1.00  0.00     0.211 C 
BRANCH   8   9
ATOM      9  C   UNL A   1      35.179  22.814  24.905  1.00  0.00    -0.085 C 
ATOM     10  C   UNL A   1      35.927  23.308  23.958  1.00  0.00     0.006 C 
ENDBRANCH   8   9
ENDBRANCH   7   8
BRANCH   7  11
ATOM     11  C   UNL A   1      32.132  22.146  25.015  1.00  0.00     0.318 C 
ATOM     12  O   UNL A   1      31.470  21.130  25.258  1.00  0.00    -0.249 OA
ATOM     13  N   UNL A   1      31.990  22.606  23.765  1.00  0.00    -0.338 N 
ATOM     14  H   UNL A   1      31.376  22.031  23.254  1.00  0.00     0.165 HD
BRANCH  13  15
ATOM     15  C   UNL A   1      32.470  23.701  22.936  1.00  0.00     0.120 C 
BRANCH  15  16
ATOM     16  C   UNL A   1      31.388  24.770  22.761  1.00  0.00     0.053 C 
BRANCH  16  17
ATOM     17  C   UNL A   1      31.937  26.035  22.103  1.00  0.00     0.120 C 
ATOM     18  C   UNL A   1      33.388  26.322  22.461  1.00  0.00     0.034 C 
ATOM     19  O   UNL A   1      31.176  27.178  22.544  1.00  0.00    -0.378 OA
ATOM     20  C   UNL A   1      33.436  27.827  22.371  1.00  0.00     0.031 C 
ATOM     21  C   UNL A   1      32.088  28.210  22.936  1.00  0.00     0.160 C 
ENDBRANCH  16  17
ENDBRANCH  15  16
ENDBRANCH  13  15
ENDBRANCH   7  11
ENDBRANCH   6   7
ENDBRANCH   3   6
ENDBRANCH   1   2
BRANCH   1  22
ATOM     22  C   UNL A   1      33.270  28.028  26.793  1.00  0.00     0.042 C 
BRANCH  22  23
ATOM     23  C   UNL A   1      33.956  29.138  26.001  1.00  0.00     0.118 C 
BRANCH  23  24
ATOM     24  N   UNL A   1      33.781  30.448  26.609  1.00  0.00    -0.352 N 
ATOM     25  C   UNL A   1      34.421  31.052  27.659  1.00  0.00     0.251 C 
ATOM     26  H   UNL A   1      33.080  30.998  26.192  1.00  0.00     0.163 HD
ATOM     27  O   UNL A   1      33.917  32.075  28.132  1.00  0.00    -0.269 OA
BRANCH  25  28
ATOM     28  C   UNL A   1      35.677  30.518  28.231  1.00  0.00     0.039 A 
ATOM     29  C   UNL A   1      36.885  30.830  27.595  1.00  0.00     0.014 A 
ATOM     30  C   UNL A   1      35.683  29.645  29.324  1.00  0.00     0.014 A 
ATOM     31  C   UNL A   1      38.088  30.302  28.070  1.00  0.00     0.010 A 
ATOM     32  C   UNL A   1      36.891  29.180  29.845  1.00  0.00     0.010 A 
ATOM     33  C   UNL A   1      38.105  29.488  29.214  1.00  0.00    -0.014 A 
BRANCH  33  34
ATOM     34  C   UNL A   1      39.381  28.926  29.734  1.00  0.00     0.031 A 
ATOM     35  C   UNL A   1      40.058  29.558  30.922  1.00  0.00     0.074 A 
ATOM     36  C   UNL A   1      39.946  27.871  29.116  1.00  0.00     0.049 A 
ATOM     37  N   UNL A   1      41.193  29.245  31.493  1.00  0.00    -0.248 NA
ATOM     38  C   UNL A   1      39.381  30.714  31.529  1.00  0.00     0.031 C 
ATOM     39  C   UNL A   1      39.405  27.196  27.934  1.00  0.00     0.029 A 
ATOM     40  N   UNL A   1      41.101  27.182  29.391  1.00  0.00    -0.354 N 
ATOM     41  C   UNL A   1      41.373  30.171  32.516  1.00  0.00     0.074 A 
ATOM     42  C   UNL A   1      40.260  31.094  32.443  1.00  0.00     0.031 C 
ATOM     43  C   UNL A   1      40.213  26.176  27.602  1.00  0.00     0.029 A 
ATOM     44  C   UNL A   1      41.348  26.146  28.520  1.00  0.00     0.049 A 
ATOM     45  H   UNL A   1      41.697  27.408  30.141  1.00  0.00     0.167 HD
ATOM     46  C   UNL A   1      42.362  30.233  33.444  1.00  0.00     0.034 A 
ATOM     47  C   UNL A   1      42.375  25.277  28.461  1.00  0.00     0.034 A 
ATOM     48  C   UNL A   1      43.457  29.295  33.513  1.00  0.00     0.049 A 
ATOM     49  C   UNL A   1      43.469  25.372  29.495  1.00  0.00     0.074 A 
ATOM     50  C   UNL A   1      44.482  29.231  34.441  1.00  0.00     0.029 A 
ATOM     51  N   UNL A   1      43.673  28.259  32.613  1.00  0.00    -0.354 N 
ATOM     52  N   UNL A   1      43.598  26.225  30.485  1.00  0.00    -0.248 NA
ATOM     53  C   UNL A   1      44.547  24.380  29.409  1.00  0.00     0.031 C 
ATOM     54  C   UNL A   1      45.348  28.197  34.069  1.00  0.00     0.029 A 
ATOM     55  C   UNL A   1      44.829  27.569  32.949  1.00  0.00     0.049 A 
ATOM     56  H   UNL A   1      43.091  28.045  31.849  1.00  0.00     0.167 HD
ATOM     57  C   UNL A   1      44.760  25.853  31.155  1.00  0.00     0.074 A 
ATOM     58  C   UNL A   1      45.280  24.689  30.467  1.00  0.00     0.031 C 
ATOM     59  C   UNL A   1      45.344  26.419  32.242  1.00  0.00     0.034 A 
BRANCH  46  60
ATOM     60  C   UNL A   1      42.308  31.368  34.441  1.00  0.00     0.023 A 
ATOM     61  C   UNL A   1      41.359  31.394  35.479  1.00  0.00     0.031 A 
ATOM     62  C   UNL A   1      43.194  32.454  34.334  1.00  0.00     0.131 A 
ATOM     63  C   UNL A   1      41.265  32.517  36.315  1.00  0.00     0.055 A 
ATOM     64  C   UNL A   1      43.150  33.532  35.223  1.00  0.00     0.041 A 
ATOM     65  F   UNL A   1      44.110  32.497  33.354  1.00  0.00    -0.206 F 
ATOM     66  C   UNL A   1      42.170  33.575  36.211  1.00  0.00     0.022 A 
BRANCH  63  67
ATOM     67  S   UNL A   1      39.850  32.640  37.444  1.00  0.00     0.124 S 
ATOM     68  O   UNL A   1      40.505  32.536  38.747  1.00  0.00    -0.237 OA
ATOM     69  O   UNL A   1      39.294  33.947  37.113  1.00  0.00    -0.237 OA
ATOM     70  O   UNL A   1      39.019  31.496  37.080  1.00  0.00    -0.744 OA
ENDBRANCH  63  67
ENDBRANCH  46  60
BRANCH  47  71
ATOM     71  C   UNL A   1      42.429  24.242  27.390  1.00  0.00     0.023 A 
ATOM     72  C   UNL A   1      41.761  23.016  27.537  1.00  0.00     0.031 A 
ATOM     73  C   UNL A   1      43.184  24.447  26.223  1.00  0.00     0.131 A 
ATOM     74  C   UNL A   1      41.896  22.024  26.553  1.00  0.00     0.055 A 
ATOM     75  C   UNL A   1      43.275  23.477  25.224  1.00  0.00     0.041 A 
ATOM     76  F   UNL A   1      43.837  25.604  26.031  1.00  0.00    -0.206 F 
ATOM     77  C   UNL A   1      42.639  22.251  25.392  1.00  0.00     0.022 A 
BRANCH  74  78
ATOM     78  S   UNL A   1      41.150  20.399  26.852  1.00  0.00     0.124 S 
ATOM     79  O   UNL A   1      42.211  19.499  26.417  1.00  0.00    -0.237 OA
ATOM     80  O   UNL A   1      40.893  20.442  28.288  1.00  0.00    -0.237 OA
ATOM     81  O   UNL A   1      39.957  20.411  26.008  1.00  0.00    -0.744 OA
ENDBRANCH  74  78
ENDBRANCH  47  71
BRANCH  59  82
ATOM     82  C   UNL A   1      46.593  25.754  32.767  1.00  0.00     0.023 A 
ATOM     83  C   UNL A   1      47.833  25.899  32.122  1.00  0.00     0.031 A 
ATOM     84  C   UNL A   1      46.533  24.945  33.917  1.00  0.00     0.131 A 
ATOM     85  C   UNL A   1      48.952  25.197  32.594  1.00  0.00     0.055 A 
ATOM     86  C   UNL A   1      47.664  24.297  34.416  1.00  0.00     0.041 A 
ATOM     87  F   UNL A   1      45.375  24.771  34.571  1.00  0.00    -0.206 F 
ATOM     88  C   UNL A   1      48.878  24.409  33.746  1.00  0.00     0.022 A 
BRANCH  85  89
ATOM     89  S   UNL A   1      50.486  25.252  31.628  1.00  0.00     0.124 S 
ATOM     90  O   UNL A   1      50.004  25.669  30.315  1.00  0.00    -0.237 OA
ATOM     91  O   UNL A   1      51.280  26.237  32.357  1.00  0.00    -0.237 OA
ATOM     92  O   UNL A   1      50.985  23.880  31.699  1.00  0.00    -0.744 OA
ENDBRANCH  85  89
ENDBRANCH  59  82
ENDBRANCH  33  34
ENDBRANCH  25  28
ENDBRANCH  23  24
ENDBRANCH  22  23
ENDBRANCH   1  22
TORSDOF 20
ENDMDL
