MODEL 1
REMARK VINA RESULT:     -12.6      0.000      0.000
REMARK SMILES O=C(NCCCNC(=O)[C@@H]1CN(C(=O)CCC(F)(F)F)C[C@H]1c1ccc2c(c1)OCO2)c1ccc(-c2c3nc(c(-c4cc(S(=O)(=O)[O-])ccc4F)c4ccc([nH]4)c(-c4cc(S(=O)(=O)[O-])ccc4F)c4nc(c(-c5cc(S(=O)(=O)[O-])ccc5F)c5ccc2[nH]5)C=C4)C=C3)cc1
REMARK SMILES IDX 5 1 4 2 3 3 1 4 2 5 32 7 33 8 94 9 34 10 93 11 35 12 36 13
REMARK SMILES IDX 37 14 87 15 38 16 92 17 86 18 88 19 39 20 91 21 85 22 84 23
REMARK SMILES IDX 40 25 72 26 52 27 71 28 53 29 56 30 70 31 89 32 54 33 55 34
REMARK SMILES IDX 69 36 90 37 57 38 41 39 42 40 50 41 43 42 49 43 51 44 48 45
REMARK SMILES IDX 44 46 45 47 46 48 47 49 73 50 74 51 82 52 75 53 81 54 83 55
REMARK SMILES IDX 80 56 76 57 77 58 78 59 79 60 58 61 59 62 67 63 60 64 66 65
REMARK SMILES IDX 68 66 65 67 61 68 62 69 63 70 64 71 6 72 7 73 8 74 9 76
REMARK SMILES IDX 10 77 11 78 22 79 12 80 21 81 23 82 24 83 28 84 25 85 27 86
REMARK SMILES IDX 26 87 29 88 31 89 30 90 13 91 14 92 15 93 16 94 17 95 18 96
REMARK SMILES IDX 19 97 20 98
REMARK H PARENT 3 6 88 24 56 35 7 75
REMARK Flexibility Score: inf
ROOT
ATOM      1  C   UNL A   1      31.516  32.450  26.498  1.00  0.00     0.042 C 
ENDROOT
BRANCH   1   2
ATOM      2  C   UNL A   1      32.728  32.989  27.244  1.00  0.00     0.118 C 
BRANCH   2   3
ATOM      3  N   UNL A   1      32.530  34.329  27.779  1.00  0.00    -0.352 N 
ATOM      4  O   UNL A   1      32.708  36.054  29.207  1.00  0.00    -0.269 OA
ATOM      5  C   UNL A   1      33.129  34.963  28.844  1.00  0.00     0.251 C 
ATOM      6  H   UNL A   1      31.858  34.869  27.301  1.00  0.00     0.163 HD
BRANCH   5   7
ATOM      7  C   UNL A   1      34.257  34.326  29.564  1.00  0.00     0.039 A 
ATOM      8  C   UNL A   1      35.575  34.517  29.150  1.00  0.00     0.014 A 
ATOM      9  C   UNL A   1      33.991  33.541  30.692  1.00  0.00     0.014 A 
ATOM     10  C   UNL A   1      36.602  33.794  29.746  1.00  0.00     0.010 A 
ATOM     11  C   UNL A   1      35.042  32.900  31.359  1.00  0.00     0.010 A 
ATOM     12  C   UNL A   1      36.354  32.994  30.873  1.00  0.00    -0.014 A 
BRANCH  12  13
ATOM     13  C   UNL A   1      37.495  32.327  31.554  1.00  0.00     0.031 A 
ATOM     14  C   UNL A   1      38.264  31.219  30.887  1.00  0.00     0.074 A 
ATOM     15  C   UNL A   1      37.858  32.760  32.778  1.00  0.00     0.049 A 
ATOM     16  N   UNL A   1      39.283  30.534  31.339  1.00  0.00    -0.248 NA
ATOM     17  C   UNL A   1      37.826  30.822  29.540  1.00  0.00     0.031 C 
ATOM     18  C   UNL A   1      37.187  33.829  33.524  1.00  0.00     0.029 A 
ATOM     19  N   UNL A   1      38.885  32.378  33.604  1.00  0.00    -0.354 N 
ATOM     20  C   UNL A   1      39.603  29.616  30.343  1.00  0.00     0.074 A 
ATOM     21  C   UNL A   1      38.642  29.811  29.277  1.00  0.00     0.031 C 
ATOM     22  C   UNL A   1      37.851  34.054  34.665  1.00  0.00     0.029 A 
ATOM     23  C   UNL A   1      38.942  33.094  34.777  1.00  0.00     0.049 A 
ATOM     24  H   UNL A   1      39.520  31.661  33.378  1.00  0.00     0.167 HD
ATOM     25  C   UNL A   1      40.609  28.705  30.321  1.00  0.00     0.034 A 
ATOM     26  C   UNL A   1      39.760  32.977  35.841  1.00  0.00     0.034 A 
ATOM     27  C   UNL A   1      41.557  28.526  31.397  1.00  0.00     0.049 A 
ATOM     28  C   UNL A   1      40.829  31.920  35.814  1.00  0.00     0.074 A 
ATOM     29  C   UNL A   1      42.626  27.648  31.468  1.00  0.00     0.029 A 
ATOM     30  N   UNL A   1      41.547  29.231  32.595  1.00  0.00    -0.354 N 
ATOM     31  N   UNL A   1      41.118  31.063  34.861  1.00  0.00    -0.248 NA
ATOM     32  C   UNL A   1      41.680  31.813  37.003  1.00  0.00     0.031 C 
ATOM     33  C   UNL A   1      43.215  27.771  32.732  1.00  0.00     0.029 A 
ATOM     34  C   UNL A   1      42.567  28.782  33.423  1.00  0.00     0.049 A 
ATOM     35  H   UNL A   1      40.908  29.943  32.825  1.00  0.00     0.167 HD
ATOM     36  C   UNL A   1      42.199  30.326  35.333  1.00  0.00     0.074 A 
ATOM     37  C   UNL A   1      42.523  30.856  36.642  1.00  0.00     0.031 C 
ATOM     38  C   UNL A   1      42.866  29.305  34.736  1.00  0.00     0.034 A 
BRANCH  25  39
ATOM     39  C   UNL A   1      40.707  27.803  29.112  1.00  0.00     0.023 A 
ATOM     40  C   UNL A   1      41.632  28.041  28.080  1.00  0.00     0.031 A 
ATOM     41  C   UNL A   1      39.850  26.694  28.982  1.00  0.00     0.131 A 
ATOM     42  C   UNL A   1      41.634  27.226  26.938  1.00  0.00     0.055 A 
ATOM     43  C   UNL A   1      39.910  25.841  27.878  1.00  0.00     0.041 A 
ATOM     44  F   UNL A   1      38.932  26.426  29.923  1.00  0.00    -0.206 F 
ATOM     45  C   UNL A   1      40.796  26.112  26.840  1.00  0.00     0.022 A 
BRANCH  42  46
ATOM     46  S   UNL A   1      42.652  27.722  25.519  1.00  0.00     0.124 S 
ATOM     47  O   UNL A   1      43.938  27.991  26.159  1.00  0.00    -0.237 OA
ATOM     48  O   UNL A   1      42.598  26.541  24.665  1.00  0.00    -0.237 OA
ATOM     49  O   UNL A   1      41.964  28.902  25.000  1.00  0.00    -0.744 OA
ENDBRANCH  42  46
ENDBRANCH  25  39
BRANCH  26  50
ATOM     50  C   UNL A   1      39.572  33.854  37.030  1.00  0.00     0.023 A 
ATOM     51  C   UNL A   1      38.950  33.377  38.194  1.00  0.00     0.031 A 
ATOM     52  C   UNL A   1      39.997  35.195  37.011  1.00  0.00     0.131 A 
ATOM     53  C   UNL A   1      38.738  34.243  39.277  1.00  0.00     0.055 A 
ATOM     54  C   UNL A   1      39.835  36.037  38.111  1.00  0.00     0.041 A 
ATOM     55  F   UNL A   1      40.601  35.701  35.923  1.00  0.00    -0.206 F 
ATOM     56  C   UNL A   1      39.190  35.565  39.249  1.00  0.00     0.022 A 
BRANCH  53  57
ATOM     57  S   UNL A   1      37.789  33.639  40.698  1.00  0.00     0.124 S 
ATOM     58  O   UNL A   1      36.663  32.981  40.047  1.00  0.00    -0.237 OA
ATOM     59  O   UNL A   1      38.754  32.762  41.354  1.00  0.00    -0.237 OA
ATOM     60  O   UNL A   1      37.461  34.859  41.432  1.00  0.00    -0.744 OA
ENDBRANCH  53  57
ENDBRANCH  26  50
BRANCH  38  61
ATOM     61  C   UNL A   1      44.034  28.725  35.493  1.00  0.00     0.023 A 
ATOM     62  C   UNL A   1      43.890  27.607  36.334  1.00  0.00     0.031 A 
ATOM     63  C   UNL A   1      45.305  29.317  35.391  1.00  0.00     0.131 A 
ATOM     64  C   UNL A   1      44.984  27.152  37.085  1.00  0.00     0.055 A 
ATOM     65  C   UNL A   1      46.405  28.821  36.095  1.00  0.00     0.041 A 
ATOM     66  F   UNL A   1      45.499  30.390  34.607  1.00  0.00    -0.206 F 
ATOM     67  C   UNL A   1      46.244  27.741  36.958  1.00  0.00     0.022 A 
BRANCH  64  68
ATOM     68  S   UNL A   1      44.716  25.836  38.303  1.00  0.00     0.124 S 
ATOM     69  O   UNL A   1      43.880  24.899  37.559  1.00  0.00    -0.237 OA
ATOM     70  O   UNL A   1      46.076  25.390  38.587  1.00  0.00    -0.237 OA
ATOM     71  O   UNL A   1      44.047  26.521  39.407  1.00  0.00    -0.744 OA
ENDBRANCH  64  68
ENDBRANCH  38  61
ENDBRANCH  12  13
ENDBRANCH   5   7
ENDBRANCH   2   3
ENDBRANCH   1   2
BRANCH   1  72
ATOM     72  C   UNL A   1      31.404  30.933  26.480  1.00  0.00     0.117 C 
BRANCH  72  73
ATOM     73  N   UNL A   1      32.603  30.263  26.959  1.00  0.00    -0.356 N 
ATOM     74  C   UNL A   1      33.294  29.196  26.483  1.00  0.00     0.225 C 
ATOM     75  H   UNL A   1      32.983  30.656  27.777  1.00  0.00     0.163 HD
ATOM     76  O   UNL A   1      34.345  28.906  27.063  1.00  0.00    -0.275 OA
BRANCH  74  77
ATOM     77  C   UNL A   1      32.838  28.373  25.291  1.00  0.00     0.107 C 
ATOM     78  C   UNL A   1      32.106  29.223  24.268  1.00  0.00     0.133 C 
ATOM     79  C   UNL A   1      31.934  27.171  25.642  1.00  0.00     0.053 C 
ATOM     80  N   UNL A   1      30.916  28.488  23.897  1.00  0.00    -0.341 N 
ATOM     81  C   UNL A   1      30.848  27.192  24.551  1.00  0.00     0.128 C 
BRANCH  79  82
ATOM     82  C   UNL A   1      32.757  25.892  25.806  1.00  0.00    -0.038 A 
ATOM     83  C   UNL A   1      34.038  25.830  25.194  1.00  0.00     0.008 A 
ATOM     84  C   UNL A   1      32.304  24.759  26.503  1.00  0.00     0.054 A 
ATOM     85  C   UNL A   1      34.815  24.666  25.212  1.00  0.00     0.051 A 
ATOM     86  C   UNL A   1      33.088  23.621  26.501  1.00  0.00     0.166 A 
ATOM     87  C   UNL A   1      34.304  23.571  25.865  1.00  0.00     0.165 A 
ATOM     88  O   UNL A   1      32.760  22.437  27.086  1.00  0.00    -0.454 OA
ATOM     89  O   UNL A   1      34.893  22.351  25.961  1.00  0.00    -0.454 OA
ATOM     90  C   UNL A   1      33.904  21.635  26.730  1.00  0.00     0.468 C 
ENDBRANCH  79  82
BRANCH  80  91
ATOM     91  C   UNL A   1      29.970  28.848  22.966  1.00  0.00     0.222 C 
ATOM     92  O   UNL A   1      30.237  28.960  21.769  1.00  0.00    -0.275 OA
BRANCH  91  93
ATOM     93  C   UNL A   1      28.557  29.114  23.444  1.00  0.00     0.109 C 
BRANCH  93  94
ATOM     94  C   UNL A   1      27.890  30.224  22.641  1.00  0.00     0.125 C 
BRANCH  94  95
ATOM     95  C   UNL A   1      28.038  31.579  23.290  1.00  0.00     0.389 C 
ATOM     96  F   UNL A   1      29.013  31.558  24.229  1.00  0.00    -0.171 F 
ATOM     97  F   UNL A   1      28.379  32.514  22.379  1.00  0.00    -0.171 F 
ATOM     98  F   UNL A   1      26.903  31.984  23.889  1.00  0.00    -0.171 F 
ENDBRANCH  94  95
ENDBRANCH  93  94
ENDBRANCH  91  93
ENDBRANCH  80  91
ENDBRANCH  74  77
ENDBRANCH  72  73
ENDBRANCH   1  72
TORSDOF 18
ENDMDL
MODEL 2
REMARK VINA RESULT:     -12.5      0.627      7.594
REMARK SMILES O=C(NCCCNC(=O)[C@@H]1CN(C(=O)CCC(F)(F)F)C[C@H]1c1ccc2c(c1)OCO2)c1ccc(-c2c3nc(c(-c4cc(S(=O)(=O)[O-])ccc4F)c4ccc([nH]4)c(-c4cc(S(=O)(=O)[O-])ccc4F)c4nc(c(-c5cc(S(=O)(=O)[O-])ccc5F)c5ccc2[nH]5)C=C4)C=C3)cc1
REMARK SMILES IDX 5 1 4 2 3 3 1 4 2 5 32 7 33 8 94 9 34 10 93 11 35 12 36 13
REMARK SMILES IDX 37 14 87 15 38 16 92 17 86 18 88 19 39 20 91 21 85 22 84 23
REMARK SMILES IDX 40 25 72 26 52 27 71 28 53 29 56 30 70 31 89 32 54 33 55 34
REMARK SMILES IDX 69 36 90 37 57 38 41 39 42 40 50 41 43 42 49 43 51 44 48 45
REMARK SMILES IDX 44 46 45 47 46 48 47 49 73 50 74 51 82 52 75 53 81 54 83 55
REMARK SMILES IDX 80 56 76 57 77 58 78 59 79 60 58 61 59 62 67 63 60 64 66 65
REMARK SMILES IDX 68 66 65 67 61 68 62 69 63 70 64 71 6 72 7 73 8 74 9 76
REMARK SMILES IDX 10 77 11 78 22 79 12 80 21 81 23 82 24 83 28 84 25 85 27 86
REMARK SMILES IDX 26 87 29 88 31 89 30 90 13 91 14 92 15 93 16 94 17 95 18 96
REMARK SMILES IDX 19 97 20 98
REMARK H PARENT 3 6 88 24 56 35 7 75
REMARK Flexibility Score: inf
ROOT
ATOM      1  C   UNL A   1      31.375  31.996  26.731  1.00  0.00     0.042 C 
ENDROOT
BRANCH   1   2
ATOM      2  C   UNL A   1      32.671  32.758  26.961  1.00  0.00     0.118 C 
BRANCH   2   3
ATOM      3  N   UNL A   1      32.478  34.043  27.621  1.00  0.00    -0.352 N 
ATOM      4  O   UNL A   1      32.704  35.643  29.181  1.00  0.00    -0.269 OA
ATOM      5  C   UNL A   1      33.125  34.597  28.702  1.00  0.00     0.251 C 
ATOM      6  H   UNL A   1      31.770  34.605  27.229  1.00  0.00     0.163 HD
BRANCH   5   7
ATOM      7  C   UNL A   1      34.304  33.928  29.301  1.00  0.00     0.039 A 
ATOM      8  C   UNL A   1      34.156  32.843  30.164  1.00  0.00     0.014 A 
ATOM      9  C   UNL A   1      35.586  34.380  28.969  1.00  0.00     0.014 A 
ATOM     10  C   UNL A   1      35.264  32.327  30.828  1.00  0.00     0.010 A 
ATOM     11  C   UNL A   1      36.710  33.786  29.556  1.00  0.00     0.010 A 
ATOM     12  C   UNL A   1      36.557  32.775  30.516  1.00  0.00    -0.014 A 
BRANCH  12  13
ATOM     13  C   UNL A   1      37.726  32.120  31.162  1.00  0.00     0.031 A 
ATOM     14  C   UNL A   1      38.217  32.556  32.516  1.00  0.00     0.074 A 
ATOM     15  C   UNL A   1      38.324  31.093  30.525  1.00  0.00     0.049 A 
ATOM     16  N   UNL A   1      39.218  32.092  33.219  1.00  0.00    -0.248 NA
ATOM     17  C   UNL A   1      37.495  33.663  33.161  1.00  0.00     0.031 C 
ATOM     18  C   UNL A   1      37.934  30.582  29.207  1.00  0.00     0.029 A 
ATOM     19  N   UNL A   1      39.365  30.282  30.897  1.00  0.00    -0.354 N 
ATOM     20  C   UNL A   1      39.259  32.854  34.383  1.00  0.00     0.074 A 
ATOM     21  C   UNL A   1      38.200  33.837  34.270  1.00  0.00     0.031 C 
ATOM     22  C   UNL A   1      38.685  29.514  28.909  1.00  0.00     0.029 A 
ATOM     23  C   UNL A   1      39.665  29.312  29.969  1.00  0.00     0.049 A 
ATOM     24  H   UNL A   1      39.850  30.384  31.747  1.00  0.00     0.167 HD
ATOM     25  C   UNL A   1      40.095  32.737  35.444  1.00  0.00     0.034 A 
ATOM     26  C   UNL A   1      40.637  28.380  29.953  1.00  0.00     0.034 A 
ATOM     27  C   UNL A   1      41.147  31.749  35.536  1.00  0.00     0.049 A 
ATOM     28  C   UNL A   1      41.587  28.310  31.117  1.00  0.00     0.074 A 
ATOM     29  C   UNL A   1      42.037  31.530  36.574  1.00  0.00     0.029 A 
ATOM     30  N   UNL A   1      41.458  30.821  34.549  1.00  0.00    -0.354 N 
ATOM     31  N   UNL A   1      41.608  29.039  32.209  1.00  0.00    -0.248 NA
ATOM     32  C   UNL A   1      42.644  27.295  31.045  1.00  0.00     0.031 C 
ATOM     33  C   UNL A   1      42.927  30.522  36.188  1.00  0.00     0.029 A 
ATOM     34  C   UNL A   1      42.546  30.053  34.941  1.00  0.00     0.049 A 
ATOM     35  H   UNL A   1      40.977  30.722  33.696  1.00  0.00     0.167 HD
ATOM     36  C   UNL A   1      42.672  28.555  32.963  1.00  0.00     0.074 A 
ATOM     37  C   UNL A   1      43.250  27.460  32.211  1.00  0.00     0.031 C 
ATOM     38  C   UNL A   1      43.127  28.977  34.171  1.00  0.00     0.034 A 
BRANCH  25  39
ATOM     39  C   UNL A   1      39.935  33.731  36.573  1.00  0.00     0.023 A 
ATOM     40  C   UNL A   1      39.397  33.361  37.818  1.00  0.00     0.031 A 
ATOM     41  C   UNL A   1      40.314  35.074  36.395  1.00  0.00     0.131 A 
ATOM     42  C   UNL A   1      39.190  34.332  38.809  1.00  0.00     0.055 A 
ATOM     43  C   UNL A   1      40.177  36.020  37.413  1.00  0.00     0.041 A 
ATOM     44  F   UNL A   1      40.815  35.494  35.223  1.00  0.00    -0.206 F 
ATOM     45  C   UNL A   1      39.599  35.655  38.625  1.00  0.00     0.022 A 
BRANCH  42  46
ATOM     46  S   UNL A   1      38.253  33.871  40.293  1.00  0.00     0.124 S 
ATOM     47  O   UNL A   1      39.180  32.957  40.956  1.00  0.00    -0.237 OA
ATOM     48  O   UNL A   1      38.048  35.158  40.949  1.00  0.00    -0.237 OA
ATOM     49  O   UNL A   1      37.047  33.244  39.756  1.00  0.00    -0.744 OA
ENDBRANCH  42  46
ENDBRANCH  25  39
BRANCH  26  50
ATOM     50  C   UNL A   1      40.782  27.470  28.782  1.00  0.00     0.023 A 
ATOM     51  C   UNL A   1      41.760  27.699  27.802  1.00  0.00     0.031 A 
ATOM     52  C   UNL A   1      39.928  26.365  28.617  1.00  0.00     0.131 A 
ATOM     53  C   UNL A   1      41.836  26.857  26.683  1.00  0.00     0.055 A 
ATOM     54  C   UNL A   1      40.045  25.496  27.532  1.00  0.00     0.041 A 
ATOM     55  F   UNL A   1      38.978  26.098  29.529  1.00  0.00    -0.206 F 
ATOM     56  C   UNL A   1      40.996  25.748  26.549  1.00  0.00     0.022 A 
BRANCH  53  57
ATOM     57  S   UNL A   1      43.002  27.275  25.359  1.00  0.00     0.124 S 
ATOM     58  O   UNL A   1      43.160  25.992  24.685  1.00  0.00    -0.237 OA
ATOM     59  O   UNL A   1      42.269  28.301  24.624  1.00  0.00    -0.237 OA
ATOM     60  O   UNL A   1      44.180  27.751  26.081  1.00  0.00    -0.744 OA
ENDBRANCH  53  57
ENDBRANCH  26  50
BRANCH  38  61
ATOM     61  C   UNL A   1      44.291  28.219  34.758  1.00  0.00     0.023 A 
ATOM     62  C   UNL A   1      44.106  27.035  35.495  1.00  0.00     0.031 A 
ATOM     63  C   UNL A   1      45.601  28.703  34.602  1.00  0.00     0.131 A 
ATOM     64  C   UNL A   1      45.207  26.408  36.097  1.00  0.00     0.055 A 
ATOM     65  C   UNL A   1      46.700  28.040  35.151  1.00  0.00     0.041 A 
ATOM     66  F   UNL A   1      45.835  29.831  33.912  1.00  0.00    -0.206 F 
ATOM     67  C   UNL A   1      46.504  26.893  35.915  1.00  0.00     0.022 A 
BRANCH  64  68
ATOM     68  S   UNL A   1      44.911  24.998  37.199  1.00  0.00     0.124 S 
ATOM     69  O   UNL A   1      46.205  24.852  37.858  1.00  0.00    -0.237 OA
ATOM     70  O   UNL A   1      43.819  25.480  38.038  1.00  0.00    -0.237 OA
ATOM     71  O   UNL A   1      44.557  23.916  36.284  1.00  0.00    -0.744 OA
ENDBRANCH  64  68
ENDBRANCH  38  61
ENDBRANCH  12  13
ENDBRANCH   5   7
ENDBRANCH   2   3
ENDBRANCH   1   2
BRANCH   1  72
ATOM     72  C   UNL A   1      31.506  30.482  26.804  1.00  0.00     0.117 C 
BRANCH  72  73
ATOM     73  N   UNL A   1      32.876  30.033  27.001  1.00  0.00    -0.356 N 
ATOM     74  C   UNL A   1      33.628  29.109  26.351  1.00  0.00     0.225 C 
ATOM     75  H   UNL A   1      33.343  30.482  27.742  1.00  0.00     0.163 HD
ATOM     76  O   UNL A   1      34.810  29.008  26.693  1.00  0.00    -0.275 OA
BRANCH  74  77
ATOM     77  C   UNL A   1      33.085  28.225  25.241  1.00  0.00     0.107 C 
ATOM     78  C   UNL A   1      32.365  29.036  24.178  1.00  0.00     0.133 C 
ATOM     79  C   UNL A   1      32.128  27.108  25.714  1.00  0.00     0.053 C 
ATOM     80  N   UNL A   1      31.124  28.345  23.903  1.00  0.00    -0.341 N 
ATOM     81  C   UNL A   1      31.007  27.109  24.658  1.00  0.00     0.128 C 
BRANCH  79  82
ATOM     82  C   UNL A   1      32.884  25.799  25.951  1.00  0.00    -0.038 A 
ATOM     83  C   UNL A   1      34.178  25.654  25.381  1.00  0.00     0.008 A 
ATOM     84  C   UNL A   1      32.357  24.719  26.678  1.00  0.00     0.054 A 
ATOM     85  C   UNL A   1      34.897  24.456  25.468  1.00  0.00     0.051 A 
ATOM     86  C   UNL A   1      33.086  23.546  26.744  1.00  0.00     0.166 A 
ATOM     87  C   UNL A   1      34.315  23.413  26.147  1.00  0.00     0.165 A 
ATOM     88  O   UNL A   1      32.685  22.402  27.364  1.00  0.00    -0.454 OA
ATOM     89  O   UNL A   1      34.842  22.171  26.308  1.00  0.00    -0.454 OA
ATOM     90  C   UNL A   1      33.799  21.535  27.074  1.00  0.00     0.468 C 
ENDBRANCH  79  82
BRANCH  80  91
ATOM     91  C   UNL A   1      30.167  28.687  22.976  1.00  0.00     0.222 C 
ATOM     92  O   UNL A   1      30.330  28.510  21.769  1.00  0.00    -0.275 OA
BRANCH  91  93
ATOM     93  C   UNL A   1      28.874  29.304  23.473  1.00  0.00     0.109 C 
BRANCH  93  94
ATOM     94  C   UNL A   1      28.320  30.323  22.485  1.00  0.00     0.125 C 
BRANCH  94  95
ATOM     95  C   UNL A   1      28.094  31.677  23.114  1.00  0.00     0.389 C 
ATOM     96  F   UNL A   1      29.144  32.025  23.894  1.00  0.00    -0.171 F 
ATOM     97  F   UNL A   1      27.963  32.630  22.168  1.00  0.00    -0.171 F 
ATOM     98  F   UNL A   1      26.989  31.703  23.881  1.00  0.00    -0.171 F 
ENDBRANCH  94  95
ENDBRANCH  93  94
ENDBRANCH  91  93
ENDBRANCH  80  91
ENDBRANCH  74  77
ENDBRANCH  72  73
ENDBRANCH   1  72
TORSDOF 18
ENDMDL
MODEL 3
REMARK VINA RESULT:     -12.5      6.238     12.164
REMARK SMILES O=C(NCCCNC(=O)[C@@H]1CN(C(=O)CCC(F)(F)F)C[C@H]1c1ccc2c(c1)OCO2)c1ccc(-c2c3nc(c(-c4cc(S(=O)(=O)[O-])ccc4F)c4ccc([nH]4)c(-c4cc(S(=O)(=O)[O-])ccc4F)c4nc(c(-c5cc(S(=O)(=O)[O-])ccc5F)c5ccc2[nH]5)C=C4)C=C3)cc1
REMARK SMILES IDX 5 1 4 2 3 3 1 4 2 5 32 7 33 8 94 9 34 10 93 11 35 12 36 13
REMARK SMILES IDX 37 14 87 15 38 16 92 17 86 18 88 19 39 20 91 21 85 22 84 23
REMARK SMILES IDX 40 25 72 26 52 27 71 28 53 29 56 30 70 31 89 32 54 33 55 34
REMARK SMILES IDX 69 36 90 37 57 38 41 39 42 40 50 41 43 42 49 43 51 44 48 45
REMARK SMILES IDX 44 46 45 47 46 48 47 49 73 50 74 51 82 52 75 53 81 54 83 55
REMARK SMILES IDX 80 56 76 57 77 58 78 59 79 60 58 61 59 62 67 63 60 64 66 65
REMARK SMILES IDX 68 66 65 67 61 68 62 69 63 70 64 71 6 72 7 73 8 74 9 76
REMARK SMILES IDX 10 77 11 78 22 79 12 80 21 81 23 82 24 83 28 84 25 85 27 86
REMARK SMILES IDX 26 87 29 88 31 89 30 90 13 91 14 92 15 93 16 94 17 95 18 96
REMARK SMILES IDX 19 97 20 98
REMARK H PARENT 3 6 88 24 56 35 7 75
REMARK Flexibility Score: inf
ROOT
ATOM      1  C   UNL A   1      38.286  19.851  24.973  1.00  0.00     0.042 C 
ENDROOT
BRANCH   1   2
ATOM      2  C   UNL A   1      39.333  20.282  25.989  1.00  0.00     0.118 C 
BRANCH   2   3
ATOM      3  N   UNL A   1      40.449  19.352  26.100  1.00  0.00    -0.352 N 
ATOM      4  O   UNL A   1      42.582  18.652  26.191  1.00  0.00    -0.269 OA
ATOM      5  C   UNL A   1      41.796  19.588  26.261  1.00  0.00     0.251 C 
ATOM      6  H   UNL A   1      40.199  18.400  26.051  1.00  0.00     0.163 HD
BRANCH   5   7
ATOM      7  C   UNL A   1      42.298  20.964  26.493  1.00  0.00     0.039 A 
ATOM      8  C   UNL A   1      42.525  21.439  27.785  1.00  0.00     0.014 A 
ATOM      9  C   UNL A   1      42.572  21.785  25.394  1.00  0.00     0.014 A 
ATOM     10  C   UNL A   1      42.853  22.775  27.985  1.00  0.00     0.010 A 
ATOM     11  C   UNL A   1      43.009  23.099  25.596  1.00  0.00     0.010 A 
ATOM     12  C   UNL A   1      43.122  23.618  26.895  1.00  0.00    -0.014 A 
BRANCH  12  13
ATOM     13  C   UNL A   1      43.582  25.009  27.149  1.00  0.00     0.031 A 
ATOM     14  C   UNL A   1      42.663  26.038  27.749  1.00  0.00     0.074 A 
ATOM     15  C   UNL A   1      44.861  25.328  26.866  1.00  0.00     0.049 A 
ATOM     16  N   UNL A   1      42.904  27.292  28.037  1.00  0.00    -0.248 NA
ATOM     17  C   UNL A   1      41.291  25.607  28.059  1.00  0.00     0.031 C 
ATOM     18  C   UNL A   1      45.845  24.411  26.282  1.00  0.00     0.029 A 
ATOM     19  N   UNL A   1      45.563  26.492  27.045  1.00  0.00    -0.354 N 
ATOM     20  C   UNL A   1      41.717  27.806  28.548  1.00  0.00     0.074 A 
ATOM     21  C   UNL A   1      40.745  26.733  28.495  1.00  0.00     0.031 C 
ATOM     22  C   UNL A   1      47.031  25.028  26.205  1.00  0.00     0.029 A 
ATOM     23  C   UNL A   1      46.878  26.407  26.652  1.00  0.00     0.049 A 
ATOM     24  H   UNL A   1      45.163  27.310  27.419  1.00  0.00     0.167 HD
ATOM     25  C   UNL A   1      41.467  29.052  29.022  1.00  0.00     0.034 A 
ATOM     26  C   UNL A   1      47.850  27.339  26.623  1.00  0.00     0.034 A 
ATOM     27  C   UNL A   1      42.452  30.110  29.064  1.00  0.00     0.049 A 
ATOM     28  C   UNL A   1      47.530  28.728  27.101  1.00  0.00     0.074 A 
ATOM     29  C   UNL A   1      42.310  31.402  29.544  1.00  0.00     0.029 A 
ATOM     30  N   UNL A   1      43.758  30.003  28.603  1.00  0.00    -0.354 N 
ATOM     31  N   UNL A   1      46.401  29.195  27.583  1.00  0.00    -0.248 NA
ATOM     32  C   UNL A   1      48.612  29.716  27.030  1.00  0.00     0.031 C 
ATOM     33  C   UNL A   1      43.504  32.094  29.308  1.00  0.00     0.029 A 
ATOM     34  C   UNL A   1      44.420  31.214  28.754  1.00  0.00     0.049 A 
ATOM     35  H   UNL A   1      44.157  29.187  28.222  1.00  0.00     0.167 HD
ATOM     36  C   UNL A   1      46.646  30.529  27.890  1.00  0.00     0.074 A 
ATOM     37  C   UNL A   1      48.033  30.783  27.559  1.00  0.00     0.031 C 
ATOM     38  C   UNL A   1      45.799  31.460  28.400  1.00  0.00     0.034 A 
BRANCH  25  39
ATOM     39  C   UNL A   1      40.061  29.353  29.492  1.00  0.00     0.023 A 
ATOM     40  C   UNL A   1      39.734  29.424  30.857  1.00  0.00     0.031 A 
ATOM     41  C   UNL A   1      39.029  29.556  28.558  1.00  0.00     0.131 A 
ATOM     42  C   UNL A   1      38.401  29.624  31.250  1.00  0.00     0.055 A 
ATOM     43  C   UNL A   1      37.718  29.832  28.956  1.00  0.00     0.041 A 
ATOM     44  F   UNL A   1      39.274  29.481  27.241  1.00  0.00    -0.206 F 
ATOM     45  C   UNL A   1      37.395  29.853  30.309  1.00  0.00     0.022 A 
BRANCH  42  46
ATOM     46  S   UNL A   1      37.977  29.444  33.005  1.00  0.00     0.124 S 
ATOM     47  O   UNL A   1      39.293  29.520  33.636  1.00  0.00    -0.237 OA
ATOM     48  O   UNL A   1      37.093  30.580  33.234  1.00  0.00    -0.237 OA
ATOM     49  O   UNL A   1      37.339  28.131  33.071  1.00  0.00    -0.744 OA
ENDBRANCH  42  46
ENDBRANCH  25  39
BRANCH  26  50
ATOM     50  C   UNL A   1      49.198  26.998  26.089  1.00  0.00     0.023 A 
ATOM     51  C   UNL A   1      49.595  27.404  24.806  1.00  0.00     0.031 A 
ATOM     52  C   UNL A   1      50.106  26.241  26.852  1.00  0.00     0.131 A 
ATOM     53  C   UNL A   1      50.850  27.021  24.309  1.00  0.00     0.055 A 
ATOM     54  C   UNL A   1      51.375  25.911  26.376  1.00  0.00     0.041 A 
ATOM     55  F   UNL A   1      49.778  25.830  28.088  1.00  0.00    -0.206 F 
ATOM     56  C   UNL A   1      51.748  26.290  25.091  1.00  0.00     0.022 A 
BRANCH  53  57
ATOM     57  S   UNL A   1      51.264  27.425  22.591  1.00  0.00     0.124 S 
ATOM     58  O   UNL A   1      50.153  26.818  21.867  1.00  0.00    -0.237 OA
ATOM     59  O   UNL A   1      51.291  28.884  22.622  1.00  0.00    -0.237 OA
ATOM     60  O   UNL A   1      52.562  26.783  22.394  1.00  0.00    -0.744 OA
ENDBRANCH  53  57
ENDBRANCH  26  50
BRANCH  38  61
ATOM     61  C   UNL A   1      46.375  32.829  28.661  1.00  0.00     0.023 A 
ATOM     62  C   UNL A   1      46.291  33.861  27.709  1.00  0.00     0.031 A 
ATOM     63  C   UNL A   1      47.042  33.096  29.870  1.00  0.00     0.131 A 
ATOM     64  C   UNL A   1      46.915  35.093  27.957  1.00  0.00     0.055 A 
ATOM     65  C   UNL A   1      47.608  34.345  30.136  1.00  0.00     0.041 A 
ATOM     66  F   UNL A   1      47.157  32.146  30.812  1.00  0.00    -0.206 F 
ATOM     67  C   UNL A   1      47.558  35.346  29.171  1.00  0.00     0.022 A 
BRANCH  64  68
ATOM     68  S   UNL A   1      46.956  36.331  26.632  1.00  0.00     0.124 S 
ATOM     69  O   UNL A   1      45.729  37.082  26.882  1.00  0.00    -0.237 OA
ATOM     70  O   UNL A   1      48.202  37.038  26.902  1.00  0.00    -0.237 OA
ATOM     71  O   UNL A   1      46.952  35.527  25.412  1.00  0.00    -0.744 OA
ENDBRANCH  64  68
ENDBRANCH  38  61
ENDBRANCH  12  13
ENDBRANCH   5   7
ENDBRANCH   2   3
ENDBRANCH   1   2
BRANCH   1  72
ATOM     72  C   UNL A   1      37.366  20.966  24.497  1.00  0.00     0.117 C 
BRANCH  72  73
ATOM     73  N   UNL A   1      37.657  22.252  25.112  1.00  0.00    -0.356 N 
ATOM     74  C   UNL A   1      36.850  23.193  25.665  1.00  0.00     0.225 C 
ATOM     75  H   UNL A   1      38.613  22.481  25.131  1.00  0.00     0.163 HD
ATOM     76  O   UNL A   1      37.402  24.160  26.198  1.00  0.00    -0.275 OA
BRANCH  74  77
ATOM     77  C   UNL A   1      35.334  23.098  25.659  1.00  0.00     0.107 C 
ATOM     78  C   UNL A   1      34.857  21.705  26.026  1.00  0.00     0.133 C 
ATOM     79  C   UNL A   1      34.666  23.491  24.322  1.00  0.00     0.053 C 
ATOM     80  N   UNL A   1      33.834  21.352  25.066  1.00  0.00    -0.341 N 
ATOM     81  C   UNL A   1      33.560  22.436  24.137  1.00  0.00     0.128 C 
BRANCH  79  82
ATOM     82  C   UNL A   1      34.255  24.964  24.323  1.00  0.00    -0.038 A 
ATOM     83  C   UNL A   1      34.188  25.645  25.569  1.00  0.00     0.008 A 
ATOM     84  C   UNL A   1      33.911  25.676  23.162  1.00  0.00     0.054 A 
ATOM     85  C   UNL A   1      33.730  26.964  25.670  1.00  0.00     0.051 A 
ATOM     86  C   UNL A   1      33.456  26.974  23.291  1.00  0.00     0.166 A 
ATOM     87  C   UNL A   1      33.357  27.598  24.510  1.00  0.00     0.165 A 
ATOM     88  O   UNL A   1      33.039  27.769  22.267  1.00  0.00    -0.454 OA
ATOM     89  O   UNL A   1      32.860  28.859  24.413  1.00  0.00    -0.454 OA
ATOM     90  C   UNL A   1      32.653  28.956  22.989  1.00  0.00     0.468 C 
ENDBRANCH  79  82
BRANCH  80  91
ATOM     91  C   UNL A   1      33.085  20.200  25.030  1.00  0.00     0.222 C 
ATOM     92  O   UNL A   1      31.854  20.215  25.064  1.00  0.00    -0.275 OA
BRANCH  91  93
ATOM     93  C   UNL A   1      33.812  18.873  24.947  1.00  0.00     0.109 C 
BRANCH  93  94
ATOM     94  C   UNL A   1      33.315  18.030  23.778  1.00  0.00     0.125 C 
BRANCH  94  95
ATOM     95  C   UNL A   1      33.962  16.667  23.730  1.00  0.00     0.389 C 
ATOM     96  F   UNL A   1      35.056  16.626  24.525  1.00  0.00    -0.171 F 
ATOM     97  F   UNL A   1      33.111  15.716  24.168  1.00  0.00    -0.171 F 
ATOM     98  F   UNL A   1      34.349  16.331  22.485  1.00  0.00    -0.171 F 
ENDBRANCH  94  95
ENDBRANCH  93  94
ENDBRANCH  91  93
ENDBRANCH  80  91
ENDBRANCH  74  77
ENDBRANCH  72  73
ENDBRANCH   1  72
TORSDOF 18
ENDMDL
