MODEL 1
REMARK VINA RESULT:     -12.6      0.000      0.000
REMARK SMILES CC(=O)N1CCC(C(=O)Nc2sccc2C(=O)NCCCNC(=O)c2ccc(-c3c4nc(c(-c5cc(S(=O)(=O)[O-])ccc5F)c5ccc([nH]5)c(-c5cc(S(=O)(=O)[O-])ccc5F)c5nc(c(-c6cc(S(=O)(=O)[O-])ccc6F)c6ccc3[nH]6)C=C5)C=C4)cc2)CC1
REMARK SMILES IDX 20 1 19 2 18 3 16 4 17 5 15 7 11 8 12 9 13 10 14 11 10 12
REMARK SMILES IDX 8 13 9 14 7 16 1 17 2 18 3 19 4 20 5 21 89 22 6 23 88 24
REMARK SMILES IDX 21 25 22 26 23 27 24 29 25 30 26 31 87 32 27 33 86 34 28 35
REMARK SMILES IDX 29 36 30 37 80 38 31 39 85 40 79 41 81 42 32 43 84 44 78 45
REMARK SMILES IDX 77 46 33 48 65 49 45 50 64 51 46 52 49 53 63 54 82 55 47 56
REMARK SMILES IDX 48 57 62 59 83 60 50 61 34 62 35 63 43 64 36 65 42 66 44 67
REMARK SMILES IDX 41 68 37 69 38 70 39 71 40 72 66 73 67 74 75 75 68 76 74 77
REMARK SMILES IDX 76 78 73 79 69 80 70 81 71 82 72 83 51 84 52 85 60 86 53 87
REMARK SMILES IDX 59 88 61 89 58 90 54 91 55 92 56 93 57 94
REMARK H PARENT 18 6 10 15 22 28 81 47 49 58
REMARK Flexibility Score: inf
ROOT
ATOM      1  C   UNL A   1      31.506  29.505  27.200  1.00  0.00     0.042 C 
ENDROOT
BRANCH   1   2
ATOM      2  C   UNL A   1      32.247  28.189  27.389  1.00  0.00     0.118 C 
BRANCH   2   3
ATOM      3  N   UNL A   1      31.390  27.032  27.212  1.00  0.00    -0.352 N 
ATOM      4  C   UNL A   1      30.950  26.374  26.099  1.00  0.00     0.254 C 
ATOM      5  O   UNL A   1      30.167  25.443  26.303  1.00  0.00    -0.269 OA
ATOM      6  H   UNL A   1      31.062  26.648  28.057  1.00  0.00     0.163 HD
BRANCH   4   7
ATOM      7  C   UNL A   1      31.322  26.745  24.728  1.00  0.00     0.074 A 
ATOM      8  C   UNL A   1      32.477  26.538  23.991  1.00  0.00     0.108 A 
ATOM      9  S   UNL A   1      32.528  27.493  22.571  1.00  0.00    -0.126 S 
ATOM     10  C   UNL A   1      30.876  27.879  22.699  1.00  0.00     0.068 A 
ATOM     11  C   UNL A   1      30.358  27.437  23.891  1.00  0.00     0.028 A 
BRANCH   8  12
ATOM     12  N   UNL A   1      33.656  25.859  24.164  1.00  0.00    -0.317 N 
ATOM     13  C   UNL A   1      33.899  24.543  24.419  1.00  0.00     0.228 C 
ATOM     14  O   UNL A   1      35.066  24.240  24.702  1.00  0.00    -0.274 OA
ATOM     15  H   UNL A   1      34.463  26.417  24.092  1.00  0.00     0.170 HD
BRANCH  13  16
ATOM     16  C   UNL A   1      32.887  23.419  24.207  1.00  0.00     0.082 C 
ATOM     17  C   UNL A   1      32.807  18.830  25.836  1.00  0.00     0.114 C 
ATOM     18  C   UNL A   1      32.866  19.448  24.461  1.00  0.00     0.219 C 
ATOM     19  O   UNL A   1      33.468  18.872  23.557  1.00  0.00    -0.275 OA
ATOM     20  N   UNL A   1      32.197  20.649  24.281  1.00  0.00    -0.343 N 
ATOM     21  C   UNL A   1      32.205  21.294  22.973  1.00  0.00     0.120 C 
ATOM     22  C   UNL A   1      31.709  21.501  25.357  1.00  0.00     0.120 C 
ATOM     23  C   UNL A   1      33.125  22.511  23.001  1.00  0.00     0.035 C 
ATOM     24  C   UNL A   1      32.677  22.663  25.531  1.00  0.00     0.035 C 
ENDBRANCH  13  16
ENDBRANCH   8  12
ENDBRANCH   4   7
ENDBRANCH   2   3
ENDBRANCH   1   2
BRANCH   1  25
ATOM     25  C   UNL A   1      32.280  30.507  26.347  1.00  0.00     0.118 C 
BRANCH  25  26
ATOM     26  N   UNL A   1      32.165  31.885  26.810  1.00  0.00    -0.352 N 
ATOM     27  C   UNL A   1      33.052  32.678  27.506  1.00  0.00     0.251 C 
ATOM     28  H   UNL A   1      31.312  32.323  26.588  1.00  0.00     0.163 HD
ATOM     29  O   UNL A   1      32.705  33.796  27.881  1.00  0.00    -0.269 OA
BRANCH  27  30
ATOM     30  C   UNL A   1      34.393  32.164  27.858  1.00  0.00     0.039 A 
ATOM     31  C   UNL A   1      35.466  33.057  27.924  1.00  0.00     0.014 A 
ATOM     32  C   UNL A   1      34.589  30.821  28.174  1.00  0.00     0.014 A 
ATOM     33  C   UNL A   1      36.692  32.631  28.443  1.00  0.00     0.010 A 
ATOM     34  C   UNL A   1      35.768  30.426  28.794  1.00  0.00     0.010 A 
ATOM     35  C   UNL A   1      36.826  31.332  28.960  1.00  0.00    -0.014 A 
BRANCH  35  36
ATOM     36  C   UNL A   1      38.034  30.903  29.719  1.00  0.00     0.031 A 
ATOM     37  C   UNL A   1      38.983  29.900  29.123  1.00  0.00     0.074 A 
ATOM     38  C   UNL A   1      38.206  31.320  30.991  1.00  0.00     0.049 A 
ATOM     39  N   UNL A   1      39.976  29.259  29.686  1.00  0.00    -0.248 NA
ATOM     40  C   UNL A   1      38.753  29.537  27.717  1.00  0.00     0.031 C 
ATOM     41  C   UNL A   1      37.329  32.255  31.704  1.00  0.00     0.029 A 
ATOM     42  N   UNL A   1      39.163  30.998  31.921  1.00  0.00    -0.354 N 
ATOM     43  C   UNL A   1      40.468  28.395  28.715  1.00  0.00     0.074 A 
ATOM     44  C   UNL A   1      39.621  28.551  27.551  1.00  0.00     0.031 C 
ATOM     45  C   UNL A   1      37.806  32.449  32.944  1.00  0.00     0.029 A 
ATOM     46  C   UNL A   1      38.980  31.610  33.140  1.00  0.00     0.049 A 
ATOM     47  H   UNL A   1      39.912  30.386  31.733  1.00  0.00     0.167 HD
ATOM     48  C   UNL A   1      41.542  27.568  28.778  1.00  0.00     0.034 A 
ATOM     49  C   UNL A   1      39.664  31.489  34.297  1.00  0.00     0.034 A 
ATOM     50  C   UNL A   1      42.393  27.448  29.936  1.00  0.00     0.049 A 
ATOM     51  C   UNL A   1      40.830  30.538  34.357  1.00  0.00     0.074 A 
ATOM     52  C   UNL A   1      43.556  26.712  30.081  1.00  0.00     0.029 A 
ATOM     53  N   UNL A   1      42.167  28.077  31.154  1.00  0.00    -0.354 N 
ATOM     54  N   UNL A   1      41.313  29.764  33.413  1.00  0.00    -0.248 NA
ATOM     55  C   UNL A   1      41.538  30.440  35.639  1.00  0.00     0.031 C 
ATOM     56  C   UNL A   1      43.998  26.845  31.403  1.00  0.00     0.029 A 
ATOM     57  C   UNL A   1      43.147  27.714  32.066  1.00  0.00     0.049 A 
ATOM     58  H   UNL A   1      41.422  28.690  31.343  1.00  0.00     0.167 HD
ATOM     59  C   UNL A   1      42.391  29.097  33.985  1.00  0.00     0.074 A 
ATOM     60  C   UNL A   1      42.498  29.573  35.349  1.00  0.00     0.031 C 
ATOM     61  C   UNL A   1      43.221  28.177  33.432  1.00  0.00     0.034 A 
BRANCH  48  62
ATOM     62  C   UNL A   1      41.833  26.719  27.562  1.00  0.00     0.023 A 
ATOM     63  C   UNL A   1      41.447  25.370  27.496  1.00  0.00     0.031 A 
ATOM     64  C   UNL A   1      42.549  27.251  26.474  1.00  0.00     0.131 A 
ATOM     65  C   UNL A   1      41.861  24.573  26.419  1.00  0.00     0.055 A 
ATOM     66  C   UNL A   1      42.881  26.474  25.362  1.00  0.00     0.041 A 
ATOM     67  F   UNL A   1      42.961  28.529  26.484  1.00  0.00    -0.206 F 
ATOM     68  C   UNL A   1      42.554  25.122  25.338  1.00  0.00     0.022 A 
BRANCH  65  69
ATOM     69  S   UNL A   1      41.624  22.779  26.534  1.00  0.00     0.124 S 
ATOM     70  O   UNL A   1      42.299  22.315  25.323  1.00  0.00    -0.237 OA
ATOM     71  O   UNL A   1      42.278  22.454  27.795  1.00  0.00    -0.237 OA
ATOM     72  O   UNL A   1      40.170  22.623  26.524  1.00  0.00    -0.744 OA
ENDBRANCH  65  69
ENDBRANCH  48  62
BRANCH  49  73
ATOM     73  C   UNL A   1      39.250  32.263  35.501  1.00  0.00     0.023 A 
ATOM     74  C   UNL A   1      39.700  33.578  35.697  1.00  0.00     0.031 A 
ATOM     75  C   UNL A   1      38.421  31.694  36.483  1.00  0.00     0.131 A 
ATOM     76  C   UNL A   1      39.348  34.270  36.867  1.00  0.00     0.055 A 
ATOM     77  C   UNL A   1      38.037  32.402  37.623  1.00  0.00     0.041 A 
ATOM     78  F   UNL A   1      37.958  30.442  36.339  1.00  0.00    -0.206 F 
ATOM     79  C   UNL A   1      38.509  33.696  37.826  1.00  0.00     0.022 A 
BRANCH  76  80
ATOM     80  S   UNL A   1      40.053  35.917  37.149  1.00  0.00     0.124 S 
ATOM     81  O   UNL A   1      39.731  36.596  35.898  1.00  0.00    -0.237 OA
ATOM     82  O   UNL A   1      39.319  36.363  38.328  1.00  0.00    -0.237 OA
ATOM     83  O   UNL A   1      41.472  35.647  37.365  1.00  0.00    -0.744 OA
ENDBRANCH  76  80
ENDBRANCH  49  73
BRANCH  61  84
ATOM     84  C   UNL A   1      44.326  27.645  34.307  1.00  0.00     0.023 A 
ATOM     85  C   UNL A   1      44.198  26.421  34.985  1.00  0.00     0.031 A 
ATOM     86  C   UNL A   1      45.521  28.369  34.460  1.00  0.00     0.131 A 
ATOM     87  C   UNL A   1      45.233  25.976  35.822  1.00  0.00     0.055 A 
ATOM     88  C   UNL A   1      46.567  27.896  35.253  1.00  0.00     0.041 A 
ATOM     89  F   UNL A   1      45.692  29.545  33.835  1.00  0.00    -0.206 F 
ATOM     90  C   UNL A   1      46.422  26.698  35.946  1.00  0.00     0.022 A 
BRANCH  87  91
ATOM     91  S   UNL A   1      44.980  24.466  36.793  1.00  0.00     0.124 S 
ATOM     92  O   UNL A   1      44.055  23.715  35.952  1.00  0.00    -0.237 OA
ATOM     93  O   UNL A   1      46.333  23.927  36.894  1.00  0.00    -0.237 OA
ATOM     94  O   UNL A   1      44.416  24.958  38.050  1.00  0.00    -0.744 OA
ENDBRANCH  87  91
ENDBRANCH  61  84
ENDBRANCH  35  36
ENDBRANCH  27  30
ENDBRANCH  25  26
ENDBRANCH   1  25
TORSDOF 15
ENDMDL
MODEL 2
REMARK VINA RESULT:     -12.6      5.111     10.337
REMARK SMILES CC(=O)N1CCC(C(=O)Nc2sccc2C(=O)NCCCNC(=O)c2ccc(-c3c4nc(c(-c5cc(S(=O)(=O)[O-])ccc5F)c5ccc([nH]5)c(-c5cc(S(=O)(=O)[O-])ccc5F)c5nc(c(-c6cc(S(=O)(=O)[O-])ccc6F)c6ccc3[nH]6)C=C5)C=C4)cc2)CC1
REMARK SMILES IDX 20 1 19 2 18 3 16 4 17 5 15 7 11 8 12 9 13 10 14 11 10 12
REMARK SMILES IDX 8 13 9 14 7 16 1 17 2 18 3 19 4 20 5 21 89 22 6 23 88 24
REMARK SMILES IDX 21 25 22 26 23 27 24 29 25 30 26 31 87 32 27 33 86 34 28 35
REMARK SMILES IDX 29 36 30 37 80 38 31 39 85 40 79 41 81 42 32 43 84 44 78 45
REMARK SMILES IDX 77 46 33 48 65 49 45 50 64 51 46 52 49 53 63 54 82 55 47 56
REMARK SMILES IDX 48 57 62 59 83 60 50 61 34 62 35 63 43 64 36 65 42 66 44 67
REMARK SMILES IDX 41 68 37 69 38 70 39 71 40 72 66 73 67 74 75 75 68 76 74 77
REMARK SMILES IDX 76 78 73 79 69 80 70 81 71 82 72 83 51 84 52 85 60 86 53 87
REMARK SMILES IDX 59 88 61 89 58 90 54 91 55 92 56 93 57 94
REMARK H PARENT 18 6 10 15 22 28 81 47 49 58
REMARK Flexibility Score: inf
ROOT
ATOM      1  C   UNL A   1      35.722  21.565  25.694  1.00  0.00     0.042 C 
ENDROOT
BRANCH   1   2
ATOM      2  C   UNL A   1      35.421  22.854  26.444  1.00  0.00     0.118 C 
BRANCH   2   3
ATOM      3  N   UNL A   1      35.186  23.978  25.558  1.00  0.00    -0.352 N 
ATOM      4  C   UNL A   1      34.042  24.535  25.062  1.00  0.00     0.254 C 
ATOM      5  O   UNL A   1      34.201  25.466  24.269  1.00  0.00    -0.269 OA
ATOM      6  H   UNL A   1      36.009  24.425  25.256  1.00  0.00     0.163 HD
BRANCH   4   7
ATOM      7  C   UNL A   1      32.692  24.059  25.386  1.00  0.00     0.074 A 
ATOM      8  C   UNL A   1      31.691  24.582  26.189  1.00  0.00     0.108 A 
ATOM      9  S   UNL A   1      30.450  23.447  26.514  1.00  0.00    -0.126 S 
ATOM     10  C   UNL A   1      31.003  22.402  25.292  1.00  0.00     0.068 A 
ATOM     11  C   UNL A   1      32.204  22.831  24.782  1.00  0.00     0.028 A 
BRANCH   8  12
ATOM     12  N   UNL A   1      31.491  25.738  26.899  1.00  0.00    -0.317 N 
ATOM     13  C   UNL A   1      31.337  27.027  26.483  1.00  0.00     0.228 C 
ATOM     14  O   UNL A   1      31.348  27.898  27.363  1.00  0.00    -0.274 OA
ATOM     15  H   UNL A   1      31.454  25.617  27.874  1.00  0.00     0.170 HD
BRANCH  13  16
ATOM     16  C   UNL A   1      30.981  27.439  25.056  1.00  0.00     0.082 C 
ATOM     17  C   UNL A   1      28.056  30.949  23.369  1.00  0.00     0.114 C 
ATOM     18  C   UNL A   1      28.049  29.444  23.261  1.00  0.00     0.219 C 
ATOM     19  O   UNL A   1      26.980  28.840  23.193  1.00  0.00    -0.275 OA
ATOM     20  N   UNL A   1      29.282  28.811  23.216  1.00  0.00    -0.343 N 
ATOM     21  C   UNL A   1      29.346  27.358  23.100  1.00  0.00     0.120 C 
ATOM     22  C   UNL A   1      30.552  29.433  23.563  1.00  0.00     0.120 C 
ATOM     23  C   UNL A   1      29.766  26.750  24.434  1.00  0.00     0.035 C 
ATOM     24  C   UNL A   1      30.950  28.974  24.959  1.00  0.00     0.035 C 
ENDBRANCH  13  16
ENDBRANCH   8  12
ENDBRANCH   4   7
ENDBRANCH   2   3
ENDBRANCH   1   2
BRANCH   1  25
ATOM     25  C   UNL A   1      36.967  21.665  24.815  1.00  0.00     0.118 C 
BRANCH  25  26
ATOM     26  N   UNL A   1      37.959  20.629  25.080  1.00  0.00    -0.352 N 
ATOM     27  C   UNL A   1      39.141  20.674  25.787  1.00  0.00     0.251 C 
ATOM     28  H   UNL A   1      37.749  19.751  24.689  1.00  0.00     0.163 HD
ATOM     29  O   UNL A   1      39.879  19.692  25.802  1.00  0.00    -0.269 OA
BRANCH  27  30
ATOM     30  C   UNL A   1      39.553  21.918  26.472  1.00  0.00     0.039 A 
ATOM     31  C   UNL A   1      40.516  21.850  27.482  1.00  0.00     0.014 A 
ATOM     32  C   UNL A   1      39.037  23.154  26.089  1.00  0.00     0.014 A 
ATOM     33  C   UNL A   1      41.059  23.028  28.003  1.00  0.00     0.010 A 
ATOM     34  C   UNL A   1      39.655  24.321  26.522  1.00  0.00     0.010 A 
ATOM     35  C   UNL A   1      40.692  24.272  27.466  1.00  0.00    -0.014 A 
BRANCH  35  36
ATOM     36  C   UNL A   1      41.400  25.531  27.830  1.00  0.00     0.031 A 
ATOM     37  C   UNL A   1      40.679  26.610  28.589  1.00  0.00     0.074 A 
ATOM     38  C   UNL A   1      42.649  25.753  27.366  1.00  0.00     0.049 A 
ATOM     39  N   UNL A   1      41.047  27.842  28.835  1.00  0.00    -0.248 NA
ATOM     40  C   UNL A   1      39.343  26.269  29.100  1.00  0.00     0.031 C 
ATOM     41  C   UNL A   1      43.441  24.806  26.575  1.00  0.00     0.029 A 
ATOM     42  N   UNL A   1      43.465  26.851  27.474  1.00  0.00    -0.354 N 
ATOM     43  C   UNL A   1      39.979  28.431  29.500  1.00  0.00     0.074 A 
ATOM     44  C   UNL A   1      38.926  27.438  29.560  1.00  0.00     0.031 C 
ATOM     45  C   UNL A   1      44.634  25.354  26.296  1.00  0.00     0.029 A 
ATOM     46  C   UNL A   1      44.672  26.710  26.829  1.00  0.00     0.049 A 
ATOM     47  H   UNL A   1      43.211  27.664  27.968  1.00  0.00     0.167 HD
ATOM     48  C   UNL A   1      39.892  29.675  30.035  1.00  0.00     0.034 A 
ATOM     49  C   UNL A   1      45.687  27.582  26.660  1.00  0.00     0.034 A 
ATOM     50  C   UNL A   1      40.963  30.641  29.994  1.00  0.00     0.049 A 
ATOM     51  C   UNL A   1      45.556  28.970  27.230  1.00  0.00     0.074 A 
ATOM     52  C   UNL A   1      41.019  31.894  30.578  1.00  0.00     0.029 A 
ATOM     53  N   UNL A   1      42.165  30.462  29.321  1.00  0.00    -0.354 N 
ATOM     54  N   UNL A   1      44.557  29.496  27.899  1.00  0.00    -0.248 NA
ATOM     55  C   UNL A   1      46.686  29.883  27.015  1.00  0.00     0.031 C 
ATOM     56  C   UNL A   1      42.226  32.497  30.208  1.00  0.00     0.029 A 
ATOM     57  C   UNL A   1      42.952  31.598  29.444  1.00  0.00     0.049 A 
ATOM     58  H   UNL A   1      42.421  29.650  28.830  1.00  0.00     0.167 HD
ATOM     59  C   UNL A   1      44.945  30.798  28.197  1.00  0.00     0.074 A 
ATOM     60  C   UNL A   1      46.275  30.971  27.650  1.00  0.00     0.031 C 
ATOM     61  C   UNL A   1      44.265  31.763  28.867  1.00  0.00     0.034 A 
BRANCH  48  62
ATOM     62  C   UNL A   1      38.585  30.057  30.690  1.00  0.00     0.023 A 
ATOM     63  C   UNL A   1      37.588  30.759  29.991  1.00  0.00     0.031 A 
ATOM     64  C   UNL A   1      38.349  29.758  32.044  1.00  0.00     0.131 A 
ATOM     65  C   UNL A   1      36.452  31.225  30.668  1.00  0.00     0.055 A 
ATOM     66  C   UNL A   1      37.173  30.147  32.690  1.00  0.00     0.041 A 
ATOM     67  F   UNL A   1      39.269  29.103  32.771  1.00  0.00    -0.206 F 
ATOM     68  C   UNL A   1      36.225  30.902  32.007  1.00  0.00     0.022 A 
BRANCH  65  69
ATOM     69  S   UNL A   1      35.362  32.397  29.815  1.00  0.00     0.124 S 
ATOM     70  O   UNL A   1      34.908  31.601  28.676  1.00  0.00    -0.237 OA
ATOM     71  O   UNL A   1      34.358  32.691  30.830  1.00  0.00    -0.237 OA
ATOM     72  O   UNL A   1      36.250  33.507  29.474  1.00  0.00    -0.744 OA
ENDBRANCH  65  69
ENDBRANCH  48  62
BRANCH  49  73
ATOM     73  C   UNL A   1      46.903  27.185  25.896  1.00  0.00     0.023 A 
ATOM     74  C   UNL A   1      47.105  27.639  24.583  1.00  0.00     0.031 A 
ATOM     75  C   UNL A   1      47.868  26.329  26.455  1.00  0.00     0.131 A 
ATOM     76  C   UNL A   1      48.227  27.207  23.859  1.00  0.00     0.055 A 
ATOM     77  C   UNL A   1      49.005  25.938  25.747  1.00  0.00     0.041 A 
ATOM     78  F   UNL A   1      47.725  25.873  27.710  1.00  0.00    -0.206 F 
ATOM     79  C   UNL A   1      49.186  26.369  24.436  1.00  0.00     0.022 A 
BRANCH  76  80
ATOM     80  S   UNL A   1      48.388  27.708  22.123  1.00  0.00     0.124 S 
ATOM     81  O   UNL A   1      47.167  28.482  21.923  1.00  0.00    -0.237 OA
ATOM     82  O   UNL A   1      49.633  28.468  22.141  1.00  0.00    -0.237 OA
ATOM     83  O   UNL A   1      48.446  26.437  21.406  1.00  0.00    -0.744 OA
ENDBRANCH  76  80
ENDBRANCH  49  73
BRANCH  61  84
ATOM     84  C   UNL A   1      44.967  33.083  29.055  1.00  0.00     0.023 A 
ATOM     85  C   UNL A   1      44.638  34.204  28.274  1.00  0.00     0.031 A 
ATOM     86  C   UNL A   1      45.972  33.220  30.028  1.00  0.00     0.131 A 
ATOM     87  C   UNL A   1      45.340  35.407  28.452  1.00  0.00     0.055 A 
ATOM     88  C   UNL A   1      46.630  34.433  30.235  1.00  0.00     0.041 A 
ATOM     89  F   UNL A   1      46.323  32.179  30.798  1.00  0.00    -0.206 F 
ATOM     90  C   UNL A   1      46.321  35.532  29.438  1.00  0.00     0.022 A 
BRANCH  87  91
ATOM     91  S   UNL A   1      44.993  36.792  27.334  1.00  0.00     0.124 S 
ATOM     92  O   UNL A   1      43.860  36.285  26.566  1.00  0.00    -0.237 OA
ATOM     93  O   UNL A   1      44.698  37.879  28.262  1.00  0.00    -0.237 OA
ATOM     94  O   UNL A   1      46.236  36.943  26.579  1.00  0.00    -0.744 OA
ENDBRANCH  87  91
ENDBRANCH  61  84
ENDBRANCH  35  36
ENDBRANCH  27  30
ENDBRANCH  25  26
ENDBRANCH   1  25
TORSDOF 15
ENDMDL
MODEL 3
REMARK VINA RESULT:     -12.4      4.902      8.125
REMARK SMILES CC(=O)N1CCC(C(=O)Nc2sccc2C(=O)NCCCNC(=O)c2ccc(-c3c4nc(c(-c5cc(S(=O)(=O)[O-])ccc5F)c5ccc([nH]5)c(-c5cc(S(=O)(=O)[O-])ccc5F)c5nc(c(-c6cc(S(=O)(=O)[O-])ccc6F)c6ccc3[nH]6)C=C5)C=C4)cc2)CC1
REMARK SMILES IDX 20 1 19 2 18 3 16 4 17 5 15 7 11 8 12 9 13 10 14 11 10 12
REMARK SMILES IDX 8 13 9 14 7 16 1 17 2 18 3 19 4 20 5 21 89 22 6 23 88 24
REMARK SMILES IDX 21 25 22 26 23 27 24 29 25 30 26 31 87 32 27 33 86 34 28 35
REMARK SMILES IDX 29 36 30 37 80 38 31 39 85 40 79 41 81 42 32 43 84 44 78 45
REMARK SMILES IDX 77 46 33 48 65 49 45 50 64 51 46 52 49 53 63 54 82 55 47 56
REMARK SMILES IDX 48 57 62 59 83 60 50 61 34 62 35 63 43 64 36 65 42 66 44 67
REMARK SMILES IDX 41 68 37 69 38 70 39 71 40 72 66 73 67 74 75 75 68 76 74 77
REMARK SMILES IDX 76 78 73 79 69 80 70 81 71 82 72 83 51 84 52 85 60 86 53 87
REMARK SMILES IDX 59 88 61 89 58 90 54 91 55 92 56 93 57 94
REMARK H PARENT 18 6 10 15 22 28 81 47 49 58
REMARK Flexibility Score: inf
ROOT
ATOM      1  C   UNL A   1      36.044  21.062  25.166  1.00  0.00     0.042 C 
ENDROOT
BRANCH   1   2
ATOM      2  C   UNL A   1      35.398  22.016  26.161  1.00  0.00     0.118 C 
BRANCH   2   3
ATOM      3  N   UNL A   1      35.250  23.360  25.635  1.00  0.00    -0.352 N 
ATOM      4  C   UNL A   1      34.153  24.127  25.367  1.00  0.00     0.254 C 
ATOM      5  O   UNL A   1      34.382  25.228  24.860  1.00  0.00    -0.269 OA
ATOM      6  H   UNL A   1      36.105  23.803  25.432  1.00  0.00     0.163 HD
BRANCH   4   7
ATOM      7  C   UNL A   1      32.771  23.693  25.608  1.00  0.00     0.074 A 
ATOM      8  C   UNL A   1      31.735  24.256  26.335  1.00  0.00     0.108 A 
ATOM      9  S   UNL A   1      30.444  23.160  26.593  1.00  0.00    -0.126 S 
ATOM     10  C   UNL A   1      31.047  22.081  25.424  1.00  0.00     0.068 A 
ATOM     11  C   UNL A   1      32.290  22.470  24.990  1.00  0.00     0.028 A 
BRANCH   8  12
ATOM     12  N   UNL A   1      31.522  25.427  27.015  1.00  0.00    -0.317 N 
ATOM     13  C   UNL A   1      31.411  26.711  26.571  1.00  0.00     0.228 C 
ATOM     14  O   UNL A   1      31.394  27.597  27.435  1.00  0.00    -0.274 OA
ATOM     15  H   UNL A   1      31.435  25.324  27.990  1.00  0.00     0.170 HD
BRANCH  13  16
ATOM     16  C   UNL A   1      31.131  27.103  25.121  1.00  0.00     0.082 C 
ATOM     17  C   UNL A   1      28.860  30.974  23.230  1.00  0.00     0.114 C 
ATOM     18  C   UNL A   1      28.593  29.490  23.200  1.00  0.00     0.219 C 
ATOM     19  O   UNL A   1      27.435  29.077  23.153  1.00  0.00    -0.275 OA
ATOM     20  N   UNL A   1      29.697  28.651  23.198  1.00  0.00    -0.343 N 
ATOM     21  C   UNL A   1      29.508  27.205  23.157  1.00  0.00     0.120 C 
ATOM     22  C   UNL A   1      31.056  29.061  23.524  1.00  0.00     0.120 C 
ATOM     23  C   UNL A   1      29.816  26.604  24.525  1.00  0.00     0.035 C 
ATOM     24  C   UNL A   1      31.368  28.614  24.945  1.00  0.00     0.035 C 
ENDBRANCH  13  16
ENDBRANCH   8  12
ENDBRANCH   4   7
ENDBRANCH   2   3
ENDBRANCH   1   2
BRANCH   1  25
ATOM     25  C   UNL A   1      37.476  21.454  24.810  1.00  0.00     0.118 C 
BRANCH  25  26
ATOM     26  N   UNL A   1      38.482  20.526  25.316  1.00  0.00    -0.352 N 
ATOM     27  C   UNL A   1      39.579  20.740  26.124  1.00  0.00     0.251 C 
ATOM     28  H   UNL A   1      38.358  19.592  25.034  1.00  0.00     0.163 HD
ATOM     29  O   UNL A   1      40.357  19.817  26.350  1.00  0.00    -0.269 OA
BRANCH  27  30
ATOM     30  C   UNL A   1      39.854  22.089  26.664  1.00  0.00     0.039 A 
ATOM     31  C   UNL A   1      40.887  22.250  27.591  1.00  0.00     0.014 A 
ATOM     32  C   UNL A   1      39.139  23.200  26.224  1.00  0.00     0.014 A 
ATOM     33  C   UNL A   1      41.291  23.536  27.963  1.00  0.00     0.010 A 
ATOM     34  C   UNL A   1      39.612  24.477  26.503  1.00  0.00     0.010 A 
ATOM     35  C   UNL A   1      40.710  24.661  27.356  1.00  0.00    -0.014 A 
BRANCH  35  36
ATOM     36  C   UNL A   1      41.253  26.034  27.551  1.00  0.00     0.031 A 
ATOM     37  C   UNL A   1      42.616  26.389  27.024  1.00  0.00     0.074 A 
ATOM     38  C   UNL A   1      40.573  26.919  28.311  1.00  0.00     0.049 A 
ATOM     39  N   UNL A   1      43.343  27.454  27.249  1.00  0.00    -0.248 NA
ATOM     40  C   UNL A   1      43.265  25.389  26.164  1.00  0.00     0.031 C 
ATOM     41  C   UNL A   1      39.262  26.681  28.924  1.00  0.00     0.029 A 
ATOM     42  N   UNL A   1      40.897  28.189  28.718  1.00  0.00    -0.354 N 
ATOM     43  C   UNL A   1      44.545  27.239  26.586  1.00  0.00     0.074 A 
ATOM     44  C   UNL A   1      44.470  25.914  26.007  1.00  0.00     0.031 C 
ATOM     45  C   UNL A   1      38.886  27.777  29.601  1.00  0.00     0.029 A 
ATOM     46  C   UNL A   1      39.949  28.771  29.528  1.00  0.00     0.049 A 
ATOM     47  H   UNL A   1      41.730  28.643  28.454  1.00  0.00     0.167 HD
ATOM     48  C   UNL A   1      45.604  28.078  26.451  1.00  0.00     0.034 A 
ATOM     49  C   UNL A   1      39.945  29.960  30.165  1.00  0.00     0.034 A 
ATOM     50  C   UNL A   1      45.648  29.406  27.009  1.00  0.00     0.049 A 
ATOM     51  C   UNL A   1      41.144  30.861  30.032  1.00  0.00     0.074 A 
ATOM     52  C   UNL A   1      46.626  30.373  26.861  1.00  0.00     0.029 A 
ATOM     53  N   UNL A   1      44.671  29.954  27.832  1.00  0.00    -0.354 N 
ATOM     54  N   UNL A   1      42.254  30.661  29.360  1.00  0.00    -0.248 NA
ATOM     55  C   UNL A   1      41.093  32.142  30.747  1.00  0.00     0.031 C 
ATOM     56  C   UNL A   1      46.274  31.479  27.643  1.00  0.00     0.029 A 
ATOM     57  C   UNL A   1      45.044  31.229  28.230  1.00  0.00     0.049 A 
ATOM     58  H   UNL A   1      43.837  29.503  28.094  1.00  0.00     0.167 HD
ATOM     59  C   UNL A   1      43.028  31.800  29.562  1.00  0.00     0.074 A 
ATOM     60  C   UNL A   1      42.251  32.687  30.403  1.00  0.00     0.031 C 
ATOM     61  C   UNL A   1      44.268  32.089  29.092  1.00  0.00     0.034 A 
BRANCH  48  62
ATOM     62  C   UNL A   1      46.800  27.563  25.684  1.00  0.00     0.023 A 
ATOM     63  C   UNL A   1      47.076  27.992  24.375  1.00  0.00     0.031 A 
ATOM     64  C   UNL A   1      47.649  26.595  26.250  1.00  0.00     0.131 A 
ATOM     65  C   UNL A   1      48.105  27.386  23.640  1.00  0.00     0.055 A 
ATOM     66  C   UNL A   1      48.729  26.061  25.544  1.00  0.00     0.041 A 
ATOM     67  F   UNL A   1      47.429  26.133  27.491  1.00  0.00    -0.206 F 
ATOM     68  C   UNL A   1      48.951  26.441  24.224  1.00  0.00     0.022 A 
BRANCH  65  69
ATOM     69  S   UNL A   1      48.214  27.732  21.863  1.00  0.00     0.124 S 
ATOM     70  O   UNL A   1      49.357  28.641  21.811  1.00  0.00    -0.237 OA
ATOM     71  O   UNL A   1      48.425  26.406  21.295  1.00  0.00    -0.237 OA
ATOM     72  O   UNL A   1      46.925  28.347  21.553  1.00  0.00    -0.744 OA
ENDBRANCH  65  69
ENDBRANCH  48  62
BRANCH  49  73
ATOM     73  C   UNL A   1      38.784  30.359  31.009  1.00  0.00     0.023 A 
ATOM     74  C   UNL A   1      37.702  31.062  30.455  1.00  0.00     0.031 A 
ATOM     75  C   UNL A   1      38.747  30.066  32.384  1.00  0.00     0.131 A 
ATOM     76  C   UNL A   1      36.646  31.481  31.278  1.00  0.00     0.055 A 
ATOM     77  C   UNL A   1      37.673  30.446  33.189  1.00  0.00     0.041 A 
ATOM     78  F   UNL A   1      39.753  29.390  32.960  1.00  0.00    -0.206 F 
ATOM     79  C   UNL A   1      36.617  31.167  32.639  1.00  0.00     0.022 A 
BRANCH  76  80
ATOM     80  S   UNL A   1      35.331  32.500  30.554  1.00  0.00     0.124 S 
ATOM     81  O   UNL A   1      35.991  33.797  30.437  1.00  0.00    -0.237 OA
ATOM     82  O   UNL A   1      35.061  31.802  29.302  1.00  0.00    -0.237 OA
ATOM     83  O   UNL A   1      34.262  32.431  31.547  1.00  0.00    -0.744 OA
ENDBRANCH  76  80
ENDBRANCH  49  73
BRANCH  61  84
ATOM     84  C   UNL A   1      44.843  33.430  29.468  1.00  0.00     0.023 A 
ATOM     85  C   UNL A   1      44.488  34.599  28.774  1.00  0.00     0.031 A 
ATOM     86  C   UNL A   1      45.754  33.538  30.533  1.00  0.00     0.131 A 
ATOM     87  C   UNL A   1      45.073  35.824  29.127  1.00  0.00     0.055 A 
ATOM     88  C   UNL A   1      46.293  34.767  30.912  1.00  0.00     0.041 A 
ATOM     89  F   UNL A   1      46.126  32.451  31.226  1.00  0.00    -0.206 F 
ATOM     90  C   UNL A   1      45.960  35.918  30.203  1.00  0.00     0.022 A 
BRANCH  87  91
ATOM     91  S   UNL A   1      44.704  37.288  28.124  1.00  0.00     0.124 S 
ATOM     92  O   UNL A   1      43.512  37.814  28.781  1.00  0.00    -0.237 OA
ATOM     93  O   UNL A   1      45.918  38.086  28.272  1.00  0.00    -0.237 OA
ATOM     94  O   UNL A   1      44.484  36.741  26.786  1.00  0.00    -0.744 OA
ENDBRANCH  87  91
ENDBRANCH  61  84
ENDBRANCH  35  36
ENDBRANCH  27  30
ENDBRANCH  25  26
ENDBRANCH   1  25
TORSDOF 15
ENDMDL
