MODEL 1
REMARK VINA RESULT:     -10.6      0.000      0.000
REMARK SMILES COCC[C@H](NC(=O)c1ccc(Br)nc1)C(=O)NCCCNC(=O)c1ccc(-c2c3nc(c(-c4cc(S(=O)(=O)[O-])ccc4F)c4ccc([nH]4)c(-c4cc(S(=O)(=O)[O-])ccc4F)c4nc(c(-c5cc(S(=O)(=O)[O-])ccc5F)c5ccc2[nH]5)C=C4)C=C3)cc1
REMARK SMILES IDX 20 1 19 2 18 3 16 4 17 5 5 7 4 8 3 9 2 10 1 11 6 12 7 13
REMARK SMILES IDX 8 15 9 16 10 17 15 18 11 19 14 20 12 21 13 22 21 23 22 24
REMARK SMILES IDX 23 25 24 27 25 28 26 29 87 30 27 31 86 32 28 33 29 34 30 35
REMARK SMILES IDX 80 36 31 37 85 38 79 39 81 40 32 41 84 42 78 43 77 44 33 46
REMARK SMILES IDX 65 47 45 48 64 49 46 50 49 51 63 52 82 53 47 54 48 55 62 57
REMARK SMILES IDX 83 58 50 59 34 60 35 61 43 62 36 63 42 64 44 65 41 66 37 67
REMARK SMILES IDX 38 68 39 69 40 70 66 71 67 72 75 73 68 74 74 75 76 76 73 77
REMARK SMILES IDX 69 78 70 79 71 80 72 81 51 82 52 83 60 84 53 85 59 86 61 87
REMARK SMILES IDX 58 88 54 89 55 90 56 91 57 92
REMARK H PARENT 18 6 6 14 22 26 81 45 49 56
REMARK Flexibility Score: inf
ROOT
ATOM      1  C   UNL A   1      31.734  31.700  26.852  1.00  0.00     0.042 C 
ENDROOT
BRANCH   1   2
ATOM      2  C   UNL A   1      31.906  30.191  26.851  1.00  0.00     0.117 C 
BRANCH   2   3
ATOM      3  N   UNL A   1      33.292  29.813  27.062  1.00  0.00    -0.354 N 
ATOM      4  C   UNL A   1      34.006  28.757  26.593  1.00  0.00     0.242 C 
ATOM      5  O   UNL A   1      35.163  28.627  27.002  1.00  0.00    -0.273 OA
ATOM      6  H   UNL A   1      33.798  30.425  27.642  1.00  0.00     0.163 HD
BRANCH   4   7
ATOM      7  C   UNL A   1      33.412  27.765  25.580  1.00  0.00     0.173 C 
BRANCH   7   8
ATOM      8  C   UNL A   1      33.534  26.287  25.988  1.00  0.00     0.063 C 
BRANCH   8   9
ATOM      9  C   UNL A   1      32.274  25.438  25.817  1.00  0.00     0.162 C 
BRANCH   9  10
ATOM     10  O   UNL A   1      31.103  26.230  25.641  1.00  0.00    -0.385 OA
ATOM     11  C   UNL A   1      29.886  25.546  25.902  1.00  0.00     0.194 C 
ENDBRANCH   9  10
ENDBRANCH   8   9
ENDBRANCH   7   8
BRANCH   7  12
ATOM     12  N   UNL A   1      33.988  28.043  24.256  1.00  0.00    -0.340 N 
ATOM     13  C   UNL A   1      33.367  28.350  23.075  1.00  0.00     0.253 C 
ATOM     14  H   UNL A   1      34.970  28.002  24.212  1.00  0.00     0.164 HD
ATOM     15  O   UNL A   1      34.010  28.420  22.032  1.00  0.00    -0.269 OA
BRANCH  13  16
ATOM     16  C   UNL A   1      31.914  28.555  23.036  1.00  0.00     0.058 A 
ATOM     17  C   UNL A   1      31.306  29.716  23.506  1.00  0.00     0.018 A 
ATOM     18  C   UNL A   1      31.113  27.557  22.500  1.00  0.00     0.126 A 
ATOM     19  C   UNL A   1      29.915  29.802  23.498  1.00  0.00     0.037 A 
ATOM     20  N   UNL A   1      29.759  27.615  22.479  1.00  0.00    -0.249 NA
ATOM     21  C   UNL A   1      29.190  28.731  22.990  1.00  0.00     0.106 A 
ATOM     22  Br  UNL A   1      27.296  28.821  23.011  1.00  0.00    -0.029 Br
ENDBRANCH  13  16
ENDBRANCH   7  12
ENDBRANCH   4   7
ENDBRANCH   2   3
ENDBRANCH   1   2
BRANCH   1  23
ATOM     23  C   UNL A   1      32.941  32.461  27.382  1.00  0.00     0.118 C 
BRANCH  23  24
ATOM     24  N   UNL A   1      32.648  33.859  27.661  1.00  0.00    -0.352 N 
ATOM     25  C   UNL A   1      33.175  34.676  28.633  1.00  0.00     0.251 C 
ATOM     26  H   UNL A   1      31.980  34.277  27.072  1.00  0.00     0.163 HD
ATOM     27  O   UNL A   1      32.670  35.775  28.843  1.00  0.00    -0.269 OA
BRANCH  25  28
ATOM     28  C   UNL A   1      34.324  34.207  29.436  1.00  0.00     0.039 A 
ATOM     29  C   UNL A   1      34.090  33.470  30.598  1.00  0.00     0.014 A 
ATOM     30  C   UNL A   1      35.633  34.470  29.020  1.00  0.00     0.014 A 
ATOM     31  C   UNL A   1      35.169  32.935  31.304  1.00  0.00     0.010 A 
ATOM     32  C   UNL A   1      36.700  33.861  29.673  1.00  0.00     0.010 A 
ATOM     33  C   UNL A   1      36.480  33.092  30.825  1.00  0.00    -0.014 A 
BRANCH  33  34
ATOM     34  C   UNL A   1      37.638  32.468  31.518  1.00  0.00     0.031 A 
ATOM     35  C   UNL A   1      38.406  31.363  30.843  1.00  0.00     0.074 A 
ATOM     36  C   UNL A   1      37.946  32.841  32.776  1.00  0.00     0.049 A 
ATOM     37  N   UNL A   1      39.381  30.626  31.310  1.00  0.00    -0.248 NA
ATOM     38  C   UNL A   1      37.996  31.015  29.474  1.00  0.00     0.031 C 
ATOM     39  C   UNL A   1      37.239  33.862  33.552  1.00  0.00     0.029 A 
ATOM     40  N   UNL A   1      38.922  32.395  33.632  1.00  0.00    -0.354 N 
ATOM     41  C   UNL A   1      39.683  29.714  30.305  1.00  0.00     0.074 A 
ATOM     42  C   UNL A   1      38.749  29.954  29.227  1.00  0.00     0.031 C 
ATOM     43  C   UNL A   1      37.817  33.977  34.760  1.00  0.00     0.029 A 
ATOM     44  C   UNL A   1      38.903  33.009  34.864  1.00  0.00     0.049 A 
ATOM     45  H   UNL A   1      39.575  31.700  33.388  1.00  0.00     0.167 HD
ATOM     46  C   UNL A   1      40.664  28.778  30.276  1.00  0.00     0.034 A 
ATOM     47  C   UNL A   1      39.664  32.804  35.957  1.00  0.00     0.034 A 
ATOM     48  C   UNL A   1      41.605  28.576  31.349  1.00  0.00     0.049 A 
ATOM     49  C   UNL A   1      40.753  31.762  35.898  1.00  0.00     0.074 A 
ATOM     50  C   UNL A   1      42.689  27.716  31.393  1.00  0.00     0.029 A 
ATOM     51  N   UNL A   1      41.572  29.235  32.572  1.00  0.00    -0.354 N 
ATOM     52  N   UNL A   1      41.072  30.957  34.910  1.00  0.00    -0.248 NA
ATOM     53  C   UNL A   1      41.593  31.612  37.092  1.00  0.00     0.031 C 
ATOM     54  C   UNL A   1      43.267  27.803  32.663  1.00  0.00     0.029 A 
ATOM     55  C   UNL A   1      42.595  28.776  33.387  1.00  0.00     0.049 A 
ATOM     56  H   UNL A   1      40.918  29.927  32.821  1.00  0.00     0.167 HD
ATOM     57  C   UNL A   1      42.170  30.226  35.357  1.00  0.00     0.074 A 
ATOM     58  C   UNL A   1      42.467  30.700  36.693  1.00  0.00     0.031 C 
ATOM     59  C   UNL A   1      42.873  29.255  34.720  1.00  0.00     0.034 A 
BRANCH  46  60
ATOM     60  C   UNL A   1      40.748  27.890  29.057  1.00  0.00     0.023 A 
ATOM     61  C   UNL A   1      41.662  28.139  28.019  1.00  0.00     0.031 A 
ATOM     62  C   UNL A   1      39.888  26.785  28.924  1.00  0.00     0.131 A 
ATOM     63  C   UNL A   1      41.646  27.342  26.864  1.00  0.00     0.055 A 
ATOM     64  C   UNL A   1      39.933  25.946  27.809  1.00  0.00     0.041 A 
ATOM     65  F   UNL A   1      38.978  26.509  29.872  1.00  0.00    -0.206 F 
ATOM     66  C   UNL A   1      40.806  26.231  26.763  1.00  0.00     0.022 A 
BRANCH  63  67
ATOM     67  S   UNL A   1      42.642  27.859  25.439  1.00  0.00     0.124 S 
ATOM     68  O   UNL A   1      43.907  28.215  26.078  1.00  0.00    -0.237 OA
ATOM     69  O   UNL A   1      42.660  26.657  24.614  1.00  0.00    -0.237 OA
ATOM     70  O   UNL A   1      41.892  28.985  24.887  1.00  0.00    -0.744 OA
ENDBRANCH  63  67
ENDBRANCH  46  60
BRANCH  47  71
ATOM     71  C   UNL A   1      39.422  33.582  37.208  1.00  0.00     0.023 A 
ATOM     72  C   UNL A   1      40.091  34.792  37.450  1.00  0.00     0.031 A 
ATOM     73  C   UNL A   1      38.554  33.099  38.203  1.00  0.00     0.131 A 
ATOM     74  C   UNL A   1      39.926  35.451  38.678  1.00  0.00     0.055 A 
ATOM     75  C   UNL A   1      38.348  33.788  39.401  1.00  0.00     0.041 A 
ATOM     76  F   UNL A   1      37.883  31.951  38.022  1.00  0.00    -0.206 F 
ATOM     77  C   UNL A   1      39.048  34.964  39.649  1.00  0.00     0.022 A 
BRANCH  74  78
ATOM     78  S   UNL A   1      40.949  36.907  39.027  1.00  0.00     0.124 S 
ATOM     79  O   UNL A   1      39.945  37.962  39.114  1.00  0.00    -0.237 OA
ATOM     80  O   UNL A   1      41.594  36.529  40.279  1.00  0.00    -0.237 OA
ATOM     81  O   UNL A   1      41.838  36.985  37.869  1.00  0.00    -0.744 OA
ENDBRANCH  74  78
ENDBRANCH  47  71
BRANCH  59  82
ATOM     82  C   UNL A   1      44.061  28.678  35.451  1.00  0.00     0.023 A 
ATOM     83  C   UNL A   1      43.920  27.650  36.400  1.00  0.00     0.031 A 
ATOM     84  C   UNL A   1      45.353  29.172  35.197  1.00  0.00     0.131 A 
ATOM     85  C   UNL A   1      45.044  27.189  37.101  1.00  0.00     0.055 A 
ATOM     86  C   UNL A   1      46.474  28.667  35.853  1.00  0.00     0.041 A 
ATOM     87  F   UNL A   1      45.545  30.156  34.303  1.00  0.00    -0.206 F 
ATOM     88  C   UNL A   1      46.323  27.678  36.821  1.00  0.00     0.022 A 
BRANCH  85  89
ATOM     89  S   UNL A   1      44.802  26.002  38.451  1.00  0.00     0.124 S 
ATOM     90  O   UNL A   1      44.712  24.737  37.729  1.00  0.00    -0.237 OA
ATOM     91  O   UNL A   1      46.004  26.194  39.255  1.00  0.00    -0.237 OA
ATOM     92  O   UNL A   1      43.559  26.446  39.079  1.00  0.00    -0.744 OA
ENDBRANCH  85  89
ENDBRANCH  59  82
ENDBRANCH  33  34
ENDBRANCH  25  28
ENDBRANCH  23  24
ENDBRANCH   1  23
TORSDOF 18
ENDMDL
MODEL 2
REMARK VINA RESULT:     -10.5      6.225     11.797
REMARK SMILES COCC[C@H](NC(=O)c1ccc(Br)nc1)C(=O)NCCCNC(=O)c1ccc(-c2c3nc(c(-c4cc(S(=O)(=O)[O-])ccc4F)c4ccc([nH]4)c(-c4cc(S(=O)(=O)[O-])ccc4F)c4nc(c(-c5cc(S(=O)(=O)[O-])ccc5F)c5ccc2[nH]5)C=C4)C=C3)cc1
REMARK SMILES IDX 20 1 19 2 18 3 16 4 17 5 5 7 4 8 3 9 2 10 1 11 6 12 7 13
REMARK SMILES IDX 8 15 9 16 10 17 15 18 11 19 14 20 12 21 13 22 21 23 22 24
REMARK SMILES IDX 23 25 24 27 25 28 26 29 87 30 27 31 86 32 28 33 29 34 30 35
REMARK SMILES IDX 80 36 31 37 85 38 79 39 81 40 32 41 84 42 78 43 77 44 33 46
REMARK SMILES IDX 65 47 45 48 64 49 46 50 49 51 63 52 82 53 47 54 48 55 62 57
REMARK SMILES IDX 83 58 50 59 34 60 35 61 43 62 36 63 42 64 44 65 41 66 37 67
REMARK SMILES IDX 38 68 39 69 40 70 66 71 67 72 75 73 68 74 74 75 76 76 73 77
REMARK SMILES IDX 69 78 70 79 71 80 72 81 51 82 52 83 60 84 53 85 59 86 61 87
REMARK SMILES IDX 58 88 54 89 55 90 56 91 57 92
REMARK H PARENT 18 6 6 14 22 26 81 45 49 56
REMARK Flexibility Score: inf
ROOT
ATOM      1  C   UNL A   1      37.741  20.517  25.002  1.00  0.00     0.042 C 
ENDROOT
BRANCH   1   2
ATOM      2  C   UNL A   1      36.779  21.678  24.814  1.00  0.00     0.117 C 
BRANCH   2   3
ATOM      3  N   UNL A   1      36.135  22.043  26.062  1.00  0.00    -0.354 N 
ATOM      4  C   UNL A   1      35.004  22.757  26.303  1.00  0.00     0.242 C 
ATOM      5  O   UNL A   1      34.723  22.995  27.480  1.00  0.00    -0.273 OA
ATOM      6  H   UNL A   1      36.594  21.719  26.869  1.00  0.00     0.163 HD
BRANCH   4   7
ATOM      7  C   UNL A   1      34.095  23.240  25.161  1.00  0.00     0.173 C 
BRANCH   7   8
ATOM      8  C   UNL A   1      34.450  24.631  24.609  1.00  0.00     0.063 C 
BRANCH   8   9
ATOM      9  C   UNL A   1      33.708  25.811  25.237  1.00  0.00     0.162 C 
BRANCH   9  10
ATOM     10  O   UNL A   1      33.250  26.746  24.266  1.00  0.00    -0.385 OA
ATOM     11  C   UNL A   1      33.937  27.990  24.277  1.00  0.00     0.194 C 
ENDBRANCH   9  10
ENDBRANCH   8   9
ENDBRANCH   7   8
BRANCH   7  12
ATOM     12  N   UNL A   1      32.695  23.139  25.600  1.00  0.00    -0.340 N 
ATOM     13  C   UNL A   1      31.822  22.087  25.514  1.00  0.00     0.253 C 
ATOM     14  H   UNL A   1      32.329  23.951  26.019  1.00  0.00     0.164 HD
ATOM     15  O   UNL A   1      30.641  22.231  25.816  1.00  0.00    -0.269 OA
BRANCH  13  16
ATOM     16  C   UNL A   1      32.282  20.785  25.016  1.00  0.00     0.058 A 
ATOM     17  C   UNL A   1      32.863  19.826  25.843  1.00  0.00     0.018 A 
ATOM     18  C   UNL A   1      32.123  20.491  23.670  1.00  0.00     0.126 A 
ATOM     19  C   UNL A   1      33.337  18.644  25.277  1.00  0.00     0.037 A 
ATOM     20  N   UNL A   1      32.573  19.350  23.094  1.00  0.00    -0.249 NA
ATOM     21  C   UNL A   1      33.181  18.457  23.909  1.00  0.00     0.106 A 
ATOM     22  Br  UNL A   1      33.858  16.869  23.124  1.00  0.00    -0.029 Br
ENDBRANCH  13  16
ENDBRANCH   7  12
ENDBRANCH   4   7
ENDBRANCH   2   3
ENDBRANCH   1   2
BRANCH   1  23
ATOM     23  C   UNL A   1      38.998  20.875  25.783  1.00  0.00     0.118 C 
BRANCH  23  24
ATOM     24  N   UNL A   1      39.915  19.753  25.919  1.00  0.00    -0.352 N 
ATOM     25  C   UNL A   1      41.277  19.768  26.105  1.00  0.00     0.251 C 
ATOM     26  H   UNL A   1      39.503  18.861  25.870  1.00  0.00     0.163 HD
ATOM     27  O   UNL A   1      41.915  18.724  26.007  1.00  0.00    -0.269 OA
BRANCH  25  28
ATOM     28  C   UNL A   1      41.961  21.047  26.393  1.00  0.00     0.039 A 
ATOM     29  C   UNL A   1      42.278  21.902  25.337  1.00  0.00     0.014 A 
ATOM     30  C   UNL A   1      42.258  21.411  27.709  1.00  0.00     0.014 A 
ATOM     31  C   UNL A   1      42.828  23.157  25.608  1.00  0.00     0.010 A 
ATOM     32  C   UNL A   1      42.722  22.694  27.982  1.00  0.00     0.010 A 
ATOM     33  C   UNL A   1      43.016  23.579  26.934  1.00  0.00    -0.014 A 
BRANCH  33  34
ATOM     34  C   UNL A   1      43.530  24.938  27.250  1.00  0.00     0.031 A 
ATOM     35  C   UNL A   1      42.596  25.979  27.809  1.00  0.00     0.074 A 
ATOM     36  C   UNL A   1      44.808  25.255  26.961  1.00  0.00     0.049 A 
ATOM     37  N   UNL A   1      42.820  27.243  28.061  1.00  0.00    -0.248 NA
ATOM     38  C   UNL A   1      41.217  25.548  28.086  1.00  0.00     0.031 C 
ATOM     39  C   UNL A   1      45.791  24.346  26.366  1.00  0.00     0.029 A 
ATOM     40  N   UNL A   1      45.499  26.431  27.112  1.00  0.00    -0.354 N 
ATOM     41  C   UNL A   1      41.607  27.763  28.501  1.00  0.00     0.074 A 
ATOM     42  C   UNL A   1      40.640  26.690  28.425  1.00  0.00     0.031 C 
ATOM     43  C   UNL A   1      46.959  24.993  26.222  1.00  0.00     0.029 A 
ATOM     44  C   UNL A   1      46.800  26.373  26.669  1.00  0.00     0.049 A 
ATOM     45  H   UNL A   1      45.099  27.243  27.502  1.00  0.00     0.167 HD
ATOM     46  C   UNL A   1      41.332  29.013  28.946  1.00  0.00     0.034 A 
ATOM     47  C   UNL A   1      47.752  27.325  26.614  1.00  0.00     0.034 A 
ATOM     48  C   UNL A   1      42.320  30.060  29.043  1.00  0.00     0.049 A 
ATOM     49  C   UNL A   1      47.423  28.708  27.123  1.00  0.00     0.074 A 
ATOM     50  C   UNL A   1      42.172  31.337  29.558  1.00  0.00     0.029 A 
ATOM     51  N   UNL A   1      43.635  29.955  28.609  1.00  0.00    -0.354 N 
ATOM     52  N   UNL A   1      46.289  29.162  27.604  1.00  0.00    -0.248 NA
ATOM     53  C   UNL A   1      48.506  29.698  27.096  1.00  0.00     0.031 C 
ATOM     54  C   UNL A   1      43.375  32.025  29.372  1.00  0.00     0.029 A 
ATOM     55  C   UNL A   1      44.300  31.155  28.814  1.00  0.00     0.049 A 
ATOM     56  H   UNL A   1      44.037  29.148  28.215  1.00  0.00     0.167 HD
ATOM     57  C   UNL A   1      46.534  30.485  27.964  1.00  0.00     0.074 A 
ATOM     58  C   UNL A   1      47.926  30.746  27.662  1.00  0.00     0.031 C 
ATOM     59  C   UNL A   1      45.687  31.401  28.500  1.00  0.00     0.034 A 
BRANCH  46  60
ATOM     60  C   UNL A   1      39.906  29.319  29.337  1.00  0.00     0.023 A 
ATOM     61  C   UNL A   1      39.514  29.442  30.682  1.00  0.00     0.031 A 
ATOM     62  C   UNL A   1      38.918  29.475  28.348  1.00  0.00     0.131 A 
ATOM     63  C   UNL A   1      38.163  29.638  31.003  1.00  0.00     0.055 A 
ATOM     64  C   UNL A   1      37.589  29.753  28.672  1.00  0.00     0.041 A 
ATOM     65  F   UNL A   1      39.226  29.349  27.047  1.00  0.00    -0.206 F 
ATOM     66  C   UNL A   1      37.201  29.821  30.007  1.00  0.00     0.022 A 
BRANCH  63  67
ATOM     67  S   UNL A   1      37.658  29.513  32.740  1.00  0.00     0.124 S 
ATOM     68  O   UNL A   1      36.411  30.274  32.740  1.00  0.00    -0.237 OA
ATOM     69  O   UNL A   1      37.526  28.073  32.928  1.00  0.00    -0.237 OA
ATOM     70  O   UNL A   1      38.761  30.139  33.464  1.00  0.00    -0.744 OA
ENDBRANCH  63  67
ENDBRANCH  46  60
BRANCH  47  71
ATOM     71  C   UNL A   1      49.098  27.023  26.046  1.00  0.00     0.023 A 
ATOM     72  C   UNL A   1      49.439  27.412  24.741  1.00  0.00     0.031 A 
ATOM     73  C   UNL A   1      50.048  26.295  26.785  1.00  0.00     0.131 A 
ATOM     74  C   UNL A   1      50.671  27.025  24.194  1.00  0.00     0.055 A 
ATOM     75  C   UNL A   1      51.297  25.961  26.256  1.00  0.00     0.041 A 
ATOM     76  F   UNL A   1      49.778  25.904  28.041  1.00  0.00    -0.206 F 
ATOM     77  C   UNL A   1      51.608  26.314  24.947  1.00  0.00     0.022 A 
BRANCH  74  78
ATOM     78  S   UNL A   1      50.996  27.383  22.445  1.00  0.00     0.124 S 
ATOM     79  O   UNL A   1      52.314  26.787  22.260  1.00  0.00    -0.237 OA
ATOM     80  O   UNL A   1      49.885  26.703  21.787  1.00  0.00    -0.237 OA
ATOM     81  O   UNL A   1      50.956  28.843  22.383  1.00  0.00    -0.744 OA
ENDBRANCH  74  78
ENDBRANCH  47  71
BRANCH  59  82
ATOM     82  C   UNL A   1      46.265  32.754  28.835  1.00  0.00     0.023 A 
ATOM     83  C   UNL A   1      46.216  33.826  27.928  1.00  0.00     0.031 A 
ATOM     84  C   UNL A   1      46.881  32.969  30.081  1.00  0.00     0.131 A 
ATOM     85  C   UNL A   1      46.822  35.048  28.257  1.00  0.00     0.055 A 
ATOM     86  C   UNL A   1      47.428  34.204  30.427  1.00  0.00     0.041 A 
ATOM     87  F   UNL A   1      46.958  31.979  30.985  1.00  0.00    -0.206 F 
ATOM     88  C   UNL A   1      47.412  35.249  29.508  1.00  0.00     0.022 A 
BRANCH  85  89
ATOM     89  S   UNL A   1      46.910  36.345  26.993  1.00  0.00     0.124 S 
ATOM     90  O   UNL A   1      48.242  36.898  27.219  1.00  0.00    -0.237 OA
ATOM     91  O   UNL A   1      46.735  35.589  25.757  1.00  0.00    -0.237 OA
ATOM     92  O   UNL A   1      45.803  37.235  27.337  1.00  0.00    -0.744 OA
ENDBRANCH  85  89
ENDBRANCH  59  82
ENDBRANCH  33  34
ENDBRANCH  25  28
ENDBRANCH  23  24
ENDBRANCH   1  23
TORSDOF 18
ENDMDL
MODEL 3
REMARK VINA RESULT:     -10.4      3.588      8.923
REMARK SMILES COCC[C@H](NC(=O)c1ccc(Br)nc1)C(=O)NCCCNC(=O)c1ccc(-c2c3nc(c(-c4cc(S(=O)(=O)[O-])ccc4F)c4ccc([nH]4)c(-c4cc(S(=O)(=O)[O-])ccc4F)c4nc(c(-c5cc(S(=O)(=O)[O-])ccc5F)c5ccc2[nH]5)C=C4)C=C3)cc1
REMARK SMILES IDX 20 1 19 2 18 3 16 4 17 5 5 7 4 8 3 9 2 10 1 11 6 12 7 13
REMARK SMILES IDX 8 15 9 16 10 17 15 18 11 19 14 20 12 21 13 22 21 23 22 24
REMARK SMILES IDX 23 25 24 27 25 28 26 29 87 30 27 31 86 32 28 33 29 34 30 35
REMARK SMILES IDX 80 36 31 37 85 38 79 39 81 40 32 41 84 42 78 43 77 44 33 46
REMARK SMILES IDX 65 47 45 48 64 49 46 50 49 51 63 52 82 53 47 54 48 55 62 57
REMARK SMILES IDX 83 58 50 59 34 60 35 61 43 62 36 63 42 64 44 65 41 66 37 67
REMARK SMILES IDX 38 68 39 69 40 70 66 71 67 72 75 73 68 74 74 75 76 76 73 77
REMARK SMILES IDX 69 78 70 79 71 80 72 81 51 82 52 83 60 84 53 85 59 86 61 87
REMARK SMILES IDX 58 88 54 89 55 90 56 91 57 92
REMARK H PARENT 18 6 6 14 22 26 81 45 49 56
REMARK Flexibility Score: inf
ROOT
ATOM      1  C   UNL A   1      32.481  27.742  27.055  1.00  0.00     0.042 C 
ENDROOT
BRANCH   1   2
ATOM      2  C   UNL A   1      32.485  26.468  26.226  1.00  0.00     0.117 C 
BRANCH   2   3
ATOM      3  N   UNL A   1      33.836  26.005  25.970  1.00  0.00    -0.354 N 
ATOM      4  C   UNL A   1      34.289  24.872  25.372  1.00  0.00     0.242 C 
ATOM      5  O   UNL A   1      35.508  24.684  25.360  1.00  0.00    -0.273 OA
ATOM      6  H   UNL A   1      34.543  26.613  26.282  1.00  0.00     0.163 HD
BRANCH   4   7
ATOM      7  C   UNL A   1      33.328  23.863  24.720  1.00  0.00     0.173 C 
BRANCH   7   8
ATOM      8  C   UNL A   1      33.341  22.465  25.360  1.00  0.00     0.063 C 
BRANCH   8   9
ATOM      9  C   UNL A   1      33.957  21.348  24.519  1.00  0.00     0.162 C 
BRANCH   9  10
ATOM     10  O   UNL A   1      35.375  21.445  24.439  1.00  0.00    -0.385 OA
ATOM     11  C   UNL A   1      36.048  21.277  25.679  1.00  0.00     0.194 C 
ENDBRANCH   9  10
ENDBRANCH   8   9
ENDBRANCH   7   8
BRANCH   7  12
ATOM     12  N   UNL A   1      33.591  23.833  23.273  1.00  0.00    -0.340 N 
ATOM     13  C   UNL A   1      33.120  24.646  22.278  1.00  0.00     0.253 C 
ATOM     14  H   UNL A   1      34.199  23.118  22.975  1.00  0.00     0.164 HD
ATOM     15  O   UNL A   1      33.345  24.385  21.100  1.00  0.00    -0.269 OA
BRANCH  13  16
ATOM     16  C   UNL A   1      32.299  25.818  22.609  1.00  0.00     0.058 A 
ATOM     17  C   UNL A   1      30.959  25.718  22.975  1.00  0.00     0.018 A 
ATOM     18  C   UNL A   1      32.883  27.076  22.564  1.00  0.00     0.126 A 
ATOM     19  C   UNL A   1      30.233  26.886  23.204  1.00  0.00     0.037 A 
ATOM     20  N   UNL A   1      32.200  28.226  22.783  1.00  0.00    -0.249 NA
ATOM     21  C   UNL A   1      30.888  28.105  23.087  1.00  0.00     0.106 A 
ATOM     22  Br  UNL A   1      29.898  29.700  23.357  1.00  0.00    -0.029 Br
ENDBRANCH  13  16
ENDBRANCH   7  12
ENDBRANCH   4   7
ENDBRANCH   2   3
ENDBRANCH   1   2
BRANCH   1  23
ATOM     23  C   UNL A   1      33.775  28.539  26.971  1.00  0.00     0.118 C 
BRANCH  23  24
ATOM     24  N   UNL A   1      33.561  29.974  27.095  1.00  0.00    -0.352 N 
ATOM     25  C   UNL A   1      34.313  30.904  27.772  1.00  0.00     0.251 C 
ATOM     26  H   UNL A   1      32.769  30.326  26.630  1.00  0.00     0.163 HD
ATOM     27  O   UNL A   1      33.878  32.041  27.927  1.00  0.00    -0.269 OA
BRANCH  25  28
ATOM     28  C   UNL A   1      35.625  30.515  28.331  1.00  0.00     0.039 A 
ATOM     29  C   UNL A   1      35.681  29.934  29.599  1.00  0.00     0.014 A 
ATOM     30  C   UNL A   1      36.795  30.698  27.588  1.00  0.00     0.014 A 
ATOM     31  C   UNL A   1      36.903  29.468  30.091  1.00  0.00     0.010 A 
ATOM     32  C   UNL A   1      37.992  30.153  28.040  1.00  0.00     0.010 A 
ATOM     33  C   UNL A   1      38.060  29.537  29.299  1.00  0.00    -0.014 A 
BRANCH  33  34
ATOM     34  C   UNL A   1      39.356  28.981  29.770  1.00  0.00     0.031 A 
ATOM     35  C   UNL A   1      40.099  29.663  30.888  1.00  0.00     0.074 A 
ATOM     36  C   UNL A   1      39.897  27.918  29.143  1.00  0.00     0.049 A 
ATOM     37  N   UNL A   1      41.282  29.397  31.380  1.00  0.00    -0.248 NA
ATOM     38  C   UNL A   1      39.439  30.822  31.509  1.00  0.00     0.031 C 
ATOM     39  C   UNL A   1      39.295  27.208  28.011  1.00  0.00     0.029 A 
ATOM     40  N   UNL A   1      41.080  27.255  29.354  1.00  0.00    -0.354 N 
ATOM     41  C   UNL A   1      41.517  30.368  32.349  1.00  0.00     0.074 A 
ATOM     42  C   UNL A   1      40.379  31.261  32.332  1.00  0.00     0.031 C 
ATOM     43  C   UNL A   1      40.103  26.200  27.643  1.00  0.00     0.029 A 
ATOM     44  C   UNL A   1      41.300  26.218  28.477  1.00  0.00     0.049 A 
ATOM     45  H   UNL A   1      41.713  27.500  30.068  1.00  0.00     0.167 HD
ATOM     46  C   UNL A   1      42.575  30.489  33.188  1.00  0.00     0.034 A 
ATOM     47  C   UNL A   1      42.352  25.385  28.351  1.00  0.00     0.034 A 
ATOM     48  C   UNL A   1      43.685  29.569  33.209  1.00  0.00     0.049 A 
ATOM     49  C   UNL A   1      43.514  25.536  29.302  1.00  0.00     0.074 A 
ATOM     50  C   UNL A   1      44.768  29.547  34.072  1.00  0.00     0.029 A 
ATOM     51  N   UNL A   1      43.861  28.513  32.323  1.00  0.00    -0.354 N 
ATOM     52  N   UNL A   1      43.688  26.416  30.261  1.00  0.00    -0.248 NA
ATOM     53  C   UNL A   1      44.613  24.573  29.163  1.00  0.00     0.031 C 
ATOM     54  C   UNL A   1      45.631  28.524  33.665  1.00  0.00     0.029 A 
ATOM     55  C   UNL A   1      45.050  27.855  32.599  1.00  0.00     0.049 A 
ATOM     56  H   UNL A   1      43.233  28.268  31.607  1.00  0.00     0.167 HD
ATOM     57  C   UNL A   1      44.902  26.091  30.858  1.00  0.00     0.074 A 
ATOM     58  C   UNL A   1      45.407  24.925  30.162  1.00  0.00     0.031 C 
ATOM     59  C   UNL A   1      45.542  26.698  31.890  1.00  0.00     0.034 A 
BRANCH  46  60
ATOM     60  C   UNL A   1      42.589  31.669  34.129  1.00  0.00     0.023 A 
ATOM     61  C   UNL A   1      42.145  31.564  35.459  1.00  0.00     0.031 A 
ATOM     62  C   UNL A   1      43.040  32.925  33.686  1.00  0.00     0.131 A 
ATOM     63  C   UNL A   1      42.092  32.705  36.274  1.00  0.00     0.055 A 
ATOM     64  C   UNL A   1      43.062  34.040  34.526  1.00  0.00     0.041 A 
ATOM     65  F   UNL A   1      43.456  33.094  32.420  1.00  0.00    -0.206 F 
ATOM     66  C   UNL A   1      42.572  33.937  35.825  1.00  0.00     0.022 A 
BRANCH  63  67
ATOM     67  S   UNL A   1      41.258  32.586  37.880  1.00  0.00     0.124 S 
ATOM     68  O   UNL A   1      41.346  33.963  38.360  1.00  0.00    -0.237 OA
ATOM     69  O   UNL A   1      39.926  32.123  37.510  1.00  0.00    -0.237 OA
ATOM     70  O   UNL A   1      42.071  31.623  38.618  1.00  0.00    -0.744 OA
ENDBRANCH  63  67
ENDBRANCH  46  60
BRANCH  47  71
ATOM     71  C   UNL A   1      42.374  24.346  27.280  1.00  0.00     0.023 A 
ATOM     72  C   UNL A   1      41.599  23.181  27.383  1.00  0.00     0.031 A 
ATOM     73  C   UNL A   1      43.212  24.481  26.158  1.00  0.00     0.131 A 
ATOM     74  C   UNL A   1      41.715  22.173  26.415  1.00  0.00     0.055 A 
ATOM     75  C   UNL A   1      43.283  23.500  25.167  1.00  0.00     0.041 A 
ATOM     76  F   UNL A   1      43.971  25.578  26.005  1.00  0.00    -0.206 F 
ATOM     77  C   UNL A   1      42.543  22.330  25.300  1.00  0.00     0.022 A 
BRANCH  74  78
ATOM     78  S   UNL A   1      40.841  20.606  26.683  1.00  0.00     0.124 S 
ATOM     79  O   UNL A   1      40.856  20.502  28.137  1.00  0.00    -0.237 OA
ATOM     80  O   UNL A   1      39.545  20.876  26.071  1.00  0.00    -0.237 OA
ATOM     81  O   UNL A   1      41.670  19.629  25.978  1.00  0.00    -0.744 OA
ENDBRANCH  74  78
ENDBRANCH  47  71
BRANCH  59  82
ATOM     82  C   UNL A   1      46.837  26.075  32.355  1.00  0.00     0.023 A 
ATOM     83  C   UNL A   1      46.869  25.100  33.366  1.00  0.00     0.031 A 
ATOM     84  C   UNL A   1      48.057  26.472  31.778  1.00  0.00     0.131 A 
ATOM     85  C   UNL A   1      48.100  24.595  33.810  1.00  0.00     0.055 A 
ATOM     86  C   UNL A   1      49.273  25.922  32.182  1.00  0.00     0.041 A 
ATOM     87  F   UNL A   1      48.085  27.402  30.810  1.00  0.00    -0.206 F 
ATOM     88  C   UNL A   1      49.301  24.987  33.213  1.00  0.00     0.022 A 
BRANCH  85  89
ATOM     89  S   UNL A   1      48.120  23.485  35.244  1.00  0.00     0.124 S 
ATOM     90  O   UNL A   1      48.203  24.428  36.356  1.00  0.00    -0.237 OA
ATOM     91  O   UNL A   1      46.853  22.774  35.106  1.00  0.00    -0.237 OA
ATOM     92  O   UNL A   1      49.314  22.671  35.031  1.00  0.00    -0.744 OA
ENDBRANCH  85  89
ENDBRANCH  59  82
ENDBRANCH  33  34
ENDBRANCH  25  28
ENDBRANCH  23  24
ENDBRANCH   1  23
TORSDOF 18
ENDMDL
