MODEL 1
REMARK VINA RESULT:     -12.5      0.000      0.000
REMARK SMILES CC[C@@H]1CCC[C@@](C[C@@H]2CSc3ccccc32)(C(=O)NCCCNC(=O)c2ccc(-c3c4nc(c(-c5cc(S(=O)(=O)[O-])ccc5F)c5ccc([nH]5)c(-c5cc(S(=O)(=O)[O-])ccc5F)c5nc(c(-c6cc(S(=O)(=O)[O-])ccc6F)c6ccc3[nH]6)C=C5)C=C4)cc2)C1
REMARK SMILES IDX 22 1 21 2 20 3 18 4 19 5 7 7 3 8 4 9 90 10 5 11 6 12 2 13
REMARK SMILES IDX 1 14 8 15 9 16 10 17 17 18 11 19 12 20 16 21 13 22 15 23
REMARK SMILES IDX 14 24 23 25 24 26 25 27 26 29 27 30 28 31 89 32 29 33 88 34
REMARK SMILES IDX 30 35 31 36 32 37 82 38 33 39 87 40 81 41 83 42 34 43 86 44
REMARK SMILES IDX 80 45 79 46 35 48 67 49 47 50 66 51 48 52 51 53 65 54 84 55
REMARK SMILES IDX 49 56 50 57 64 59 85 60 52 61 36 62 37 63 45 64 38 65 44 66
REMARK SMILES IDX 46 67 43 68 39 69 40 70 41 71 42 72 68 73 69 74 77 75 70 76
REMARK SMILES IDX 76 77 78 78 75 79 71 80 72 81 73 82 74 83 53 84 54 85 62 86
REMARK SMILES IDX 55 87 61 88 63 89 60 90 56 91 57 92 58 93 59 94
REMARK H PARENT 20 6 24 28 83 47 51 58
REMARK Flexibility Score: inf
ROOT
ATOM      1  C   UNL A   1      31.634  28.436  27.487  1.00  0.00     0.042 C 
ENDROOT
BRANCH   1   2
ATOM      2  C   UNL A   1      31.444  27.070  26.877  1.00  0.00     0.117 C 
BRANCH   2   3
ATOM      3  N   UNL A   1      30.858  27.031  25.566  1.00  0.00    -0.356 N 
ATOM      4  C   UNL A   1      31.099  26.097  24.603  1.00  0.00     0.226 C 
ATOM      5  O   UNL A   1      30.131  25.791  23.900  1.00  0.00    -0.274 OA
ATOM      6  H   UNL A   1      30.220  27.747  25.342  1.00  0.00     0.163 HD
BRANCH   4   7
ATOM      7  C   UNL A   1      32.503  25.449  24.386  1.00  0.00     0.050 C 
ATOM      8  C   UNL A   1      32.460  26.166  21.848  1.00  0.00    -0.010 C 
ATOM      9  C   UNL A   1      33.583  27.176  22.112  1.00  0.00     0.003 C 
ATOM     10  C   UNL A   1      32.515  25.005  22.864  1.00  0.00     0.020 C 
ATOM     11  C   UNL A   1      33.621  27.623  23.564  1.00  0.00     0.001 C 
ATOM     12  C   UNL A   1      33.692  26.428  24.515  1.00  0.00     0.017 C 
BRANCH   8  13
ATOM     13  C   UNL A   1      32.555  25.673  20.390  1.00  0.00     0.000 C 
ATOM     14  C   UNL A   1      32.981  24.220  20.251  1.00  0.00     0.004 C 
ENDBRANCH   8  13
BRANCH   7  15
ATOM     15  C   UNL A   1      32.656  24.082  25.175  1.00  0.00     0.026 C 
BRANCH  15  16
ATOM     16  C   UNL A   1      33.005  22.681  24.593  1.00  0.00     0.032 C 
ATOM     17  C   UNL A   1      32.261  21.508  25.266  1.00  0.00     0.083 C 
ATOM     18  C   UNL A   1      34.460  22.323  24.451  1.00  0.00    -0.030 A 
ATOM     19  S   UNL A   1      33.399  20.091  25.391  1.00  0.00    -0.125 SA
ATOM     20  C   UNL A   1      34.804  21.052  24.916  1.00  0.00     0.011 A 
ATOM     21  C   UNL A   1      35.440  23.140  23.891  1.00  0.00     0.005 A 
ATOM     22  C   UNL A   1      36.131  20.652  24.991  1.00  0.00     0.015 A 
ATOM     23  C   UNL A   1      36.776  22.741  23.947  1.00  0.00     0.000 A 
ATOM     24  C   UNL A   1      37.123  21.516  24.525  1.00  0.00     0.001 A 
ENDBRANCH  15  16
ENDBRANCH   7  15
ENDBRANCH   4   7
ENDBRANCH   2   3
ENDBRANCH   1   2
BRANCH   1  25
ATOM     25  C   UNL A   1      32.509  29.342  26.632  1.00  0.00     0.118 C 
BRANCH  25  26
ATOM     26  N   UNL A   1      32.343  30.777  26.902  1.00  0.00    -0.352 N 
ATOM     27  C   UNL A   1      33.211  31.751  27.354  1.00  0.00     0.251 C 
ATOM     28  H   UNL A   1      31.434  31.108  26.725  1.00  0.00     0.163 HD
ATOM     29  O   UNL A   1      32.798  32.884  27.540  1.00  0.00    -0.269 OA
BRANCH  27  30
ATOM     30  C   UNL A   1      34.616  31.412  27.671  1.00  0.00     0.039 A 
ATOM     31  C   UNL A   1      34.998  30.093  27.852  1.00  0.00     0.014 A 
ATOM     32  C   UNL A   1      35.552  32.435  27.853  1.00  0.00     0.014 A 
ATOM     33  C   UNL A   1      36.177  29.819  28.523  1.00  0.00     0.010 A 
ATOM     34  C   UNL A   1      36.822  32.133  28.360  1.00  0.00     0.010 A 
ATOM     35  C   UNL A   1      37.114  30.833  28.790  1.00  0.00    -0.014 A 
BRANCH  35  36
ATOM     36  C   UNL A   1      38.358  30.471  29.533  1.00  0.00     0.031 A 
ATOM     37  C   UNL A   1      38.560  30.876  30.971  1.00  0.00     0.074 A 
ATOM     38  C   UNL A   1      39.247  29.651  28.935  1.00  0.00     0.049 A 
ATOM     39  N   UNL A   1      39.526  30.539  31.789  1.00  0.00    -0.248 NA
ATOM     40  C   UNL A   1      37.571  31.787  31.572  1.00  0.00     0.031 C 
ATOM     41  C   UNL A   1      39.159  29.206  27.542  1.00  0.00     0.029 A 
ATOM     42  N   UNL A   1      40.345  28.985  29.422  1.00  0.00    -0.354 N 
ATOM     43  C   UNL A   1      39.284  31.222  32.976  1.00  0.00     0.074 A 
ATOM     44  C   UNL A   1      38.095  32.016  32.769  1.00  0.00     0.031 C 
ATOM     45  C   UNL A   1      40.062  28.242  27.330  1.00  0.00     0.029 A 
ATOM     46  C   UNL A   1      40.876  28.080  28.530  1.00  0.00     0.049 A 
ATOM     47  H   UNL A   1      40.715  29.139  30.321  1.00  0.00     0.167 HD
ATOM     48  C   UNL A   1      39.984  31.181  34.136  1.00  0.00     0.034 A 
ATOM     49  C   UNL A   1      41.902  27.211  28.654  1.00  0.00     0.034 A 
ATOM     50  C   UNL A   1      41.144  30.349  34.339  1.00  0.00     0.049 A 
ATOM     51  C   UNL A   1      42.636  27.153  29.965  1.00  0.00     0.074 A 
ATOM     52  C   UNL A   1      41.927  30.235  35.475  1.00  0.00     0.029 A 
ATOM     53  N   UNL A   1      41.674  29.471  33.403  1.00  0.00    -0.354 N 
ATOM     54  N   UNL A   1      42.391  27.811  31.074  1.00  0.00    -0.248 NA
ATOM     55  C   UNL A   1      43.789  26.249  30.047  1.00  0.00     0.031 C 
ATOM     56  C   UNL A   1      42.955  29.329  35.210  1.00  0.00     0.029 A 
ATOM     57  C   UNL A   1      42.776  28.820  33.933  1.00  0.00     0.049 A 
ATOM     58  H   UNL A   1      41.318  29.332  32.495  1.00  0.00     0.167 HD
ATOM     59  C   UNL A   1      43.354  27.395  31.987  1.00  0.00     0.074 A 
ATOM     60  C   UNL A   1      44.159  26.398  31.312  1.00  0.00     0.031 C 
ATOM     61  C   UNL A   1      43.561  27.814  33.260  1.00  0.00     0.034 A 
BRANCH  48  62
ATOM     62  C   UNL A   1      39.535  32.046  35.290  1.00  0.00     0.023 A 
ATOM     63  C   UNL A   1      40.093  33.326  35.466  1.00  0.00     0.031 A 
ATOM     64  C   UNL A   1      38.658  31.563  36.277  1.00  0.00     0.131 A 
ATOM     65  C   UNL A   1      39.798  34.065  36.620  1.00  0.00     0.055 A 
ATOM     66  C   UNL A   1      38.333  32.321  37.404  1.00  0.00     0.041 A 
ATOM     67  F   UNL A   1      38.095  30.350  36.157  1.00  0.00    -0.206 F 
ATOM     68  C   UNL A   1      38.914  33.572  37.586  1.00  0.00     0.022 A 
BRANCH  65  69
ATOM     69  S   UNL A   1      40.598  35.660  36.946  1.00  0.00     0.124 S 
ATOM     70  O   UNL A   1      39.613  36.602  36.418  1.00  0.00    -0.237 OA
ATOM     71  O   UNL A   1      40.728  35.644  38.400  1.00  0.00    -0.237 OA
ATOM     72  O   UNL A   1      41.848  35.585  36.199  1.00  0.00    -0.744 OA
ENDBRANCH  65  69
ENDBRANCH  48  62
BRANCH  49  73
ATOM     73  C   UNL A   1      42.235  26.310  27.510  1.00  0.00     0.023 A 
ATOM     74  C   UNL A   1      41.713  25.004  27.445  1.00  0.00     0.031 A 
ATOM     75  C   UNL A   1      43.179  26.689  26.541  1.00  0.00     0.131 A 
ATOM     76  C   UNL A   1      42.214  24.097  26.503  1.00  0.00     0.055 A 
ATOM     77  C   UNL A   1      43.608  25.808  25.546  1.00  0.00     0.041 A 
ATOM     78  F   UNL A   1      43.717  27.918  26.564  1.00  0.00    -0.206 F 
ATOM     79  C   UNL A   1      43.143  24.496  25.539  1.00  0.00     0.022 A 
BRANCH  76  80
ATOM     80  S   UNL A   1      41.810  22.331  26.618  1.00  0.00     0.124 S 
ATOM     81  O   UNL A   1      42.627  21.906  27.749  1.00  0.00    -0.237 OA
ATOM     82  O   UNL A   1      40.368  22.369  26.855  1.00  0.00    -0.237 OA
ATOM     83  O   UNL A   1      42.205  21.803  25.316  1.00  0.00    -0.744 OA
ENDBRANCH  76  80
ENDBRANCH  49  73
BRANCH  61  84
ATOM     84  C   UNL A   1      44.700  27.204  34.038  1.00  0.00     0.023 A 
ATOM     85  C   UNL A   1      44.494  26.016  34.766  1.00  0.00     0.031 A 
ATOM     86  C   UNL A   1      45.932  27.863  34.173  1.00  0.00     0.131 A 
ATOM     87  C   UNL A   1      45.496  25.542  35.622  1.00  0.00     0.055 A 
ATOM     88  C   UNL A   1      46.945  27.363  34.993  1.00  0.00     0.041 A 
ATOM     89  F   UNL A   1      46.170  29.006  33.510  1.00  0.00    -0.206 F 
ATOM     90  C   UNL A   1      46.722  26.204  35.732  1.00  0.00     0.022 A 
BRANCH  87  91
ATOM     91  S   UNL A   1      45.211  24.103  36.688  1.00  0.00     0.124 S 
ATOM     92  O   UNL A   1      46.570  23.604  36.889  1.00  0.00    -0.237 OA
ATOM     93  O   UNL A   1      44.588  24.707  37.862  1.00  0.00    -0.237 OA
ATOM     94  O   UNL A   1      44.343  23.240  35.892  1.00  0.00    -0.744 OA
ENDBRANCH  87  91
ENDBRANCH  61  84
ENDBRANCH  35  36
ENDBRANCH  27  30
ENDBRANCH  25  26
ENDBRANCH   1  25
TORSDOF 16
ENDMDL
MODEL 2
REMARK VINA RESULT:     -12.3      1.826      3.319
REMARK SMILES CC[C@@H]1CCC[C@@](C[C@@H]2CSc3ccccc32)(C(=O)NCCCNC(=O)c2ccc(-c3c4nc(c(-c5cc(S(=O)(=O)[O-])ccc5F)c5ccc([nH]5)c(-c5cc(S(=O)(=O)[O-])ccc5F)c5nc(c(-c6cc(S(=O)(=O)[O-])ccc6F)c6ccc3[nH]6)C=C5)C=C4)cc2)C1
REMARK SMILES IDX 22 1 21 2 20 3 18 4 19 5 7 7 3 8 4 9 90 10 5 11 6 12 2 13
REMARK SMILES IDX 1 14 8 15 9 16 10 17 17 18 11 19 12 20 16 21 13 22 15 23
REMARK SMILES IDX 14 24 23 25 24 26 25 27 26 29 27 30 28 31 89 32 29 33 88 34
REMARK SMILES IDX 30 35 31 36 32 37 82 38 33 39 87 40 81 41 83 42 34 43 86 44
REMARK SMILES IDX 80 45 79 46 35 48 67 49 47 50 66 51 48 52 51 53 65 54 84 55
REMARK SMILES IDX 49 56 50 57 64 59 85 60 52 61 36 62 37 63 45 64 38 65 44 66
REMARK SMILES IDX 46 67 43 68 39 69 40 70 41 71 42 72 68 73 69 74 77 75 70 76
REMARK SMILES IDX 76 77 78 78 75 79 71 80 72 81 73 82 74 83 53 84 54 85 62 86
REMARK SMILES IDX 55 87 61 88 63 89 60 90 56 91 57 92 58 93 59 94
REMARK H PARENT 20 6 24 28 83 47 51 58
REMARK Flexibility Score: inf
ROOT
ATOM      1  C   UNL A   1      31.642  28.061  27.213  1.00  0.00     0.042 C 
ENDROOT
BRANCH   1   2
ATOM      2  C   UNL A   1      31.681  26.676  26.618  1.00  0.00     0.117 C 
BRANCH   2   3
ATOM      3  N   UNL A   1      32.983  26.125  26.365  1.00  0.00    -0.356 N 
ATOM      4  C   UNL A   1      33.262  25.044  25.583  1.00  0.00     0.226 C 
ATOM      5  O   UNL A   1      34.317  25.105  24.942  1.00  0.00    -0.274 OA
ATOM      6  H   UNL A   1      33.748  26.571  26.797  1.00  0.00     0.163 HD
BRANCH   4   7
ATOM      7  C   UNL A   1      32.324  23.799  25.495  1.00  0.00     0.050 C 
ATOM      8  C   UNL A   1      34.401  22.194  25.754  1.00  0.00    -0.010 C 
ATOM      9  C   UNL A   1      33.906  21.774  27.143  1.00  0.00     0.003 C 
ATOM     10  C   UNL A   1      33.224  22.655  24.867  1.00  0.00     0.020 C 
ATOM     11  C   UNL A   1      33.026  22.835  27.782  1.00  0.00     0.001 C 
ATOM     12  C   UNL A   1      31.872  23.233  26.861  1.00  0.00     0.017 C 
BRANCH   8  13
ATOM     13  C   UNL A   1      35.188  21.028  25.123  1.00  0.00     0.000 C 
ATOM     14  C   UNL A   1      34.344  19.800  24.820  1.00  0.00     0.004 C 
ENDBRANCH   8  13
BRANCH   7  15
ATOM     15  C   UNL A   1      31.171  23.997  24.424  1.00  0.00     0.026 C 
BRANCH  15  16
ATOM     16  C   UNL A   1      31.243  24.784  23.083  1.00  0.00     0.032 C 
ATOM     17  C   UNL A   1      32.559  24.589  22.300  1.00  0.00     0.083 C 
ATOM     18  C   UNL A   1      30.899  26.249  23.111  1.00  0.00    -0.030 A 
ATOM     19  S   UNL A   1      33.022  26.177  21.534  1.00  0.00    -0.125 SA
ATOM     20  C   UNL A   1      31.794  27.079  22.430  1.00  0.00     0.011 A 
ATOM     21  C   UNL A   1      29.782  26.803  23.731  1.00  0.00     0.005 A 
ATOM     22  C   UNL A   1      31.687  28.461  22.504  1.00  0.00     0.015 A 
ATOM     23  C   UNL A   1      29.657  28.191  23.799  1.00  0.00     0.000 A 
ATOM     24  C   UNL A   1      30.623  29.017  23.216  1.00  0.00     0.001 A 
ENDBRANCH  15  16
ENDBRANCH   7  15
ENDBRANCH   4   7
ENDBRANCH   2   3
ENDBRANCH   1   2
BRANCH   1  25
ATOM     25  C   UNL A   1      32.514  29.050  26.452  1.00  0.00     0.118 C 
BRANCH  25  26
ATOM     26  N   UNL A   1      32.280  30.458  26.799  1.00  0.00    -0.352 N 
ATOM     27  C   UNL A   1      33.098  31.442  27.317  1.00  0.00     0.251 C 
ATOM     28  H   UNL A   1      31.359  30.758  26.627  1.00  0.00     0.163 HD
ATOM     29  O   UNL A   1      32.632  32.544  27.560  1.00  0.00    -0.269 OA
BRANCH  27  30
ATOM     30  C   UNL A   1      34.513  31.149  27.634  1.00  0.00     0.039 A 
ATOM     31  C   UNL A   1      34.928  29.847  27.860  1.00  0.00     0.014 A 
ATOM     32  C   UNL A   1      35.426  32.200  27.771  1.00  0.00     0.014 A 
ATOM     33  C   UNL A   1      36.119  29.626  28.530  1.00  0.00     0.010 A 
ATOM     34  C   UNL A   1      36.706  31.948  28.279  1.00  0.00     0.010 A 
ATOM     35  C   UNL A   1      37.033  30.672  28.753  1.00  0.00    -0.014 A 
BRANCH  35  36
ATOM     36  C   UNL A   1      38.290  30.366  29.498  1.00  0.00     0.031 A 
ATOM     37  C   UNL A   1      38.479  30.798  30.931  1.00  0.00     0.074 A 
ATOM     38  C   UNL A   1      39.209  29.573  28.910  1.00  0.00     0.049 A 
ATOM     39  N   UNL A   1      39.458  30.509  31.751  1.00  0.00    -0.248 NA
ATOM     40  C   UNL A   1      37.457  31.679  31.521  1.00  0.00     0.031 C 
ATOM     41  C   UNL A   1      39.136  29.106  27.523  1.00  0.00     0.029 A 
ATOM     42  N   UNL A   1      40.331  28.955  29.404  1.00  0.00    -0.354 N 
ATOM     43  C   UNL A   1      39.192  31.198  32.930  1.00  0.00     0.074 A 
ATOM     44  C   UNL A   1      37.974  31.943  32.714  1.00  0.00     0.031 C 
ATOM     45  C   UNL A   1      40.074  28.174  27.322  1.00  0.00     0.029 A 
ATOM     46  C   UNL A   1      40.895  28.058  28.523  1.00  0.00     0.049 A 
ATOM     47  H   UNL A   1      40.697  29.135  30.300  1.00  0.00     0.167 HD
ATOM     48  C   UNL A   1      39.895  31.199  34.089  1.00  0.00     0.034 A 
ATOM     49  C   UNL A   1      41.954  27.231  28.657  1.00  0.00     0.034 A 
ATOM     50  C   UNL A   1      41.086  30.414  34.301  1.00  0.00     0.049 A 
ATOM     51  C   UNL A   1      42.691  27.219  29.967  1.00  0.00     0.074 A 
ATOM     52  C   UNL A   1      41.874  30.345  35.437  1.00  0.00     0.029 A 
ATOM     53  N   UNL A   1      41.647  29.544  33.375  1.00  0.00    -0.354 N 
ATOM     54  N   UNL A   1      42.422  27.882  31.068  1.00  0.00    -0.248 NA
ATOM     55  C   UNL A   1      43.877  26.359  30.059  1.00  0.00     0.031 C 
ATOM     56  C   UNL A   1      42.935  29.475  35.182  1.00  0.00     0.029 A 
ATOM     57  C   UNL A   1      42.773  28.943  33.912  1.00  0.00     0.049 A 
ATOM     58  H   UNL A   1      41.295  29.380  32.471  1.00  0.00     0.167 HD
ATOM     59  C   UNL A   1      43.402  27.514  31.984  1.00  0.00     0.074 A 
ATOM     60  C   UNL A   1      44.243  26.539  31.321  1.00  0.00     0.031 C 
ATOM     61  C   UNL A   1      43.595  27.958  33.251  1.00  0.00     0.034 A 
BRANCH  48  62
ATOM     62  C   UNL A   1      39.415  32.062  35.232  1.00  0.00     0.023 A 
ATOM     63  C   UNL A   1      38.731  31.477  36.314  1.00  0.00     0.031 A 
ATOM     64  C   UNL A   1      39.520  33.463  35.194  1.00  0.00     0.131 A 
ATOM     65  C   UNL A   1      38.146  32.289  37.294  1.00  0.00     0.055 A 
ATOM     66  C   UNL A   1      38.974  34.268  36.196  1.00  0.00     0.041 A 
ATOM     67  F   UNL A   1      40.165  34.073  34.187  1.00  0.00    -0.206 F 
ATOM     68  C   UNL A   1      38.271  33.682  37.245  1.00  0.00     0.022 A 
BRANCH  65  69
ATOM     69  S   UNL A   1      37.146  31.580  38.631  1.00  0.00     0.124 S 
ATOM     70  O   UNL A   1      35.946  32.413  38.582  1.00  0.00    -0.237 OA
ATOM     71  O   UNL A   1      36.968  30.202  38.181  1.00  0.00    -0.237 OA
ATOM     72  O   UNL A   1      37.975  31.753  39.819  1.00  0.00    -0.744 OA
ENDBRANCH  65  69
ENDBRANCH  48  62
BRANCH  49  73
ATOM     73  C   UNL A   1      42.319  26.327  27.524  1.00  0.00     0.023 A 
ATOM     74  C   UNL A   1      41.769  25.036  27.427  1.00  0.00     0.031 A 
ATOM     75  C   UNL A   1      43.318  26.688  26.604  1.00  0.00     0.131 A 
ATOM     76  C   UNL A   1      42.292  24.121  26.503  1.00  0.00     0.055 A 
ATOM     77  C   UNL A   1      43.772  25.802  25.625  1.00  0.00     0.041 A 
ATOM     78  F   UNL A   1      43.884  27.904  26.660  1.00  0.00    -0.206 F 
ATOM     79  C   UNL A   1      43.275  24.502  25.588  1.00  0.00     0.022 A 
BRANCH  76  80
ATOM     80  S   UNL A   1      41.840  22.366  26.588  1.00  0.00     0.124 S 
ATOM     81  O   UNL A   1      40.382  22.427  26.595  1.00  0.00    -0.237 OA
ATOM     82  O   UNL A   1      42.446  21.841  25.366  1.00  0.00    -0.237 OA
ATOM     83  O   UNL A   1      42.462  21.910  27.828  1.00  0.00    -0.744 OA
ENDBRANCH  76  80
ENDBRANCH  49  73
BRANCH  61  84
ATOM     84  C   UNL A   1      44.757  27.401  34.035  1.00  0.00     0.023 A 
ATOM     85  C   UNL A   1      44.560  26.308  34.900  1.00  0.00     0.031 A 
ATOM     86  C   UNL A   1      46.011  28.033  34.036  1.00  0.00     0.131 A 
ATOM     87  C   UNL A   1      45.592  25.899  35.753  1.00  0.00     0.055 A 
ATOM     88  C   UNL A   1      47.052  27.595  34.855  1.00  0.00     0.041 A 
ATOM     89  F   UNL A   1      46.243  29.089  33.239  1.00  0.00    -0.206 F 
ATOM     90  C   UNL A   1      46.840  26.531  35.728  1.00  0.00     0.022 A 
BRANCH  87  91
ATOM     91  S   UNL A   1      45.327  24.595  36.985  1.00  0.00     0.124 S 
ATOM     92  O   UNL A   1      46.553  24.676  37.776  1.00  0.00    -0.237 OA
ATOM     93  O   UNL A   1      44.117  25.052  37.662  1.00  0.00    -0.237 OA
ATOM     94  O   UNL A   1      45.179  23.382  36.189  1.00  0.00    -0.744 OA
ENDBRANCH  87  91
ENDBRANCH  61  84
ENDBRANCH  35  36
ENDBRANCH  27  30
ENDBRANCH  25  26
ENDBRANCH   1  25
TORSDOF 16
ENDMDL
MODEL 3
REMARK VINA RESULT:     -12.2      4.960      9.642
REMARK SMILES CC[C@@H]1CCC[C@@](C[C@@H]2CSc3ccccc32)(C(=O)NCCCNC(=O)c2ccc(-c3c4nc(c(-c5cc(S(=O)(=O)[O-])ccc5F)c5ccc([nH]5)c(-c5cc(S(=O)(=O)[O-])ccc5F)c5nc(c(-c6cc(S(=O)(=O)[O-])ccc6F)c6ccc3[nH]6)C=C5)C=C4)cc2)C1
REMARK SMILES IDX 22 1 21 2 20 3 18 4 19 5 7 7 3 8 4 9 90 10 5 11 6 12 2 13
REMARK SMILES IDX 1 14 8 15 9 16 10 17 17 18 11 19 12 20 16 21 13 22 15 23
REMARK SMILES IDX 14 24 23 25 24 26 25 27 26 29 27 30 28 31 89 32 29 33 88 34
REMARK SMILES IDX 30 35 31 36 32 37 82 38 33 39 87 40 81 41 83 42 34 43 86 44
REMARK SMILES IDX 80 45 79 46 35 48 67 49 47 50 66 51 48 52 51 53 65 54 84 55
REMARK SMILES IDX 49 56 50 57 64 59 85 60 52 61 36 62 37 63 45 64 38 65 44 66
REMARK SMILES IDX 46 67 43 68 39 69 40 70 41 71 42 72 68 73 69 74 77 75 70 76
REMARK SMILES IDX 76 77 78 78 75 79 71 80 72 81 73 82 74 83 53 84 54 85 62 86
REMARK SMILES IDX 55 87 61 88 63 89 60 90 56 91 57 92 58 93 59 94
REMARK H PARENT 20 6 24 28 83 47 51 58
REMARK Flexibility Score: inf
ROOT
ATOM      1  C   UNL A   1      36.298  22.971  23.543  1.00  0.00     0.042 C 
ENDROOT
BRANCH   1   2
ATOM      2  C   UNL A   1      34.992  23.715  23.415  1.00  0.00     0.117 C 
BRANCH   2   3
ATOM      3  N   UNL A   1      34.800  24.828  24.303  1.00  0.00    -0.356 N 
ATOM      4  C   UNL A   1      33.632  25.497  24.515  1.00  0.00     0.226 C 
ATOM      5  O   UNL A   1      33.444  25.893  25.670  1.00  0.00    -0.274 OA
ATOM      6  H   UNL A   1      35.588  25.137  24.806  1.00  0.00     0.163 HD
BRANCH   4   7
ATOM      7  C   UNL A   1      32.589  25.759  23.383  1.00  0.00     0.050 C 
ATOM      8  C   UNL A   1      32.354  28.269  24.158  1.00  0.00    -0.010 C 
ATOM      9  C   UNL A   1      33.041  28.735  22.868  1.00  0.00     0.003 C 
ATOM     10  C   UNL A   1      31.655  26.908  23.948  1.00  0.00     0.020 C 
ATOM     11  C   UNL A   1      33.940  27.660  22.279  1.00  0.00     0.001 C 
ATOM     12  C   UNL A   1      33.183  26.346  22.082  1.00  0.00     0.017 C 
BRANCH   8  13
ATOM     13  C   UNL A   1      31.375  29.362  24.632  1.00  0.00     0.000 C 
ATOM     14  C   UNL A   1      30.178  29.567  23.717  1.00  0.00     0.004 C 
ENDBRANCH   8  13
BRANCH   7  15
ATOM     15  C   UNL A   1      31.600  24.535  23.189  1.00  0.00     0.026 C 
BRANCH  15  16
ATOM     16  C   UNL A   1      31.088  23.544  24.275  1.00  0.00     0.032 C 
ATOM     17  C   UNL A   1      30.711  24.209  25.616  1.00  0.00     0.083 C 
ATOM     18  C   UNL A   1      31.915  22.316  24.550  1.00  0.00    -0.030 A 
ATOM     19  S   UNL A   1      31.217  23.106  26.976  1.00  0.00    -0.125 SA
ATOM     20  C   UNL A   1      32.132  22.041  25.902  1.00  0.00     0.011 A 
ATOM     21  C   UNL A   1      32.438  21.464  23.581  1.00  0.00     0.005 A 
ATOM     22  C   UNL A   1      33.002  21.034  26.296  1.00  0.00     0.015 A 
ATOM     23  C   UNL A   1      33.302  20.439  23.967  1.00  0.00     0.000 A 
ATOM     24  C   UNL A   1      33.609  20.246  25.318  1.00  0.00     0.001 A 
ENDBRANCH  15  16
ENDBRANCH   7  15
ENDBRANCH   4   7
ENDBRANCH   2   3
ENDBRANCH   1   2
BRANCH   1  25
ATOM     25  C   UNL A   1      36.564  22.498  24.965  1.00  0.00     0.118 C 
BRANCH  25  26
ATOM     26  N   UNL A   1      37.573  21.436  25.071  1.00  0.00    -0.352 N 
ATOM     27  C   UNL A   1      38.776  21.351  25.745  1.00  0.00     0.251 C 
ATOM     28  H   UNL A   1      37.347  20.625  24.563  1.00  0.00     0.163 HD
ATOM     29  O   UNL A   1      39.461  20.348  25.628  1.00  0.00    -0.269 OA
BRANCH  27  30
ATOM     30  C   UNL A   1      39.262  22.491  26.554  1.00  0.00     0.039 A 
ATOM     31  C   UNL A   1      38.707  23.750  26.399  1.00  0.00     0.014 A 
ATOM     32  C   UNL A   1      40.333  22.310  27.435  1.00  0.00     0.014 A 
ATOM     33  C   UNL A   1      39.410  24.856  26.845  1.00  0.00     0.010 A 
ATOM     34  C   UNL A   1      40.933  23.422  28.039  1.00  0.00     0.010 A 
ATOM     35  C   UNL A   1      40.537  24.715  27.674  1.00  0.00    -0.014 A 
BRANCH  35  36
ATOM     36  C   UNL A   1      41.259  25.949  28.104  1.00  0.00     0.031 A 
ATOM     37  C   UNL A   1      42.641  26.269  27.592  1.00  0.00     0.074 A 
ATOM     38  C   UNL A   1      40.597  26.851  28.859  1.00  0.00     0.049 A 
ATOM     39  N   UNL A   1      43.351  27.355  27.775  1.00  0.00    -0.248 NA
ATOM     40  C   UNL A   1      43.328  25.245  26.789  1.00  0.00     0.031 C 
ATOM     41  C   UNL A   1      39.260  26.640  29.420  1.00  0.00     0.029 A 
ATOM     42  N   UNL A   1      40.905  28.139  29.221  1.00  0.00    -0.354 N 
ATOM     43  C   UNL A   1      44.572  27.129  27.150  1.00  0.00     0.074 A 
ATOM     44  C   UNL A   1      44.522  25.793  26.602  1.00  0.00     0.031 C 
ATOM     45  C   UNL A   1      38.809  27.793  29.926  1.00  0.00     0.029 A 
ATOM     46  C   UNL A   1      39.863  28.798  29.836  1.00  0.00     0.049 A 
ATOM     47  H   UNL A   1      41.784  28.551  29.057  1.00  0.00     0.167 HD
ATOM     48  C   UNL A   1      45.633  27.965  27.033  1.00  0.00     0.034 A 
ATOM     49  C   UNL A   1      39.758  30.069  30.280  1.00  0.00     0.034 A 
ATOM     50  C   UNL A   1      45.649  29.312  27.548  1.00  0.00     0.049 A 
ATOM     51  C   UNL A   1      40.933  30.989  30.100  1.00  0.00     0.074 A 
ATOM     52  C   UNL A   1      46.674  30.239  27.485  1.00  0.00     0.029 A 
ATOM     53  N   UNL A   1      44.589  29.934  28.194  1.00  0.00    -0.354 N 
ATOM     54  N   UNL A   1      42.080  30.753  29.507  1.00  0.00    -0.248 NA
ATOM     55  C   UNL A   1      40.812  32.343  30.654  1.00  0.00     0.031 C 
ATOM     56  C   UNL A   1      46.254  31.401  28.134  1.00  0.00     0.029 A 
ATOM     57  C   UNL A   1      44.940  31.228  28.541  1.00  0.00     0.049 A 
ATOM     58  H   UNL A   1      43.717  29.516  28.379  1.00  0.00     0.167 HD
ATOM     59  C   UNL A   1      42.813  31.929  29.610  1.00  0.00     0.074 A 
ATOM     60  C   UNL A   1      41.964  32.888  30.285  1.00  0.00     0.031 C 
ATOM     61  C   UNL A   1      44.081  32.183  29.198  1.00  0.00     0.034 A 
BRANCH  48  62
ATOM     62  C   UNL A   1      46.873  27.474  26.324  1.00  0.00     0.023 A 
ATOM     63  C   UNL A   1      47.114  27.851  24.989  1.00  0.00     0.031 A 
ATOM     64  C   UNL A   1      47.743  26.543  26.917  1.00  0.00     0.131 A 
ATOM     65  C   UNL A   1      48.174  27.273  24.279  1.00  0.00     0.055 A 
ATOM     66  C   UNL A   1      48.826  26.001  26.220  1.00  0.00     0.041 A 
ATOM     67  F   UNL A   1      47.562  26.151  28.189  1.00  0.00    -0.206 F 
ATOM     68  C   UNL A   1      49.037  26.356  24.890  1.00  0.00     0.022 A 
BRANCH  65  69
ATOM     69  S   UNL A   1      48.438  27.634  22.521  1.00  0.00     0.124 S 
ATOM     70  O   UNL A   1      49.667  28.425  22.559  1.00  0.00    -0.237 OA
ATOM     71  O   UNL A   1      48.575  26.296  21.952  1.00  0.00    -0.237 OA
ATOM     72  O   UNL A   1      47.240  28.366  22.129  1.00  0.00    -0.744 OA
ENDBRANCH  65  69
ENDBRANCH  48  62
BRANCH  49  73
ATOM     73  C   UNL A   1      38.468  30.524  30.882  1.00  0.00     0.023 A 
ATOM     74  C   UNL A   1      37.456  31.083  30.081  1.00  0.00     0.031 A 
ATOM     75  C   UNL A   1      38.284  30.533  32.275  1.00  0.00     0.131 A 
ATOM     76  C   UNL A   1      36.359  31.717  30.680  1.00  0.00     0.055 A 
ATOM     77  C   UNL A   1      37.144  31.084  32.864  1.00  0.00     0.041 A 
ATOM     78  F   UNL A   1      39.224  30.023  33.087  1.00  0.00    -0.206 F 
ATOM     79  C   UNL A   1      36.186  31.703  32.066  1.00  0.00     0.022 A 
BRANCH  76  80
ATOM     80  S   UNL A   1      35.227  32.731  29.689  1.00  0.00     0.124 S 
ATOM     81  O   UNL A   1      34.764  31.779  28.685  1.00  0.00    -0.237 OA
ATOM     82  O   UNL A   1      34.236  33.134  30.685  1.00  0.00    -0.237 OA
ATOM     83  O   UNL A   1      36.076  33.811  29.195  1.00  0.00    -0.744 OA
ENDBRANCH  76  80
ENDBRANCH  49  73
BRANCH  61  84
ATOM     84  C   UNL A   1      44.652  33.556  29.449  1.00  0.00     0.023 A 
ATOM     85  C   UNL A   1      44.396  34.600  28.538  1.00  0.00     0.031 A 
ATOM     86  C   UNL A   1      45.556  33.794  30.497  1.00  0.00     0.131 A 
ATOM     87  C   UNL A   1      45.061  35.824  28.677  1.00  0.00     0.055 A 
ATOM     88  C   UNL A   1      46.183  35.030  30.658  1.00  0.00     0.041 A 
ATOM     89  F   UNL A   1      45.843  32.826  31.382  1.00  0.00    -0.206 F 
ATOM     90  C   UNL A   1      45.946  36.047  29.737  1.00  0.00     0.022 A 
BRANCH  87  91
ATOM     91  S   UNL A   1      44.872  37.137  27.440  1.00  0.00     0.124 S 
ATOM     92  O   UNL A   1      46.107  37.002  26.669  1.00  0.00    -0.237 OA
ATOM     93  O   UNL A   1      43.655  36.731  26.744  1.00  0.00    -0.237 OA
ATOM     94  O   UNL A   1      44.764  38.356  28.234  1.00  0.00    -0.744 OA
ENDBRANCH  87  91
ENDBRANCH  61  84
ENDBRANCH  35  36
ENDBRANCH  27  30
ENDBRANCH  25  26
ENDBRANCH   1  25
TORSDOF 16
ENDMDL
