MODEL 1
REMARK VINA RESULT:     -13.7      0.000      0.000
REMARK SMILES C=C1C[C@@]23CC[C@H]4[C@@](C)(CCC[C@@]4(C)C(=O)NCCCNC(=O)c4ccc(-c5c6nc(c(-c7cc(S(=O)(=O)[O-])ccc7F)c7ccc([nH]7)c(-c7cc(S(=O)(=O)[O-])ccc7F)c7nc(c(-c8cc(S(=O)(=O)[O-])ccc8F)c8ccc5[nH]8)C=C7)C=C6)cc4)[C@H]2CC[C@]1(O)C3
REMARK SMILES IDX 20 1 19 2 18 3 17 4 15 5 16 6 13 8 1 9 2 10 3 11 90 12 4 13
REMARK SMILES IDX 89 14 92 15 5 16 87 17 88 18 6 19 8 20 7 21 9 22 10 23 11 24
REMARK SMILES IDX 12 25 14 26 91 27 21 29 22 30 23 32 24 33 25 34 86 35 26 36
REMARK SMILES IDX 85 37 27 38 28 39 29 40 79 41 30 42 84 43 78 44 80 45 31 46
REMARK SMILES IDX 83 47 77 48 76 49 32 51 64 52 44 53 63 54 45 55 48 56 62 57
REMARK SMILES IDX 81 58 46 59 47 60 61 62 82 63 49 64 33 65 34 66 42 67 35 68
REMARK SMILES IDX 41 69 43 70 40 71 36 72 37 73 38 74 39 75 65 76 66 77 74 78
REMARK SMILES IDX 67 79 73 80 75 81 72 82 68 83 69 84 70 85 71 86 50 87 51 88
REMARK SMILES IDX 59 89 52 90 58 91 60 92 57 93 53 94 54 95 55 96 56 97
REMARK H PARENT 17 7 91 28 21 31 80 50 48 61
REMARK Flexibility Score: inf
ROOT
ATOM      1  C   UNL A   1      37.468  21.333  25.069  1.00  0.00     0.118 C 
ENDROOT
BRANCH   1   2
ATOM      2  C   UNL A   1      36.226  21.444  25.947  1.00  0.00     0.042 C 
BRANCH   2   3
ATOM      3  C   UNL A   1      35.463  22.760  25.791  1.00  0.00     0.117 C 
BRANCH   3   4
ATOM      4  N   UNL A   1      34.626  22.776  24.599  1.00  0.00    -0.356 N 
ATOM      5  C   UNL A   1      33.295  22.690  24.380  1.00  0.00     0.226 C 
ATOM      6  O   UNL A   1      33.044  21.973  23.398  1.00  0.00    -0.274 OA
ATOM      7  H   UNL A   1      35.146  22.870  23.768  1.00  0.00     0.163 HD
BRANCH   5   8
ATOM      8  C   UNL A   1      32.144  23.361  25.209  1.00  0.00     0.050 C 
ATOM      9  C   UNL A   1      31.627  31.419  26.606  1.00  0.00     0.011 C 
ATOM     10  C   UNL A   1      32.047  30.206  26.215  1.00  0.00    -0.045 C 
ATOM     11  C   UNL A   1      31.261  29.249  25.335  1.00  0.00     0.040 C 
ATOM     12  C   UNL A   1      33.190  29.436  26.821  1.00  0.00     0.086 C 
ATOM     13  C   UNL A   1      31.746  27.847  25.820  1.00  0.00    -0.020 C 
ATOM     14  C   UNL A   1      34.315  29.128  25.810  1.00  0.00     0.040 C 
ATOM     15  C   UNL A   1      32.407  28.191  27.180  1.00  0.00     0.047 C 
ATOM     16  C   UNL A   1      30.606  26.899  26.075  1.00  0.00     0.008 C 
ATOM     17  C   UNL A   1      32.889  27.186  24.969  1.00  0.00     0.002 C 
ATOM     18  C   UNL A   1      33.904  28.287  24.556  1.00  0.00     0.008 C 
ATOM     19  C   UNL A   1      31.217  25.559  26.512  1.00  0.00     0.006 C 
ATOM     20  C   UNL A   1      32.606  25.796  24.188  1.00  0.00    -0.025 C 
ATOM     21  C   UNL A   1      31.938  24.909  25.288  1.00  0.00     0.010 C 
ATOM     22  C   UNL A   1      34.007  25.395  23.648  1.00  0.00     0.012 C 
ATOM     23  C   UNL A   1      31.592  25.489  22.989  1.00  0.00     0.007 C 
ATOM     24  C   UNL A   1      30.800  24.014  23.040  1.00  0.00     0.002 C 
ATOM     25  C   UNL A   1      30.911  23.010  24.319  1.00  0.00     0.017 C 
ATOM     26  C   UNL A   1      32.179  22.861  26.654  1.00  0.00     0.022 C 
BRANCH  12  27
ATOM     27  O   UNL A   1      33.715  30.034  27.990  1.00  0.00    -0.386 OA
ATOM     28  H   UNL A   1      33.048  30.619  28.383  1.00  0.00     0.211 HD
ENDBRANCH  12  27
ENDBRANCH   5   8
ENDBRANCH   3   4
ENDBRANCH   2   3
ENDBRANCH   1   2
BRANCH   1  29
ATOM     29  N   UNL A   1      38.444  20.386  25.593  1.00  0.00    -0.352 N 
ATOM     30  C   UNL A   1      39.653  20.596  26.220  1.00  0.00     0.251 C 
ATOM     31  H   UNL A   1      38.199  19.439  25.481  1.00  0.00     0.163 HD
ATOM     32  O   UNL A   1      40.423  19.663  26.374  1.00  0.00    -0.269 OA
BRANCH  30  33
ATOM     33  C   UNL A   1      40.020  21.958  26.666  1.00  0.00     0.039 A 
ATOM     34  C   UNL A   1      41.039  22.112  27.608  1.00  0.00     0.014 A 
ATOM     35  C   UNL A   1      39.373  23.079  26.145  1.00  0.00     0.014 A 
ATOM     36  C   UNL A   1      41.472  23.394  27.950  1.00  0.00     0.010 A 
ATOM     37  C   UNL A   1      39.879  24.348  26.400  1.00  0.00     0.010 A 
ATOM     38  C   UNL A   1      40.936  24.521  27.306  1.00  0.00    -0.014 A 
BRANCH  38  39
ATOM     39  C   UNL A   1      41.468  25.886  27.558  1.00  0.00     0.031 A 
ATOM     40  C   UNL A   1      42.820  26.280  27.024  1.00  0.00     0.074 A 
ATOM     41  C   UNL A   1      40.765  26.743  28.327  1.00  0.00     0.049 A 
ATOM     42  N   UNL A   1      43.488  27.390  27.203  1.00  0.00    -0.248 NA
ATOM     43  C   UNL A   1      43.528  25.280  26.209  1.00  0.00     0.031 C 
ATOM     44  C   UNL A   1      39.467  26.456  28.943  1.00  0.00     0.029 A 
ATOM     45  N   UNL A   1      41.041  28.026  28.729  1.00  0.00    -0.354 N 
ATOM     46  C   UNL A   1      44.697  27.217  26.537  1.00  0.00     0.074 A 
ATOM     47  C   UNL A   1      44.696  25.870  26.011  1.00  0.00     0.031 C 
ATOM     48  C   UNL A   1      39.046  27.541  29.612  1.00  0.00     0.029 A 
ATOM     49  C   UNL A   1      40.066  28.580  29.527  1.00  0.00     0.049 A 
ATOM     50  H   UNL A   1      41.861  28.505  28.472  1.00  0.00     0.167 HD
ATOM     51  C   UNL A   1      45.703  28.108  26.359  1.00  0.00     0.034 A 
ATOM     52  C   UNL A   1      40.005  29.783  30.134  1.00  0.00     0.034 A 
ATOM     53  C   UNL A   1      45.678  29.452  26.882  1.00  0.00     0.049 A 
ATOM     54  C   UNL A   1      41.150  30.746  29.944  1.00  0.00     0.074 A 
ATOM     55  C   UNL A   1      46.613  30.459  26.709  1.00  0.00     0.029 A 
ATOM     56  N   UNL A   1      44.676  29.977  27.687  1.00  0.00    -0.354 N 
ATOM     57  N   UNL A   1      42.258  30.588  29.257  1.00  0.00    -0.248 NA
ATOM     58  C   UNL A   1      41.031  32.053  30.603  1.00  0.00     0.031 C 
ATOM     59  C   UNL A   1      46.217  31.560  27.474  1.00  0.00     0.029 A 
ATOM     60  C   UNL A   1      44.990  31.278  28.052  1.00  0.00     0.049 A 
ATOM     61  H   UNL A   1      43.861  29.496  27.959  1.00  0.00     0.167 HD
ATOM     62  C   UNL A   1      42.954  31.788  29.379  1.00  0.00     0.074 A 
ATOM     63  C   UNL A   1      42.130  32.664  30.185  1.00  0.00     0.031 C 
ATOM     64  C   UNL A   1      44.163  32.135  28.869  1.00  0.00     0.034 A 
BRANCH  51  65
ATOM     65  C   UNL A   1      46.919  27.648  25.592  1.00  0.00     0.023 A 
ATOM     66  C   UNL A   1      47.127  28.006  24.248  1.00  0.00     0.031 A 
ATOM     67  C   UNL A   1      47.882  26.828  26.208  1.00  0.00     0.131 A 
ATOM     68  C   UNL A   1      48.227  27.489  23.545  1.00  0.00     0.055 A 
ATOM     69  C   UNL A   1      49.018  26.386  25.528  1.00  0.00     0.041 A 
ATOM     70  F   UNL A   1      47.727  26.431  27.481  1.00  0.00    -0.206 F 
ATOM     71  C   UNL A   1      49.190  26.705  24.184  1.00  0.00     0.022 A 
BRANCH  68  72
ATOM     72  S   UNL A   1      48.304  27.740  21.751  1.00  0.00     0.124 S 
ATOM     73  O   UNL A   1      49.378  28.725  21.637  1.00  0.00    -0.237 OA
ATOM     74  O   UNL A   1      48.609  26.403  21.257  1.00  0.00    -0.237 OA
ATOM     75  O   UNL A   1      46.972  28.241  21.417  1.00  0.00    -0.744 OA
ENDBRANCH  68  72
ENDBRANCH  51  65
BRANCH  52  76
ATOM     76  C   UNL A   1      38.838  30.144  30.992  1.00  0.00     0.023 A 
ATOM     77  C   UNL A   1      37.773  30.906  30.483  1.00  0.00     0.031 A 
ATOM     78  C   UNL A   1      38.793  29.775  32.348  1.00  0.00     0.131 A 
ATOM     79  C   UNL A   1      36.739  31.322  31.337  1.00  0.00     0.055 A 
ATOM     80  C   UNL A   1      37.730  30.137  33.178  1.00  0.00     0.041 A 
ATOM     81  F   UNL A   1      39.783  29.045  32.887  1.00  0.00    -0.206 F 
ATOM     82  C   UNL A   1      36.702  30.929  32.677  1.00  0.00     0.022 A 
BRANCH  79  83
ATOM     83  S   UNL A   1      35.493  32.473  30.696  1.00  0.00     0.124 S 
ATOM     84  O   UNL A   1      36.184  33.752  30.814  1.00  0.00    -0.237 OA
ATOM     85  O   UNL A   1      35.290  31.975  29.340  1.00  0.00    -0.237 OA
ATOM     86  O   UNL A   1      34.361  32.288  31.602  1.00  0.00    -0.744 OA
ENDBRANCH  79  83
ENDBRANCH  52  76
BRANCH  64  87
ATOM     87  C   UNL A   1      44.643  33.543  29.138  1.00  0.00     0.023 A 
ATOM     88  C   UNL A   1      44.205  34.633  28.367  1.00  0.00     0.031 A 
ATOM     89  C   UNL A   1      45.559  33.792  30.175  1.00  0.00     0.131 A 
ATOM     90  C   UNL A   1      44.731  35.912  28.603  1.00  0.00     0.055 A 
ATOM     91  C   UNL A   1      46.023  35.078  30.452  1.00  0.00     0.041 A 
ATOM     92  F   UNL A   1      46.015  32.789  30.942  1.00  0.00    -0.206 F 
ATOM     93  C   UNL A   1      45.622  36.145  29.655  1.00  0.00     0.022 A 
BRANCH  90  94
ATOM     94  S   UNL A   1      44.317  37.250  27.451  1.00  0.00     0.124 S 
ATOM     95  O   UNL A   1      45.594  37.481  26.784  1.00  0.00    -0.237 OA
ATOM     96  O   UNL A   1      43.271  36.645  26.633  1.00  0.00    -0.237 OA
ATOM     97  O   UNL A   1      43.871  38.332  28.326  1.00  0.00    -0.744 OA
ENDBRANCH  90  94
ENDBRANCH  64  87
ENDBRANCH  38  39
ENDBRANCH  30  33
ENDBRANCH   1  29
TORSDOF 14
ENDMDL
MODEL 2
REMARK VINA RESULT:     -13.5      0.482      7.387
REMARK SMILES C=C1C[C@@]23CC[C@H]4[C@@](C)(CCC[C@@]4(C)C(=O)NCCCNC(=O)c4ccc(-c5c6nc(c(-c7cc(S(=O)(=O)[O-])ccc7F)c7ccc([nH]7)c(-c7cc(S(=O)(=O)[O-])ccc7F)c7nc(c(-c8cc(S(=O)(=O)[O-])ccc8F)c8ccc5[nH]8)C=C7)C=C6)cc4)[C@H]2CC[C@]1(O)C3
REMARK SMILES IDX 20 1 19 2 18 3 17 4 15 5 16 6 13 8 1 9 2 10 3 11 90 12 4 13
REMARK SMILES IDX 89 14 92 15 5 16 87 17 88 18 6 19 8 20 7 21 9 22 10 23 11 24
REMARK SMILES IDX 12 25 14 26 91 27 21 29 22 30 23 32 24 33 25 34 86 35 26 36
REMARK SMILES IDX 85 37 27 38 28 39 29 40 79 41 30 42 84 43 78 44 80 45 31 46
REMARK SMILES IDX 83 47 77 48 76 49 32 51 64 52 44 53 63 54 45 55 48 56 62 57
REMARK SMILES IDX 81 58 46 59 47 60 61 62 82 63 49 64 33 65 34 66 42 67 35 68
REMARK SMILES IDX 41 69 43 70 40 71 36 72 37 73 38 74 39 75 65 76 66 77 74 78
REMARK SMILES IDX 67 79 73 80 75 81 72 82 68 83 69 84 70 85 71 86 50 87 51 88
REMARK SMILES IDX 59 89 52 90 58 91 60 92 57 93 53 94 54 95 55 96 56 97
REMARK H PARENT 17 7 91 28 21 31 80 50 48 61
REMARK Flexibility Score: inf
ROOT
ATOM      1  C   UNL A   1      37.607  21.367  25.001  1.00  0.00     0.118 C 
ENDROOT
BRANCH   1   2
ATOM      2  C   UNL A   1      36.280  21.454  25.749  1.00  0.00     0.042 C 
BRANCH   2   3
ATOM      3  C   UNL A   1      35.561  22.794  25.597  1.00  0.00     0.117 C 
BRANCH   3   4
ATOM      4  N   UNL A   1      34.682  22.822  24.435  1.00  0.00    -0.356 N 
ATOM      5  C   UNL A   1      33.346  22.727  24.261  1.00  0.00     0.226 C 
ATOM      6  O   UNL A   1      33.066  22.023  23.277  1.00  0.00    -0.274 OA
ATOM      7  H   UNL A   1      35.172  22.933  23.588  1.00  0.00     0.163 HD
BRANCH   5   8
ATOM      8  C   UNL A   1      32.218  23.375  25.140  1.00  0.00     0.050 C 
ATOM      9  C   UNL A   1      31.697  31.402  26.702  1.00  0.00     0.011 C 
ATOM     10  C   UNL A   1      32.111  30.199  26.275  1.00  0.00    -0.045 C 
ATOM     11  C   UNL A   1      31.302  29.253  25.404  1.00  0.00     0.040 C 
ATOM     12  C   UNL A   1      33.278  29.427  26.828  1.00  0.00     0.086 C 
ATOM     13  C   UNL A   1      31.812  27.846  25.847  1.00  0.00    -0.020 C 
ATOM     14  C   UNL A   1      34.371  29.144  25.775  1.00  0.00     0.040 C 
ATOM     15  C   UNL A   1      32.515  28.170  27.190  1.00  0.00     0.047 C 
ATOM     16  C   UNL A   1      30.687  26.885  26.122  1.00  0.00     0.008 C 
ATOM     17  C   UNL A   1      32.930  27.208  24.946  1.00  0.00     0.002 C 
ATOM     18  C   UNL A   1      33.924  28.324  24.520  1.00  0.00     0.008 C 
ATOM     19  C   UNL A   1      31.321  25.542  26.513  1.00  0.00     0.006 C 
ATOM     20  C   UNL A   1      32.630  25.830  24.149  1.00  0.00    -0.025 C 
ATOM     21  C   UNL A   1      32.005  24.920  25.254  1.00  0.00     0.010 C 
ATOM     22  C   UNL A   1      34.015  25.449  23.556  1.00  0.00     0.012 C 
ATOM     23  C   UNL A   1      31.578  25.539  22.979  1.00  0.00     0.007 C 
ATOM     24  C   UNL A   1      30.798  24.058  23.029  1.00  0.00     0.002 C 
ATOM     25  C   UNL A   1      30.959  23.031  24.285  1.00  0.00     0.017 C 
ATOM     26  C   UNL A   1      32.305  22.849  26.573  1.00  0.00     0.022 C 
BRANCH  12  27
ATOM     27  O   UNL A   1      33.839  30.007  27.990  1.00  0.00    -0.386 OA
ATOM     28  H   UNL A   1      33.354  30.817  28.214  1.00  0.00     0.211 HD
ENDBRANCH  12  27
ENDBRANCH   5   8
ENDBRANCH   3   4
ENDBRANCH   2   3
ENDBRANCH   1   2
BRANCH   1  29
ATOM     29  N   UNL A   1      38.501  20.359  25.556  1.00  0.00    -0.352 N 
ATOM     30  C   UNL A   1      39.696  20.490  26.229  1.00  0.00     0.251 C 
ATOM     31  H   UNL A   1      38.201  19.429  25.430  1.00  0.00     0.163 HD
ATOM     32  O   UNL A   1      40.399  19.510  26.407  1.00  0.00    -0.269 OA
BRANCH  30  33
ATOM     33  C   UNL A   1      40.131  21.826  26.696  1.00  0.00     0.039 A 
ATOM     34  C   UNL A   1      41.118  21.912  27.680  1.00  0.00     0.014 A 
ATOM     35  C   UNL A   1      39.580  22.986  26.153  1.00  0.00     0.014 A 
ATOM     36  C   UNL A   1      41.618  23.163  28.045  1.00  0.00     0.010 A 
ATOM     37  C   UNL A   1      40.155  24.220  26.434  1.00  0.00     0.010 A 
ATOM     38  C   UNL A   1      41.182  24.323  27.383  1.00  0.00    -0.014 A 
BRANCH  38  39
ATOM     39  C   UNL A   1      41.791  25.651  27.663  1.00  0.00     0.031 A 
ATOM     40  C   UNL A   1      41.011  26.694  28.420  1.00  0.00     0.074 A 
ATOM     41  C   UNL A   1      43.015  25.938  27.175  1.00  0.00     0.049 A 
ATOM     42  N   UNL A   1      41.337  27.930  28.695  1.00  0.00    -0.248 NA
ATOM     43  C   UNL A   1      39.677  26.304  28.903  1.00  0.00     0.031 C 
ATOM     44  C   UNL A   1      43.845  25.026  26.383  1.00  0.00     0.029 A 
ATOM     45  N   UNL A   1      43.775  27.077  27.264  1.00  0.00    -0.354 N 
ATOM     46  C   UNL A   1      40.244  28.469  29.368  1.00  0.00     0.074 A 
ATOM     47  C   UNL A   1      39.224  27.445  29.397  1.00  0.00     0.031 C 
ATOM     48  C   UNL A   1      45.009  25.628  26.091  1.00  0.00     0.029 A 
ATOM     49  C   UNL A   1      44.988  26.987  26.620  1.00  0.00     0.049 A 
ATOM     50  H   UNL A   1      43.480  27.885  27.744  1.00  0.00     0.167 HD
ATOM     51  C   UNL A   1      40.116  29.695  29.931  1.00  0.00     0.034 A 
ATOM     52  C   UNL A   1      45.968  27.900  26.460  1.00  0.00     0.034 A 
ATOM     53  C   UNL A   1      41.152  30.699  29.902  1.00  0.00     0.049 A 
ATOM     54  C   UNL A   1      45.788  29.267  27.072  1.00  0.00     0.074 A 
ATOM     55  C   UNL A   1      41.154  31.950  30.493  1.00  0.00     0.029 A 
ATOM     56  N   UNL A   1      42.365  30.573  29.238  1.00  0.00    -0.354 N 
ATOM     57  N   UNL A   1      44.775  29.737  27.760  1.00  0.00    -0.248 NA
ATOM     58  C   UNL A   1      46.890  30.221  26.893  1.00  0.00     0.031 C 
ATOM     59  C   UNL A   1      42.329  32.610  30.120  1.00  0.00     0.029 A 
ATOM     60  C   UNL A   1      43.105  31.739  29.372  1.00  0.00     0.049 A 
ATOM     61  H   UNL A   1      42.658  29.773  28.744  1.00  0.00     0.167 HD
ATOM     62  C   UNL A   1      45.130  31.035  28.121  1.00  0.00     0.074 A 
ATOM     63  C   UNL A   1      46.460  31.260  27.594  1.00  0.00     0.031 C 
ATOM     64  C   UNL A   1      44.425  31.955  28.827  1.00  0.00     0.034 A 
BRANCH  51  65
ATOM     65  C   UNL A   1      38.803  30.024  30.601  1.00  0.00     0.023 A 
ATOM     66  C   UNL A   1      37.856  30.871  29.998  1.00  0.00     0.031 A 
ATOM     67  C   UNL A   1      38.496  29.494  31.866  1.00  0.00     0.131 A 
ATOM     68  C   UNL A   1      36.684  31.219  30.689  1.00  0.00     0.055 A 
ATOM     69  C   UNL A   1      37.291  29.776  32.512  1.00  0.00     0.041 A 
ATOM     70  F   UNL A   1      39.370  28.699  32.504  1.00  0.00    -0.206 F 
ATOM     71  C   UNL A   1      36.382  30.654  31.929  1.00  0.00     0.022 A 
BRANCH  68  72
ATOM     72  S   UNL A   1      35.632  32.528  30.005  1.00  0.00     0.124 S 
ATOM     73  O   UNL A   1      35.542  32.130  28.600  1.00  0.00    -0.237 OA
ATOM     74  O   UNL A   1      34.409  32.392  30.787  1.00  0.00    -0.237 OA
ATOM     75  O   UNL A   1      36.399  33.747  30.250  1.00  0.00    -0.744 OA
ENDBRANCH  68  72
ENDBRANCH  51  65
BRANCH  52  76
ATOM     76  C   UNL A   1      47.195  27.569  25.676  1.00  0.00     0.023 A 
ATOM     77  C   UNL A   1      47.291  27.888  24.311  1.00  0.00     0.031 A 
ATOM     78  C   UNL A   1      48.270  26.882  26.267  1.00  0.00     0.131 A 
ATOM     79  C   UNL A   1      48.409  27.472  23.572  1.00  0.00     0.055 A 
ATOM     80  C   UNL A   1      49.409  26.527  25.542  1.00  0.00     0.041 A 
ATOM     81  F   UNL A   1      48.234  26.552  27.568  1.00  0.00    -0.206 F 
ATOM     82  C   UNL A   1      49.476  26.808  24.181  1.00  0.00     0.022 A 
BRANCH  79  83
ATOM     83  S   UNL A   1      48.404  27.721  21.775  1.00  0.00     0.124 S 
ATOM     84  O   UNL A   1      47.072  28.276  21.558  1.00  0.00    -0.237 OA
ATOM     85  O   UNL A   1      49.521  28.642  21.594  1.00  0.00    -0.237 OA
ATOM     86  O   UNL A   1      48.614  26.376  21.245  1.00  0.00    -0.744 OA
ENDBRANCH  79  83
ENDBRANCH  52  76
BRANCH  64  87
ATOM     87  C   UNL A   1      45.103  33.277  29.102  1.00  0.00     0.023 A 
ATOM     88  C   UNL A   1      44.900  34.398  28.280  1.00  0.00     0.031 A 
ATOM     89  C   UNL A   1      45.972  33.410  30.200  1.00  0.00     0.131 A 
ATOM     90  C   UNL A   1      45.605  35.584  28.530  1.00  0.00     0.055 A 
ATOM     91  C   UNL A   1      46.615  34.614  30.486  1.00  0.00     0.041 A 
ATOM     92  F   UNL A   1      46.207  32.372  31.018  1.00  0.00    -0.206 F 
ATOM     93  C   UNL A   1      46.446  35.706  29.640  1.00  0.00     0.022 A 
BRANCH  90  94
ATOM     94  S   UNL A   1      45.492  36.934  27.325  1.00  0.00     0.124 S 
ATOM     95  O   UNL A   1      45.843  38.095  28.137  1.00  0.00    -0.237 OA
ATOM     96  O   UNL A   1      46.474  36.540  26.320  1.00  0.00    -0.237 OA
ATOM     97  O   UNL A   1      44.100  36.886  26.883  1.00  0.00    -0.744 OA
ENDBRANCH  90  94
ENDBRANCH  64  87
ENDBRANCH  38  39
ENDBRANCH  30  33
ENDBRANCH   1  29
TORSDOF 14
ENDMDL
MODEL 3
REMARK VINA RESULT:     -13.5      5.484      8.947
REMARK SMILES C=C1C[C@@]23CC[C@H]4[C@@](C)(CCC[C@@]4(C)C(=O)NCCCNC(=O)c4ccc(-c5c6nc(c(-c7cc(S(=O)(=O)[O-])ccc7F)c7ccc([nH]7)c(-c7cc(S(=O)(=O)[O-])ccc7F)c7nc(c(-c8cc(S(=O)(=O)[O-])ccc8F)c8ccc5[nH]8)C=C7)C=C6)cc4)[C@H]2CC[C@]1(O)C3
REMARK SMILES IDX 20 1 19 2 18 3 17 4 15 5 16 6 13 8 1 9 2 10 3 11 90 12 4 13
REMARK SMILES IDX 89 14 92 15 5 16 87 17 88 18 6 19 8 20 7 21 9 22 10 23 11 24
REMARK SMILES IDX 12 25 14 26 91 27 21 29 22 30 23 32 24 33 25 34 86 35 26 36
REMARK SMILES IDX 85 37 27 38 28 39 29 40 79 41 30 42 84 43 78 44 80 45 31 46
REMARK SMILES IDX 83 47 77 48 76 49 32 51 64 52 44 53 63 54 45 55 48 56 62 57
REMARK SMILES IDX 81 58 46 59 47 60 61 62 82 63 49 64 33 65 34 66 42 67 35 68
REMARK SMILES IDX 41 69 43 70 40 71 36 72 37 73 38 74 39 75 65 76 66 77 74 78
REMARK SMILES IDX 67 79 73 80 75 81 72 82 68 83 69 84 70 85 71 86 50 87 51 88
REMARK SMILES IDX 59 89 52 90 58 91 60 92 57 93 53 94 54 95 55 96 56 97
REMARK H PARENT 17 7 91 28 21 31 80 50 48 61
REMARK Flexibility Score: inf
ROOT
ATOM      1  C   UNL A   1      32.880  32.417  27.351  1.00  0.00     0.118 C 
ENDROOT
BRANCH   1   2
ATOM      2  C   UNL A   1      31.678  31.670  26.781  1.00  0.00     0.042 C 
BRANCH   2   3
ATOM      3  C   UNL A   1      31.792  30.148  26.858  1.00  0.00     0.117 C 
BRANCH   3   4
ATOM      4  N   UNL A   1      31.437  29.502  25.601  1.00  0.00    -0.356 N 
ATOM      5  C   UNL A   1      32.145  28.999  24.565  1.00  0.00     0.226 C 
ATOM      6  O   UNL A   1      31.621  29.286  23.477  1.00  0.00    -0.274 OA
ATOM      7  H   UNL A   1      30.464  29.414  25.478  1.00  0.00     0.163 HD
BRANCH   5   8
ATOM      8  C   UNL A   1      33.471  28.163  24.631  1.00  0.00     0.050 C 
ATOM      9  C   UNL A   1      33.688  20.002  25.340  1.00  0.00     0.011 C 
ATOM     10  C   UNL A   1      33.273  21.276  25.265  1.00  0.00    -0.045 C 
ATOM     11  C   UNL A   1      33.579  22.230  24.123  1.00  0.00     0.040 C 
ATOM     12  C   UNL A   1      32.727  22.089  26.407  1.00  0.00     0.086 C 
ATOM     13  C   UNL A   1      33.596  23.624  24.826  1.00  0.00    -0.020 C 
ATOM     14  C   UNL A   1      31.283  22.579  26.166  1.00  0.00     0.040 C 
ATOM     15  C   UNL A   1      33.723  23.226  26.319  1.00  0.00     0.047 C 
ATOM     16  C   UNL A   1      34.801  24.444  24.452  1.00  0.00     0.008 C 
ATOM     17  C   UNL A   1      32.264  24.452  24.737  1.00  0.00     0.002 C 
ATOM     18  C   UNL A   1      31.062  23.482  24.907  1.00  0.00     0.008 C 
ATOM     19  C   UNL A   1      34.679  25.791  25.180  1.00  0.00     0.006 C 
ATOM     20  C   UNL A   1      32.252  25.872  23.960  1.00  0.00    -0.025 C 
ATOM     21  C   UNL A   1      33.502  26.601  24.550  1.00  0.00     0.010 C 
ATOM     22  C   UNL A   1      30.838  26.438  24.266  1.00  0.00     0.012 C 
ATOM     23  C   UNL A   1      32.503  26.188  22.411  1.00  0.00     0.007 C 
ATOM     24  C   UNL A   1      33.370  27.579  22.064  1.00  0.00     0.002 C 
ATOM     25  C   UNL A   1      34.075  28.478  23.226  1.00  0.00     0.017 C 
ATOM     26  C   UNL A   1      34.268  28.541  25.880  1.00  0.00     0.022 C 
BRANCH  12  27
ATOM     27  O   UNL A   1      32.835  21.444  27.661  1.00  0.00    -0.386 OA
ATOM     28  H   UNL A   1      33.491  21.906  28.207  1.00  0.00     0.211 HD
ENDBRANCH  12  27
ENDBRANCH   5   8
ENDBRANCH   3   4
ENDBRANCH   2   3
ENDBRANCH   1   2
BRANCH   1  29
ATOM     29  N   UNL A   1      32.599  33.825  27.604  1.00  0.00    -0.352 N 
ATOM     30  C   UNL A   1      33.098  34.684  28.559  1.00  0.00     0.251 C 
ATOM     31  H   UNL A   1      31.943  34.229  26.991  1.00  0.00     0.163 HD
ATOM     32  O   UNL A   1      32.559  35.762  28.741  1.00  0.00    -0.269 OA
BRANCH  30  33
ATOM     33  C   UNL A   1      34.260  34.273  29.378  1.00  0.00     0.039 A 
ATOM     34  C   UNL A   1      34.036  33.639  30.601  1.00  0.00     0.014 A 
ATOM     35  C   UNL A   1      35.563  34.495  28.932  1.00  0.00     0.014 A 
ATOM     36  C   UNL A   1      35.121  33.143  31.328  1.00  0.00     0.010 A 
ATOM     37  C   UNL A   1      36.630  33.905  29.597  1.00  0.00     0.010 A 
ATOM     38  C   UNL A   1      36.422  33.221  30.803  1.00  0.00    -0.014 A 
BRANCH  38  39
ATOM     39  C   UNL A   1      37.576  32.588  31.496  1.00  0.00     0.031 A 
ATOM     40  C   UNL A   1      38.304  31.437  30.853  1.00  0.00     0.074 A 
ATOM     41  C   UNL A   1      37.920  33.005  32.732  1.00  0.00     0.049 A 
ATOM     42  N   UNL A   1      39.279  30.706  31.329  1.00  0.00    -0.248 NA
ATOM     43  C   UNL A   1      37.853  31.034  29.511  1.00  0.00     0.031 C 
ATOM     44  C   UNL A   1      37.256  34.077  33.478  1.00  0.00     0.029 A 
ATOM     45  N   UNL A   1      38.908  32.577  33.584  1.00  0.00    -0.354 N 
ATOM     46  C   UNL A   1      39.547  29.751  30.354  1.00  0.00     0.074 A 
ATOM     47  C   UNL A   1      38.586  29.954  29.293  1.00  0.00     0.031 C 
ATOM     48  C   UNL A   1      37.877  34.246  34.656  1.00  0.00     0.029 A 
ATOM     49  C   UNL A   1      38.943  33.257  34.780  1.00  0.00     0.049 A 
ATOM     50  H   UNL A   1      39.533  31.851  33.360  1.00  0.00     0.167 HD
ATOM     51  C   UNL A   1      40.522  28.809  30.336  1.00  0.00     0.034 A 
ATOM     52  C   UNL A   1      39.733  33.095  35.860  1.00  0.00     0.034 A 
ATOM     53  C   UNL A   1      41.479  28.631  31.400  1.00  0.00     0.049 A 
ATOM     54  C   UNL A   1      40.791  32.020  35.826  1.00  0.00     0.074 A 
ATOM     55  C   UNL A   1      42.547  27.751  31.458  1.00  0.00     0.029 A 
ATOM     56  N   UNL A   1      41.481  29.335  32.597  1.00  0.00    -0.354 N 
ATOM     57  N   UNL A   1      41.072  31.168  34.869  1.00  0.00    -0.248 NA
ATOM     58  C   UNL A   1      41.644  31.894  37.015  1.00  0.00     0.031 C 
ATOM     59  C   UNL A   1      43.141  27.867  32.718  1.00  0.00     0.029 A 
ATOM     60  C   UNL A   1      42.506  28.882  33.415  1.00  0.00     0.049 A 
ATOM     61  H   UNL A   1      40.848  30.052  32.830  1.00  0.00     0.167 HD
ATOM     62  C   UNL A   1      42.154  30.423  35.330  1.00  0.00     0.074 A 
ATOM     63  C   UNL A   1      42.487  30.944  36.639  1.00  0.00     0.031 C 
ATOM     64  C   UNL A   1      42.816  29.403  34.726  1.00  0.00     0.034 A 
BRANCH  51  65
ATOM     65  C   UNL A   1      40.581  27.886  29.142  1.00  0.00     0.023 A 
ATOM     66  C   UNL A   1      41.517  28.070  28.109  1.00  0.00     0.031 A 
ATOM     67  C   UNL A   1      39.681  26.812  29.026  1.00  0.00     0.131 A 
ATOM     68  C   UNL A   1      41.486  27.242  26.976  1.00  0.00     0.055 A 
ATOM     69  C   UNL A   1      39.710  25.939  27.936  1.00  0.00     0.041 A 
ATOM     70  F   UNL A   1      38.748  26.598  29.967  1.00  0.00    -0.206 F 
ATOM     71  C   UNL A   1      40.607  26.160  26.896  1.00  0.00     0.022 A 
BRANCH  68  72
ATOM     72  S   UNL A   1      42.513  27.687  25.549  1.00  0.00     0.124 S 
ATOM     73  O   UNL A   1      43.818  27.888  26.176  1.00  0.00    -0.237 OA
ATOM     74  O   UNL A   1      42.389  26.514  24.692  1.00  0.00    -0.237 OA
ATOM     75  O   UNL A   1      41.882  28.903  25.039  1.00  0.00    -0.744 OA
ENDBRANCH  68  72
ENDBRANCH  51  65
BRANCH  52  76
ATOM     76  C   UNL A   1      39.549  33.948  37.072  1.00  0.00     0.023 A 
ATOM     77  C   UNL A   1      38.933  33.441  38.228  1.00  0.00     0.031 A 
ATOM     78  C   UNL A   1      39.940  35.298  37.074  1.00  0.00     0.131 A 
ATOM     79  C   UNL A   1      38.676  34.292  39.315  1.00  0.00     0.055 A 
ATOM     80  C   UNL A   1      39.740  36.124  38.181  1.00  0.00     0.041 A 
ATOM     81  F   UNL A   1      40.535  35.836  35.997  1.00  0.00    -0.206 F 
ATOM     82  C   UNL A   1      39.090  35.626  39.306  1.00  0.00     0.022 A 
BRANCH  79  83
ATOM     83  S   UNL A   1      37.698  33.656  40.704  1.00  0.00     0.124 S 
ATOM     84  O   UNL A   1      38.634  32.721  41.320  1.00  0.00    -0.237 OA
ATOM     85  O   UNL A   1      37.417  34.873  41.458  1.00  0.00    -0.237 OA
ATOM     86  O   UNL A   1      36.541  33.046  40.054  1.00  0.00    -0.744 OA
ENDBRANCH  79  83
ENDBRANCH  52  76
BRANCH  64  87
ATOM     87  C   UNL A   1      43.995  28.815  35.466  1.00  0.00     0.023 A 
ATOM     88  C   UNL A   1      43.851  27.726  36.341  1.00  0.00     0.031 A 
ATOM     89  C   UNL A   1      45.280  29.362  35.296  1.00  0.00     0.131 A 
ATOM     90  C   UNL A   1      44.959  27.258  37.063  1.00  0.00     0.055 A 
ATOM     91  C   UNL A   1      46.392  28.846  35.962  1.00  0.00     0.041 A 
ATOM     92  F   UNL A   1      45.477  30.406  34.475  1.00  0.00    -0.206 F 
ATOM     93  C   UNL A   1      46.233  27.798  36.863  1.00  0.00     0.022 A 
BRANCH  90  94
ATOM     94  S   UNL A   1      44.696  26.004  38.346  1.00  0.00     0.124 S 
ATOM     95  O   UNL A   1      44.107  24.909  37.582  1.00  0.00    -0.237 OA
ATOM     96  O   UNL A   1      46.049  25.778  38.844  1.00  0.00    -0.237 OA
ATOM     97  O   UNL A   1      43.791  26.660  39.287  1.00  0.00    -0.744 OA
ENDBRANCH  90  94
ENDBRANCH  64  87
ENDBRANCH  38  39
ENDBRANCH  30  33
ENDBRANCH   1  29
TORSDOF 14
ENDMDL
