MODEL 1
REMARK VINA RESULT:     -11.8      0.000      0.000
REMARK SMILES CCc1cc(OCC(=O)NCCCNC(=O)c2ccc(-c3c4nc(c(-c5cc(S(=O)(=O)[O-])ccc5F)c5ccc([nH]5)c(-c5cc(S(=O)(=O)[O-])ccc5F)c5nc(c(-c6cc(S(=O)(=O)[O-])ccc6F)c6ccc3[nH]6)C=C5)C=C4)cc2)nc(Nc2ccc(C)c(F)c2)n1
REMARK SMILES IDX 11 1 10 2 8 3 9 4 7 6 6 7 5 8 3 9 4 10 91 11 81 12 80 13
REMARK SMILES IDX 2 14 1 15 82 16 83 18 84 19 90 20 85 21 88 22 86 23 89 24
REMARK SMILES IDX 87 25 12 26 13 27 14 28 15 29 16 31 17 32 18 33 79 34 19 35
REMARK SMILES IDX 78 36 20 37 21 38 22 39 72 40 23 41 77 42 71 43 73 44 24 45
REMARK SMILES IDX 76 46 70 47 69 48 25 50 57 51 37 52 56 53 38 54 41 55 55 56
REMARK SMILES IDX 74 57 39 58 40 59 54 61 75 62 42 63 26 64 27 65 35 66 28 67
REMARK SMILES IDX 34 68 36 69 33 70 29 71 30 72 31 73 32 74 58 75 59 76 67 77
REMARK SMILES IDX 60 78 66 79 68 80 65 81 61 82 62 83 63 84 64 85 43 86 44 87
REMARK SMILES IDX 52 88 45 89 51 90 53 91 50 92 46 93 47 94 48 95 49 96
REMARK H PARENT 10 5 82 17 14 30 73 49 41 60
REMARK Flexibility Score: inf
ROOT
ATOM      1  C   UNL A   1      42.868  40.130  28.730  1.00  0.00     0.117 C 
ENDROOT
BRANCH   1   2
ATOM      2  N   UNL A   1      41.582  40.397  28.112  1.00  0.00    -0.353 N 
ATOM      3  C   UNL A   1      41.327  40.875  26.862  1.00  0.00     0.258 C 
ATOM      4  O   UNL A   1      40.156  40.992  26.495  1.00  0.00    -0.271 OA
ATOM      5  H   UNL A   1      40.792  40.206  28.668  1.00  0.00     0.163 HD
BRANCH   3   6
ATOM      6  C   UNL A   1      42.491  41.238  25.930  1.00  0.00     0.331 C 
BRANCH   6   7
ATOM      7  O   UNL A   1      42.258  41.122  24.537  1.00  0.00    -0.467 OA
BRANCH   7   8
ATOM      8  C   UNL A   1      42.737  42.109  23.720  1.00  0.00     0.218 A 
ATOM      9  C   UNL A   1      43.854  44.087  23.172  1.00  0.00     0.050 A 
ATOM     10  C   UNL A   1      43.348  43.262  24.150  1.00  0.00     0.092 A 
ATOM     11  N   UNL A   1      43.717  43.806  21.868  1.00  0.00    -0.218 NA
ATOM     12  C   UNL A   1      43.046  42.696  21.524  1.00  0.00     0.230 A 
ATOM     13  N   UNL A   1      42.551  41.830  22.419  1.00  0.00    -0.177 NA
BRANCH   9  14
ATOM     14  C   UNL A   1      44.606  45.340  23.532  1.00  0.00     0.053 C 
ATOM     15  C   UNL A   1      45.670  45.078  24.587  1.00  0.00     0.011 C 
ENDBRANCH   9  14
BRANCH  12  16
ATOM     16  N   UNL A   1      42.756  42.456  20.184  1.00  0.00    -0.324 N 
ATOM     17  H   UNL A   1      42.684  41.507  19.930  1.00  0.00     0.170 HD
BRANCH  16  18
ATOM     18  C   UNL A   1      42.552  43.372  19.147  1.00  0.00     0.044 A 
ATOM     19  C   UNL A   1      41.250  43.783  18.830  1.00  0.00     0.026 A 
ATOM     20  C   UNL A   1      43.618  43.981  18.479  1.00  0.00     0.065 A 
ATOM     21  C   UNL A   1      41.022  44.780  17.873  1.00  0.00     0.008 A 
ATOM     22  C   UNL A   1      43.388  44.956  17.513  1.00  0.00     0.128 A 
ATOM     23  C   UNL A   1      42.095  45.375  17.200  1.00  0.00    -0.015 A 
ATOM     24  F   UNL A   1      44.441  45.505  16.890  1.00  0.00    -0.207 F 
ATOM     25  C   UNL A   1      41.854  46.454  16.189  1.00  0.00     0.047 C 
ENDBRANCH  16  18
ENDBRANCH  12  16
ENDBRANCH   7   8
ENDBRANCH   6   7
ENDBRANCH   3   6
ENDBRANCH   1   2
BRANCH   1  26
ATOM     26  C   UNL A   1      43.258  38.657  28.673  1.00  0.00     0.042 C 
BRANCH  26  27
ATOM     27  C   UNL A   1      43.948  38.130  29.929  1.00  0.00     0.118 C 
BRANCH  27  28
ATOM     28  N   UNL A   1      45.401  38.133  29.828  1.00  0.00    -0.352 N 
ATOM     29  C   UNL A   1      46.287  37.099  29.650  1.00  0.00     0.251 C 
ATOM     30  H   UNL A   1      45.817  39.023  29.898  1.00  0.00     0.163 HD
ATOM     31  O   UNL A   1      47.493  37.326  29.773  1.00  0.00    -0.269 OA
BRANCH  29  32
ATOM     32  C   UNL A   1      45.820  35.729  29.343  1.00  0.00     0.039 A 
ATOM     33  C   UNL A   1      45.965  34.736  30.316  1.00  0.00     0.014 A 
ATOM     34  C   UNL A   1      45.269  35.405  28.100  1.00  0.00     0.014 A 
ATOM     35  C   UNL A   1      45.493  33.443  30.070  1.00  0.00     0.010 A 
ATOM     36  C   UNL A   1      44.729  34.136  27.884  1.00  0.00     0.010 A 
ATOM     37  C   UNL A   1      44.830  33.141  28.868  1.00  0.00    -0.014 A 
BRANCH  37  38
ATOM     38  C   UNL A   1      44.233  31.797  28.635  1.00  0.00     0.031 A 
ATOM     39  C   UNL A   1      42.869  31.464  29.180  1.00  0.00     0.074 A 
ATOM     40  C   UNL A   1      44.939  30.860  27.966  1.00  0.00     0.049 A 
ATOM     41  N   UNL A   1      42.219  30.327  29.145  1.00  0.00    -0.248 NA
ATOM     42  C   UNL A   1      42.151  32.544  29.874  1.00  0.00     0.031 C 
ATOM     43  C   UNL A   1      46.281  31.050  27.412  1.00  0.00     0.029 A 
ATOM     44  N   UNL A   1      44.633  29.560  27.644  1.00  0.00    -0.354 N 
ATOM     45  C   UNL A   1      41.017  30.556  29.806  1.00  0.00     0.074 A 
ATOM     46  C   UNL A   1      41.058  31.920  30.290  1.00  0.00     0.031 C 
ATOM     47  C   UNL A   1      46.671  29.921  26.801  1.00  0.00     0.029 A 
ATOM     48  C   UNL A   1      45.636  28.905  26.965  1.00  0.00     0.049 A 
ATOM     49  H   UNL A   1      43.776  29.135  27.878  1.00  0.00     0.167 HD
ATOM     50  C   UNL A   1      39.965  29.716  29.970  1.00  0.00     0.034 A 
ATOM     51  C   UNL A   1      45.722  27.627  26.540  1.00  0.00     0.034 A 
ATOM     52  C   UNL A   1      39.933  28.358  29.484  1.00  0.00     0.049 A 
ATOM     53  C   UNL A   1      44.558  26.698  26.790  1.00  0.00     0.074 A 
ATOM     54  C   UNL A   1      38.909  27.432  29.584  1.00  0.00     0.029 A 
ATOM     55  N   UNL A   1      40.969  27.729  28.808  1.00  0.00    -0.354 N 
ATOM     56  N   UNL A   1      43.414  26.946  27.386  1.00  0.00    -0.248 NA
ATOM     57  C   UNL A   1      44.691  25.320  26.298  1.00  0.00     0.031 C 
ATOM     58  C   UNL A   1      39.348  26.227  29.028  1.00  0.00     0.029 A 
ATOM     59  C   UNL A   1      40.616  26.422  28.506  1.00  0.00     0.049 A 
ATOM     60  H   UNL A   1      41.829  28.149  28.577  1.00  0.00     0.167 HD
ATOM     61  C   UNL A   1      42.679  25.765  27.301  1.00  0.00     0.074 A 
ATOM     62  C   UNL A   1      43.498  24.818  26.577  1.00  0.00     0.031 C 
ATOM     63  C   UNL A   1      41.439  25.488  27.778  1.00  0.00     0.034 A 
BRANCH  50  64
ATOM     64  C   UNL A   1      38.760  30.242  30.714  1.00  0.00     0.023 A 
ATOM     65  C   UNL A   1      37.829  31.091  30.092  1.00  0.00     0.031 A 
ATOM     66  C   UNL A   1      38.528  29.878  32.052  1.00  0.00     0.131 A 
ATOM     67  C   UNL A   1      36.740  31.591  30.820  1.00  0.00     0.055 A 
ATOM     68  C   UNL A   1      37.400  30.317  32.749  1.00  0.00     0.041 A 
ATOM     69  F   UNL A   1      39.393  29.085  32.704  1.00  0.00    -0.206 F 
ATOM     70  C   UNL A   1      36.504  31.188  32.137  1.00  0.00     0.022 A 
BRANCH  67  71
ATOM     71  S   UNL A   1      35.696  32.862  30.057  1.00  0.00     0.124 S 
ATOM     72  O   UNL A   1      34.519  32.086  29.673  1.00  0.00    -0.237 OA
ATOM     73  O   UNL A   1      35.505  33.812  31.148  1.00  0.00    -0.237 OA
ATOM     74  O   UNL A   1      36.505  33.347  28.942  1.00  0.00    -0.744 OA
ENDBRANCH  67  71
ENDBRANCH  50  64
BRANCH  51  75
ATOM     75  C   UNL A   1      46.954  27.124  25.861  1.00  0.00     0.023 A 
ATOM     76  C   UNL A   1      47.933  26.413  26.573  1.00  0.00     0.031 A 
ATOM     77  C   UNL A   1      47.219  27.432  24.514  1.00  0.00     0.131 A 
ATOM     78  C   UNL A   1      49.160  26.106  25.964  1.00  0.00     0.055 A 
ATOM     79  C   UNL A   1      48.411  27.059  23.890  1.00  0.00     0.041 A 
ATOM     80  F   UNL A   1      46.322  28.111  23.782  1.00  0.00    -0.206 F 
ATOM     81  C   UNL A   1      49.400  26.411  24.624  1.00  0.00     0.022 A 
BRANCH  78  82
ATOM     82  S   UNL A   1      50.496  25.440  26.997  1.00  0.00     0.124 S 
ATOM     83  O   UNL A   1      50.903  26.619  27.752  1.00  0.00    -0.237 OA
ATOM     84  O   UNL A   1      49.804  24.401  27.751  1.00  0.00    -0.237 OA
ATOM     85  O   UNL A   1      51.470  24.956  26.020  1.00  0.00    -0.744 OA
ENDBRANCH  78  82
ENDBRANCH  51  75
BRANCH  63  86
ATOM     86  C   UNL A   1      40.872  24.122  27.470  1.00  0.00     0.023 A 
ATOM     87  C   UNL A   1      39.781  23.948  26.600  1.00  0.00     0.031 A 
ATOM     88  C   UNL A   1      41.423  22.978  28.075  1.00  0.00     0.131 A 
ATOM     89  C   UNL A   1      39.236  22.669  26.409  1.00  0.00     0.055 A 
ATOM     90  C   UNL A   1      40.920  21.700  27.827  1.00  0.00     0.041 A 
ATOM     91  F   UNL A   1      42.463  23.083  28.918  1.00  0.00    -0.206 F 
ATOM     92  C   UNL A   1      39.810  21.542  27.002  1.00  0.00     0.022 A 
BRANCH  89  93
ATOM     93  S   UNL A   1      37.701  22.510  25.456  1.00  0.00     0.124 S 
ATOM     94  O   UNL A   1      36.692  22.470  26.510  1.00  0.00    -0.237 OA
ATOM     95  O   UNL A   1      37.718  23.716  24.634  1.00  0.00    -0.237 OA
ATOM     96  O   UNL A   1      37.881  21.258  24.722  1.00  0.00    -0.744 OA
ENDBRANCH  89  93
ENDBRANCH  63  86
ENDBRANCH  37  38
ENDBRANCH  29  32
ENDBRANCH  27  28
ENDBRANCH  26  27
ENDBRANCH   1  26
TORSDOF 18
ENDMDL
MODEL 2
REMARK VINA RESULT:     -11.8      6.475     16.192
REMARK SMILES CCc1cc(OCC(=O)NCCCNC(=O)c2ccc(-c3c4nc(c(-c5cc(S(=O)(=O)[O-])ccc5F)c5ccc([nH]5)c(-c5cc(S(=O)(=O)[O-])ccc5F)c5nc(c(-c6cc(S(=O)(=O)[O-])ccc6F)c6ccc3[nH]6)C=C5)C=C4)cc2)nc(Nc2ccc(C)c(F)c2)n1
REMARK SMILES IDX 11 1 10 2 8 3 9 4 7 6 6 7 5 8 3 9 4 10 91 11 81 12 80 13
REMARK SMILES IDX 2 14 1 15 82 16 83 18 84 19 90 20 85 21 88 22 86 23 89 24
REMARK SMILES IDX 87 25 12 26 13 27 14 28 15 29 16 31 17 32 18 33 79 34 19 35
REMARK SMILES IDX 78 36 20 37 21 38 22 39 72 40 23 41 77 42 71 43 73 44 24 45
REMARK SMILES IDX 76 46 70 47 69 48 25 50 57 51 37 52 56 53 38 54 41 55 55 56
REMARK SMILES IDX 74 57 39 58 40 59 54 61 75 62 42 63 26 64 27 65 35 66 28 67
REMARK SMILES IDX 34 68 36 69 33 70 29 71 30 72 31 73 32 74 58 75 59 76 67 77
REMARK SMILES IDX 60 78 66 79 68 80 65 81 61 82 62 83 63 84 64 85 43 86 44 87
REMARK SMILES IDX 52 88 45 89 51 90 53 91 50 92 46 93 47 94 48 95 49 96
REMARK H PARENT 10 5 82 17 14 30 73 49 41 60
REMARK Flexibility Score: inf
ROOT
ATOM      1  C   UNL A   1      37.730  20.846  24.601  1.00  0.00     0.117 C 
ENDROOT
BRANCH   1   2
ATOM      2  N   UNL A   1      38.155  22.022  25.338  1.00  0.00    -0.353 N 
ATOM      3  C   UNL A   1      37.440  23.143  25.629  1.00  0.00     0.258 C 
ATOM      4  O   UNL A   1      37.963  24.025  26.313  1.00  0.00    -0.271 OA
ATOM      5  H   UNL A   1      39.081  22.005  25.672  1.00  0.00     0.163 HD
BRANCH   3   6
ATOM      6  C   UNL A   1      35.998  23.283  25.122  1.00  0.00     0.331 C 
BRANCH   6   7
ATOM      7  O   UNL A   1      35.291  24.449  25.509  1.00  0.00    -0.467 OA
BRANCH   7   8
ATOM      8  C   UNL A   1      33.937  24.355  25.677  1.00  0.00     0.218 A 
ATOM      9  C   UNL A   1      31.751  25.133  25.957  1.00  0.00     0.050 A 
ATOM     10  C   UNL A   1      33.097  25.416  25.919  1.00  0.00     0.092 A 
ATOM     11  N   UNL A   1      31.286  23.883  25.813  1.00  0.00    -0.218 NA
ATOM     12  C   UNL A   1      32.173  22.890  25.650  1.00  0.00     0.230 A 
ATOM     13  N   UNL A   1      33.495  23.091  25.573  1.00  0.00    -0.177 NA
BRANCH   9  14
ATOM     14  C   UNL A   1      30.737  26.229  26.143  1.00  0.00     0.053 C 
ATOM     15  C   UNL A   1      31.395  27.598  26.240  1.00  0.00     0.011 C 
ENDBRANCH   9  14
BRANCH  12  16
ATOM     16  N   UNL A   1      31.733  21.569  25.650  1.00  0.00    -0.324 N 
ATOM     17  H   UNL A   1      30.919  21.395  26.175  1.00  0.00     0.170 HD
BRANCH  16  18
ATOM     18  C   UNL A   1      32.285  20.455  25.009  1.00  0.00     0.044 A 
ATOM     19  C   UNL A   1      32.923  19.464  25.765  1.00  0.00     0.026 A 
ATOM     20  C   UNL A   1      32.129  20.241  23.636  1.00  0.00     0.065 A 
ATOM     21  C   UNL A   1      33.387  18.287  25.166  1.00  0.00     0.008 A 
ATOM     22  C   UNL A   1      32.611  19.080  23.039  1.00  0.00     0.128 A 
ATOM     23  C   UNL A   1      33.238  18.086  23.789  1.00  0.00    -0.015 A 
ATOM     24  F   UNL A   1      32.448  18.921  21.718  1.00  0.00    -0.207 F 
ATOM     25  C   UNL A   1      33.719  16.820  23.149  1.00  0.00     0.047 C 
ENDBRANCH  16  18
ENDBRANCH  12  16
ENDBRANCH   7   8
ENDBRANCH   6   7
ENDBRANCH   3   6
ENDBRANCH   1   2
BRANCH   1  26
ATOM     26  C   UNL A   1      38.498  19.590  24.996  1.00  0.00     0.042 C 
BRANCH  26  27
ATOM     27  C   UNL A   1      39.313  19.717  26.281  1.00  0.00     0.118 C 
BRANCH  27  28
ATOM     28  N   UNL A   1      40.644  19.133  26.175  1.00  0.00    -0.352 N 
ATOM     29  C   UNL A   1      41.883  19.724  26.181  1.00  0.00     0.251 C 
ATOM     30  H   UNL A   1      40.657  18.153  26.083  1.00  0.00     0.163 HD
ATOM     31  O   UNL A   1      42.867  19.038  25.897  1.00  0.00    -0.269 OA
BRANCH  29  32
ATOM     32  C   UNL A   1      42.048  21.161  26.496  1.00  0.00     0.039 A 
ATOM     33  C   UNL A   1      42.279  21.535  27.823  1.00  0.00     0.014 A 
ATOM     34  C   UNL A   1      41.950  22.144  25.507  1.00  0.00     0.014 A 
ATOM     35  C   UNL A   1      42.483  22.881  28.143  1.00  0.00     0.010 A 
ATOM     36  C   UNL A   1      42.230  23.475  25.815  1.00  0.00     0.010 A 
ATOM     37  C   UNL A   1      42.505  23.860  27.136  1.00  0.00    -0.014 A 
BRANCH  37  38
ATOM     38  C   UNL A   1      42.822  25.281  27.449  1.00  0.00     0.031 A 
ATOM     39  C   UNL A   1      44.190  25.839  27.158  1.00  0.00     0.074 A 
ATOM     40  C   UNL A   1      41.888  26.059  28.037  1.00  0.00     0.049 A 
ATOM     41  N   UNL A   1      44.675  27.024  27.429  1.00  0.00    -0.248 NA
ATOM     42  C   UNL A   1      45.145  24.939  26.493  1.00  0.00     0.031 C 
ATOM     43  C   UNL A   1      40.534  25.629  28.395  1.00  0.00     0.029 A 
ATOM     44  N   UNL A   1      41.933  27.370  28.444  1.00  0.00    -0.354 N 
ATOM     45  C   UNL A   1      45.986  27.014  26.966  1.00  0.00     0.074 A 
ATOM     46  C   UNL A   1      46.241  25.683  26.457  1.00  0.00     0.031 C 
ATOM     47  C   UNL A   1      39.874  26.660  28.945  1.00  0.00     0.029 A 
ATOM     48  C   UNL A   1      40.769  27.810  29.033  1.00  0.00     0.049 A 
ATOM     49  H   UNL A   1      42.726  27.943  28.326  1.00  0.00     0.167 HD
ATOM     50  C   UNL A   1      46.886  28.029  26.940  1.00  0.00     0.034 A 
ATOM     51  C   UNL A   1      40.461  28.996  29.597  1.00  0.00     0.034 A 
ATOM     52  C   UNL A   1      46.624  29.353  27.449  1.00  0.00     0.049 A 
ATOM     53  C   UNL A   1      41.505  30.088  29.607  1.00  0.00     0.074 A 
ATOM     54  C   UNL A   1      47.462  30.455  27.455  1.00  0.00     0.029 A 
ATOM     55  N   UNL A   1      45.437  29.758  28.044  1.00  0.00    -0.354 N 
ATOM     56  N   UNL A   1      42.728  30.068  29.130  1.00  0.00    -0.248 NA
ATOM     57  C   UNL A   1      41.120  31.367  30.221  1.00  0.00     0.031 C 
ATOM     58  C   UNL A   1      46.808  31.504  28.109  1.00  0.00     0.029 A 
ATOM     59  C   UNL A   1      45.529  31.084  28.439  1.00  0.00     0.049 A 
ATOM     60  H   UNL A   1      44.645  29.186  28.167  1.00  0.00     0.167 HD
ATOM     61  C   UNL A   1      43.240  31.346  29.351  1.00  0.00     0.074 A 
ATOM     62  C   UNL A   1      42.188  32.113  29.979  1.00  0.00     0.031 C 
ATOM     63  C   UNL A   1      44.470  31.841  29.059  1.00  0.00     0.034 A 
BRANCH  50  64
ATOM     64  C   UNL A   1      48.245  27.743  26.347  1.00  0.00     0.023 A 
ATOM     65  C   UNL A   1      48.458  27.771  24.958  1.00  0.00     0.031 A 
ATOM     66  C   UNL A   1      49.345  27.459  27.176  1.00  0.00     0.131 A 
ATOM     67  C   UNL A   1      49.724  27.466  24.436  1.00  0.00     0.055 A 
ATOM     68  C   UNL A   1      50.620  27.232  26.654  1.00  0.00     0.041 A 
ATOM     69  F   UNL A   1      49.199  27.400  28.509  1.00  0.00    -0.206 F 
ATOM     70  C   UNL A   1      50.813  27.224  25.276  1.00  0.00     0.022 A 
BRANCH  67  71
ATOM     71  S   UNL A   1      49.901  27.283  22.641  1.00  0.00     0.124 S 
ATOM     72  O   UNL A   1      48.815  26.357  22.331  1.00  0.00    -0.237 OA
ATOM     73  O   UNL A   1      49.729  28.651  22.164  1.00  0.00    -0.237 OA
ATOM     74  O   UNL A   1      51.245  26.732  22.484  1.00  0.00    -0.744 OA
ENDBRANCH  67  71
ENDBRANCH  50  64
BRANCH  51  75
ATOM     75  C   UNL A   1      39.127  29.224  30.229  1.00  0.00     0.023 A 
ATOM     76  C   UNL A   1      38.137  29.978  29.578  1.00  0.00     0.031 A 
ATOM     77  C   UNL A   1      38.855  28.777  31.536  1.00  0.00     0.131 A 
ATOM     78  C   UNL A   1      36.962  30.331  30.259  1.00  0.00     0.055 A 
ATOM     79  C   UNL A   1      37.652  29.067  32.182  1.00  0.00     0.041 A 
ATOM     80  F   UNL A   1      39.762  28.052  32.209  1.00  0.00    -0.206 F 
ATOM     81  C   UNL A   1      36.706  29.869  31.551  1.00  0.00     0.022 A 
BRANCH  78  82
ATOM     82  S   UNL A   1      35.842  31.533  29.487  1.00  0.00     0.124 S 
ATOM     83  O   UNL A   1      35.040  31.965  30.626  1.00  0.00    -0.237 OA
ATOM     84  O   UNL A   1      36.777  32.515  28.951  1.00  0.00    -0.237 OA
ATOM     85  O   UNL A   1      35.131  30.739  28.487  1.00  0.00    -0.744 OA
ENDBRANCH  78  82
ENDBRANCH  51  75
BRANCH  63  86
ATOM     86  C   UNL A   1      44.715  33.301  29.362  1.00  0.00     0.023 A 
ATOM     87  C   UNL A   1      44.471  34.308  28.412  1.00  0.00     0.031 A 
ATOM     88  C   UNL A   1      45.219  33.685  30.618  1.00  0.00     0.131 A 
ATOM     89  C   UNL A   1      44.791  35.642  28.710  1.00  0.00     0.055 A 
ATOM     90  C   UNL A   1      45.470  35.021  30.931  1.00  0.00     0.041 A 
ATOM     91  F   UNL A   1      45.475  32.767  31.563  1.00  0.00    -0.206 F 
ATOM     92  C   UNL A   1      45.271  36.007  29.969  1.00  0.00     0.022 A 
BRANCH  89  93
ATOM     93  S   UNL A   1      44.667  36.882  27.391  1.00  0.00     0.124 S 
ATOM     94  O   UNL A   1      44.899  38.124  28.120  1.00  0.00    -0.237 OA
ATOM     95  O   UNL A   1      45.730  36.472  26.477  1.00  0.00    -0.237 OA
ATOM     96  O   UNL A   1      43.309  36.706  26.880  1.00  0.00    -0.744 OA
ENDBRANCH  89  93
ENDBRANCH  63  86
ENDBRANCH  37  38
ENDBRANCH  29  32
ENDBRANCH  27  28
ENDBRANCH  26  27
ENDBRANCH   1  26
TORSDOF 18
ENDMDL
MODEL 3
REMARK VINA RESULT:     -11.8      1.642      7.549
REMARK SMILES CCc1cc(OCC(=O)NCCCNC(=O)c2ccc(-c3c4nc(c(-c5cc(S(=O)(=O)[O-])ccc5F)c5ccc([nH]5)c(-c5cc(S(=O)(=O)[O-])ccc5F)c5nc(c(-c6cc(S(=O)(=O)[O-])ccc6F)c6ccc3[nH]6)C=C5)C=C4)cc2)nc(Nc2ccc(C)c(F)c2)n1
REMARK SMILES IDX 11 1 10 2 8 3 9 4 7 6 6 7 5 8 3 9 4 10 91 11 81 12 80 13
REMARK SMILES IDX 2 14 1 15 82 16 83 18 84 19 90 20 85 21 88 22 86 23 89 24
REMARK SMILES IDX 87 25 12 26 13 27 14 28 15 29 16 31 17 32 18 33 79 34 19 35
REMARK SMILES IDX 78 36 20 37 21 38 22 39 72 40 23 41 77 42 71 43 73 44 24 45
REMARK SMILES IDX 76 46 70 47 69 48 25 50 57 51 37 52 56 53 38 54 41 55 55 56
REMARK SMILES IDX 74 57 39 58 40 59 54 61 75 62 42 63 26 64 27 65 35 66 28 67
REMARK SMILES IDX 34 68 36 69 33 70 29 71 30 72 31 73 32 74 58 75 59 76 67 77
REMARK SMILES IDX 60 78 66 79 68 80 65 81 61 82 62 83 63 84 64 85 43 86 44 87
REMARK SMILES IDX 52 88 45 89 51 90 53 91 50 92 46 93 47 94 48 95 49 96
REMARK H PARENT 10 5 82 17 14 30 73 49 41 60
REMARK Flexibility Score: inf
ROOT
ATOM      1  C   UNL A   1      43.047  40.205  28.724  1.00  0.00     0.117 C 
ENDROOT
BRANCH   1   2
ATOM      2  N   UNL A   1      41.732  40.421  28.148  1.00  0.00    -0.353 N 
ATOM      3  C   UNL A   1      41.414  40.753  26.866  1.00  0.00     0.258 C 
ATOM      4  O   UNL A   1      40.226  40.849  26.551  1.00  0.00    -0.271 OA
ATOM      5  H   UNL A   1      40.972  40.313  28.764  1.00  0.00     0.163 HD
BRANCH   3   6
ATOM      6  C   UNL A   1      42.529  40.981  25.836  1.00  0.00     0.331 C 
BRANCH   6   7
ATOM      7  O   UNL A   1      42.127  41.332  24.523  1.00  0.00    -0.467 OA
BRANCH   7   8
ATOM      8  C   UNL A   1      42.888  42.239  23.838  1.00  0.00     0.218 A 
ATOM      9  C   UNL A   1      44.440  43.965  23.562  1.00  0.00     0.050 A 
ATOM     10  C   UNL A   1      43.667  43.213  24.416  1.00  0.00     0.092 A 
ATOM     11  N   UNL A   1      44.401  43.791  22.233  1.00  0.00    -0.218 NA
ATOM     12  C   UNL A   1      43.563  42.867  21.737  1.00  0.00     0.230 A 
ATOM     13  N   UNL A   1      42.802  42.077  22.507  1.00  0.00    -0.177 NA
BRANCH   9  14
ATOM     14  C   UNL A   1      45.384  45.010  24.093  1.00  0.00     0.053 C 
ATOM     15  C   UNL A   1      46.378  45.465  23.035  1.00  0.00     0.011 C 
ENDBRANCH   9  14
BRANCH  12  16
ATOM     16  N   UNL A   1      43.388  42.767  20.360  1.00  0.00    -0.324 N 
ATOM     17  H   UNL A   1      43.590  41.886  19.971  1.00  0.00     0.170 HD
BRANCH  16  18
ATOM     18  C   UNL A   1      42.963  43.742  19.451  1.00  0.00     0.044 A 
ATOM     19  C   UNL A   1      43.759  44.872  19.223  1.00  0.00     0.026 A 
ATOM     20  C   UNL A   1      41.812  43.577  18.675  1.00  0.00     0.065 A 
ATOM     21  C   UNL A   1      43.415  45.809  18.241  1.00  0.00     0.008 A 
ATOM     22  C   UNL A   1      41.460  44.521  17.716  1.00  0.00     0.128 A 
ATOM     23  C   UNL A   1      42.254  45.643  17.477  1.00  0.00    -0.015 A 
ATOM     24  F   UNL A   1      40.342  44.327  17.001  1.00  0.00    -0.207 F 
ATOM     25  C   UNL A   1      41.894  46.635  16.415  1.00  0.00     0.047 C 
ENDBRANCH  16  18
ENDBRANCH  12  16
ENDBRANCH   7   8
ENDBRANCH   6   7
ENDBRANCH   3   6
ENDBRANCH   1   2
BRANCH   1  26
ATOM     26  C   UNL A   1      43.561  38.786  28.507  1.00  0.00     0.042 C 
BRANCH  26  27
ATOM     27  C   UNL A   1      44.106  38.106  29.761  1.00  0.00     0.118 C 
BRANCH  27  28
ATOM     28  N   UNL A   1      45.562  38.044  29.791  1.00  0.00    -0.352 N 
ATOM     29  C   UNL A   1      46.412  36.970  29.707  1.00  0.00     0.251 C 
ATOM     30  H   UNL A   1      46.009  38.916  29.888  1.00  0.00     0.163 HD
ATOM     31  O   UNL A   1      47.612  37.145  29.936  1.00  0.00    -0.269 OA
BRANCH  29  32
ATOM     32  C   UNL A   1      45.913  35.616  29.375  1.00  0.00     0.039 A 
ATOM     33  C   UNL A   1      46.006  34.611  30.342  1.00  0.00     0.014 A 
ATOM     34  C   UNL A   1      45.385  35.319  28.116  1.00  0.00     0.014 A 
ATOM     35  C   UNL A   1      45.503  33.334  30.072  1.00  0.00     0.010 A 
ATOM     36  C   UNL A   1      44.814  34.069  27.875  1.00  0.00     0.010 A 
ATOM     37  C   UNL A   1      44.861  33.062  28.852  1.00  0.00    -0.014 A 
BRANCH  37  38
ATOM     38  C   UNL A   1      44.232  31.738  28.590  1.00  0.00     0.031 A 
ATOM     39  C   UNL A   1      44.937  30.714  27.740  1.00  0.00     0.074 A 
ATOM     40  C   UNL A   1      43.004  31.474  29.085  1.00  0.00     0.049 A 
ATOM     41  N   UNL A   1      44.516  29.540  27.340  1.00  0.00    -0.248 NA
ATOM     42  C   UNL A   1      46.282  31.064  27.260  1.00  0.00     0.031 C 
ATOM     43  C   UNL A   1      42.206  32.394  29.899  1.00  0.00     0.029 A 
ATOM     44  N   UNL A   1      42.206  30.362  28.970  1.00  0.00    -0.354 N 
ATOM     45  C   UNL A   1      45.543  29.011  26.567  1.00  0.00     0.074 A 
ATOM     46  C   UNL A   1      46.579  30.020  26.499  1.00  0.00     0.031 C 
ATOM     47  C   UNL A   1      41.048  31.800  30.229  1.00  0.00     0.029 A 
ATOM     48  C   UNL A   1      40.991  30.482  29.606  1.00  0.00     0.049 A 
ATOM     49  H   UNL A   1      42.478  29.553  28.479  1.00  0.00     0.167 HD
ATOM     50  C   UNL A   1      45.629  27.786  25.990  1.00  0.00     0.034 A 
ATOM     51  C   UNL A   1      39.941  29.636  29.665  1.00  0.00     0.034 A 
ATOM     52  C   UNL A   1      44.591  26.787  26.064  1.00  0.00     0.049 A 
ATOM     53  C   UNL A   1      40.042  28.302  28.963  1.00  0.00     0.074 A 
ATOM     54  C   UNL A   1      44.587  25.509  25.528  1.00  0.00     0.029 A 
ATOM     55  N   UNL A   1      43.374  26.947  26.709  1.00  0.00    -0.354 N 
ATOM     56  N   UNL A   1      41.039  27.807  28.267  1.00  0.00    -0.248 NA
ATOM     57  C   UNL A   1      38.880  27.409  29.066  1.00  0.00     0.031 C 
ATOM     58  C   UNL A   1      43.345  24.924  25.794  1.00  0.00     0.029 A 
ATOM     59  C   UNL A   1      42.604  25.802  26.567  1.00  0.00     0.049 A 
ATOM     60  H   UNL A   1      43.096  27.756  27.197  1.00  0.00     0.167 HD
ATOM     61  C   UNL A   1      40.636  26.528  27.886  1.00  0.00     0.074 A 
ATOM     62  C   UNL A   1      39.320  26.322  28.450  1.00  0.00     0.031 C 
ATOM     63  C   UNL A   1      41.294  25.606  27.139  1.00  0.00     0.034 A 
BRANCH  50  64
ATOM     64  C   UNL A   1      46.887  27.461  25.222  1.00  0.00     0.023 A 
ATOM     65  C   UNL A   1      47.046  27.846  23.880  1.00  0.00     0.031 A 
ATOM     66  C   UNL A   1      47.950  26.778  25.841  1.00  0.00     0.131 A 
ATOM     67  C   UNL A   1      48.212  27.498  23.183  1.00  0.00     0.055 A 
ATOM     68  C   UNL A   1      49.140  26.502  25.165  1.00  0.00     0.041 A 
ATOM     69  F   UNL A   1      47.849  26.369  27.115  1.00  0.00    -0.206 F 
ATOM     70  C   UNL A   1      49.272  26.853  23.825  1.00  0.00     0.022 A 
BRANCH  67  71
ATOM     71  S   UNL A   1      48.281  27.804  21.398  1.00  0.00     0.124 S 
ATOM     72  O   UNL A   1      46.911  28.228  21.118  1.00  0.00    -0.237 OA
ATOM     73  O   UNL A   1      49.304  28.838  21.292  1.00  0.00    -0.237 OA
ATOM     74  O   UNL A   1      48.649  26.504  20.841  1.00  0.00    -0.744 OA
ENDBRANCH  67  71
ENDBRANCH  50  64
BRANCH  51  75
ATOM     75  C   UNL A   1      38.688  30.015  30.384  1.00  0.00     0.023 A 
ATOM     76  C   UNL A   1      37.796  30.953  29.838  1.00  0.00     0.031 A 
ATOM     77  C   UNL A   1      38.410  29.521  31.672  1.00  0.00     0.131 A 
ATOM     78  C   UNL A   1      36.721  31.429  30.605  1.00  0.00     0.055 A 
ATOM     79  C   UNL A   1      37.296  29.942  32.402  1.00  0.00     0.041 A 
ATOM     80  F   UNL A   1      39.226  28.623  32.246  1.00  0.00    -0.206 F 
ATOM     81  C   UNL A   1      36.457  30.919  31.877  1.00  0.00     0.022 A 
BRANCH  78  82
ATOM     82  S   UNL A   1      35.765  32.837  29.975  1.00  0.00     0.124 S 
ATOM     83  O   UNL A   1      34.395  32.371  30.159  1.00  0.00    -0.237 OA
ATOM     84  O   UNL A   1      36.200  33.915  30.855  1.00  0.00    -0.237 OA
ATOM     85  O   UNL A   1      36.205  32.951  28.587  1.00  0.00    -0.744 OA
ENDBRANCH  78  82
ENDBRANCH  51  75
BRANCH  63  86
ATOM     86  C   UNL A   1      40.621  24.267  26.946  1.00  0.00     0.023 A 
ATOM     87  C   UNL A   1      39.426  24.134  26.217  1.00  0.00     0.031 A 
ATOM     88  C   UNL A   1      41.177  23.110  27.520  1.00  0.00     0.131 A 
ATOM     89  C   UNL A   1      38.794  22.884  26.134  1.00  0.00     0.055 A 
ATOM     90  C   UNL A   1      40.579  21.858  27.376  1.00  0.00     0.041 A 
ATOM     91  F   UNL A   1      42.314  23.177  28.231  1.00  0.00    -0.206 F 
ATOM     92  C   UNL A   1      39.372  21.742  26.693  1.00  0.00     0.022 A 
BRANCH  89  93
ATOM     93  S   UNL A   1      37.149  22.789  25.373  1.00  0.00     0.124 S 
ATOM     94  O   UNL A   1      36.730  21.436  25.725  1.00  0.00    -0.237 OA
ATOM     95  O   UNL A   1      36.434  23.872  26.041  1.00  0.00    -0.237 OA
ATOM     96  O   UNL A   1      37.416  23.007  23.953  1.00  0.00    -0.744 OA
ENDBRANCH  89  93
ENDBRANCH  63  86
ENDBRANCH  37  38
ENDBRANCH  29  32
ENDBRANCH  27  28
ENDBRANCH  26  27
ENDBRANCH   1  26
TORSDOF 18
ENDMDL
