MODEL 1
REMARK VINA RESULT:     -10.1      0.000      0.000
REMARK SMILES C[N@@H+](CCCCC(=O)NCCCNC(=O)c1ccc(-c2c3nc(c(-c4cc(S(=O)(=O)[O-])ccc4F)c4ccc([nH]4)c(-c4cc(S(=O)(=O)[O-])ccc4F)c4nc(c(-c5cc(S(=O)(=O)[O-])ccc5F)c5ccc2[nH]5)C=C4)C=C3)cc1)CC(C)(C)O
REMARK SMILES IDX 7 1 8 2 9 3 6 5 5 6 4 7 3 8 2 9 1 10 79 12 80 13 81 14 82 15
REMARK SMILES IDX 83 16 10 18 11 19 12 20 13 21 14 22 15 24 16 25 17 26 78 27
REMARK SMILES IDX 18 28 77 29 19 30 20 31 21 32 71 33 22 34 76 35 70 36 72 37
REMARK SMILES IDX 23 38 75 39 69 40 68 41 24 43 56 44 36 45 55 46 37 47 40 48
REMARK SMILES IDX 54 49 73 50 38 51 39 52 53 54 74 55 41 56 25 57 26 58 34 59
REMARK SMILES IDX 27 60 33 61 35 62 32 63 28 64 29 65 30 66 31 67 57 68 58 69
REMARK SMILES IDX 66 70 59 71 65 72 67 73 64 74 60 75 61 76 62 77 63 78 42 79
REMARK SMILES IDX 43 80 51 81 44 82 50 83 52 84 49 85 45 86 46 87 47 88 48 89
REMARK H PARENT 9 4 2 11 83 17 13 23 72 42 40 53
REMARK Flexibility Score: inf
ROOT
ATOM      1  C   UNL A   1      33.657  28.034  22.639  1.00  0.00     0.219 C 
ATOM      2  O   UNL A   1      34.338  28.261  21.638  1.00  0.00    -0.275 OA
ATOM      3  N   UNL A   1      34.087  28.517  23.836  1.00  0.00    -0.356 N 
ATOM      4  H   UNL A   1      34.906  29.063  23.791  1.00  0.00     0.163 HD
ENDROOT
BRANCH   1   5
ATOM      5  C   UNL A   1      32.362  27.253  22.537  1.00  0.00     0.100 C 
BRANCH   5   6
ATOM      6  C   UNL A   1      32.565  25.802  22.093  1.00  0.00     0.016 C 
BRANCH   6   7
ATOM      7  C   UNL A   1      33.223  24.894  23.136  1.00  0.00     0.062 C 
BRANCH   7   8
ATOM      8  C   UNL A   1      32.314  24.374  24.253  1.00  0.00     0.262 C 
BRANCH   8   9
ATOM      9  N   UNL A   1      32.945  23.745  25.414  1.00  0.00    -0.335 N 
ATOM     10  C   UNL A   1      32.152  23.857  26.623  1.00  0.00     0.332 C 
ATOM     11  H   UNL A   1      32.939  22.743  25.216  1.00  0.00     0.347 HD
BRANCH   9  12
ATOM     12  C   UNL A   1      34.389  23.981  25.549  1.00  0.00     0.296 C 
BRANCH  12  13
ATOM     13  C   UNL A   1      35.479  22.871  25.328  1.00  0.00     0.108 C 
ATOM     14  C   UNL A   1      34.950  21.655  24.566  1.00  0.00     0.048 C 
ATOM     15  C   UNL A   1      36.644  23.494  24.544  1.00  0.00     0.048 C 
BRANCH  13  16
ATOM     16  O   UNL A   1      36.031  22.409  26.559  1.00  0.00    -0.385 OA
ATOM     17  H   UNL A   1      35.812  21.472  26.680  1.00  0.00     0.211 HD
ENDBRANCH  13  16
ENDBRANCH  12  13
ENDBRANCH   9  12
ENDBRANCH   8   9
ENDBRANCH   7   8
ENDBRANCH   6   7
ENDBRANCH   5   6
ENDBRANCH   1   5
BRANCH   3  18
ATOM     18  C   UNL A   1      33.535  28.356  25.170  1.00  0.00     0.117 C 
BRANCH  18  19
ATOM     19  C   UNL A   1      32.748  29.590  25.600  1.00  0.00     0.042 C 
BRANCH  19  20
ATOM     20  C   UNL A   1      32.939  29.976  27.052  1.00  0.00     0.118 C 
BRANCH  20  21
ATOM     21  N   UNL A   1      33.070  31.408  27.220  1.00  0.00    -0.352 N 
ATOM     22  C   UNL A   1      34.049  32.139  27.843  1.00  0.00     0.251 C 
ATOM     23  H   UNL A   1      32.342  31.940  26.825  1.00  0.00     0.163 HD
ATOM     24  O   UNL A   1      33.816  33.324  28.093  1.00  0.00    -0.269 OA
BRANCH  22  25
ATOM     25  C   UNL A   1      35.357  31.545  28.224  1.00  0.00     0.039 A 
ATOM     26  C   UNL A   1      35.411  30.173  28.491  1.00  0.00     0.014 A 
ATOM     27  C   UNL A   1      36.506  32.318  28.413  1.00  0.00     0.014 A 
ATOM     28  C   UNL A   1      36.596  29.593  28.955  1.00  0.00     0.010 A 
ATOM     29  C   UNL A   1      37.718  31.720  28.749  1.00  0.00     0.010 A 
ATOM     30  C   UNL A   1      37.761  30.363  29.091  1.00  0.00    -0.014 A 
BRANCH  30  31
ATOM     31  C   UNL A   1      38.983  29.800  29.724  1.00  0.00     0.031 A 
ATOM     32  C   UNL A   1      39.374  30.253  31.113  1.00  0.00     0.074 A 
ATOM     33  C   UNL A   1      39.739  28.902  29.065  1.00  0.00     0.049 A 
ATOM     34  N   UNL A   1      40.406  29.910  31.841  1.00  0.00    -0.248 NA
ATOM     35  C   UNL A   1      38.508  31.258  31.749  1.00  0.00     0.031 C 
ATOM     36  C   UNL A   1      39.491  28.427  27.702  1.00  0.00     0.029 A 
ATOM     37  N   UNL A   1      40.865  28.224  29.453  1.00  0.00    -0.354 N 
ATOM     38  C   UNL A   1      40.325  30.677  33.000  1.00  0.00     0.074 A 
ATOM     39  C   UNL A   1      39.192  31.559  32.841  1.00  0.00     0.031 C 
ATOM     40  C   UNL A   1      40.413  27.503  27.385  1.00  0.00     0.029 A 
ATOM     41  C   UNL A   1      41.335  27.343  28.506  1.00  0.00     0.049 A 
ATOM     42  H   UNL A   1      41.297  28.354  30.328  1.00  0.00     0.167 HD
ATOM     43  C   UNL A   1      41.099  30.627  34.114  1.00  0.00     0.034 A 
ATOM     44  C   UNL A   1      42.382  26.496  28.545  1.00  0.00     0.034 A 
ATOM     45  C   UNL A   1      42.200  29.709  34.272  1.00  0.00     0.049 A 
ATOM     46  C   UNL A   1      43.203  26.422  29.808  1.00  0.00     0.074 A 
ATOM     47  C   UNL A   1      43.028  29.530  35.365  1.00  0.00     0.029 A 
ATOM     48  N   UNL A   1      42.618  28.803  33.304  1.00  0.00    -0.354 N 
ATOM     49  N   UNL A   1      43.088  27.123  30.914  1.00  0.00    -0.248 NA
ATOM     50  C   UNL A   1      44.280  25.424  29.838  1.00  0.00     0.031 C 
ATOM     51  C   UNL A   1      43.977  28.552  35.041  1.00  0.00     0.029 A 
ATOM     52  C   UNL A   1      43.699  28.072  33.771  1.00  0.00     0.049 A 
ATOM     53  H   UNL A   1      42.206  28.697  32.416  1.00  0.00     0.167 HD
ATOM     54  C   UNL A   1      44.055  26.625  31.781  1.00  0.00     0.074 A 
ATOM     55  C   UNL A   1      44.732  25.555  31.076  1.00  0.00     0.031 C 
ATOM     56  C   UNL A   1      44.357  27.011  33.047  1.00  0.00     0.034 A 
BRANCH  43  57
ATOM     57  C   UNL A   1      40.782  31.602  35.224  1.00  0.00     0.023 A 
ATOM     58  C   UNL A   1      39.645  31.452  36.040  1.00  0.00     0.031 A 
ATOM     59  C   UNL A   1      41.595  32.730  35.438  1.00  0.00     0.131 A 
ATOM     60  C   UNL A   1      39.302  32.455  36.959  1.00  0.00     0.055 A 
ATOM     61  C   UNL A   1      41.297  33.679  36.418  1.00  0.00     0.041 A 
ATOM     62  F   UNL A   1      42.683  32.942  34.681  1.00  0.00    -0.206 F 
ATOM     63  C   UNL A   1      40.134  33.556  37.173  1.00  0.00     0.022 A 
BRANCH  60  64
ATOM     64  S   UNL A   1      37.671  32.385  37.751  1.00  0.00     0.124 S 
ATOM     65  O   UNL A   1      37.474  30.943  37.887  1.00  0.00    -0.237 OA
ATOM     66  O   UNL A   1      37.893  33.118  38.994  1.00  0.00    -0.237 OA
ATOM     67  O   UNL A   1      36.791  33.039  36.788  1.00  0.00    -0.744 OA
ENDBRANCH  60  64
ENDBRANCH  43  57
BRANCH  44  68
ATOM     68  C   UNL A   1      42.700  25.633  27.373  1.00  0.00     0.023 A 
ATOM     69  C   UNL A   1      42.239  24.309  27.301  1.00  0.00     0.031 A 
ATOM     70  C   UNL A   1      43.497  26.111  26.319  1.00  0.00     0.131 A 
ATOM     71  C   UNL A   1      42.616  23.493  26.224  1.00  0.00     0.055 A 
ATOM     72  C   UNL A   1      43.830  25.311  25.224  1.00  0.00     0.041 A 
ATOM     73  F   UNL A   1      43.954  27.374  26.332  1.00  0.00    -0.206 F 
ATOM     74  C   UNL A   1      43.399  23.989  25.179  1.00  0.00     0.022 A 
BRANCH  71  75
ATOM     75  S   UNL A   1      42.131  21.745  26.245  1.00  0.00     0.124 S 
ATOM     76  O   UNL A   1      42.481  21.355  27.605  1.00  0.00    -0.237 OA
ATOM     77  O   UNL A   1      40.705  21.825  25.947  1.00  0.00    -0.237 OA
ATOM     78  O   UNL A   1      42.952  21.151  25.193  1.00  0.00    -0.744 OA
ENDBRANCH  71  75
ENDBRANCH  44  68
BRANCH  56  79
ATOM     79  C   UNL A   1      45.432  26.229  33.759  1.00  0.00     0.023 A 
ATOM     80  C   UNL A   1      45.132  25.091  34.529  1.00  0.00     0.031 A 
ATOM     81  C   UNL A   1      46.773  26.644  33.683  1.00  0.00     0.131 A 
ATOM     82  C   UNL A   1      46.151  24.447  35.245  1.00  0.00     0.055 A 
ATOM     83  C   UNL A   1      47.791  25.962  34.350  1.00  0.00     0.041 A 
ATOM     84  F   UNL A   1      47.114  27.724  32.961  1.00  0.00    -0.206 F 
ATOM     85  C   UNL A   1      47.481  24.866  35.149  1.00  0.00     0.022 A 
BRANCH  82  86
ATOM     86  S   UNL A   1      45.699  23.116  36.391  1.00  0.00     0.124 S 
ATOM     87  O   UNL A   1      45.145  23.860  37.519  1.00  0.00    -0.237 OA
ATOM     88  O   UNL A   1      44.741  22.343  35.607  1.00  0.00    -0.237 OA
ATOM     89  O   UNL A   1      46.970  22.444  36.655  1.00  0.00    -0.744 OA
ENDBRANCH  82  86
ENDBRANCH  56  79
ENDBRANCH  30  31
ENDBRANCH  22  25
ENDBRANCH  20  21
ENDBRANCH  19  20
ENDBRANCH  18  19
ENDBRANCH   3  18
TORSDOF 20
ENDMDL
MODEL 2
REMARK VINA RESULT:      -9.9      4.796     10.144
REMARK SMILES C[N@@H+](CCCCC(=O)NCCCNC(=O)c1ccc(-c2c3nc(c(-c4cc(S(=O)(=O)[O-])ccc4F)c4ccc([nH]4)c(-c4cc(S(=O)(=O)[O-])ccc4F)c4nc(c(-c5cc(S(=O)(=O)[O-])ccc5F)c5ccc2[nH]5)C=C4)C=C3)cc1)CC(C)(C)O
REMARK SMILES IDX 7 1 8 2 9 3 6 5 5 6 4 7 3 8 2 9 1 10 79 12 80 13 81 14 82 15
REMARK SMILES IDX 83 16 10 18 11 19 12 20 13 21 14 22 15 24 16 25 17 26 78 27
REMARK SMILES IDX 18 28 77 29 19 30 20 31 21 32 71 33 22 34 76 35 70 36 72 37
REMARK SMILES IDX 23 38 75 39 69 40 68 41 24 43 56 44 36 45 55 46 37 47 40 48
REMARK SMILES IDX 54 49 73 50 38 51 39 52 53 54 74 55 41 56 25 57 26 58 34 59
REMARK SMILES IDX 27 60 33 61 35 62 32 63 28 64 29 65 30 66 31 67 57 68 58 69
REMARK SMILES IDX 66 70 59 71 65 72 67 73 64 74 60 75 61 76 62 77 63 78 42 79
REMARK SMILES IDX 43 80 51 81 44 82 50 83 52 84 49 85 45 86 46 87 47 88 48 89
REMARK H PARENT 9 4 2 11 83 17 13 23 72 42 40 53
REMARK Flexibility Score: inf
ROOT
ATOM      1  C   UNL A   1      33.727  24.332  23.227  1.00  0.00     0.219 C 
ATOM      2  O   UNL A   1      34.039  25.224  22.436  1.00  0.00    -0.275 OA
ATOM      3  N   UNL A   1      34.585  23.290  23.396  1.00  0.00    -0.356 N 
ATOM      4  H   UNL A   1      35.429  23.364  22.893  1.00  0.00     0.163 HD
ENDROOT
BRANCH   1   5
ATOM      5  C   UNL A   1      32.428  24.403  24.005  1.00  0.00     0.100 C 
BRANCH   5   6
ATOM      6  C   UNL A   1      32.602  24.955  25.422  1.00  0.00     0.016 C 
BRANCH   6   7
ATOM      7  C   UNL A   1      32.976  26.439  25.495  1.00  0.00     0.062 C 
BRANCH   7   8
ATOM      8  C   UNL A   1      31.821  27.436  25.365  1.00  0.00     0.262 C 
BRANCH   8   9
ATOM      9  N   UNL A   1      32.060  28.668  24.611  1.00  0.00    -0.335 N 
ATOM     10  C   UNL A   1      33.296  29.330  24.982  1.00  0.00     0.332 C 
ATOM     11  H   UNL A   1      32.229  28.368  23.650  1.00  0.00     0.347 HD
BRANCH   9  12
ATOM     12  C   UNL A   1      30.884  29.527  24.420  1.00  0.00     0.296 C 
BRANCH  12  13
ATOM     13  C   UNL A   1      30.062  29.597  23.083  1.00  0.00     0.108 C 
ATOM     14  C   UNL A   1      29.382  28.273  22.728  1.00  0.00     0.048 C 
ATOM     15  C   UNL A   1      28.995  30.691  23.234  1.00  0.00     0.048 C 
BRANCH  13  16
ATOM     16  O   UNL A   1      30.872  29.984  21.975  1.00  0.00    -0.385 OA
ATOM     17  H   UNL A   1      31.723  29.519  22.018  1.00  0.00     0.211 HD
ENDBRANCH  13  16
ENDBRANCH  12  13
ENDBRANCH   9  12
ENDBRANCH   8   9
ENDBRANCH   7   8
ENDBRANCH   6   7
ENDBRANCH   5   6
ENDBRANCH   1   5
BRANCH   3  18
ATOM     18  C   UNL A   1      34.457  22.085  24.198  1.00  0.00     0.117 C 
BRANCH  18  19
ATOM     19  C   UNL A   1      35.491  22.049  25.319  1.00  0.00     0.042 C 
BRANCH  19  20
ATOM     20  C   UNL A   1      36.914  22.292  24.861  1.00  0.00     0.118 C 
BRANCH  20  21
ATOM     21  N   UNL A   1      37.811  21.245  25.301  1.00  0.00    -0.352 N 
ATOM     22  C   UNL A   1      39.023  21.329  25.940  1.00  0.00     0.251 C 
ATOM     23  H   UNL A   1      37.505  20.329  25.113  1.00  0.00     0.163 HD
ATOM     24  O   UNL A   1      39.729  20.319  25.977  1.00  0.00    -0.269 OA
BRANCH  22  25
ATOM     25  C   UNL A   1      39.498  22.589  26.569  1.00  0.00     0.039 A 
ATOM     26  C   UNL A   1      38.941  23.798  26.140  1.00  0.00     0.014 A 
ATOM     27  C   UNL A   1      40.540  22.617  27.501  1.00  0.00     0.014 A 
ATOM     28  C   UNL A   1      39.433  25.012  26.628  1.00  0.00     0.010 A 
ATOM     29  C   UNL A   1      40.941  23.817  28.083  1.00  0.00     0.010 A 
ATOM     30  C   UNL A   1      40.441  25.032  27.602  1.00  0.00    -0.014 A 
BRANCH  30  31
ATOM     31  C   UNL A   1      41.080  26.309  28.020  1.00  0.00     0.031 A 
ATOM     32  C   UNL A   1      42.497  26.605  27.583  1.00  0.00     0.074 A 
ATOM     33  C   UNL A   1      40.407  27.188  28.785  1.00  0.00     0.049 A 
ATOM     34  N   UNL A   1      43.250  27.642  27.850  1.00  0.00    -0.248 NA
ATOM     35  C   UNL A   1      43.168  25.577  26.774  1.00  0.00     0.031 C 
ATOM     36  C   UNL A   1      39.053  26.991  29.309  1.00  0.00     0.029 A 
ATOM     37  N   UNL A   1      40.764  28.427  29.250  1.00  0.00    -0.354 N 
ATOM     38  C   UNL A   1      44.486  27.374  27.266  1.00  0.00     0.074 A 
ATOM     39  C   UNL A   1      44.404  26.045  26.704  1.00  0.00     0.031 C 
ATOM     40  C   UNL A   1      38.681  28.088  29.988  1.00  0.00     0.029 A 
ATOM     41  C   UNL A   1      39.777  29.053  29.975  1.00  0.00     0.049 A 
ATOM     42  H   UNL A   1      41.646  28.832  29.080  1.00  0.00     0.167 HD
ATOM     43  C   UNL A   1      45.577  28.174  27.170  1.00  0.00     0.034 A 
ATOM     44  C   UNL A   1      39.756  30.270  30.551  1.00  0.00     0.034 A 
ATOM     45  C   UNL A   1      45.624  29.514  27.699  1.00  0.00     0.049 A 
ATOM     46  C   UNL A   1      40.962  31.163  30.397  1.00  0.00     0.074 A 
ATOM     47  C   UNL A   1      46.651  30.439  27.628  1.00  0.00     0.029 A 
ATOM     48  N   UNL A   1      44.587  30.128  28.391  1.00  0.00    -0.354 N 
ATOM     49  N   UNL A   1      42.107  30.912  29.803  1.00  0.00    -0.248 NA
ATOM     50  C   UNL A   1      40.862  32.513  30.966  1.00  0.00     0.031 C 
ATOM     51  C   UNL A   1      46.255  31.590  28.318  1.00  0.00     0.029 A 
ATOM     52  C   UNL A   1      44.954  31.411  28.762  1.00  0.00     0.049 A 
ATOM     53  H   UNL A   1      43.718  29.710  28.590  1.00  0.00     0.167 HD
ATOM     54  C   UNL A   1      42.849  32.086  29.899  1.00  0.00     0.074 A 
ATOM     55  C   UNL A   1      42.015  33.047  30.593  1.00  0.00     0.031 C 
ATOM     56  C   UNL A   1      44.104  32.350  29.454  1.00  0.00     0.034 A 
BRANCH  43  57
ATOM     57  C   UNL A   1      46.798  27.604  26.485  1.00  0.00     0.023 A 
ATOM     58  C   UNL A   1      47.130  27.944  25.160  1.00  0.00     0.031 A 
ATOM     59  C   UNL A   1      47.613  26.665  27.142  1.00  0.00     0.131 A 
ATOM     60  C   UNL A   1      48.182  27.284  24.507  1.00  0.00     0.055 A 
ATOM     61  C   UNL A   1      48.715  26.078  26.516  1.00  0.00     0.041 A 
ATOM     62  F   UNL A   1      47.339  26.283  28.399  1.00  0.00    -0.206 F 
ATOM     63  C   UNL A   1      48.994  26.371  25.183  1.00  0.00     0.022 A 
BRANCH  60  64
ATOM     64  S   UNL A   1      48.369  27.510  22.716  1.00  0.00     0.124 S 
ATOM     65  O   UNL A   1      49.632  28.242  22.645  1.00  0.00    -0.237 OA
ATOM     66  O   UNL A   1      48.400  26.135  22.227  1.00  0.00    -0.237 OA
ATOM     67  O   UNL A   1      47.188  28.281  22.340  1.00  0.00    -0.744 OA
ENDBRANCH  60  64
ENDBRANCH  43  57
BRANCH  44  68
ATOM     68  C   UNL A   1      38.554  30.731  31.301  1.00  0.00     0.023 A 
ATOM     69  C   UNL A   1      37.477  31.344  30.640  1.00  0.00     0.031 A 
ATOM     70  C   UNL A   1      38.476  30.592  32.698  1.00  0.00     0.131 A 
ATOM     71  C   UNL A   1      36.391  31.838  31.378  1.00  0.00     0.055 A 
ATOM     72  C   UNL A   1      37.370  31.041  33.423  1.00  0.00     0.041 A 
ATOM     73  F   UNL A   1      39.472  30.002  33.378  1.00  0.00    -0.206 F 
ATOM     74  C   UNL A   1      36.325  31.680  32.764  1.00  0.00     0.022 A 
BRANCH  71  75
ATOM     75  S   UNL A   1      35.095  32.761  30.506  1.00  0.00     0.124 S 
ATOM     76  O   UNL A   1      34.775  31.859  29.407  1.00  0.00    -0.237 OA
ATOM     77  O   UNL A   1      34.076  32.901  31.541  1.00  0.00    -0.237 OA
ATOM     78  O   UNL A   1      35.763  34.003  30.121  1.00  0.00    -0.744 OA
ENDBRANCH  71  75
ENDBRANCH  44  68
BRANCH  56  79
ATOM     79  C   UNL A   1      44.618  33.753  29.660  1.00  0.00     0.023 A 
ATOM     80  C   UNL A   1      45.326  34.118  30.818  1.00  0.00     0.031 A 
ATOM     81  C   UNL A   1      44.375  34.742  28.690  1.00  0.00     0.131 A 
ATOM     82  C   UNL A   1      45.709  35.454  31.008  1.00  0.00     0.055 A 
ATOM     83  C   UNL A   1      44.812  36.056  28.859  1.00  0.00     0.041 A 
ATOM     84  F   UNL A   1      43.704  34.446  27.566  1.00  0.00    -0.206 F 
ATOM     85  C   UNL A   1      45.469  36.422  30.030  1.00  0.00     0.022 A 
BRANCH  82  86
ATOM     86  S   UNL A   1      46.431  35.931  32.601  1.00  0.00     0.124 S 
ATOM     87  O   UNL A   1      45.342  35.641  33.529  1.00  0.00    -0.237 OA
ATOM     88  O   UNL A   1      47.595  35.055  32.690  1.00  0.00    -0.237 OA
ATOM     89  O   UNL A   1      46.736  37.351  32.428  1.00  0.00    -0.744 OA
ENDBRANCH  82  86
ENDBRANCH  56  79
ENDBRANCH  30  31
ENDBRANCH  22  25
ENDBRANCH  20  21
ENDBRANCH  19  20
ENDBRANCH  18  19
ENDBRANCH   3  18
TORSDOF 20
ENDMDL
MODEL 3
REMARK VINA RESULT:      -9.9      2.202      2.926
REMARK SMILES C[N@@H+](CCCCC(=O)NCCCNC(=O)c1ccc(-c2c3nc(c(-c4cc(S(=O)(=O)[O-])ccc4F)c4ccc([nH]4)c(-c4cc(S(=O)(=O)[O-])ccc4F)c4nc(c(-c5cc(S(=O)(=O)[O-])ccc5F)c5ccc2[nH]5)C=C4)C=C3)cc1)CC(C)(C)O
REMARK SMILES IDX 7 1 8 2 9 3 6 5 5 6 4 7 3 8 2 9 1 10 79 12 80 13 81 14 82 15
REMARK SMILES IDX 83 16 10 18 11 19 12 20 13 21 14 22 15 24 16 25 17 26 78 27
REMARK SMILES IDX 18 28 77 29 19 30 20 31 21 32 71 33 22 34 76 35 70 36 72 37
REMARK SMILES IDX 23 38 75 39 69 40 68 41 24 43 56 44 36 45 55 46 37 47 40 48
REMARK SMILES IDX 54 49 73 50 38 51 39 52 53 54 74 55 41 56 25 57 26 58 34 59
REMARK SMILES IDX 27 60 33 61 35 62 32 63 28 64 29 65 30 66 31 67 57 68 58 69
REMARK SMILES IDX 66 70 59 71 65 72 67 73 64 74 60 75 61 76 62 77 63 78 42 79
REMARK SMILES IDX 43 80 51 81 44 82 50 83 52 84 49 85 45 86 46 87 47 88 48 89
REMARK H PARENT 9 4 2 11 83 17 13 23 72 42 40 53
REMARK Flexibility Score: inf
ROOT
ATOM      1  C   UNL A   1      31.941  25.953  25.778  1.00  0.00     0.219 C 
ATOM      2  O   UNL A   1      31.295  25.898  26.826  1.00  0.00    -0.275 OA
ATOM      3  N   UNL A   1      31.787  27.044  24.981  1.00  0.00    -0.356 N 
ATOM      4  H   UNL A   1      31.191  27.740  25.343  1.00  0.00     0.163 HD
ENDROOT
BRANCH   1   5
ATOM      5  C   UNL A   1      32.897  24.840  25.396  1.00  0.00     0.100 C 
BRANCH   5   6
ATOM      6  C   UNL A   1      33.279  23.941  26.574  1.00  0.00     0.016 C 
BRANCH   6   7
ATOM      7  C   UNL A   1      32.963  22.455  26.380  1.00  0.00     0.062 C 
BRANCH   7   8
ATOM      8  C   UNL A   1      34.028  21.466  26.864  1.00  0.00     0.262 C 
BRANCH   8   9
ATOM      9  N   UNL A   1      34.713  20.651  25.860  1.00  0.00    -0.335 N 
ATOM     10  C   UNL A   1      35.926  21.268  25.358  1.00  0.00     0.332 C 
ATOM     11  H   UNL A   1      35.052  19.830  26.362  1.00  0.00     0.347 HD
BRANCH   9  12
ATOM     12  C   UNL A   1      33.839  20.012  24.866  1.00  0.00     0.296 C 
BRANCH  12  13
ATOM     13  C   UNL A   1      33.350  18.523  24.963  1.00  0.00     0.108 C 
ATOM     14  C   UNL A   1      32.266  18.181  23.939  1.00  0.00     0.048 C 
ATOM     15  C   UNL A   1      34.562  17.605  24.745  1.00  0.00     0.048 C 
BRANCH  13  16
ATOM     16  O   UNL A   1      32.842  18.207  26.258  1.00  0.00    -0.385 OA
ATOM     17  H   UNL A   1      32.379  17.356  26.225  1.00  0.00     0.211 HD
ENDBRANCH  13  16
ENDBRANCH  12  13
ENDBRANCH   9  12
ENDBRANCH   8   9
ENDBRANCH   7   8
ENDBRANCH   6   7
ENDBRANCH   5   6
ENDBRANCH   1   5
BRANCH   3  18
ATOM     18  C   UNL A   1      32.360  27.349  23.680  1.00  0.00     0.117 C 
BRANCH  18  19
ATOM     19  C   UNL A   1      33.407  28.453  23.777  1.00  0.00     0.042 C 
BRANCH  19  20
ATOM     20  C   UNL A   1      33.787  28.827  25.195  1.00  0.00     0.118 C 
BRANCH  20  21
ATOM     21  N   UNL A   1      33.132  30.043  25.629  1.00  0.00    -0.352 N 
ATOM     22  C   UNL A   1      33.334  30.805  26.752  1.00  0.00     0.251 C 
ATOM     23  H   UNL A   1      32.430  30.375  25.023  1.00  0.00     0.163 HD
ATOM     24  O   UNL A   1      32.480  31.645  27.043  1.00  0.00    -0.269 OA
BRANCH  22  25
ATOM     25  C   UNL A   1      34.533  30.638  27.613  1.00  0.00     0.039 A 
ATOM     26  C   UNL A   1      35.435  31.702  27.711  1.00  0.00     0.014 A 
ATOM     27  C   UNL A   1      34.837  29.432  28.251  1.00  0.00     0.014 A 
ATOM     28  C   UNL A   1      36.628  31.551  28.426  1.00  0.00     0.010 A 
ATOM     29  C   UNL A   1      35.960  29.323  29.069  1.00  0.00     0.010 A 
ATOM     30  C   UNL A   1      36.903  30.357  29.108  1.00  0.00    -0.014 A 
BRANCH  30  31
ATOM     31  C   UNL A   1      38.227  30.123  29.743  1.00  0.00     0.031 A 
ATOM     32  C   UNL A   1      38.485  30.653  31.135  1.00  0.00     0.074 A 
ATOM     33  C   UNL A   1      39.190  29.453  29.082  1.00  0.00     0.049 A 
ATOM     34  N   UNL A   1      39.569  30.581  31.866  1.00  0.00    -0.248 NA
ATOM     35  C   UNL A   1      37.388  31.397  31.773  1.00  0.00     0.031 C 
ATOM     36  C   UNL A   1      39.076  28.938  27.716  1.00  0.00     0.029 A 
ATOM     37  N   UNL A   1      40.451  29.084  29.471  1.00  0.00    -0.354 N 
ATOM     38  C   UNL A   1      39.290  31.295  33.029  1.00  0.00     0.074 A 
ATOM     39  C   UNL A   1      37.969  31.857  32.870  1.00  0.00     0.031 C 
ATOM     40  C   UNL A   1      40.206  28.285  27.398  1.00  0.00     0.029 A 
ATOM     41  C   UNL A   1      41.134  28.360  28.522  1.00  0.00     0.049 A 
ATOM     42  H   UNL A   1      40.834  29.316  30.349  1.00  0.00     0.167 HD
ATOM     43  C   UNL A   1      40.048  31.439  34.145  1.00  0.00     0.034 A 
ATOM     44  C   UNL A   1      42.364  27.811  28.561  1.00  0.00     0.034 A 
ATOM     45  C   UNL A   1      41.347  30.834  34.303  1.00  0.00     0.049 A 
ATOM     46  C   UNL A   1      43.173  27.942  29.826  1.00  0.00     0.074 A 
ATOM     47  C   UNL A   1      42.191  30.867  35.398  1.00  0.00     0.029 A 
ATOM     48  N   UNL A   1      41.987  30.071  33.332  1.00  0.00    -0.354 N 
ATOM     49  N   UNL A   1      42.879  28.583  30.935  1.00  0.00    -0.248 NA
ATOM     50  C   UNL A   1      44.470  27.255  29.855  1.00  0.00     0.031 C 
ATOM     51  C   UNL A   1      43.360  30.168  35.074  1.00  0.00     0.029 A 
ATOM     52  C   UNL A   1      43.218  29.640  33.800  1.00  0.00     0.049 A 
ATOM     53  H   UNL A   1      41.619  29.868  32.442  1.00  0.00     0.167 HD
ATOM     54  C   UNL A   1      43.939  28.345  31.804  1.00  0.00     0.074 A 
ATOM     55  C   UNL A   1      44.870  27.490  31.095  1.00  0.00     0.031 C 
ATOM     56  C   UNL A   1      44.129  28.788  33.073  1.00  0.00     0.034 A 
BRANCH  43  57
ATOM     57  C   UNL A   1      39.488  32.293  35.260  1.00  0.00     0.023 A 
ATOM     58  C   UNL A   1      39.830  33.652  35.393  1.00  0.00     0.031 A 
ATOM     59  C   UNL A   1      38.647  31.732  36.236  1.00  0.00     0.131 A 
ATOM     60  C   UNL A   1      39.412  34.374  36.521  1.00  0.00     0.055 A 
ATOM     61  C   UNL A   1      38.160  32.482  37.310  1.00  0.00     0.041 A 
ATOM     62  F   UNL A   1      38.300  30.436  36.178  1.00  0.00    -0.206 F 
ATOM     63  C   UNL A   1      38.558  33.806  37.468  1.00  0.00     0.022 A 
BRANCH  60  64
ATOM     64  S   UNL A   1      40.135  36.012  36.820  1.00  0.00     0.124 S 
ATOM     65  O   UNL A   1      39.405  36.442  38.010  1.00  0.00    -0.237 OA
ATOM     66  O   UNL A   1      41.548  35.701  37.016  1.00  0.00    -0.237 OA
ATOM     67  O   UNL A   1      39.822  36.754  35.602  1.00  0.00    -0.744 OA
ENDBRANCH  60  64
ENDBRANCH  43  57
BRANCH  44  68
ATOM     68  C   UNL A   1      42.896  27.065  27.385  1.00  0.00     0.023 A 
ATOM     69  C   UNL A   1      42.610  25.703  27.200  1.00  0.00     0.031 A 
ATOM     70  C   UNL A   1      43.727  27.698  26.444  1.00  0.00     0.131 A 
ATOM     71  C   UNL A   1      43.185  25.006  26.127  1.00  0.00     0.055 A 
ATOM     72  C   UNL A   1      44.258  27.012  25.350  1.00  0.00     0.041 A 
ATOM     73  F   UNL A   1      44.022  29.002  26.568  1.00  0.00    -0.206 F 
ATOM     74  C   UNL A   1      43.998  25.654  25.195  1.00  0.00     0.022 A 
BRANCH  71  75
ATOM     75  S   UNL A   1      42.918  23.216  26.010  1.00  0.00     0.124 S 
ATOM     76  O   UNL A   1      43.162  22.969  24.594  1.00  0.00    -0.237 OA
ATOM     77  O   UNL A   1      43.921  22.699  26.934  1.00  0.00    -0.237 OA
ATOM     78  O   UNL A   1      41.532  23.050  26.443  1.00  0.00    -0.744 OA
ENDBRANCH  71  75
ENDBRANCH  44  68
BRANCH  56  79
ATOM     79  C   UNL A   1      45.367  28.304  33.786  1.00  0.00     0.023 A 
ATOM     80  C   UNL A   1      45.367  27.124  34.550  1.00  0.00     0.031 A 
ATOM     81  C   UNL A   1      46.557  29.050  33.715  1.00  0.00     0.131 A 
ATOM     82  C   UNL A   1      46.516  26.759  35.267  1.00  0.00     0.055 A 
ATOM     83  C   UNL A   1      47.714  28.648  34.382  1.00  0.00     0.041 A 
ATOM     84  F   UNL A   1      46.611  30.184  32.998  1.00  0.00    -0.206 F 
ATOM     85  C   UNL A   1      47.693  27.505  35.176  1.00  0.00     0.022 A 
BRANCH  82  86
ATOM     86  S   UNL A   1      46.416  25.352  36.406  1.00  0.00     0.124 S 
ATOM     87  O   UNL A   1      46.415  24.216  35.489  1.00  0.00    -0.237 OA
ATOM     88  O   UNL A   1      47.622  25.518  37.211  1.00  0.00    -0.237 OA
ATOM     89  O   UNL A   1      45.159  25.575  37.118  1.00  0.00    -0.744 OA
ENDBRANCH  82  86
ENDBRANCH  56  79
ENDBRANCH  30  31
ENDBRANCH  22  25
ENDBRANCH  20  21
ENDBRANCH  19  20
ENDBRANCH  18  19
ENDBRANCH   3  18
TORSDOF 20
ENDMDL
