MODEL 1
REMARK VINA RESULT:     -11.5      0.000      0.000
REMARK SMILES O=C(NCCCNC(=O)[C@@H]1CSCN1C(=O)CN1C(=O)CNC1=O)c1ccc(-c2c3nc(c(-c4cc(S(=O)(=O)[O-])ccc4F)c4ccc([nH]4)c(-c4cc(S(=O)(=O)[O-])ccc4F)c4nc(c(-c5cc(S(=O)(=O)[O-])ccc5F)c5ccc2[nH]5)C=C4)C=C3)cc1
REMARK SMILES IDX 5 1 4 2 3 3 1 4 2 5 25 7 26 8 87 9 27 10 86 11 28 12 29 13
REMARK SMILES IDX 30 14 80 15 31 16 85 17 79 18 81 19 32 20 84 21 78 22 77 23
REMARK SMILES IDX 33 25 65 26 45 27 64 28 46 29 49 30 63 31 82 32 47 33 48 34
REMARK SMILES IDX 62 36 83 37 50 38 34 39 35 40 43 41 36 42 42 43 44 44 41 45
REMARK SMILES IDX 37 46 38 47 39 48 40 49 66 50 67 51 75 52 68 53 74 54 76 55
REMARK SMILES IDX 73 56 69 57 70 58 71 59 72 60 51 61 52 62 60 63 53 64 59 65
REMARK SMILES IDX 61 66 58 67 54 68 55 69 56 70 57 71 6 72 7 73 8 74 9 76
REMARK SMILES IDX 10 77 11 78 14 79 12 80 13 81 15 82 16 83 17 84 18 85 19 86
REMARK SMILES IDX 23 87 20 88 21 89 22 90 24 91
REMARK H PARENT 3 6 81 24 49 35 7 75 22 92
REMARK Flexibility Score: inf
ROOT
ATOM      1  C   UNL A   1      31.536  31.826  26.517  1.00  0.00     0.042 C 
ENDROOT
BRANCH   1   2
ATOM      2  C   UNL A   1      32.783  32.364  27.204  1.00  0.00     0.118 C 
BRANCH   2   3
ATOM      3  N   UNL A   1      32.644  33.755  27.621  1.00  0.00    -0.352 N 
ATOM      4  O   UNL A   1      32.861  35.578  28.916  1.00  0.00    -0.269 OA
ATOM      5  C   UNL A   1      33.271  34.458  28.620  1.00  0.00     0.251 C 
ATOM      6  H   UNL A   1      31.992  34.277  27.100  1.00  0.00     0.163 HD
BRANCH   5   7
ATOM      7  C   UNL A   1      34.425  33.878  29.342  1.00  0.00     0.039 A 
ATOM      8  C   UNL A   1      35.730  34.266  29.036  1.00  0.00     0.014 A 
ATOM      9  C   UNL A   1      34.194  32.964  30.373  1.00  0.00     0.014 A 
ATOM     10  C   UNL A   1      36.806  33.631  29.648  1.00  0.00     0.010 A 
ATOM     11  C   UNL A   1      35.275  32.394  31.055  1.00  0.00     0.010 A 
ATOM     12  C   UNL A   1      36.591  32.700  30.676  1.00  0.00    -0.014 A 
BRANCH  12  13
ATOM     13  C   UNL A   1      37.755  32.091  31.370  1.00  0.00     0.031 A 
ATOM     14  C   UNL A   1      38.559  31.002  30.715  1.00  0.00     0.074 A 
ATOM     15  C   UNL A   1      38.091  32.538  32.596  1.00  0.00     0.049 A 
ATOM     16  N   UNL A   1      39.577  30.328  31.187  1.00  0.00    -0.248 NA
ATOM     17  C   UNL A   1      38.157  30.611  29.356  1.00  0.00     0.031 C 
ATOM     18  C   UNL A   1      37.387  33.594  33.328  1.00  0.00     0.029 A 
ATOM     19  N   UNL A   1      39.107  32.171  33.441  1.00  0.00    -0.354 N 
ATOM     20  C   UNL A   1      39.928  29.420  30.193  1.00  0.00     0.074 A 
ATOM     21  C   UNL A   1      38.986  29.608  29.108  1.00  0.00     0.031 C 
ATOM     22  C   UNL A   1      38.009  33.812  34.494  1.00  0.00     0.029 A 
ATOM     23  C   UNL A   1      39.109  32.864  34.628  1.00  0.00     0.049 A 
ATOM     24  H   UNL A   1      39.771  31.480  33.218  1.00  0.00     0.167 HD
ATOM     25  C   UNL A   1      40.945  28.521  30.188  1.00  0.00     0.034 A 
ATOM     26  C   UNL A   1      39.886  32.732  35.721  1.00  0.00     0.034 A 
ATOM     27  C   UNL A   1      41.871  28.351  31.284  1.00  0.00     0.049 A 
ATOM     28  C   UNL A   1      40.974  31.693  35.713  1.00  0.00     0.074 A 
ATOM     29  C   UNL A   1      42.952  27.490  31.375  1.00  0.00     0.029 A 
ATOM     30  N   UNL A   1      41.820  29.046  32.487  1.00  0.00    -0.354 N 
ATOM     31  N   UNL A   1      41.297  30.845  34.764  1.00  0.00    -0.248 NA
ATOM     32  C   UNL A   1      41.801  31.594  36.921  1.00  0.00     0.031 C 
ATOM     33  C   UNL A   1      43.508  27.615  32.654  1.00  0.00     0.029 A 
ATOM     34  C   UNL A   1      42.828  28.611  33.336  1.00  0.00     0.049 A 
ATOM     35  H   UNL A   1      41.163  29.746  32.705  1.00  0.00     0.167 HD
ATOM     36  C   UNL A   1      42.384  30.128  35.253  1.00  0.00     0.074 A 
ATOM     37  C   UNL A   1      42.666  30.652  36.574  1.00  0.00     0.031 C 
ATOM     38  C   UNL A   1      43.089  29.131  34.659  1.00  0.00     0.034 A 
BRANCH  25  39
ATOM     39  C   UNL A   1      41.069  27.621  28.979  1.00  0.00     0.023 A 
ATOM     40  C   UNL A   1      42.062  27.818  28.004  1.00  0.00     0.031 A 
ATOM     41  C   UNL A   1      40.155  26.569  28.780  1.00  0.00     0.131 A 
ATOM     42  C   UNL A   1      42.068  27.034  26.839  1.00  0.00     0.055 A 
ATOM     43  C   UNL A   1      40.218  25.739  27.659  1.00  0.00     0.041 A 
ATOM     44  F   UNL A   1      39.172  26.341  29.664  1.00  0.00    -0.206 F 
ATOM     45  C   UNL A   1      41.168  25.981  26.670  1.00  0.00     0.022 A 
BRANCH  42  46
ATOM     46  S   UNL A   1      43.164  27.517  25.476  1.00  0.00     0.124 S 
ATOM     47  O   UNL A   1      43.599  26.215  24.971  1.00  0.00    -0.237 OA
ATOM     48  O   UNL A   1      42.271  28.272  24.606  1.00  0.00    -0.237 OA
ATOM     49  O   UNL A   1      44.207  28.301  26.135  1.00  0.00    -0.744 OA
ENDBRANCH  42  46
ENDBRANCH  25  39
BRANCH  26  50
ATOM     50  C   UNL A   1      39.634  33.579  36.919  1.00  0.00     0.023 A 
ATOM     51  C   UNL A   1      38.982  33.066  38.049  1.00  0.00     0.031 A 
ATOM     52  C   UNL A   1      40.044  34.925  36.945  1.00  0.00     0.131 A 
ATOM     53  C   UNL A   1      38.733  33.901  39.150  1.00  0.00     0.055 A 
ATOM     54  C   UNL A   1      39.839  35.738  38.060  1.00  0.00     0.041 A 
ATOM     55  F   UNL A   1      40.679  35.463  35.890  1.00  0.00    -0.206 F 
ATOM     56  C   UNL A   1      39.170  35.228  39.169  1.00  0.00     0.022 A 
BRANCH  53  57
ATOM     57  S   UNL A   1      37.771  33.244  40.539  1.00  0.00     0.124 S 
ATOM     58  O   UNL A   1      37.846  34.340  41.498  1.00  0.00    -0.237 OA
ATOM     59  O   UNL A   1      36.468  33.016  39.924  1.00  0.00    -0.237 OA
ATOM     60  O   UNL A   1      38.501  32.034  40.915  1.00  0.00    -0.744 OA
ENDBRANCH  53  57
ENDBRANCH  26  50
BRANCH  38  61
ATOM     61  C   UNL A   1      44.267  28.580  35.424  1.00  0.00     0.023 A 
ATOM     62  C   UNL A   1      44.123  27.549  36.368  1.00  0.00     0.031 A 
ATOM     63  C   UNL A   1      45.553  29.108  35.210  1.00  0.00     0.131 A 
ATOM     64  C   UNL A   1      45.238  27.114  37.102  1.00  0.00     0.055 A 
ATOM     65  C   UNL A   1      46.668  28.631  35.900  1.00  0.00     0.041 A 
ATOM     66  F   UNL A   1      45.746  30.097  34.322  1.00  0.00    -0.206 F 
ATOM     67  C   UNL A   1      46.512  27.637  36.860  1.00  0.00     0.022 A 
BRANCH  64  68
ATOM     68  S   UNL A   1      44.988  25.915  38.439  1.00  0.00     0.124 S 
ATOM     69  O   UNL A   1      44.761  24.678  37.700  1.00  0.00    -0.237 OA
ATOM     70  O   UNL A   1      46.247  25.997  39.173  1.00  0.00    -0.237 OA
ATOM     71  O   UNL A   1      43.822  26.434  39.152  1.00  0.00    -0.744 OA
ENDBRANCH  64  68
ENDBRANCH  38  61
ENDBRANCH  12  13
ENDBRANCH   5   7
ENDBRANCH   2   3
ENDBRANCH   1   2
BRANCH   1  72
ATOM     72  C   UNL A   1      31.732  30.465  25.870  1.00  0.00     0.117 C 
BRANCH  72  73
ATOM     73  N   UNL A   1      30.857  30.228  24.738  1.00  0.00    -0.354 N 
ATOM     74  C   UNL A   1      30.791  29.172  23.876  1.00  0.00     0.243 C 
ATOM     75  H   UNL A   1      30.206  30.945  24.562  1.00  0.00     0.163 HD
ATOM     76  O   UNL A   1      29.843  29.178  23.083  1.00  0.00    -0.273 OA
BRANCH  74  77
ATOM     77  C   UNL A   1      31.815  28.010  23.935  1.00  0.00     0.185 C 
ATOM     78  C   UNL A   1      32.370  27.743  22.518  1.00  0.00     0.106 C 
ATOM     79  N   UNL A   1      31.184  26.770  24.448  1.00  0.00    -0.319 N 
ATOM     80  S   UNL A   1      32.084  25.992  22.158  1.00  0.00    -0.138 SA
ATOM     81  C   UNL A   1      30.785  25.858  23.400  1.00  0.00     0.190 C 
BRANCH  79  82
ATOM     82  C   UNL A   1      31.408  26.345  25.746  1.00  0.00     0.244 C 
ATOM     83  O   UNL A   1      30.681  26.727  26.667  1.00  0.00    -0.273 OA
BRANCH  82  84
ATOM     84  C   UNL A   1      32.625  25.467  26.069  1.00  0.00     0.230 C 
BRANCH  84  85
ATOM     85  N   UNL A   1      32.456  24.059  25.750  1.00  0.00    -0.253 N 
ATOM     86  C   UNL A   1      31.653  23.202  26.453  1.00  0.00     0.250 C 
ATOM     87  C   UNL A   1      33.169  23.367  24.826  1.00  0.00     0.325 C 
ATOM     88  O   UNL A   1      30.917  23.485  27.386  1.00  0.00    -0.272 OA
ATOM     89  C   UNL A   1      31.863  21.791  25.923  1.00  0.00     0.218 C 
ATOM     90  N   UNL A   1      32.802  22.046  24.872  1.00  0.00    -0.329 N 
ATOM     91  O   UNL A   1      34.034  23.795  24.073  1.00  0.00    -0.248 OA
ATOM     92  H   UNL A   1      33.143  21.357  24.256  1.00  0.00     0.165 HD
ENDBRANCH  84  85
ENDBRANCH  82  84
ENDBRANCH  79  82
ENDBRANCH  74  77
ENDBRANCH  72  73
ENDBRANCH   1  72
TORSDOF 16
ENDMDL
MODEL 2
REMARK VINA RESULT:     -11.5      2.573      8.020
REMARK SMILES O=C(NCCCNC(=O)[C@@H]1CSCN1C(=O)CN1C(=O)CNC1=O)c1ccc(-c2c3nc(c(-c4cc(S(=O)(=O)[O-])ccc4F)c4ccc([nH]4)c(-c4cc(S(=O)(=O)[O-])ccc4F)c4nc(c(-c5cc(S(=O)(=O)[O-])ccc5F)c5ccc2[nH]5)C=C4)C=C3)cc1
REMARK SMILES IDX 5 1 4 2 3 3 1 4 2 5 25 7 26 8 87 9 27 10 86 11 28 12 29 13
REMARK SMILES IDX 30 14 80 15 31 16 85 17 79 18 81 19 32 20 84 21 78 22 77 23
REMARK SMILES IDX 33 25 65 26 45 27 64 28 46 29 49 30 63 31 82 32 47 33 48 34
REMARK SMILES IDX 62 36 83 37 50 38 34 39 35 40 43 41 36 42 42 43 44 44 41 45
REMARK SMILES IDX 37 46 38 47 39 48 40 49 66 50 67 51 75 52 68 53 74 54 76 55
REMARK SMILES IDX 73 56 69 57 70 58 71 59 72 60 51 61 52 62 60 63 53 64 59 65
REMARK SMILES IDX 61 66 58 67 54 68 55 69 56 70 57 71 6 72 7 73 8 74 9 76
REMARK SMILES IDX 10 77 11 78 14 79 12 80 13 81 15 82 16 83 17 84 18 85 19 86
REMARK SMILES IDX 23 87 20 88 21 89 22 90 24 91
REMARK H PARENT 3 6 81 24 49 35 7 75 22 92
REMARK Flexibility Score: inf
ROOT
ATOM      1  C   UNL A   1      32.827  28.996  23.811  1.00  0.00     0.042 C 
ENDROOT
BRANCH   1   2
ATOM      2  C   UNL A   1      33.132  29.207  25.287  1.00  0.00     0.118 C 
BRANCH   2   3
ATOM      3  N   UNL A   1      32.717  30.519  25.769  1.00  0.00    -0.352 N 
ATOM      4  O   UNL A   1      32.545  32.273  27.162  1.00  0.00    -0.269 OA
ATOM      5  C   UNL A   1      33.171  31.271  26.825  1.00  0.00     0.251 C 
ATOM      6  H   UNL A   1      31.990  30.936  25.252  1.00  0.00     0.163 HD
BRANCH   5   7
ATOM      7  C   UNL A   1      34.396  30.882  27.558  1.00  0.00     0.039 A 
ATOM      8  C   UNL A   1      34.552  29.588  28.055  1.00  0.00     0.014 A 
ATOM      9  C   UNL A   1      35.424  31.817  27.712  1.00  0.00     0.014 A 
ATOM     10  C   UNL A   1      35.660  29.271  28.835  1.00  0.00     0.010 A 
ATOM     11  C   UNL A   1      36.581  31.469  28.416  1.00  0.00     0.010 A 
ATOM     12  C   UNL A   1      36.696  30.203  29.011  1.00  0.00    -0.014 A 
BRANCH  12  13
ATOM     13  C   UNL A   1      37.905  29.817  29.782  1.00  0.00     0.031 A 
ATOM     14  C   UNL A   1      38.147  30.368  31.161  1.00  0.00     0.074 A 
ATOM     15  C   UNL A   1      38.783  28.955  29.233  1.00  0.00     0.049 A 
ATOM     16  N   UNL A   1      39.165  30.176  31.960  1.00  0.00    -0.248 NA
ATOM     17  C   UNL A   1      37.114  31.260  31.706  1.00  0.00     0.031 C 
ATOM     18  C   UNL A   1      38.650  28.354  27.903  1.00  0.00     0.029 A 
ATOM     19  N   UNL A   1      39.953  28.430  29.718  1.00  0.00    -0.354 N 
ATOM     20  C   UNL A   1      38.908  30.937  33.096  1.00  0.00     0.074 A 
ATOM     21  C   UNL A   1      37.653  31.621  32.862  1.00  0.00     0.031 C 
ATOM     22  C   UNL A   1      39.676  27.518  27.693  1.00  0.00     0.029 A 
ATOM     23  C   UNL A   1      40.579  27.580  28.837  1.00  0.00     0.049 A 
ATOM     24  H   UNL A   1      40.309  28.639  30.611  1.00  0.00     0.167 HD
ATOM     25  C   UNL A   1      39.649  31.045  34.228  1.00  0.00     0.034 A 
ATOM     26  C   UNL A   1      41.764  26.945  28.920  1.00  0.00     0.034 A 
ATOM     27  C   UNL A   1      40.899  30.353  34.439  1.00  0.00     0.049 A 
ATOM     28  C   UNL A   1      42.593  27.122  30.163  1.00  0.00     0.074 A 
ATOM     29  C   UNL A   1      41.718  30.370  35.556  1.00  0.00     0.029 A 
ATOM     30  N   UNL A   1      41.522  29.529  33.508  1.00  0.00    -0.354 N 
ATOM     31  N   UNL A   1      42.334  27.841  31.231  1.00  0.00    -0.248 NA
ATOM     32  C   UNL A   1      43.870  26.403  30.213  1.00  0.00     0.031 C 
ATOM     33  C   UNL A   1      42.863  29.615  35.274  1.00  0.00     0.029 A 
ATOM     34  C   UNL A   1      42.726  29.059  34.012  1.00  0.00     0.049 A 
ATOM     35  H   UNL A   1      41.159  29.310  32.620  1.00  0.00     0.167 HD
ATOM     36  C   UNL A   1      43.408  27.638  32.092  1.00  0.00     0.074 A 
ATOM     37  C   UNL A   1      44.309  26.722  31.421  1.00  0.00     0.031 C 
ATOM     38  C   UNL A   1      43.624  28.158  33.327  1.00  0.00     0.034 A 
BRANCH  25  39
ATOM     39  C   UNL A   1      39.145  31.988  35.298  1.00  0.00     0.023 A 
ATOM     40  C   UNL A   1      39.590  33.319  35.387  1.00  0.00     0.031 A 
ATOM     41  C   UNL A   1      38.231  31.537  36.269  1.00  0.00     0.131 A 
ATOM     42  C   UNL A   1      39.188  34.124  36.464  1.00  0.00     0.055 A 
ATOM     43  C   UNL A   1      37.770  32.369  37.291  1.00  0.00     0.041 A 
ATOM     44  F   UNL A   1      37.783  30.273  36.251  1.00  0.00    -0.206 F 
ATOM     45  C   UNL A   1      38.263  33.666  37.405  1.00  0.00     0.022 A 
BRANCH  42  46
ATOM     46  S   UNL A   1      40.017  35.719  36.711  1.00  0.00     0.124 S 
ATOM     47  O   UNL A   1      39.646  36.436  35.492  1.00  0.00    -0.237 OA
ATOM     48  O   UNL A   1      39.409  36.201  37.946  1.00  0.00    -0.237 OA
ATOM     49  O   UNL A   1      41.431  35.360  36.808  1.00  0.00    -0.744 OA
ENDBRANCH  42  46
ENDBRANCH  25  39
BRANCH  26  50
ATOM     50  C   UNL A   1      42.247  26.121  27.778  1.00  0.00     0.023 A 
ATOM     51  C   UNL A   1      41.885  24.773  27.649  1.00  0.00     0.031 A 
ATOM     52  C   UNL A   1      43.087  26.678  26.796  1.00  0.00     0.131 A 
ATOM     53  C   UNL A   1      42.383  24.017  26.576  1.00  0.00     0.055 A 
ATOM     54  C   UNL A   1      43.539  25.937  25.704  1.00  0.00     0.041 A 
ATOM     55  F   UNL A   1      43.457  27.967  26.870  1.00  0.00    -0.206 F 
ATOM     56  C   UNL A   1      43.194  24.593  25.595  1.00  0.00     0.022 A 
BRANCH  53  57
ATOM     57  S   UNL A   1      42.003  22.245  26.512  1.00  0.00     0.124 S 
ATOM     58  O   UNL A   1      42.697  21.835  25.296  1.00  0.00    -0.237 OA
ATOM     59  O   UNL A   1      42.572  21.768  27.767  1.00  0.00    -0.237 OA
ATOM     60  O   UNL A   1      40.543  22.213  26.439  1.00  0.00    -0.744 OA
ENDBRANCH  53  57
ENDBRANCH  26  50
BRANCH  38  61
ATOM     61  C   UNL A   1      44.868  27.701  34.049  1.00  0.00     0.023 A 
ATOM     62  C   UNL A   1      44.899  26.509  34.794  1.00  0.00     0.031 A 
ATOM     63  C   UNL A   1      46.036  28.483  34.000  1.00  0.00     0.131 A 
ATOM     64  C   UNL A   1      46.060  26.159  35.502  1.00  0.00     0.055 A 
ATOM     65  C   UNL A   1      47.206  28.100  34.658  1.00  0.00     0.041 A 
ATOM     66  F   UNL A   1      46.060  29.632  33.306  1.00  0.00    -0.206 F 
ATOM     67  C   UNL A   1      47.218  26.938  35.424  1.00  0.00     0.022 A 
BRANCH  64  68
ATOM     68  S   UNL A   1      46.010  24.715  36.599  1.00  0.00     0.124 S 
ATOM     69  O   UNL A   1      44.863  23.979  36.080  1.00  0.00    -0.237 OA
ATOM     70  O   UNL A   1      47.316  24.105  36.372  1.00  0.00    -0.237 OA
ATOM     71  O   UNL A   1      45.823  25.300  37.927  1.00  0.00    -0.744 OA
ENDBRANCH  64  68
ENDBRANCH  38  61
ENDBRANCH  12  13
ENDBRANCH   5   7
ENDBRANCH   2   3
ENDBRANCH   1   2
BRANCH   1  72
ATOM     72  C   UNL A   1      33.832  28.107  23.098  1.00  0.00     0.117 C 
BRANCH  72  73
ATOM     73  N   UNL A   1      33.266  27.364  21.988  1.00  0.00    -0.354 N 
ATOM     74  C   UNL A   1      32.928  26.046  21.886  1.00  0.00     0.243 C 
ATOM     75  H   UNL A   1      33.101  27.896  21.177  1.00  0.00     0.163 HD
ATOM     76  O   UNL A   1      32.330  25.719  20.855  1.00  0.00    -0.273 OA
BRANCH  74  77
ATOM     77  C   UNL A   1      33.227  25.039  23.026  1.00  0.00     0.185 C 
ATOM     78  C   UNL A   1      33.626  23.678  22.416  1.00  0.00     0.106 C 
ATOM     79  N   UNL A   1      32.040  24.851  23.895  1.00  0.00    -0.319 N 
ATOM     80  S   UNL A   1      32.514  22.435  23.121  1.00  0.00    -0.138 SA
ATOM     81  C   UNL A   1      31.277  23.667  23.567  1.00  0.00     0.190 C 
BRANCH  79  82
ATOM     82  C   UNL A   1      31.971  25.447  25.141  1.00  0.00     0.244 C 
ATOM     83  O   UNL A   1      30.990  26.125  25.461  1.00  0.00    -0.273 OA
BRANCH  82  84
ATOM     84  C   UNL A   1      33.160  25.351  26.108  1.00  0.00     0.230 C 
BRANCH  84  85
ATOM     85  N   UNL A   1      33.588  23.994  26.405  1.00  0.00    -0.253 N 
ATOM     86  C   UNL A   1      32.867  23.108  27.159  1.00  0.00     0.250 C 
ATOM     87  C   UNL A   1      34.805  23.469  26.117  1.00  0.00     0.325 C 
ATOM     88  O   UNL A   1      31.752  23.281  27.628  1.00  0.00    -0.272 OA
ATOM     89  C   UNL A   1      33.708  21.860  27.384  1.00  0.00     0.218 C 
ATOM     90  N   UNL A   1      34.880  22.200  26.634  1.00  0.00    -0.329 N 
ATOM     91  O   UNL A   1      35.732  24.006  25.526  1.00  0.00    -0.248 OA
ATOM     92  H   UNL A   1      35.647  21.596  26.504  1.00  0.00     0.165 HD
ENDBRANCH  84  85
ENDBRANCH  82  84
ENDBRANCH  79  82
ENDBRANCH  74  77
ENDBRANCH  72  73
ENDBRANCH   1  72
TORSDOF 16
ENDMDL
MODEL 3
REMARK VINA RESULT:     -11.5      5.592     10.752
REMARK SMILES O=C(NCCCNC(=O)[C@@H]1CSCN1C(=O)CN1C(=O)CNC1=O)c1ccc(-c2c3nc(c(-c4cc(S(=O)(=O)[O-])ccc4F)c4ccc([nH]4)c(-c4cc(S(=O)(=O)[O-])ccc4F)c4nc(c(-c5cc(S(=O)(=O)[O-])ccc5F)c5ccc2[nH]5)C=C4)C=C3)cc1
REMARK SMILES IDX 5 1 4 2 3 3 1 4 2 5 25 7 26 8 87 9 27 10 86 11 28 12 29 13
REMARK SMILES IDX 30 14 80 15 31 16 85 17 79 18 81 19 32 20 84 21 78 22 77 23
REMARK SMILES IDX 33 25 65 26 45 27 64 28 46 29 49 30 63 31 82 32 47 33 48 34
REMARK SMILES IDX 62 36 83 37 50 38 34 39 35 40 43 41 36 42 42 43 44 44 41 45
REMARK SMILES IDX 37 46 38 47 39 48 40 49 66 50 67 51 75 52 68 53 74 54 76 55
REMARK SMILES IDX 73 56 69 57 70 58 71 59 72 60 51 61 52 62 60 63 53 64 59 65
REMARK SMILES IDX 61 66 58 67 54 68 55 69 56 70 57 71 6 72 7 73 8 74 9 76
REMARK SMILES IDX 10 77 11 78 14 79 12 80 13 81 15 82 16 83 17 84 18 85 19 86
REMARK SMILES IDX 23 87 20 88 21 89 22 90 24 91
REMARK H PARENT 3 6 81 24 49 35 7 75 22 92
REMARK Flexibility Score: inf
ROOT
ATOM      1  C   UNL A   1      34.530  21.813  26.170  1.00  0.00     0.042 C 
ENDROOT
BRANCH   1   2
ATOM      2  C   UNL A   1      35.971  22.286  26.032  1.00  0.00     0.118 C 
BRANCH   2   3
ATOM      3  N   UNL A   1      36.918  21.184  25.901  1.00  0.00    -0.352 N 
ATOM      4  O   UNL A   1      38.887  20.151  25.582  1.00  0.00    -0.269 OA
ATOM      5  C   UNL A   1      38.291  21.180  25.894  1.00  0.00     0.251 C 
ATOM      6  H   UNL A   1      36.505  20.296  25.802  1.00  0.00     0.163 HD
BRANCH   5   7
ATOM      7  C   UNL A   1      39.053  22.397  26.250  1.00  0.00     0.039 A 
ATOM      8  C   UNL A   1      40.235  22.313  26.988  1.00  0.00     0.014 A 
ATOM      9  C   UNL A   1      38.599  23.641  25.801  1.00  0.00     0.014 A 
ATOM     10  C   UNL A   1      40.877  23.473  27.406  1.00  0.00     0.010 A 
ATOM     11  C   UNL A   1      39.299  24.802  26.143  1.00  0.00     0.010 A 
ATOM     12  C   UNL A   1      40.427  24.731  26.975  1.00  0.00    -0.014 A 
BRANCH  12  13
ATOM     13  C   UNL A   1      41.175  25.953  27.370  1.00  0.00     0.031 A 
ATOM     14  C   UNL A   1      40.539  26.994  28.250  1.00  0.00     0.074 A 
ATOM     15  C   UNL A   1      42.440  26.112  26.936  1.00  0.00     0.049 A 
ATOM     16  N   UNL A   1      41.024  28.138  28.659  1.00  0.00    -0.248 NA
ATOM     17  C   UNL A   1      39.175  26.716  28.721  1.00  0.00     0.031 C 
ATOM     18  C   UNL A   1      43.162  25.166  26.081  1.00  0.00     0.029 A 
ATOM     19  N   UNL A   1      43.347  27.117  27.155  1.00  0.00    -0.354 N 
ATOM     20  C   UNL A   1      40.021  28.728  29.420  1.00  0.00     0.074 A 
ATOM     21  C   UNL A   1      38.887  27.828  29.383  1.00  0.00     0.031 C 
ATOM     22  C   UNL A   1      44.406  25.618  25.876  1.00  0.00     0.029 A 
ATOM     23  C   UNL A   1      44.550  26.918  26.519  1.00  0.00     0.049 A 
ATOM     24  H   UNL A   1      43.156  27.904  27.714  1.00  0.00     0.167 HD
ATOM     25  C   UNL A   1      40.050  29.908  30.091  1.00  0.00     0.034 A 
ATOM     26  C   UNL A   1      45.638  27.707  26.432  1.00  0.00     0.034 A 
ATOM     27  C   UNL A   1      41.194  30.791  30.113  1.00  0.00     0.049 A 
ATOM     28  C   UNL A   1      45.628  29.034  27.141  1.00  0.00     0.074 A 
ATOM     29  C   UNL A   1      41.341  31.996  30.780  1.00  0.00     0.029 A 
ATOM     30  N   UNL A   1      42.383  30.574  29.426  1.00  0.00    -0.354 N 
ATOM     31  N   UNL A   1      44.674  29.576  27.861  1.00  0.00    -0.248 NA
ATOM     32  C   UNL A   1      46.840  29.853  27.026  1.00  0.00     0.031 C 
ATOM     33  C   UNL A   1      42.587  32.537  30.441  1.00  0.00     0.029 A 
ATOM     34  C   UNL A   1      43.254  31.635  29.627  1.00  0.00     0.049 A 
ATOM     35  H   UNL A   1      42.578  29.781  28.877  1.00  0.00     0.167 HD
ATOM     36  C   UNL A   1      45.183  30.792  28.307  1.00  0.00     0.074 A 
ATOM     37  C   UNL A   1      46.530  30.894  27.784  1.00  0.00     0.031 C 
ATOM     38  C   UNL A   1      44.591  31.733  29.086  1.00  0.00     0.034 A 
BRANCH  25  39
ATOM     39  C   UNL A   1      38.788  30.328  30.810  1.00  0.00     0.023 A 
ATOM     40  C   UNL A   1      37.861  31.213  30.231  1.00  0.00     0.031 A 
ATOM     41  C   UNL A   1      38.523  29.863  32.112  1.00  0.00     0.131 A 
ATOM     42  C   UNL A   1      36.764  31.669  30.978  1.00  0.00     0.055 A 
ATOM     43  C   UNL A   1      37.385  30.255  32.819  1.00  0.00     0.041 A 
ATOM     44  F   UNL A   1      39.377  29.031  32.727  1.00  0.00    -0.206 F 
ATOM     45  C   UNL A   1      36.506  31.179  32.260  1.00  0.00     0.022 A 
BRANCH  42  46
ATOM     46  S   UNL A   1      35.771  33.035  30.314  1.00  0.00     0.124 S 
ATOM     47  O   UNL A   1      35.947  34.058  31.344  1.00  0.00    -0.237 OA
ATOM     48  O   UNL A   1      36.417  33.300  29.034  1.00  0.00    -0.237 OA
ATOM     49  O   UNL A   1      34.424  32.472  30.230  1.00  0.00    -0.744 OA
ENDBRANCH  42  46
ENDBRANCH  25  39
BRANCH  26  50
ATOM     50  C   UNL A   1      46.804  27.276  25.613  1.00  0.00     0.023 A 
ATOM     51  C   UNL A   1      46.987  27.743  24.304  1.00  0.00     0.031 A 
ATOM     52  C   UNL A   1      47.757  26.382  26.136  1.00  0.00     0.131 A 
ATOM     53  C   UNL A   1      48.081  27.292  23.549  1.00  0.00     0.055 A 
ATOM     54  C   UNL A   1      48.870  25.975  25.399  1.00  0.00     0.041 A 
ATOM     55  F   UNL A   1      47.632  25.910  27.387  1.00  0.00    -0.206 F 
ATOM     56  C   UNL A   1      49.032  26.424  24.093  1.00  0.00     0.022 A 
BRANCH  53  57
ATOM     57  S   UNL A   1      48.214  27.811  21.816  1.00  0.00     0.124 S 
ATOM     58  O   UNL A   1      49.375  28.693  21.858  1.00  0.00    -0.237 OA
ATOM     59  O   UNL A   1      48.400  26.537  21.132  1.00  0.00    -0.237 OA
ATOM     60  O   UNL A   1      46.936  28.474  21.561  1.00  0.00    -0.744 OA
ENDBRANCH  53  57
ENDBRANCH  26  50
BRANCH  38  61
ATOM     61  C   UNL A   1      45.425  32.935  29.455  1.00  0.00     0.023 A 
ATOM     62  C   UNL A   1      45.417  34.109  28.683  1.00  0.00     0.031 A 
ATOM     63  C   UNL A   1      46.249  32.895  30.594  1.00  0.00     0.131 A 
ATOM     64  C   UNL A   1      46.260  35.178  29.030  1.00  0.00     0.055 A 
ATOM     65  C   UNL A   1      47.040  33.982  30.968  1.00  0.00     0.041 A 
ATOM     66  F   UNL A   1      46.297  31.796  31.364  1.00  0.00    -0.206 F 
ATOM     67  C   UNL A   1      47.057  35.127  30.178  1.00  0.00     0.022 A 
BRANCH  64  68
ATOM     68  S   UNL A   1      46.365  36.604  27.915  1.00  0.00     0.124 S 
ATOM     69  O   UNL A   1      47.796  36.887  27.918  1.00  0.00    -0.237 OA
ATOM     70  O   UNL A   1      45.823  36.069  26.670  1.00  0.00    -0.237 OA
ATOM     71  O   UNL A   1      45.533  37.613  28.569  1.00  0.00    -0.744 OA
ENDBRANCH  64  68
ENDBRANCH  38  61
ENDBRANCH  12  13
ENDBRANCH   5   7
ENDBRANCH   2   3
ENDBRANCH   1   2
BRANCH   1  72
ATOM     72  C   UNL A   1      33.749  22.535  27.255  1.00  0.00     0.117 C 
BRANCH  72  73
ATOM     73  N   UNL A   1      32.314  22.346  27.161  1.00  0.00    -0.354 N 
ATOM     74  C   UNL A   1      31.377  23.024  26.439  1.00  0.00     0.243 C 
ATOM     75  H   UNL A   1      31.958  21.609  27.709  1.00  0.00     0.163 HD
ATOM     76  O   UNL A   1      30.237  22.547  26.446  1.00  0.00    -0.273 OA
BRANCH  74  77
ATOM     77  C   UNL A   1      31.743  24.284  25.612  1.00  0.00     0.185 C 
ATOM     78  C   UNL A   1      30.664  25.369  25.826  1.00  0.00     0.106 C 
ATOM     79  N   UNL A   1      31.829  23.966  24.166  1.00  0.00    -0.319 N 
ATOM     80  S   UNL A   1      30.054  25.839  24.188  1.00  0.00    -0.138 SA
ATOM     81  C   UNL A   1      30.628  24.305  23.437  1.00  0.00     0.190 C 
BRANCH  79  82
ATOM     82  C   UNL A   1      33.056  23.834  23.541  1.00  0.00     0.244 C 
ATOM     83  O   UNL A   1      33.329  22.814  22.902  1.00  0.00    -0.273 OA
BRANCH  82  84
ATOM     84  C   UNL A   1      34.130  24.917  23.715  1.00  0.00     0.230 C 
BRANCH  84  85
ATOM     85  N   UNL A   1      33.717  26.248  23.302  1.00  0.00    -0.253 N 
ATOM     86  C   UNL A   1      33.498  27.287  24.167  1.00  0.00     0.250 C 
ATOM     87  C   UNL A   1      33.348  26.608  22.048  1.00  0.00     0.325 C 
ATOM     88  O   UNL A   1      33.677  27.286  25.375  1.00  0.00    -0.272 OA
ATOM     89  C   UNL A   1      32.925  28.460  23.385  1.00  0.00     0.218 C 
ATOM     90  N   UNL A   1      32.929  27.915  22.060  1.00  0.00    -0.329 N 
ATOM     91  O   UNL A   1      33.337  25.912  21.042  1.00  0.00    -0.248 OA
ATOM     92  H   UNL A   1      32.665  28.417  21.255  1.00  0.00     0.165 HD
ENDBRANCH  84  85
ENDBRANCH  82  84
ENDBRANCH  79  82
ENDBRANCH  74  77
ENDBRANCH  72  73
ENDBRANCH   1  72
TORSDOF 16
ENDMDL
