MODEL 1
REMARK VINA RESULT:     -14.2      0.000      0.000
REMARK SMILES O=C(Cn1c(-c2nc(-c3ccc(C(F)(F)F)cc3)no2)cc2ccccc21)NCCCNC(=O)c1ccc(-c2c3nc(c(-c4cc(S(=O)(=O)[O-])ccc4F)c4ccc([nH]4)c(-c4cc(S(=O)(=O)[O-])ccc4F)c4nc(c(-c5cc(S(=O)(=O)[O-])ccc5F)c5ccc2[nH]5)C=C4)C=C3)cc1
REMARK SMILES IDX 29 1 28 2 1 3 2 4 3 6 4 7 5 8 27 9 21 10 22 11 26 12 23 13
REMARK SMILES IDX 25 14 24 15 6 16 7 17 20 18 8 19 19 20 9 21 10 22 18 23
REMARK SMILES IDX 11 24 17 25 12 26 13 27 14 28 15 29 16 30 30 31 31 32 32 33
REMARK SMILES IDX 33 34 34 36 35 37 36 38 97 39 37 40 96 41 38 42 39 43 40 44
REMARK SMILES IDX 90 45 41 46 95 47 89 48 91 49 42 50 94 51 88 52 87 53 43 55
REMARK SMILES IDX 75 56 55 57 74 58 56 59 59 60 73 61 92 62 57 63 58 64 72 66
REMARK SMILES IDX 93 67 60 68 44 69 45 70 53 71 46 72 52 73 54 74 51 75 47 76
REMARK SMILES IDX 48 77 49 78 50 79 76 80 77 81 85 82 78 83 84 84 86 85 83 86
REMARK SMILES IDX 79 87 80 88 81 89 82 90 61 91 62 92 70 93 63 94 69 95 71 96
REMARK SMILES IDX 68 97 64 98 65 99 66 100 67 101
REMARK H PARENT 28 5 32 35 91 54 59 65
REMARK Flexibility Score: inf
ROOT
ATOM      1  C   UNL A   1      31.982  29.428  26.949  1.00  0.00     0.117 C 
ENDROOT
BRANCH   1   2
ATOM      2  N   UNL A   1      31.787  28.961  25.587  1.00  0.00    -0.354 N 
ATOM      3  O   UNL A   1      33.569  27.520  25.439  1.00  0.00    -0.273 OA
ATOM      4  C   UNL A   1      32.568  28.025  24.944  1.00  0.00     0.239 C 
ATOM      5  H   UNL A   1      31.036  29.345  25.082  1.00  0.00     0.163 HD
BRANCH   4   6
ATOM      6  C   UNL A   1      32.087  27.680  23.539  1.00  0.00     0.222 C 
BRANCH   6   7
ATOM      7  N   UNL A   1      30.638  27.499  23.473  1.00  0.00    -0.327 N 
ATOM      8  C   UNL A   1      29.932  26.387  23.901  1.00  0.00     0.109 A 
ATOM      9  C   UNL A   1      29.756  28.454  22.979  1.00  0.00     0.049 A 
ATOM     10  C   UNL A   1      28.589  26.691  23.789  1.00  0.00     0.042 A 
ATOM     11  C   UNL A   1      28.468  28.017  23.297  1.00  0.00     0.000 A 
ATOM     12  C   UNL A   1      29.964  29.681  22.321  1.00  0.00     0.027 A 
ATOM     13  C   UNL A   1      27.378  28.883  23.081  1.00  0.00     0.010 A 
ATOM     14  C   UNL A   1      28.873  30.536  22.142  1.00  0.00     0.002 A 
ATOM     15  C   UNL A   1      27.599  30.153  22.540  1.00  0.00     0.001 A 
BRANCH   8  16
ATOM     16  C   UNL A   1      30.510  25.204  24.465  1.00  0.00     0.274 A 
ATOM     17  N   UNL A   1      31.095  24.237  23.779  1.00  0.00    -0.185 NA
ATOM     18  O   UNL A   1      30.458  24.935  25.805  1.00  0.00    -0.332 OA
ATOM     19  C   UNL A   1      31.391  23.314  24.759  1.00  0.00     0.202 A 
ATOM     20  N   UNL A   1      31.027  23.686  25.993  1.00  0.00    -0.057 NA
BRANCH  19  21
ATOM     21  C   UNL A   1      32.069  22.045  24.537  1.00  0.00     0.023 A 
ATOM     22  C   UNL A   1      32.037  21.464  23.262  1.00  0.00     0.013 A 
ATOM     23  C   UNL A   1      32.589  21.309  25.609  1.00  0.00     0.013 A 
ATOM     24  C   UNL A   1      32.442  20.140  23.072  1.00  0.00     0.014 A 
ATOM     25  C   UNL A   1      32.983  19.976  25.421  1.00  0.00     0.014 A 
ATOM     26  C   UNL A   1      32.879  19.368  24.158  1.00  0.00     0.056 A 
BRANCH  26  27
ATOM     27  C   UNL A   1      33.156  17.896  23.961  1.00  0.00     0.416 C 
ATOM     28  F   UNL A   1      34.432  17.560  24.307  1.00  0.00    -0.166 F 
ATOM     29  F   UNL A   1      32.348  17.100  24.714  1.00  0.00    -0.166 F 
ATOM     30  F   UNL A   1      33.001  17.474  22.675  1.00  0.00    -0.166 F 
ENDBRANCH  26  27
ENDBRANCH  19  21
ENDBRANCH   8  16
ENDBRANCH   6   7
ENDBRANCH   4   6
ENDBRANCH   1   2
BRANCH   1  31
ATOM     31  C   UNL A   1      32.545  30.853  26.988  1.00  0.00     0.042 C 
BRANCH  31  32
ATOM     32  C   UNL A   1      34.062  30.954  27.194  1.00  0.00     0.118 C 
BRANCH  32  33
ATOM     33  N   UNL A   1      34.484  31.929  28.177  1.00  0.00    -0.352 N 
ATOM     34  C   UNL A   1      35.707  32.304  28.669  1.00  0.00     0.251 C 
ATOM     35  H   UNL A   1      33.735  32.429  28.575  1.00  0.00     0.163 HD
ATOM     36  O   UNL A   1      35.738  33.392  29.249  1.00  0.00    -0.269 OA
BRANCH  34  37
ATOM     37  C   UNL A   1      36.935  31.461  28.634  1.00  0.00     0.039 A 
ATOM     38  C   UNL A   1      37.040  30.209  28.030  1.00  0.00     0.014 A 
ATOM     39  C   UNL A   1      38.040  31.949  29.362  1.00  0.00     0.014 A 
ATOM     40  C   UNL A   1      38.162  29.418  28.246  1.00  0.00     0.010 A 
ATOM     41  C   UNL A   1      39.172  31.168  29.565  1.00  0.00     0.010 A 
ATOM     42  C   UNL A   1      39.206  29.876  29.053  1.00  0.00    -0.014 A 
BRANCH  42  43
ATOM     43  C   UNL A   1      40.341  28.978  29.257  1.00  0.00     0.031 A 
ATOM     44  C   UNL A   1      40.630  28.665  30.683  1.00  0.00     0.074 A 
ATOM     45  C   UNL A   1      41.041  28.412  28.252  1.00  0.00     0.049 A 
ATOM     46  N   UNL A   1      41.661  29.008  31.383  1.00  0.00    -0.248 NA
ATOM     47  C   UNL A   1      39.567  28.017  31.465  1.00  0.00     0.031 C 
ATOM     48  C   UNL A   1      40.684  28.382  26.830  1.00  0.00     0.029 A 
ATOM     49  N   UNL A   1      42.170  27.644  28.303  1.00  0.00    -0.354 N 
ATOM     50  C   UNL A   1      41.475  28.440  32.645  1.00  0.00     0.074 A 
ATOM     51  C   UNL A   1      40.106  27.992  32.683  1.00  0.00     0.031 C 
ATOM     52  C   UNL A   1      41.425  27.440  26.204  1.00  0.00     0.029 A 
ATOM     53  C   UNL A   1      42.414  26.928  27.139  1.00  0.00     0.049 A 
ATOM     54  H   UNL A   1      42.757  27.603  29.091  1.00  0.00     0.167 HD
ATOM     55  C   UNL A   1      42.526  28.174  33.471  1.00  0.00     0.034 A 
ATOM     56  C   UNL A   1      43.319  25.936  26.966  1.00  0.00     0.034 A 
ATOM     57  C   UNL A   1      43.726  28.802  32.996  1.00  0.00     0.049 A 
ATOM     58  C   UNL A   1      44.349  26.041  28.019  1.00  0.00     0.074 A 
ATOM     59  C   UNL A   1      44.273  30.062  33.012  1.00  0.00     0.029 A 
ATOM     60  N   UNL A   1      44.420  28.057  32.079  1.00  0.00    -0.354 N 
ATOM     61  N   UNL A   1      45.223  27.005  28.090  1.00  0.00    -0.248 NA
ATOM     62  C   UNL A   1      44.221  25.223  29.221  1.00  0.00     0.031 C 
ATOM     63  C   UNL A   1      45.179  30.105  31.913  1.00  0.00     0.029 A 
ATOM     64  C   UNL A   1      45.180  28.862  31.278  1.00  0.00     0.049 A 
ATOM     65  H   UNL A   1      44.376  27.076  32.008  1.00  0.00     0.167 HD
ATOM     66  C   UNL A   1      45.401  27.196  29.446  1.00  0.00     0.074 A 
ATOM     67  C   UNL A   1      44.931  25.967  30.072  1.00  0.00     0.031 C 
ATOM     68  C   UNL A   1      45.608  28.442  29.956  1.00  0.00     0.034 A 
BRANCH  55  69
ATOM     69  C   UNL A   1      42.599  27.005  34.435  1.00  0.00     0.023 A 
ATOM     70  C   UNL A   1      43.438  25.897  34.233  1.00  0.00     0.031 A 
ATOM     71  C   UNL A   1      42.024  27.112  35.723  1.00  0.00     0.131 A 
ATOM     72  C   UNL A   1      43.691  24.969  35.253  1.00  0.00     0.055 A 
ATOM     73  C   UNL A   1      42.327  26.220  36.761  1.00  0.00     0.041 A 
ATOM     74  F   UNL A   1      41.199  28.124  36.033  1.00  0.00    -0.206 F 
ATOM     75  C   UNL A   1      43.171  25.143  36.530  1.00  0.00     0.022 A 
BRANCH  72  76
ATOM     76  S   UNL A   1      44.740  23.525  34.927  1.00  0.00     0.124 S 
ATOM     77  O   UNL A   1      43.801  22.422  35.121  1.00  0.00    -0.237 OA
ATOM     78  O   UNL A   1      45.148  23.768  33.543  1.00  0.00    -0.237 OA
ATOM     79  O   UNL A   1      45.801  23.642  35.912  1.00  0.00    -0.744 OA
ENDBRANCH  72  76
ENDBRANCH  55  69
BRANCH  56  80
ATOM     80  C   UNL A   1      43.132  24.688  26.193  1.00  0.00     0.023 A 
ATOM     81  C   UNL A   1      42.079  23.820  26.538  1.00  0.00     0.031 A 
ATOM     82  C   UNL A   1      44.143  24.183  25.359  1.00  0.00     0.131 A 
ATOM     83  C   UNL A   1      42.090  22.487  26.110  1.00  0.00     0.055 A 
ATOM     84  C   UNL A   1      44.142  22.855  24.916  1.00  0.00     0.041 A 
ATOM     85  F   UNL A   1      45.191  24.950  25.020  1.00  0.00    -0.206 F 
ATOM     86  C   UNL A   1      43.121  21.995  25.306  1.00  0.00     0.022 A 
BRANCH  83  87
ATOM     87  S   UNL A   1      40.813  21.331  26.677  1.00  0.00     0.124 S 
ATOM     88  O   UNL A   1      39.645  21.767  25.917  1.00  0.00    -0.237 OA
ATOM     89  O   UNL A   1      41.378  20.046  26.280  1.00  0.00    -0.237 OA
ATOM     90  O   UNL A   1      40.741  21.578  28.114  1.00  0.00    -0.744 OA
ENDBRANCH  83  87
ENDBRANCH  56  80
BRANCH  68  91
ATOM     91  C   UNL A   1      46.136  29.515  29.044  1.00  0.00     0.023 A 
ATOM     92  C   UNL A   1      45.176  30.327  28.416  1.00  0.00     0.031 A 
ATOM     93  C   UNL A   1      47.475  29.647  28.639  1.00  0.00     0.131 A 
ATOM     94  C   UNL A   1      45.547  31.187  27.380  1.00  0.00     0.055 A 
ATOM     95  C   UNL A   1      47.854  30.569  27.658  1.00  0.00     0.041 A 
ATOM     96  F   UNL A   1      48.436  28.843  29.117  1.00  0.00    -0.206 F 
ATOM     97  C   UNL A   1      46.886  31.330  27.009  1.00  0.00     0.022 A 
BRANCH  94  98
ATOM     98  S   UNL A   1      44.275  32.003  26.383  1.00  0.00     0.124 S 
ATOM     99  O   UNL A   1      43.784  33.034  27.292  1.00  0.00    -0.237 OA
ATOM    100  O   UNL A   1      45.044  32.489  25.239  1.00  0.00    -0.237 OA
ATOM    101  O   UNL A   1      43.326  30.935  26.077  1.00  0.00    -0.744 OA
ENDBRANCH  94  98
ENDBRANCH  68  91
ENDBRANCH  42  43
ENDBRANCH  34  37
ENDBRANCH  32  33
ENDBRANCH  31  32
ENDBRANCH   1  31
TORSDOF 17
ENDMDL
MODEL 2
REMARK VINA RESULT:     -13.9      3.372      5.355
REMARK SMILES O=C(Cn1c(-c2nc(-c3ccc(C(F)(F)F)cc3)no2)cc2ccccc21)NCCCNC(=O)c1ccc(-c2c3nc(c(-c4cc(S(=O)(=O)[O-])ccc4F)c4ccc([nH]4)c(-c4cc(S(=O)(=O)[O-])ccc4F)c4nc(c(-c5cc(S(=O)(=O)[O-])ccc5F)c5ccc2[nH]5)C=C4)C=C3)cc1
REMARK SMILES IDX 29 1 28 2 1 3 2 4 3 6 4 7 5 8 27 9 21 10 22 11 26 12 23 13
REMARK SMILES IDX 25 14 24 15 6 16 7 17 20 18 8 19 19 20 9 21 10 22 18 23
REMARK SMILES IDX 11 24 17 25 12 26 13 27 14 28 15 29 16 30 30 31 31 32 32 33
REMARK SMILES IDX 33 34 34 36 35 37 36 38 97 39 37 40 96 41 38 42 39 43 40 44
REMARK SMILES IDX 90 45 41 46 95 47 89 48 91 49 42 50 94 51 88 52 87 53 43 55
REMARK SMILES IDX 75 56 55 57 74 58 56 59 59 60 73 61 92 62 57 63 58 64 72 66
REMARK SMILES IDX 93 67 60 68 44 69 45 70 53 71 46 72 52 73 54 74 51 75 47 76
REMARK SMILES IDX 48 77 49 78 50 79 76 80 77 81 85 82 78 83 84 84 86 85 83 86
REMARK SMILES IDX 79 87 80 88 81 89 82 90 61 91 62 92 70 93 63 94 69 95 71 96
REMARK SMILES IDX 68 97 64 98 65 99 66 100 67 101
REMARK H PARENT 28 5 32 35 91 54 59 65
REMARK Flexibility Score: inf
ROOT
ATOM      1  C   UNL A   1      31.499  26.953  26.645  1.00  0.00     0.117 C 
ENDROOT
BRANCH   1   2
ATOM      2  N   UNL A   1      32.337  25.822  26.290  1.00  0.00    -0.354 N 
ATOM      3  O   UNL A   1      31.097  24.138  27.239  1.00  0.00    -0.273 OA
ATOM      4  C   UNL A   1      32.064  24.502  26.581  1.00  0.00     0.239 C 
ATOM      5  H   UNL A   1      33.169  26.012  25.799  1.00  0.00     0.163 HD
BRANCH   4   6
ATOM      6  C   UNL A   1      33.092  23.522  26.025  1.00  0.00     0.222 C 
BRANCH   6   7
ATOM      7  N   UNL A   1      32.587  22.778  24.872  1.00  0.00    -0.327 N 
ATOM      8  C   UNL A   1      32.074  23.322  23.707  1.00  0.00     0.109 A 
ATOM      9  C   UNL A   1      32.578  21.389  24.786  1.00  0.00     0.049 A 
ATOM     10  C   UNL A   1      31.852  22.276  22.832  1.00  0.00     0.042 A 
ATOM     11  C   UNL A   1      32.250  21.070  23.466  1.00  0.00     0.000 A 
ATOM     12  C   UNL A   1      32.867  20.383  25.726  1.00  0.00     0.027 A 
ATOM     13  C   UNL A   1      32.348  19.730  23.041  1.00  0.00     0.010 A 
ATOM     14  C   UNL A   1      32.988  19.065  25.277  1.00  0.00     0.002 A 
ATOM     15  C   UNL A   1      32.755  18.744  23.946  1.00  0.00     0.001 A 
BRANCH   8  16
ATOM     16  C   UNL A   1      31.927  24.722  23.441  1.00  0.00     0.274 A 
ATOM     17  N   UNL A   1      30.776  25.358  23.309  1.00  0.00    -0.185 NA
ATOM     18  O   UNL A   1      33.002  25.543  23.238  1.00  0.00    -0.332 OA
ATOM     19  C   UNL A   1      31.176  26.635  22.980  1.00  0.00     0.202 A 
ATOM     20  N   UNL A   1      32.505  26.797  22.923  1.00  0.00    -0.057 NA
BRANCH  19  21
ATOM     21  C   UNL A   1      30.283  27.758  22.737  1.00  0.00     0.023 A 
ATOM     22  C   UNL A   1      30.790  28.923  22.144  1.00  0.00     0.013 A 
ATOM     23  C   UNL A   1      28.980  27.766  23.250  1.00  0.00     0.013 A 
ATOM     24  C   UNL A   1      30.041  30.102  22.135  1.00  0.00     0.014 A 
ATOM     25  C   UNL A   1      28.233  28.954  23.252  1.00  0.00     0.014 A 
ATOM     26  C   UNL A   1      28.771  30.142  22.728  1.00  0.00     0.056 A 
BRANCH  26  27
ATOM     27  C   UNL A   1      28.048  31.462  22.851  1.00  0.00     0.416 C 
ATOM     28  F   UNL A   1      27.537  31.884  21.659  1.00  0.00    -0.166 F 
ATOM     29  F   UNL A   1      26.990  31.408  23.708  1.00  0.00    -0.166 F 
ATOM     30  F   UNL A   1      28.835  32.482  23.295  1.00  0.00    -0.166 F 
ENDBRANCH  26  27
ENDBRANCH  19  21
ENDBRANCH   8  16
ENDBRANCH   6   7
ENDBRANCH   4   6
ENDBRANCH   1   2
BRANCH   1  31
ATOM     31  C   UNL A   1      32.159  27.840  27.708  1.00  0.00     0.042 C 
BRANCH  31  32
ATOM     32  C   UNL A   1      33.481  28.495  27.287  1.00  0.00     0.118 C 
BRANCH  32  33
ATOM     33  N   UNL A   1      33.604  29.897  27.621  1.00  0.00    -0.352 N 
ATOM     34  C   UNL A   1      34.676  30.728  27.825  1.00  0.00     0.251 C 
ATOM     35  H   UNL A   1      32.737  30.350  27.724  1.00  0.00     0.163 HD
ATOM     36  O   UNL A   1      34.434  31.936  27.764  1.00  0.00    -0.269 OA
BRANCH  34  37
ATOM     37  C   UNL A   1      36.045  30.276  28.199  1.00  0.00     0.039 A 
ATOM     38  C   UNL A   1      37.149  30.244  27.347  1.00  0.00     0.014 A 
ATOM     39  C   UNL A   1      36.188  29.751  29.500  1.00  0.00     0.014 A 
ATOM     40  C   UNL A   1      38.318  29.602  27.737  1.00  0.00     0.010 A 
ATOM     41  C   UNL A   1      37.362  29.123  29.901  1.00  0.00     0.010 A 
ATOM     42  C   UNL A   1      38.408  28.998  28.993  1.00  0.00    -0.014 A 
BRANCH  42  43
ATOM     43  C   UNL A   1      39.659  28.317  29.322  1.00  0.00     0.031 A 
ATOM     44  C   UNL A   1      40.069  28.440  30.748  1.00  0.00     0.074 A 
ATOM     45  C   UNL A   1      40.364  27.575  28.445  1.00  0.00     0.049 A 
ATOM     46  N   UNL A   1      41.087  29.071  31.234  1.00  0.00    -0.248 NA
ATOM     47  C   UNL A   1      39.147  27.922  31.768  1.00  0.00     0.031 C 
ATOM     48  C   UNL A   1      39.931  27.118  27.120  1.00  0.00     0.029 A 
ATOM     49  N   UNL A   1      41.583  26.977  28.593  1.00  0.00    -0.354 N 
ATOM     50  C   UNL A   1      41.051  28.854  32.613  1.00  0.00     0.074 A 
ATOM     51  C   UNL A   1      39.755  28.291  32.894  1.00  0.00     0.031 C 
ATOM     52  C   UNL A   1      40.748  26.126  26.702  1.00  0.00     0.029 A 
ATOM     53  C   UNL A   1      41.848  25.999  27.643  1.00  0.00     0.049 A 
ATOM     54  H   UNL A   1      42.217  27.216  29.307  1.00  0.00     0.167 HD
ATOM     55  C   UNL A   1      42.175  28.939  33.380  1.00  0.00     0.034 A 
ATOM     56  C   UNL A   1      42.861  25.100  27.658  1.00  0.00     0.034 A 
ATOM     57  C   UNL A   1      43.254  29.538  32.648  1.00  0.00     0.049 A 
ATOM     58  C   UNL A   1      43.929  25.601  28.546  1.00  0.00     0.074 A 
ATOM     59  C   UNL A   1      43.635  30.805  32.278  1.00  0.00     0.029 A 
ATOM     60  N   UNL A   1      43.982  28.648  31.902  1.00  0.00    -0.354 N 
ATOM     61  N   UNL A   1      44.676  26.634  28.279  1.00  0.00    -0.248 NA
ATOM     62  C   UNL A   1      43.978  25.135  29.928  1.00  0.00     0.031 C 
ATOM     63  C   UNL A   1      44.461  30.642  31.129  1.00  0.00     0.029 A 
ATOM     64  C   UNL A   1      44.584  29.280  30.850  1.00  0.00     0.049 A 
ATOM     65  H   UNL A   1      44.060  27.687  32.098  1.00  0.00     0.167 HD
ATOM     66  C   UNL A   1      44.908  27.208  29.513  1.00  0.00     0.074 A 
ATOM     67  C   UNL A   1      44.636  26.155  30.483  1.00  0.00     0.031 C 
ATOM     68  C   UNL A   1      44.983  28.562  29.653  1.00  0.00     0.034 A 
BRANCH  55  69
ATOM     69  C   UNL A   1      42.453  28.095  34.609  1.00  0.00     0.023 A 
ATOM     70  C   UNL A   1      42.752  26.724  34.544  1.00  0.00     0.031 A 
ATOM     71  C   UNL A   1      42.694  28.716  35.856  1.00  0.00     0.131 A 
ATOM     72  C   UNL A   1      43.266  26.029  35.648  1.00  0.00     0.055 A 
ATOM     73  C   UNL A   1      43.267  28.037  36.940  1.00  0.00     0.041 A 
ATOM     74  F   UNL A   1      42.440  30.021  36.042  1.00  0.00    -0.206 F 
ATOM     75  C   UNL A   1      43.562  26.685  36.837  1.00  0.00     0.022 A 
BRANCH  72  76
ATOM     76  S   UNL A   1      43.586  24.247  35.530  1.00  0.00     0.124 S 
ATOM     77  O   UNL A   1      44.317  23.991  36.771  1.00  0.00    -0.237 OA
ATOM     78  O   UNL A   1      42.226  23.709  35.478  1.00  0.00    -0.237 OA
ATOM     79  O   UNL A   1      44.349  24.117  34.301  1.00  0.00    -0.744 OA
ENDBRANCH  72  76
ENDBRANCH  55  69
BRANCH  56  80
ATOM     80  C   UNL A   1      42.789  23.676  27.265  1.00  0.00     0.023 A 
ATOM     81  C   UNL A   1      43.786  23.145  26.425  1.00  0.00     0.031 A 
ATOM     82  C   UNL A   1      41.609  22.930  27.423  1.00  0.00     0.131 A 
ATOM     83  C   UNL A   1      43.566  21.950  25.730  1.00  0.00     0.055 A 
ATOM     84  C   UNL A   1      41.398  21.725  26.743  1.00  0.00     0.041 A 
ATOM     85  F   UNL A   1      40.607  23.396  28.185  1.00  0.00    -0.206 F 
ATOM     86  C   UNL A   1      42.373  21.238  25.877  1.00  0.00     0.022 A 
BRANCH  83  87
ATOM     87  S   UNL A   1      44.789  21.345  24.536  1.00  0.00     0.124 S 
ATOM     88  O   UNL A   1      44.343  19.973  24.307  1.00  0.00    -0.237 OA
ATOM     89  O   UNL A   1      44.593  22.264  23.420  1.00  0.00    -0.237 OA
ATOM     90  O   UNL A   1      46.056  21.472  25.249  1.00  0.00    -0.744 OA
ENDBRANCH  83  87
ENDBRANCH  56  80
BRANCH  68  91
ATOM     91  C   UNL A   1      45.314  29.393  28.444  1.00  0.00     0.023 A 
ATOM     92  C   UNL A   1      46.675  29.670  28.231  1.00  0.00     0.031 A 
ATOM     93  C   UNL A   1      44.375  30.052  27.633  1.00  0.00     0.131 A 
ATOM     94  C   UNL A   1      47.063  30.619  27.283  1.00  0.00     0.055 A 
ATOM     95  C   UNL A   1      44.772  30.940  26.629  1.00  0.00     0.041 A 
ATOM     96  F   UNL A   1      43.055  29.920  27.836  1.00  0.00    -0.206 F 
ATOM     97  C   UNL A   1      46.120  31.244  26.464  1.00  0.00     0.022 A 
BRANCH  94  98
ATOM     98  S   UNL A   1      48.782  31.183  27.220  1.00  0.00     0.124 S 
ATOM     99  O   UNL A   1      49.115  31.317  28.635  1.00  0.00    -0.237 OA
ATOM    100  O   UNL A   1      49.443  30.084  26.520  1.00  0.00    -0.237 OA
ATOM    101  O   UNL A   1      48.716  32.436  26.472  1.00  0.00    -0.744 OA
ENDBRANCH  94  98
ENDBRANCH  68  91
ENDBRANCH  42  43
ENDBRANCH  34  37
ENDBRANCH  32  33
ENDBRANCH  31  32
ENDBRANCH   1  31
TORSDOF 17
ENDMDL
MODEL 3
REMARK VINA RESULT:     -13.8      3.324      5.268
REMARK SMILES O=C(Cn1c(-c2nc(-c3ccc(C(F)(F)F)cc3)no2)cc2ccccc21)NCCCNC(=O)c1ccc(-c2c3nc(c(-c4cc(S(=O)(=O)[O-])ccc4F)c4ccc([nH]4)c(-c4cc(S(=O)(=O)[O-])ccc4F)c4nc(c(-c5cc(S(=O)(=O)[O-])ccc5F)c5ccc2[nH]5)C=C4)C=C3)cc1
REMARK SMILES IDX 29 1 28 2 1 3 2 4 3 6 4 7 5 8 27 9 21 10 22 11 26 12 23 13
REMARK SMILES IDX 25 14 24 15 6 16 7 17 20 18 8 19 19 20 9 21 10 22 18 23
REMARK SMILES IDX 11 24 17 25 12 26 13 27 14 28 15 29 16 30 30 31 31 32 32 33
REMARK SMILES IDX 33 34 34 36 35 37 36 38 97 39 37 40 96 41 38 42 39 43 40 44
REMARK SMILES IDX 90 45 41 46 95 47 89 48 91 49 42 50 94 51 88 52 87 53 43 55
REMARK SMILES IDX 75 56 55 57 74 58 56 59 59 60 73 61 92 62 57 63 58 64 72 66
REMARK SMILES IDX 93 67 60 68 44 69 45 70 53 71 46 72 52 73 54 74 51 75 47 76
REMARK SMILES IDX 48 77 49 78 50 79 76 80 77 81 85 82 78 83 84 84 86 85 83 86
REMARK SMILES IDX 79 87 80 88 81 89 82 90 61 91 62 92 70 93 63 94 69 95 71 96
REMARK SMILES IDX 68 97 64 98 65 99 66 100 67 101
REMARK H PARENT 28 5 32 35 91 54 59 65
REMARK Flexibility Score: inf
ROOT
ATOM      1  C   UNL A   1      33.634  27.445  26.037  1.00  0.00     0.117 C 
ENDROOT
BRANCH   1   2
ATOM      2  N   UNL A   1      32.957  26.166  26.156  1.00  0.00    -0.354 N 
ATOM      3  O   UNL A   1      34.629  24.795  25.380  1.00  0.00    -0.273 OA
ATOM      4  C   UNL A   1      33.507  24.939  25.853  1.00  0.00     0.239 C 
ATOM      5  H   UNL A   1      32.028  26.175  26.481  1.00  0.00     0.163 HD
BRANCH   4   6
ATOM      6  C   UNL A   1      32.582  23.760  26.139  1.00  0.00     0.222 C 
BRANCH   6   7
ATOM      7  N   UNL A   1      32.286  22.978  24.940  1.00  0.00    -0.327 N 
ATOM      8  C   UNL A   1      31.890  23.481  23.712  1.00  0.00     0.109 A 
ATOM      9  C   UNL A   1      32.389  21.593  24.869  1.00  0.00     0.049 A 
ATOM     10  C   UNL A   1      31.860  22.420  22.828  1.00  0.00     0.042 A 
ATOM     11  C   UNL A   1      32.258  21.247  23.522  1.00  0.00     0.000 A 
ATOM     12  C   UNL A   1      32.626  20.612  25.850  1.00  0.00     0.027 A 
ATOM     13  C   UNL A   1      32.507  19.917  23.129  1.00  0.00     0.010 A 
ATOM     14  C   UNL A   1      32.898  19.306  25.436  1.00  0.00     0.002 A 
ATOM     15  C   UNL A   1      32.864  18.966  24.090  1.00  0.00     0.001 A 
BRANCH   8  16
ATOM     16  C   UNL A   1      31.678  24.866  23.412  1.00  0.00     0.274 A 
ATOM     17  N   UNL A   1      30.722  25.621  23.925  1.00  0.00    -0.185 NA
ATOM     18  O   UNL A   1      32.438  25.538  22.495  1.00  0.00    -0.332 OA
ATOM     19  C   UNL A   1      30.896  26.816  23.260  1.00  0.00     0.202 A 
ATOM     20  N   UNL A   1      31.914  26.816  22.388  1.00  0.00    -0.057 NA
BRANCH  19  21
ATOM     21  C   UNL A   1      30.099  28.015  23.467  1.00  0.00     0.023 A 
ATOM     22  C   UNL A   1      28.809  28.084  22.920  1.00  0.00     0.013 A 
ATOM     23  C   UNL A   1      30.659  29.164  24.040  1.00  0.00     0.013 A 
ATOM     24  C   UNL A   1      28.121  29.300  22.871  1.00  0.00     0.014 A 
ATOM     25  C   UNL A   1      29.974  30.386  23.978  1.00  0.00     0.014 A 
ATOM     26  C   UNL A   1      28.714  30.472  23.360  1.00  0.00     0.056 A 
BRANCH  26  27
ATOM     27  C   UNL A   1      28.023  31.799  23.150  1.00  0.00     0.416 C 
ATOM     28  F   UNL A   1      26.906  31.928  23.922  1.00  0.00    -0.166 F 
ATOM     29  F   UNL A   1      28.814  32.863  23.464  1.00  0.00    -0.166 F 
ATOM     30  F   UNL A   1      27.610  32.008  21.868  1.00  0.00    -0.166 F 
ENDBRANCH  26  27
ENDBRANCH  19  21
ENDBRANCH   8  16
ENDBRANCH   6   7
ENDBRANCH   4   6
ENDBRANCH   1   2
BRANCH   1  31
ATOM     31  C   UNL A   1      32.959  28.529  26.884  1.00  0.00     0.042 C 
BRANCH  31  32
ATOM     32  C   UNL A   1      33.306  29.973  26.500  1.00  0.00     0.118 C 
BRANCH  32  33
ATOM     33  N   UNL A   1      33.442  30.888  27.613  1.00  0.00    -0.352 N 
ATOM     34  C   UNL A   1      34.520  31.420  28.272  1.00  0.00     0.251 C 
ATOM     35  H   UNL A   1      32.578  31.194  27.973  1.00  0.00     0.163 HD
ATOM     36  O   UNL A   1      34.288  32.421  28.954  1.00  0.00    -0.269 OA
BRANCH  34  37
ATOM     37  C   UNL A   1      35.886  30.824  28.291  1.00  0.00     0.039 A 
ATOM     38  C   UNL A   1      36.197  29.502  27.974  1.00  0.00     0.014 A 
ATOM     39  C   UNL A   1      36.917  31.660  28.766  1.00  0.00     0.014 A 
ATOM     40  C   UNL A   1      37.465  28.998  28.237  1.00  0.00     0.010 A 
ATOM     41  C   UNL A   1      38.192  31.164  29.013  1.00  0.00     0.010 A 
ATOM     42  C   UNL A   1      38.448  29.814  28.802  1.00  0.00    -0.014 A 
BRANCH  42  43
ATOM     43  C   UNL A   1      39.749  29.207  29.075  1.00  0.00     0.031 A 
ATOM     44  C   UNL A   1      40.005  28.922  30.513  1.00  0.00     0.074 A 
ATOM     45  C   UNL A   1      40.632  28.859  28.117  1.00  0.00     0.049 A 
ATOM     46  N   UNL A   1      40.873  29.478  31.294  1.00  0.00    -0.248 NA
ATOM     47  C   UNL A   1      39.079  28.013  31.202  1.00  0.00     0.031 C 
ATOM     48  C   UNL A   1      40.391  28.794  26.671  1.00  0.00     0.029 A 
ATOM     49  N   UNL A   1      41.906  28.382  28.238  1.00  0.00    -0.354 N 
ATOM     50  C   UNL A   1      40.742  28.838  32.529  1.00  0.00     0.074 A 
ATOM     51  C   UNL A   1      39.523  28.076  32.457  1.00  0.00     0.031 C 
ATOM     52  C   UNL A   1      41.379  28.078  26.087  1.00  0.00     0.029 A 
ATOM     53  C   UNL A   1      42.395  27.785  27.084  1.00  0.00     0.049 A 
ATOM     54  H   UNL A   1      42.430  28.455  29.068  1.00  0.00     0.167 HD
ATOM     55  C   UNL A   1      41.768  28.803  33.427  1.00  0.00     0.034 A 
ATOM     56  C   UNL A   1      43.522  27.045  26.963  1.00  0.00     0.034 A 
ATOM     57  C   UNL A   1      42.810  29.715  33.054  1.00  0.00     0.049 A 
ATOM     58  C   UNL A   1      44.421  27.357  28.093  1.00  0.00     0.074 A 
ATOM     59  C   UNL A   1      43.036  31.069  33.133  1.00  0.00     0.029 A 
ATOM     60  N   UNL A   1      43.725  29.190  32.180  1.00  0.00    -0.354 N 
ATOM     61  N   UNL A   1      45.031  28.498  28.245  1.00  0.00    -0.248 NA
ATOM     62  C   UNL A   1      44.412  26.491  29.267  1.00  0.00     0.031 C 
ATOM     63  C   UNL A   1      43.978  31.365  32.106  1.00  0.00     0.029 A 
ATOM     64  C   UNL A   1      44.322  30.181  31.452  1.00  0.00     0.049 A 
ATOM     65  H   UNL A   1      43.924  28.230  32.089  1.00  0.00     0.167 HD
ATOM     66  C   UNL A   1      45.064  28.679  29.614  1.00  0.00     0.074 A 
ATOM     67  C   UNL A   1      44.861  27.353  30.182  1.00  0.00     0.031 C 
ATOM     68  C   UNL A   1      44.929  29.921  30.159  1.00  0.00     0.034 A 
BRANCH  55  69
ATOM     69  C   UNL A   1      42.052  27.653  34.374  1.00  0.00     0.023 A 
ATOM     70  C   UNL A   1      42.769  26.506  33.993  1.00  0.00     0.031 A 
ATOM     71  C   UNL A   1      41.845  27.811  35.764  1.00  0.00     0.131 A 
ATOM     72  C   UNL A   1      43.251  25.590  34.938  1.00  0.00     0.055 A 
ATOM     73  C   UNL A   1      42.381  26.930  36.712  1.00  0.00     0.041 A 
ATOM     74  F   UNL A   1      41.167  28.863  36.249  1.00  0.00    -0.206 F 
ATOM     75  C   UNL A   1      43.095  25.813  36.301  1.00  0.00     0.022 A 
BRANCH  72  76
ATOM     76  S   UNL A   1      44.125  24.098  34.391  1.00  0.00     0.124 S 
ATOM     77  O   UNL A   1      45.331  24.137  35.217  1.00  0.00    -0.237 OA
ATOM     78  O   UNL A   1      43.161  23.052  34.735  1.00  0.00    -0.237 OA
ATOM     79  O   UNL A   1      44.318  24.315  32.968  1.00  0.00    -0.744 OA
ENDBRANCH  72  76
ENDBRANCH  55  69
BRANCH  56  80
ATOM     80  C   UNL A   1      43.694  25.816  26.158  1.00  0.00     0.023 A 
ATOM     81  C   UNL A   1      42.855  24.713  26.402  1.00  0.00     0.031 A 
ATOM     82  C   UNL A   1      44.856  25.592  25.400  1.00  0.00     0.131 A 
ATOM     83  C   UNL A   1      43.215  23.435  25.955  1.00  0.00     0.055 A 
ATOM     84  C   UNL A   1      45.203  24.318  24.936  1.00  0.00     0.041 A 
ATOM     85  F   UNL A   1      45.714  26.597  25.158  1.00  0.00    -0.206 F 
ATOM     86  C   UNL A   1      44.389  23.228  25.228  1.00  0.00     0.022 A 
BRANCH  83  87
ATOM     87  S   UNL A   1      42.210  21.993  26.399  1.00  0.00     0.124 S 
ATOM     88  O   UNL A   1      42.677  20.989  25.446  1.00  0.00    -0.237 OA
ATOM     89  O   UNL A   1      42.603  21.774  27.787  1.00  0.00    -0.237 OA
ATOM     90  O   UNL A   1      40.840  22.452  26.190  1.00  0.00    -0.744 OA
ENDBRANCH  83  87
ENDBRANCH  56  80
BRANCH  68  91
ATOM     91  C   UNL A   1      45.244  31.120  29.307  1.00  0.00     0.023 A 
ATOM     92  C   UNL A   1      46.526  31.674  29.461  1.00  0.00     0.031 A 
ATOM     93  C   UNL A   1      44.314  31.822  28.522  1.00  0.00     0.131 A 
ATOM     94  C   UNL A   1      46.831  32.915  28.897  1.00  0.00     0.055 A 
ATOM     95  C   UNL A   1      44.650  33.024  27.892  1.00  0.00     0.041 A 
ATOM     96  F   UNL A   1      43.042  31.413  28.406  1.00  0.00    -0.206 F 
ATOM     97  C   UNL A   1      45.906  33.587  28.095  1.00  0.00     0.022 A 
BRANCH  94  98
ATOM     98  S   UNL A   1      48.371  33.755  29.342  1.00  0.00     0.124 S 
ATOM     99  O   UNL A   1      49.383  32.853  28.801  1.00  0.00    -0.237 OA
ATOM    100  O   UNL A   1      48.237  35.035  28.648  1.00  0.00    -0.237 OA
ATOM    101  O   UNL A   1      48.322  33.838  30.799  1.00  0.00    -0.744 OA
ENDBRANCH  94  98
ENDBRANCH  68  91
ENDBRANCH  42  43
ENDBRANCH  34  37
ENDBRANCH  32  33
ENDBRANCH  31  32
ENDBRANCH   1  31
TORSDOF 17
ENDMDL
