MODEL 1
REMARK VINA RESULT:     -12.3      0.000      0.000
REMARK SMILES COc1ccc([C@H]2CC(c3ccc(S(C)(=O)=O)cc3)=NN2c2ccc(C(=O)NCCCNC(=O)c3ccc(-c4c5nc(c(-c6cc(S(=O)(=O)[O-])ccc6F)c6ccc([nH]6)c(-c6cc(S(=O)(=O)[O-])ccc6F)c6nc(c(-c7cc(S(=O)(=O)[O-])ccc7F)c7ccc4[nH]7)C=C6)C=C5)cc3)cc2)cc1
REMARK SMILES IDX 30 1 29 2 28 3 26 4 27 5 25 7 22 8 23 9 99 10 24 11 98 12
REMARK SMILES IDX 21 13 7 14 8 15 9 16 20 17 6 18 3 19 4 20 101 21 5 22 100 23
REMARK SMILES IDX 2 24 1 25 10 26 11 27 19 28 12 29 18 30 13 31 14 32 15 33
REMARK SMILES IDX 16 34 17 35 31 36 32 37 33 38 34 40 35 41 36 42 97 43 37 44
REMARK SMILES IDX 96 45 38 46 39 47 40 48 90 49 41 50 95 51 89 52 91 53 42 54
REMARK SMILES IDX 94 55 88 56 87 57 43 59 75 60 55 61 74 62 56 63 59 64 73 65
REMARK SMILES IDX 92 66 57 67 58 68 72 70 93 71 60 72 44 73 45 74 53 75 46 76
REMARK SMILES IDX 52 77 54 78 51 79 47 80 48 81 49 82 50 83 76 84 77 85 85 86
REMARK SMILES IDX 78 87 84 88 86 89 83 90 79 91 80 92 81 93 82 94 61 95 62 96
REMARK SMILES IDX 70 97 63 98 69 99 71 100 68 101 64 102 65 103 66 104 67 105
REMARK H PARENT 28 6 32 39 91 58 59 69
REMARK Flexibility Score: inf
ROOT
ATOM      1  C   UNL A   1      32.654  34.163  27.918  1.00  0.00     0.042 C 
ENDROOT
BRANCH   1   2
ATOM      2  C   UNL A   1      32.795  32.698  27.504  1.00  0.00     0.118 C 
BRANCH   2   3
ATOM      3  N   UNL A   1      34.027  32.127  28.015  1.00  0.00    -0.352 N 
ATOM      4  C   UNL A   1      34.583  30.879  27.913  1.00  0.00     0.251 C 
ATOM      5  O   UNL A   1      35.695  30.714  28.420  1.00  0.00    -0.269 OA
ATOM      6  H   UNL A   1      34.570  32.762  28.536  1.00  0.00     0.163 HD
BRANCH   4   7
ATOM      7  C   UNL A   1      33.947  29.749  27.182  1.00  0.00     0.039 A 
ATOM      8  C   UNL A   1      32.601  27.576  25.961  1.00  0.00     0.060 A 
ATOM      9  C   UNL A   1      31.983  28.330  26.961  1.00  0.00     0.029 A 
ATOM     10  C   UNL A   1      33.875  27.962  25.537  1.00  0.00     0.029 A 
ATOM     11  C   UNL A   1      32.651  29.389  27.580  1.00  0.00     0.016 A 
ATOM     12  C   UNL A   1      34.526  29.060  26.115  1.00  0.00     0.016 A 
BRANCH   8  13
ATOM     13  N   UNL A   1      31.943  26.490  25.409  1.00  0.00    -0.257 N 
ATOM     14  C   UNL A   1      30.493  26.403  25.245  1.00  0.00     0.144 C 
ATOM     15  C   UNL A   1      30.284  24.931  24.866  1.00  0.00     0.091 C 
ATOM     16  C   UNL A   1      31.697  24.433  24.969  1.00  0.00     0.071 C 
ATOM     17  N   UNL A   1      32.599  25.311  25.269  1.00  0.00    -0.176 NA
BRANCH  14  18
ATOM     18  C   UNL A   1      30.004  27.361  24.170  1.00  0.00    -0.023 A 
ATOM     19  C   UNL A   1      29.113  29.137  22.163  1.00  0.00     0.118 A 
ATOM     20  C   UNL A   1      30.467  29.053  22.488  1.00  0.00     0.047 A 
ATOM     21  C   UNL A   1      28.202  28.315  22.823  1.00  0.00     0.047 A 
ATOM     22  C   UNL A   1      30.912  28.180  23.486  1.00  0.00     0.010 A 
ATOM     23  C   UNL A   1      28.645  27.433  23.814  1.00  0.00     0.010 A 
BRANCH  19  24
ATOM     24  O   UNL A   1      28.810  30.030  21.172  1.00  0.00    -0.497 OA
ATOM     25  C   UNL A   1      28.687  31.391  21.567  1.00  0.00     0.278 C 
ENDBRANCH  19  24
ENDBRANCH  14  18
BRANCH  16  26
ATOM     26  C   UNL A   1      32.012  23.017  24.772  1.00  0.00    -0.002 A 
ATOM     27  C   UNL A   1      31.976  22.494  23.477  1.00  0.00     0.011 A 
ATOM     28  C   UNL A   1      32.307  22.207  25.871  1.00  0.00     0.011 A 
ATOM     29  C   UNL A   1      32.252  21.143  23.271  1.00  0.00     0.021 A 
ATOM     30  C   UNL A   1      32.558  20.849  25.671  1.00  0.00     0.021 A 
ATOM     31  C   UNL A   1      32.525  20.325  24.373  1.00  0.00     0.067 A 
BRANCH  31  32
ATOM     32  S   UNL A   1      32.838  18.595  24.110  1.00  0.00     0.175 S 
ATOM     33  C   UNL A   1      32.350  18.314  22.426  1.00  0.00     0.163 C 
ATOM     34  O   UNL A   1      34.270  18.407  24.214  1.00  0.00    -0.224 OA
ATOM     35  O   UNL A   1      31.924  17.850  24.957  1.00  0.00    -0.224 OA
ENDBRANCH  31  32
ENDBRANCH  16  26
ENDBRANCH   8  13
ENDBRANCH   4   7
ENDBRANCH   2   3
ENDBRANCH   1   2
BRANCH   1  36
ATOM     36  C   UNL A   1      33.680  34.595  28.965  1.00  0.00     0.118 C 
BRANCH  36  37
ATOM     37  N   UNL A   1      33.041  35.143  30.152  1.00  0.00    -0.352 N 
ATOM     38  C   UNL A   1      33.322  34.937  31.480  1.00  0.00     0.251 C 
ATOM     39  H   UNL A   1      32.290  35.755  29.976  1.00  0.00     0.163 HD
ATOM     40  O   UNL A   1      32.506  35.299  32.323  1.00  0.00    -0.269 OA
BRANCH  38  41
ATOM     41  C   UNL A   1      34.581  34.280  31.896  1.00  0.00     0.039 A 
ATOM     42  C   UNL A   1      34.580  32.898  32.108  1.00  0.00     0.014 A 
ATOM     43  C   UNL A   1      35.746  35.018  32.131  1.00  0.00     0.014 A 
ATOM     44  C   UNL A   1      35.753  32.251  32.506  1.00  0.00     0.010 A 
ATOM     45  C   UNL A   1      36.931  34.365  32.467  1.00  0.00     0.010 A 
ATOM     46  C   UNL A   1      36.946  32.975  32.663  1.00  0.00    -0.014 A 
BRANCH  46  47
ATOM     47  C   UNL A   1      38.213  32.297  33.041  1.00  0.00     0.031 A 
ATOM     48  C   UNL A   1      38.797  31.234  32.149  1.00  0.00     0.074 A 
ATOM     49  C   UNL A   1      38.809  32.603  34.210  1.00  0.00     0.049 A 
ATOM     50  N   UNL A   1      39.843  30.473  32.343  1.00  0.00    -0.248 NA
ATOM     51  C   UNL A   1      38.093  30.978  30.884  1.00  0.00     0.031 C 
ATOM     52  C   UNL A   1      38.324  33.599  35.168  1.00  0.00     0.029 A 
ATOM     53  N   UNL A   1      39.944  32.105  34.796  1.00  0.00    -0.354 N 
ATOM     54  C   UNL A   1      39.919  29.639  31.233  1.00  0.00     0.074 A 
ATOM     55  C   UNL A   1      38.778  29.954  30.396  1.00  0.00     0.031 C 
ATOM     56  C   UNL A   1      39.171  33.657  36.209  1.00  0.00     0.029 A 
ATOM     57  C   UNL A   1      40.231  32.672  36.017  1.00  0.00     0.049 A 
ATOM     58  H   UNL A   1      40.503  31.408  34.383  1.00  0.00     0.167 HD
ATOM     59  C   UNL A   1      40.862  28.713  30.928  1.00  0.00     0.034 A 
ATOM     60  C   UNL A   1      41.226  32.418  36.889  1.00  0.00     0.034 A 
ATOM     61  C   UNL A   1      41.998  28.419  31.768  1.00  0.00     0.049 A 
ATOM     62  C   UNL A   1      42.245  31.362  36.544  1.00  0.00     0.074 A 
ATOM     63  C   UNL A   1      43.032  27.527  31.539  1.00  0.00     0.029 A 
ATOM     64  N   UNL A   1      42.250  29.007  33.002  1.00  0.00    -0.354 N 
ATOM     65  N   UNL A   1      42.315  30.599  35.477  1.00  0.00    -0.248 NA
ATOM     66  C   UNL A   1      43.323  31.140  37.515  1.00  0.00     0.031 C 
ATOM     67  C   UNL A   1      43.873  27.532  32.658  1.00  0.00     0.029 A 
ATOM     68  C   UNL A   1      43.407  28.480  33.555  1.00  0.00     0.049 A 
ATOM     69  H   UNL A   1      41.688  29.698  33.422  1.00  0.00     0.167 HD
ATOM     70  C   UNL A   1      43.464  29.829  35.637  1.00  0.00     0.074 A 
ATOM     71  C   UNL A   1      44.060  30.231  36.896  1.00  0.00     0.031 C 
ATOM     72  C   UNL A   1      43.984  28.881  34.816  1.00  0.00     0.034 A 
BRANCH  59  73
ATOM     73  C   UNL A   1      40.683  27.935  29.645  1.00  0.00     0.023 A 
ATOM     74  C   UNL A   1      41.496  28.169  28.522  1.00  0.00     0.031 A 
ATOM     75  C   UNL A   1      39.675  26.961  29.535  1.00  0.00     0.131 A 
ATOM     76  C   UNL A   1      41.240  27.493  27.319  1.00  0.00     0.055 A 
ATOM     77  C   UNL A   1      39.477  26.235  28.359  1.00  0.00     0.041 A 
ATOM     78  F   UNL A   1      38.854  26.707  30.568  1.00  0.00    -0.206 F 
ATOM     79  C   UNL A   1      40.252  26.510  27.237  1.00  0.00     0.022 A 
BRANCH  76  80
ATOM     80  S   UNL A   1      42.129  28.016  25.827  1.00  0.00     0.124 S 
ATOM     81  O   UNL A   1      41.972  26.846  24.966  1.00  0.00    -0.237 OA
ATOM     82  O   UNL A   1      41.397  29.210  25.423  1.00  0.00    -0.237 OA
ATOM     83  O   UNL A   1      43.491  28.250  26.304  1.00  0.00    -0.744 OA
ENDBRANCH  76  80
ENDBRANCH  59  73
BRANCH  60  84
ATOM     84  C   UNL A   1      41.314  33.167  38.174  1.00  0.00     0.023 A 
ATOM     85  C   UNL A   1      40.619  32.729  39.312  1.00  0.00     0.031 A 
ATOM     86  C   UNL A   1      42.065  34.352  38.274  1.00  0.00     0.131 A 
ATOM     87  C   UNL A   1      40.652  33.492  40.489  1.00  0.00     0.055 A 
ATOM     88  C   UNL A   1      42.135  35.081  39.462  1.00  0.00     0.041 A 
ATOM     89  F   UNL A   1      42.754  34.811  37.217  1.00  0.00    -0.206 F 
ATOM     90  C   UNL A   1      41.415  34.660  40.576  1.00  0.00     0.022 A 
BRANCH  87  91
ATOM     91  S   UNL A   1      39.617  32.977  41.887  1.00  0.00     0.124 S 
ATOM     92  O   UNL A   1      39.472  31.548  41.639  1.00  0.00    -0.237 OA
ATOM     93  O   UNL A   1      40.446  33.351  43.029  1.00  0.00    -0.237 OA
ATOM     94  O   UNL A   1      38.400  33.768  41.719  1.00  0.00    -0.744 OA
ENDBRANCH  87  91
ENDBRANCH  60  84
BRANCH  72  95
ATOM     95  C   UNL A   1      45.287  28.251  35.239  1.00  0.00     0.023 A 
ATOM     96  C   UNL A   1      45.327  27.140  36.098  1.00  0.00     0.031 A 
ATOM     97  C   UNL A   1      46.507  28.783  34.786  1.00  0.00     0.131 A 
ATOM     98  C   UNL A   1      46.565  26.630  36.522  1.00  0.00     0.055 A 
ATOM     99  C   UNL A   1      47.734  28.235  35.163  1.00  0.00     0.041 A 
ATOM    100  F   UNL A   1      46.526  29.845  33.965  1.00  0.00    -0.206 F 
ATOM    101  C   UNL A   1      47.767  27.160  36.047  1.00  0.00     0.022 A 
BRANCH  98 102
ATOM    102  S   UNL A   1      46.583  25.319  37.776  1.00  0.00     0.124 S 
ATOM    103  O   UNL A   1      45.371  25.608  38.535  1.00  0.00    -0.237 OA
ATOM    104  O   UNL A   1      46.552  24.108  36.962  1.00  0.00    -0.237 OA
ATOM    105  O   UNL A   1      47.835  25.549  38.495  1.00  0.00    -0.744 OA
ENDBRANCH  98 102
ENDBRANCH  72  95
ENDBRANCH  46  47
ENDBRANCH  38  41
ENDBRANCH  36  37
ENDBRANCH   1  36
TORSDOF 18
ENDMDL
MODEL 2
REMARK VINA RESULT:     -12.2      2.709      3.662
REMARK SMILES COc1ccc([C@H]2CC(c3ccc(S(C)(=O)=O)cc3)=NN2c2ccc(C(=O)NCCCNC(=O)c3ccc(-c4c5nc(c(-c6cc(S(=O)(=O)[O-])ccc6F)c6ccc([nH]6)c(-c6cc(S(=O)(=O)[O-])ccc6F)c6nc(c(-c7cc(S(=O)(=O)[O-])ccc7F)c7ccc4[nH]7)C=C6)C=C5)cc3)cc2)cc1
REMARK SMILES IDX 30 1 29 2 28 3 26 4 27 5 25 7 22 8 23 9 99 10 24 11 98 12
REMARK SMILES IDX 21 13 7 14 8 15 9 16 20 17 6 18 3 19 4 20 101 21 5 22 100 23
REMARK SMILES IDX 2 24 1 25 10 26 11 27 19 28 12 29 18 30 13 31 14 32 15 33
REMARK SMILES IDX 16 34 17 35 31 36 32 37 33 38 34 40 35 41 36 42 97 43 37 44
REMARK SMILES IDX 96 45 38 46 39 47 40 48 90 49 41 50 95 51 89 52 91 53 42 54
REMARK SMILES IDX 94 55 88 56 87 57 43 59 75 60 55 61 74 62 56 63 59 64 73 65
REMARK SMILES IDX 92 66 57 67 58 68 72 70 93 71 60 72 44 73 45 74 53 75 46 76
REMARK SMILES IDX 52 77 54 78 51 79 47 80 48 81 49 82 50 83 76 84 77 85 85 86
REMARK SMILES IDX 78 87 84 88 86 89 83 90 79 91 80 92 81 93 82 94 61 95 62 96
REMARK SMILES IDX 70 97 63 98 69 99 71 100 68 101 64 102 65 103 66 104 67 105
REMARK H PARENT 28 6 32 39 91 58 59 69
REMARK Flexibility Score: inf
ROOT
ATOM      1  C   UNL A   1      31.718  32.085  26.344  1.00  0.00     0.042 C 
ENDROOT
BRANCH   1   2
ATOM      2  C   UNL A   1      31.755  30.584  26.057  1.00  0.00     0.118 C 
BRANCH   2   3
ATOM      3  N   UNL A   1      31.191  29.828  27.159  1.00  0.00    -0.352 N 
ATOM      4  C   UNL A   1      31.344  28.529  27.567  1.00  0.00     0.251 C 
ATOM      5  O   UNL A   1      30.761  28.189  28.599  1.00  0.00    -0.269 OA
ATOM      6  H   UNL A   1      30.579  30.352  27.726  1.00  0.00     0.163 HD
BRANCH   4   7
ATOM      7  C   UNL A   1      32.211  27.541  26.867  1.00  0.00     0.039 A 
ATOM      8  C   UNL A   1      33.736  25.504  25.622  1.00  0.00     0.060 A 
ATOM      9  C   UNL A   1      32.419  25.268  26.026  1.00  0.00     0.029 A 
ATOM     10  C   UNL A   1      34.257  26.788  25.793  1.00  0.00     0.029 A 
ATOM     11  C   UNL A   1      31.671  26.263  26.659  1.00  0.00     0.016 A 
ATOM     12  C   UNL A   1      33.490  27.807  26.375  1.00  0.00     0.016 A 
BRANCH   8  13
ATOM     13  N   UNL A   1      34.478  24.481  25.056  1.00  0.00    -0.257 N 
ATOM     14  C   UNL A   1      33.932  23.468  24.155  1.00  0.00     0.144 C 
ATOM     15  C   UNL A   1      35.074  22.450  24.059  1.00  0.00     0.091 C 
ATOM     16  C   UNL A   1      36.052  23.065  25.019  1.00  0.00     0.071 C 
ATOM     17  N   UNL A   1      35.704  24.187  25.559  1.00  0.00    -0.176 NA
BRANCH  14  18
ATOM     18  C   UNL A   1      33.567  24.072  22.808  1.00  0.00    -0.023 A 
ATOM     19  C   UNL A   1      32.906  25.210  20.309  1.00  0.00     0.118 A 
ATOM     20  C   UNL A   1      33.209  26.022  21.402  1.00  0.00     0.047 A 
ATOM     21  C   UNL A   1      32.958  23.825  20.455  1.00  0.00     0.047 A 
ATOM     22  C   UNL A   1      33.531  25.463  22.643  1.00  0.00     0.010 A 
ATOM     23  C   UNL A   1      33.289  23.263  21.692  1.00  0.00     0.010 A 
BRANCH  19  24
ATOM     24  O   UNL A   1      32.607  25.880  19.154  1.00  0.00    -0.497 OA
ATOM     25  C   UNL A   1      31.683  25.245  18.279  1.00  0.00     0.278 C 
ENDBRANCH  19  24
ENDBRANCH  14  18
BRANCH  16  26
ATOM     26  C   UNL A   1      37.312  22.394  25.343  1.00  0.00    -0.002 A 
ATOM     27  C   UNL A   1      37.477  21.057  24.969  1.00  0.00     0.011 A 
ATOM     28  C   UNL A   1      38.308  23.077  26.044  1.00  0.00     0.011 A 
ATOM     29  C   UNL A   1      38.662  20.394  25.287  1.00  0.00     0.021 A 
ATOM     30  C   UNL A   1      39.484  22.407  26.386  1.00  0.00     0.021 A 
ATOM     31  C   UNL A   1      39.651  21.070  26.009  1.00  0.00     0.067 A 
BRANCH  31  32
ATOM     32  S   UNL A   1      41.144  20.208  26.446  1.00  0.00     0.175 S 
ATOM     33  C   UNL A   1      42.420  21.429  26.268  1.00  0.00     0.163 C 
ATOM     34  O   UNL A   1      41.032  19.857  27.846  1.00  0.00    -0.224 OA
ATOM     35  O   UNL A   1      41.374  19.190  25.437  1.00  0.00    -0.224 OA
ENDBRANCH  31  32
ENDBRANCH  16  26
ENDBRANCH   8  13
ENDBRANCH   4   7
ENDBRANCH   2   3
ENDBRANCH   1   2
BRANCH   1  36
ATOM     36  C   UNL A   1      32.967  32.592  27.065  1.00  0.00     0.118 C 
BRANCH  36  37
ATOM     37  N   UNL A   1      32.759  33.912  27.642  1.00  0.00    -0.352 N 
ATOM     38  C   UNL A   1      33.302  34.477  28.768  1.00  0.00     0.251 C 
ATOM     39  H   UNL A   1      32.131  34.488  27.149  1.00  0.00     0.163 HD
ATOM     40  O   UNL A   1      32.805  35.508  29.215  1.00  0.00    -0.269 OA
BRANCH  38  41
ATOM     41  C   UNL A   1      34.460  33.855  29.447  1.00  0.00     0.039 A 
ATOM     42  C   UNL A   1      35.747  34.288  29.113  1.00  0.00     0.014 A 
ATOM     43  C   UNL A   1      34.293  32.815  30.368  1.00  0.00     0.014 A 
ATOM     44  C   UNL A   1      36.860  33.715  29.735  1.00  0.00     0.010 A 
ATOM     45  C   UNL A   1      35.400  32.288  31.033  1.00  0.00     0.010 A 
ATOM     46  C   UNL A   1      36.695  32.729  30.721  1.00  0.00    -0.014 A 
BRANCH  46  47
ATOM     47  C   UNL A   1      37.864  32.142  31.425  1.00  0.00     0.031 A 
ATOM     48  C   UNL A   1      38.658  31.037  30.783  1.00  0.00     0.074 A 
ATOM     49  C   UNL A   1      38.178  32.571  32.664  1.00  0.00     0.049 A 
ATOM     50  N   UNL A   1      39.655  30.342  31.269  1.00  0.00    -0.248 NA
ATOM     51  C   UNL A   1      38.259  30.645  29.423  1.00  0.00     0.031 C 
ATOM     52  C   UNL A   1      37.468  33.620  33.399  1.00  0.00     0.029 A 
ATOM     53  N   UNL A   1      39.168  32.175  33.527  1.00  0.00    -0.354 N 
ATOM     54  C   UNL A   1      39.996  29.424  30.282  1.00  0.00     0.074 A 
ATOM     55  C   UNL A   1      39.061  29.616  29.192  1.00  0.00     0.031 C 
ATOM     56  C   UNL A   1      38.062  33.801  34.589  1.00  0.00     0.029 A 
ATOM     57  C   UNL A   1      39.162  32.853  34.724  1.00  0.00     0.049 A 
ATOM     58  H   UNL A   1      39.823  31.472  33.310  1.00  0.00     0.167 HD
ATOM     59  C   UNL A   1      41.007  28.520  30.276  1.00  0.00     0.034 A 
ATOM     60  C   UNL A   1      39.946  32.717  35.811  1.00  0.00     0.034 A 
ATOM     61  C   UNL A   1      41.936  28.348  31.366  1.00  0.00     0.049 A 
ATOM     62  C   UNL A   1      41.044  31.684  35.794  1.00  0.00     0.074 A 
ATOM     63  C   UNL A   1      43.019  27.488  31.451  1.00  0.00     0.029 A 
ATOM     64  N   UNL A   1      41.894  29.047  32.567  1.00  0.00    -0.354 N 
ATOM     65  N   UNL A   1      41.368  30.840  34.842  1.00  0.00    -0.248 NA
ATOM     66  C   UNL A   1      41.885  31.593  36.994  1.00  0.00     0.031 C 
ATOM     67  C   UNL A   1      43.591  27.624  32.721  1.00  0.00     0.029 A 
ATOM     68  C   UNL A   1      42.913  28.620  33.404  1.00  0.00     0.049 A 
ATOM     69  H   UNL A   1      41.235  29.744  32.790  1.00  0.00     0.167 HD
ATOM     70  C   UNL A   1      42.472  30.138  35.318  1.00  0.00     0.074 A 
ATOM     71  C   UNL A   1      42.764  30.669  36.634  1.00  0.00     0.031 C 
ATOM     72  C   UNL A   1      43.185  29.151  34.720  1.00  0.00     0.034 A 
BRANCH  59  73
ATOM     73  C   UNL A   1      41.137  27.631  29.060  1.00  0.00     0.023 A 
ATOM     74  C   UNL A   1      42.100  27.878  28.067  1.00  0.00     0.031 A 
ATOM     75  C   UNL A   1      40.275  26.534  28.883  1.00  0.00     0.131 A 
ATOM     76  C   UNL A   1      42.130  27.087  26.908  1.00  0.00     0.055 A 
ATOM     77  C   UNL A   1      40.362  25.702  27.764  1.00  0.00     0.041 A 
ATOM     78  F   UNL A   1      39.322  26.260  29.788  1.00  0.00    -0.206 F 
ATOM     79  C   UNL A   1      41.284  25.985  26.761  1.00  0.00     0.022 A 
BRANCH  76  80
ATOM     80  S   UNL A   1      43.199  27.601  25.536  1.00  0.00     0.124 S 
ATOM     81  O   UNL A   1      43.622  26.312  24.994  1.00  0.00    -0.237 OA
ATOM     82  O   UNL A   1      42.292  28.380  24.702  1.00  0.00    -0.237 OA
ATOM     83  O   UNL A   1      44.256  28.367  26.194  1.00  0.00    -0.744 OA
ENDBRANCH  76  80
ENDBRANCH  59  73
BRANCH  60  84
ATOM     84  C   UNL A   1      39.728  33.573  37.011  1.00  0.00     0.023 A 
ATOM     85  C   UNL A   1      39.033  33.084  38.128  1.00  0.00     0.031 A 
ATOM     86  C   UNL A   1      40.180  34.905  37.045  1.00  0.00     0.131 A 
ATOM     87  C   UNL A   1      38.769  33.932  39.215  1.00  0.00     0.055 A 
ATOM     88  C   UNL A   1      39.959  35.729  38.150  1.00  0.00     0.041 A 
ATOM     89  F   UNL A   1      40.856  35.420  36.006  1.00  0.00    -0.206 F 
ATOM     90  C   UNL A   1      39.238  35.248  39.239  1.00  0.00     0.022 A 
BRANCH  87  91
ATOM     91  S   UNL A   1      37.735  33.312  40.569  1.00  0.00     0.124 S 
ATOM     92  O   UNL A   1      37.712  34.455  41.474  1.00  0.00    -0.237 OA
ATOM     93  O   UNL A   1      36.484  33.012  39.880  1.00  0.00    -0.237 OA
ATOM     94  O   UNL A   1      38.471  32.146  41.053  1.00  0.00    -0.744 OA
ENDBRANCH  87  91
ENDBRANCH  60  84
BRANCH  72  95
ATOM     95  C   UNL A   1      44.379  28.617  35.472  1.00  0.00     0.023 A 
ATOM     96  C   UNL A   1      44.252  27.605  36.439  1.00  0.00     0.031 A 
ATOM     97  C   UNL A   1      45.660  29.143  35.227  1.00  0.00     0.131 A 
ATOM     98  C   UNL A   1      45.379  27.189  37.165  1.00  0.00     0.055 A 
ATOM     99  C   UNL A   1      46.786  28.684  35.910  1.00  0.00     0.041 A 
ATOM    100  F   UNL A   1      45.837  30.113  34.316  1.00  0.00    -0.206 F 
ATOM    101  C   UNL A   1      46.647  27.710  36.895  1.00  0.00     0.022 A 
BRANCH  98 102
ATOM    102  S   UNL A   1      45.150  26.019  38.533  1.00  0.00     0.124 S 
ATOM    103  O   UNL A   1      44.613  24.849  37.845  1.00  0.00    -0.237 OA
ATOM    104  O   UNL A   1      46.505  25.883  39.058  1.00  0.00    -0.237 OA
ATOM    105  O   UNL A   1      44.210  26.705  39.417  1.00  0.00    -0.744 OA
ENDBRANCH  98 102
ENDBRANCH  72  95
ENDBRANCH  46  47
ENDBRANCH  38  41
ENDBRANCH  36  37
ENDBRANCH   1  36
TORSDOF 18
ENDMDL
MODEL 3
REMARK VINA RESULT:     -12.2      0.721      7.349
REMARK SMILES COc1ccc([C@H]2CC(c3ccc(S(C)(=O)=O)cc3)=NN2c2ccc(C(=O)NCCCNC(=O)c3ccc(-c4c5nc(c(-c6cc(S(=O)(=O)[O-])ccc6F)c6ccc([nH]6)c(-c6cc(S(=O)(=O)[O-])ccc6F)c6nc(c(-c7cc(S(=O)(=O)[O-])ccc7F)c7ccc4[nH]7)C=C6)C=C5)cc3)cc2)cc1
REMARK SMILES IDX 30 1 29 2 28 3 26 4 27 5 25 7 22 8 23 9 99 10 24 11 98 12
REMARK SMILES IDX 21 13 7 14 8 15 9 16 20 17 6 18 3 19 4 20 101 21 5 22 100 23
REMARK SMILES IDX 2 24 1 25 10 26 11 27 19 28 12 29 18 30 13 31 14 32 15 33
REMARK SMILES IDX 16 34 17 35 31 36 32 37 33 38 34 40 35 41 36 42 97 43 37 44
REMARK SMILES IDX 96 45 38 46 39 47 40 48 90 49 41 50 95 51 89 52 91 53 42 54
REMARK SMILES IDX 94 55 88 56 87 57 43 59 75 60 55 61 74 62 56 63 59 64 73 65
REMARK SMILES IDX 92 66 57 67 58 68 72 70 93 71 60 72 44 73 45 74 53 75 46 76
REMARK SMILES IDX 52 77 54 78 51 79 47 80 48 81 49 82 50 83 76 84 77 85 85 86
REMARK SMILES IDX 78 87 84 88 86 89 83 90 79 91 80 92 81 93 82 94 61 95 62 96
REMARK SMILES IDX 70 97 63 98 69 99 71 100 68 101 64 102 65 103 66 104 67 105
REMARK H PARENT 28 6 32 39 91 58 59 69
REMARK Flexibility Score: inf
ROOT
ATOM      1  C   UNL A   1      32.684  34.235  27.830  1.00  0.00     0.042 C 
ENDROOT
BRANCH   1   2
ATOM      2  C   UNL A   1      32.891  32.798  27.352  1.00  0.00     0.118 C 
BRANCH   2   3
ATOM      3  N   UNL A   1      34.004  32.174  28.042  1.00  0.00    -0.352 N 
ATOM      4  C   UNL A   1      34.484  30.891  28.057  1.00  0.00     0.251 C 
ATOM      5  O   UNL A   1      35.506  30.679  28.714  1.00  0.00    -0.269 OA
ATOM      6  H   UNL A   1      34.516  32.796  28.610  1.00  0.00     0.163 HD
BRANCH   4   7
ATOM      7  C   UNL A   1      33.876  29.773  27.284  1.00  0.00     0.039 A 
ATOM      8  C   UNL A   1      32.577  27.621  25.979  1.00  0.00     0.060 A 
ATOM      9  C   UNL A   1      31.921  28.359  26.968  1.00  0.00     0.029 A 
ATOM     10  C   UNL A   1      33.866  28.012  25.610  1.00  0.00     0.029 A 
ATOM     11  C   UNL A   1      32.566  29.408  27.628  1.00  0.00     0.016 A 
ATOM     12  C   UNL A   1      34.495  29.100  26.230  1.00  0.00     0.016 A 
BRANCH   8  13
ATOM     13  N   UNL A   1      31.940  26.544  25.386  1.00  0.00    -0.257 N 
ATOM     14  C   UNL A   1      30.499  26.467  25.151  1.00  0.00     0.144 C 
ATOM     15  C   UNL A   1      30.300  25.001  24.749  1.00  0.00     0.091 C 
ATOM     16  C   UNL A   1      31.704  24.492  24.915  1.00  0.00     0.071 C 
ATOM     17  N   UNL A   1      32.595  25.362  25.267  1.00  0.00    -0.176 NA
BRANCH  14  18
ATOM     18  C   UNL A   1      30.068  27.439  24.064  1.00  0.00    -0.023 A 
ATOM     19  C   UNL A   1      29.283  29.236  22.032  1.00  0.00     0.118 A 
ATOM     20  C   UNL A   1      30.634  29.009  22.298  1.00  0.00     0.047 A 
ATOM     21  C   UNL A   1      28.320  28.545  22.764  1.00  0.00     0.047 A 
ATOM     22  C   UNL A   1      31.027  28.125  23.308  1.00  0.00     0.010 A 
ATOM     23  C   UNL A   1      28.710  27.652  23.768  1.00  0.00     0.010 A 
BRANCH  19  24
ATOM     24  O   UNL A   1      29.033  30.124  21.021  1.00  0.00    -0.497 OA
ATOM     25  C   UNL A   1      28.083  31.145  21.302  1.00  0.00     0.278 C 
ENDBRANCH  19  24
ENDBRANCH  14  18
BRANCH  16  26
ATOM     26  C   UNL A   1      32.020  23.077  24.720  1.00  0.00    -0.002 A 
ATOM     27  C   UNL A   1      31.714  22.173  25.741  1.00  0.00     0.011 A 
ATOM     28  C   UNL A   1      32.649  22.656  23.546  1.00  0.00     0.011 A 
ATOM     29  C   UNL A   1      32.026  20.824  25.583  1.00  0.00     0.021 A 
ATOM     30  C   UNL A   1      32.986  21.310  23.397  1.00  0.00     0.021 A 
ATOM     31  C   UNL A   1      32.676  20.403  24.418  1.00  0.00     0.067 A 
BRANCH  31  32
ATOM     32  S   UNL A   1      33.108  18.688  24.238  1.00  0.00     0.175 S 
ATOM     33  C   UNL A   1      32.520  17.931  25.733  1.00  0.00     0.163 C 
ATOM     34  O   UNL A   1      32.335  18.175  23.125  1.00  0.00    -0.224 OA
ATOM     35  O   UNL A   1      34.556  18.597  24.246  1.00  0.00    -0.224 OA
ENDBRANCH  31  32
ENDBRANCH  16  26
ENDBRANCH   8  13
ENDBRANCH   4   7
ENDBRANCH   2   3
ENDBRANCH   1   2
BRANCH   1  36
ATOM     36  C   UNL A   1      33.783  34.721  28.773  1.00  0.00     0.118 C 
BRANCH  36  37
ATOM     37  N   UNL A   1      33.234  35.257  30.010  1.00  0.00    -0.352 N 
ATOM     38  C   UNL A   1      33.531  34.947  31.314  1.00  0.00     0.251 C 
ATOM     39  H   UNL A   1      32.543  35.949  29.894  1.00  0.00     0.163 HD
ATOM     40  O   UNL A   1      32.778  35.336  32.204  1.00  0.00    -0.269 OA
BRANCH  38  41
ATOM     41  C   UNL A   1      34.730  34.148  31.651  1.00  0.00     0.039 A 
ATOM     42  C   UNL A   1      35.989  34.745  31.538  1.00  0.00     0.014 A 
ATOM     43  C   UNL A   1      34.629  32.803  32.023  1.00  0.00     0.014 A 
ATOM     44  C   UNL A   1      37.139  34.012  31.845  1.00  0.00     0.010 A 
ATOM     45  C   UNL A   1      35.771  32.093  32.389  1.00  0.00     0.010 A 
ATOM     46  C   UNL A   1      37.039  32.688  32.299  1.00  0.00    -0.014 A 
BRANCH  46  47
ATOM     47  C   UNL A   1      38.248  31.910  32.674  1.00  0.00     0.031 A 
ATOM     48  C   UNL A   1      38.940  32.171  33.985  1.00  0.00     0.074 A 
ATOM     49  C   UNL A   1      38.751  31.004  31.811  1.00  0.00     0.049 A 
ATOM     50  N   UNL A   1      40.048  31.659  34.454  1.00  0.00    -0.248 NA
ATOM     51  C   UNL A   1      38.312  33.161  34.874  1.00  0.00     0.031 C 
ATOM     52  C   UNL A   1      38.181  30.681  30.502  1.00  0.00     0.029 A 
ATOM     53  N   UNL A   1      39.855  30.196  31.901  1.00  0.00    -0.354 N 
ATOM     54  C   UNL A   1      40.259  32.269  35.685  1.00  0.00     0.074 A 
ATOM     55  C   UNL A   1      39.190  33.231  35.863  1.00  0.00     0.031 C 
ATOM     56  C   UNL A   1      38.926  29.724  29.923  1.00  0.00     0.029 A 
ATOM     57  C   UNL A   1      40.050  29.401  30.795  1.00  0.00     0.049 A 
ATOM     58  H   UNL A   1      40.453  30.185  32.683  1.00  0.00     0.167 HD
ATOM     59  C   UNL A   1      41.240  32.036  36.592  1.00  0.00     0.034 A 
ATOM     60  C   UNL A   1      41.029  28.520  30.511  1.00  0.00     0.034 A 
ATOM     61  C   UNL A   1      42.292  31.066  36.404  1.00  0.00     0.049 A 
ATOM     62  C   UNL A   1      42.126  28.299  31.520  1.00  0.00     0.074 A 
ATOM     63  C   UNL A   1      43.315  30.723  37.272  1.00  0.00     0.029 A 
ATOM     64  N   UNL A   1      42.462  30.285  35.267  1.00  0.00    -0.354 N 
ATOM     65  N   UNL A   1      42.297  28.869  32.691  1.00  0.00    -0.248 NA
ATOM     66  C   UNL A   1      43.156  27.312  31.174  1.00  0.00     0.031 C 
ATOM     67  C   UNL A   1      44.134  29.782  36.638  1.00  0.00     0.029 A 
ATOM     68  C   UNL A   1      43.584  29.482  35.402  1.00  0.00     0.049 A 
ATOM     69  H   UNL A   1      41.871  30.301  34.480  1.00  0.00     0.167 HD
ATOM     70  C   UNL A   1      43.438  28.283  33.234  1.00  0.00     0.074 A 
ATOM     71  C   UNL A   1      43.903  27.309  32.267  1.00  0.00     0.031 C 
ATOM     72  C   UNL A   1      44.043  28.523  34.425  1.00  0.00     0.034 A 
BRANCH  59  73
ATOM     73  C   UNL A   1      41.231  32.865  37.856  1.00  0.00     0.023 A 
ATOM     74  C   UNL A   1      40.451  32.505  38.968  1.00  0.00     0.031 A 
ATOM     75  C   UNL A   1      41.996  34.042  37.942  1.00  0.00     0.131 A 
ATOM     76  C   UNL A   1      40.396  33.349  40.088  1.00  0.00     0.055 A 
ATOM     77  C   UNL A   1      41.999  34.836  39.091  1.00  0.00     0.041 A 
ATOM     78  F   UNL A   1      42.746  34.448  36.904  1.00  0.00    -0.206 F 
ATOM     79  C   UNL A   1      41.184  34.499  40.167  1.00  0.00     0.022 A 
BRANCH  76  80
ATOM     80  S   UNL A   1      39.178  32.990  41.383  1.00  0.00     0.124 S 
ATOM     81  O   UNL A   1      39.282  31.537  41.490  1.00  0.00    -0.237 OA
ATOM     82  O   UNL A   1      39.686  33.753  42.516  1.00  0.00    -0.237 OA
ATOM     83  O   UNL A   1      37.921  33.476  40.815  1.00  0.00    -0.744 OA
ENDBRANCH  76  80
ENDBRANCH  59  73
BRANCH  60  84
ATOM     84  C   UNL A   1      41.027  27.780  29.218  1.00  0.00     0.023 A 
ATOM     85  C   UNL A   1      42.015  28.019  28.250  1.00  0.00     0.031 A 
ATOM     86  C   UNL A   1      40.017  26.849  28.915  1.00  0.00     0.131 A 
ATOM     87  C   UNL A   1      41.949  27.370  27.007  1.00  0.00     0.055 A 
ATOM     88  C   UNL A   1      39.984  26.169  27.697  1.00  0.00     0.041 A 
ATOM     89  F   UNL A   1      39.052  26.578  29.808  1.00  0.00    -0.206 F 
ATOM     90  C   UNL A   1      40.947  26.437  26.728  1.00  0.00     0.022 A 
BRANCH  87  91
ATOM     91  S   UNL A   1      43.152  27.821  25.727  1.00  0.00     0.124 S 
ATOM     92  O   UNL A   1      42.280  28.200  24.621  1.00  0.00    -0.237 OA
ATOM     93  O   UNL A   1      43.884  28.907  26.371  1.00  0.00    -0.237 OA
ATOM     94  O   UNL A   1      43.915  26.591  25.529  1.00  0.00    -0.744 OA
ENDBRANCH  87  91
ENDBRANCH  60  84
BRANCH  72  95
ATOM     95  C   UNL A   1      45.247  27.680  34.762  1.00  0.00     0.023 A 
ATOM     96  C   UNL A   1      45.122  26.421  35.375  1.00  0.00     0.031 A 
ATOM     97  C   UNL A   1      46.541  28.153  34.479  1.00  0.00     0.131 A 
ATOM     98  C   UNL A   1      46.273  25.702  35.735  1.00  0.00     0.055 A 
ATOM     99  C   UNL A   1      47.680  27.408  34.786  1.00  0.00     0.041 A 
ATOM    100  F   UNL A   1      46.718  29.349  33.897  1.00  0.00    -0.206 F 
ATOM    101  C   UNL A   1      47.549  26.180  35.430  1.00  0.00     0.022 A 
BRANCH  98 102
ATOM    102  S   UNL A   1      46.080  24.172  36.691  1.00  0.00     0.124 S 
ATOM    103  O   UNL A   1      47.296  23.443  36.346  1.00  0.00    -0.237 OA
ATOM    104  O   UNL A   1      46.001  24.668  38.061  1.00  0.00    -0.237 OA
ATOM    105  O   UNL A   1      44.842  23.596  36.169  1.00  0.00    -0.744 OA
ENDBRANCH  98 102
ENDBRANCH  72  95
ENDBRANCH  46  47
ENDBRANCH  38  41
ENDBRANCH  36  37
ENDBRANCH   1  36
TORSDOF 18
ENDMDL
