MODEL 1
REMARK VINA RESULT:     -12.1      0.000      0.000
REMARK SMILES Cc1ccc(NC(=O)N[C@@H]2C=C[C@@H](C(=O)NCCCNC(=O)c3ccc(-c4c5nc(c(-c6cc(S(=O)(=O)[O-])ccc6F)c6ccc([nH]6)c(-c6cc(S(=O)(=O)[O-])ccc6F)c6nc(c(-c7cc(S(=O)(=O)[O-])ccc7F)c7ccc4[nH]7)C=C6)C=C5)cc3)C2)c(F)c1
REMARK SMILES IDX 18 1 17 2 16 3 14 4 15 5 13 7 10 8 11 9 86 10 12 11 9 12
REMARK SMILES IDX 6 13 7 14 8 16 5 18 1 19 2 20 3 21 89 22 4 23 87 24 88 25
REMARK SMILES IDX 19 26 20 27 21 28 22 30 23 31 24 32 85 33 25 34 84 35 26 36
REMARK SMILES IDX 27 37 28 38 78 39 29 40 83 41 77 42 79 43 30 44 82 45 76 46
REMARK SMILES IDX 75 47 31 49 63 50 43 51 62 52 44 53 47 54 61 55 80 56 45 57
REMARK SMILES IDX 46 58 60 60 81 61 48 62 32 63 33 64 41 65 34 66 40 67 42 68
REMARK SMILES IDX 39 69 35 70 36 71 37 72 38 73 64 74 65 75 73 76 66 77 72 78
REMARK SMILES IDX 74 79 71 80 67 81 68 82 69 83 70 84 49 85 50 86 58 87 51 88
REMARK SMILES IDX 57 89 59 90 56 91 52 92 53 93 54 94 55 95
REMARK H PARENT 16 6 6 15 9 17 20 29 79 48 47 59
REMARK Flexibility Score: inf
ROOT
ATOM      1  C   UNL A   1      31.000  31.570  26.435  1.00  0.00     0.042 C 
ENDROOT
BRANCH   1   2
ATOM      2  C   UNL A   1      30.664  31.103  25.028  1.00  0.00     0.117 C 
BRANCH   2   3
ATOM      3  N   UNL A   1      29.650  31.920  24.396  1.00  0.00    -0.356 N 
ATOM      4  C   UNL A   1      28.855  31.767  23.314  1.00  0.00     0.227 C 
ATOM      5  O   UNL A   1      28.040  32.684  23.130  1.00  0.00    -0.274 OA
ATOM      6  H   UNL A   1      29.506  32.778  24.859  1.00  0.00     0.163 HD
BRANCH   4   7
ATOM      7  C   UNL A   1      28.806  30.548  22.383  1.00  0.00     0.103 C 
ATOM      8  C   UNL A   1      30.319  28.627  22.534  1.00  0.00     0.107 C 
ATOM      9  C   UNL A   1      28.985  28.326  23.128  1.00  0.00    -0.006 C 
ATOM     10  C   UNL A   1      30.050  29.922  21.744  1.00  0.00     0.047 C 
ATOM     11  C   UNL A   1      28.173  29.385  23.089  1.00  0.00    -0.016 C 
BRANCH   8  12
ATOM     12  N   UNL A   1      30.827  27.520  21.759  1.00  0.00    -0.332 N 
ATOM     13  N   UNL A   1      32.191  26.317  23.298  1.00  0.00    -0.305 N 
ATOM     14  C   UNL A   1      31.650  26.491  22.067  1.00  0.00     0.319 C 
ATOM     15  H   UNL A   1      32.423  25.385  23.513  1.00  0.00     0.171 HD
ATOM     16  O   UNL A   1      31.778  25.589  21.234  1.00  0.00    -0.248 OA
ATOM     17  H   UNL A   1      30.514  27.513  20.825  1.00  0.00     0.165 HD
BRANCH  13  18
ATOM     18  C   UNL A   1      32.479  27.237  24.317  1.00  0.00     0.078 A 
ATOM     19  C   UNL A   1      34.230  29.284  27.645  1.00  0.00     0.044 C 
ATOM     20  C   UNL A   1      33.502  28.731  26.455  1.00  0.00    -0.048 A 
ATOM     21  C   UNL A   1      34.043  28.866  25.169  1.00  0.00     0.006 A 
ATOM     22  C   UNL A   1      32.350  27.957  26.627  1.00  0.00     0.045 A 
ATOM     23  C   UNL A   1      33.505  28.155  24.092  1.00  0.00     0.029 A 
ATOM     24  C   UNL A   1      31.844  27.220  25.560  1.00  0.00     0.147 A 
ATOM     25  F   UNL A   1      30.796  26.411  25.778  1.00  0.00    -0.205 F 
ENDBRANCH  13  18
ENDBRANCH   8  12
ENDBRANCH   4   7
ENDBRANCH   2   3
ENDBRANCH   1   2
BRANCH   1  26
ATOM     26  C   UNL A   1      32.310  32.339  26.533  1.00  0.00     0.118 C 
BRANCH  26  27
ATOM     27  N   UNL A   1      32.164  33.642  27.171  1.00  0.00    -0.352 N 
ATOM     28  C   UNL A   1      32.906  34.213  28.181  1.00  0.00     0.251 C 
ATOM     29  H   UNL A   1      31.425  34.195  26.829  1.00  0.00     0.163 HD
ATOM     30  O   UNL A   1      32.529  35.269  28.683  1.00  0.00    -0.269 OA
BRANCH  28  31
ATOM     31  C   UNL A   1      34.124  33.535  28.680  1.00  0.00     0.039 A 
ATOM     32  C   UNL A   1      35.373  34.125  28.466  1.00  0.00     0.014 A 
ATOM     33  C   UNL A   1      34.034  32.338  29.391  1.00  0.00     0.014 A 
ATOM     34  C   UNL A   1      36.515  33.563  29.047  1.00  0.00     0.010 A 
ATOM     35  C   UNL A   1      35.150  31.842  30.056  1.00  0.00     0.010 A 
ATOM     36  C   UNL A   1      36.406  32.445  29.891  1.00  0.00    -0.014 A 
BRANCH  36  37
ATOM     37  C   UNL A   1      37.584  31.871  30.599  1.00  0.00     0.031 A 
ATOM     38  C   UNL A   1      38.436  30.834  29.913  1.00  0.00     0.074 A 
ATOM     39  C   UNL A   1      37.832  32.203  31.883  1.00  0.00     0.049 A 
ATOM     40  N   UNL A   1      39.401  30.095  30.398  1.00  0.00    -0.248 NA
ATOM     41  C   UNL A   1      38.119  30.555  28.504  1.00  0.00     0.031 C 
ATOM     42  C   UNL A   1      37.050  33.152  32.680  1.00  0.00     0.029 A 
ATOM     43  N   UNL A   1      38.803  31.768  32.750  1.00  0.00    -0.354 N 
ATOM     44  C   UNL A   1      39.777  29.240  29.367  1.00  0.00     0.074 A 
ATOM     45  C   UNL A   1      38.886  29.507  28.257  1.00  0.00     0.031 C 
ATOM     46  C   UNL A   1      37.590  33.247  33.907  1.00  0.00     0.029 A 
ATOM     47  C   UNL A   1      38.724  32.334  34.001  1.00  0.00     0.049 A 
ATOM     48  H   UNL A   1      39.493  31.111  32.499  1.00  0.00     0.167 HD
ATOM     49  C   UNL A   1      40.788  28.335  29.337  1.00  0.00     0.034 A 
ATOM     50  C   UNL A   1      39.472  32.132  35.105  1.00  0.00     0.034 A 
ATOM     51  C   UNL A   1      41.693  28.112  30.438  1.00  0.00     0.049 A 
ATOM     52  C   UNL A   1      40.611  31.147  35.041  1.00  0.00     0.074 A 
ATOM     53  C   UNL A   1      42.790  27.270  30.498  1.00  0.00     0.029 A 
ATOM     54  N   UNL A   1      41.611  28.743  31.673  1.00  0.00    -0.354 N 
ATOM     55  N   UNL A   1      40.979  30.373  34.046  1.00  0.00    -0.248 NA
ATOM     56  C   UNL A   1      41.443  31.018  36.244  1.00  0.00     0.031 C 
ATOM     57  C   UNL A   1      43.339  27.353  31.783  1.00  0.00     0.029 A 
ATOM     58  C   UNL A   1      42.626  28.298  32.505  1.00  0.00     0.049 A 
ATOM     59  H   UNL A   1      40.929  29.409  31.921  1.00  0.00     0.167 HD
ATOM     60  C   UNL A   1      42.107  29.691  34.494  1.00  0.00     0.074 A 
ATOM     61  C   UNL A   1      42.363  30.153  35.843  1.00  0.00     0.031 C 
ATOM     62  C   UNL A   1      42.866  28.769  33.848  1.00  0.00     0.034 A 
BRANCH  49  63
ATOM     63  C   UNL A   1      40.945  27.516  28.076  1.00  0.00     0.023 A 
ATOM     64  C   UNL A   1      40.577  26.159  28.027  1.00  0.00     0.031 A 
ATOM     65  C   UNL A   1      41.521  28.080  26.924  1.00  0.00     0.131 A 
ATOM     66  C   UNL A   1      40.879  25.391  26.894  1.00  0.00     0.055 A 
ATOM     67  C   UNL A   1      41.732  27.330  25.764  1.00  0.00     0.041 A 
ATOM     68  F   UNL A   1      41.911  29.364  26.912  1.00  0.00    -0.206 F 
ATOM     69  C   UNL A   1      41.430  25.972  25.751  1.00  0.00     0.022 A 
BRANCH  66  70
ATOM     70  S   UNL A   1      40.700  23.588  27.003  1.00  0.00     0.124 S 
ATOM     71  O   UNL A   1      41.128  23.333  28.376  1.00  0.00    -0.237 OA
ATOM     72  O   UNL A   1      39.280  23.395  26.730  1.00  0.00    -0.237 OA
ATOM     73  O   UNL A   1      41.608  23.090  25.972  1.00  0.00    -0.744 OA
ENDBRANCH  66  70
ENDBRANCH  49  63
BRANCH  50  74
ATOM     74  C   UNL A   1      39.181  32.877  36.363  1.00  0.00     0.023 A 
ATOM     75  C   UNL A   1      38.342  32.328  37.346  1.00  0.00     0.031 A 
ATOM     76  C   UNL A   1      39.706  34.161  36.586  1.00  0.00     0.131 A 
ATOM     77  C   UNL A   1      38.015  33.078  38.485  1.00  0.00     0.055 A 
ATOM     78  C   UNL A   1      39.418  34.884  37.745  1.00  0.00     0.041 A 
ATOM     79  F   UNL A   1      40.523  34.727  35.683  1.00  0.00    -0.206 F 
ATOM     80  C   UNL A   1      38.557  34.347  38.698  1.00  0.00     0.022 A 
BRANCH  77  81
ATOM     81  S   UNL A   1      36.808  32.396  39.656  1.00  0.00     0.124 S 
ATOM     82  O   UNL A   1      37.404  31.105  39.978  1.00  0.00    -0.237 OA
ATOM     83  O   UNL A   1      36.822  33.394  40.721  1.00  0.00    -0.237 OA
ATOM     84  O   UNL A   1      35.574  32.338  38.876  1.00  0.00    -0.744 OA
ENDBRANCH  77  81
ENDBRANCH  50  74
BRANCH  62  85
ATOM     85  C   UNL A   1      44.078  28.248  34.579  1.00  0.00     0.023 A 
ATOM     86  C   UNL A   1      44.010  27.126  35.423  1.00  0.00     0.031 A 
ATOM     87  C   UNL A   1      45.317  28.896  34.435  1.00  0.00     0.131 A 
ATOM     88  C   UNL A   1      45.150  26.720  36.134  1.00  0.00     0.055 A 
ATOM     89  C   UNL A   1      46.460  28.454  35.101  1.00  0.00     0.041 A 
ATOM     90  F   UNL A   1      45.437  29.973  33.641  1.00  0.00    -0.206 F 
ATOM     91  C   UNL A   1      46.377  27.367  35.967  1.00  0.00     0.022 A 
BRANCH  88  92
ATOM     92  S   UNL A   1      44.986  25.385  37.352  1.00  0.00     0.124 S 
ATOM     93  O   UNL A   1      43.689  24.815  37.006  1.00  0.00    -0.237 OA
ATOM     94  O   UNL A   1      46.148  24.552  37.060  1.00  0.00    -0.237 OA
ATOM     95  O   UNL A   1      45.033  26.084  38.635  1.00  0.00    -0.744 OA
ENDBRANCH  88  92
ENDBRANCH  62  85
ENDBRANCH  36  37
ENDBRANCH  28  31
ENDBRANCH  26  27
ENDBRANCH   1  26
TORSDOF 15
ENDMDL
MODEL 2
REMARK VINA RESULT:     -12.1      3.078      8.593
REMARK SMILES Cc1ccc(NC(=O)N[C@@H]2C=C[C@@H](C(=O)NCCCNC(=O)c3ccc(-c4c5nc(c(-c6cc(S(=O)(=O)[O-])ccc6F)c6ccc([nH]6)c(-c6cc(S(=O)(=O)[O-])ccc6F)c6nc(c(-c7cc(S(=O)(=O)[O-])ccc7F)c7ccc4[nH]7)C=C6)C=C5)cc3)C2)c(F)c1
REMARK SMILES IDX 18 1 17 2 16 3 14 4 15 5 13 7 10 8 11 9 86 10 12 11 9 12
REMARK SMILES IDX 6 13 7 14 8 16 5 18 1 19 2 20 3 21 89 22 4 23 87 24 88 25
REMARK SMILES IDX 19 26 20 27 21 28 22 30 23 31 24 32 85 33 25 34 84 35 26 36
REMARK SMILES IDX 27 37 28 38 78 39 29 40 83 41 77 42 79 43 30 44 82 45 76 46
REMARK SMILES IDX 75 47 31 49 63 50 43 51 62 52 44 53 47 54 61 55 80 56 45 57
REMARK SMILES IDX 46 58 60 60 81 61 48 62 32 63 33 64 41 65 34 66 40 67 42 68
REMARK SMILES IDX 39 69 35 70 36 71 37 72 38 73 64 74 65 75 73 76 66 77 72 78
REMARK SMILES IDX 74 79 71 80 67 81 68 82 69 83 70 84 49 85 50 86 58 87 51 88
REMARK SMILES IDX 57 89 59 90 56 91 52 92 53 93 54 94 55 95
REMARK H PARENT 16 6 6 15 9 17 20 29 79 48 47 59
REMARK Flexibility Score: inf
ROOT
ATOM      1  C   UNL A   1      33.501  28.110  24.600  1.00  0.00     0.042 C 
ENDROOT
BRANCH   1   2
ATOM      2  C   UNL A   1      33.775  26.658  24.246  1.00  0.00     0.117 C 
BRANCH   2   3
ATOM      3  N   UNL A   1      33.528  26.367  22.849  1.00  0.00    -0.356 N 
ATOM      4  C   UNL A   1      32.492  25.827  22.167  1.00  0.00     0.227 C 
ATOM      5  O   UNL A   1      32.632  25.809  20.936  1.00  0.00    -0.274 OA
ATOM      6  H   UNL A   1      34.280  26.620  22.266  1.00  0.00     0.163 HD
BRANCH   4   7
ATOM      7  C   UNL A   1      31.161  25.345  22.761  1.00  0.00     0.103 C 
ATOM      8  C   UNL A   1      30.823  24.768  25.117  1.00  0.00     0.107 C 
ATOM      9  C   UNL A   1      30.281  26.120  24.797  1.00  0.00    -0.006 C 
ATOM     10  C   UNL A   1      31.046  24.157  23.721  1.00  0.00     0.047 C 
ATOM     11  C   UNL A   1      30.505  26.457  23.525  1.00  0.00    -0.016 C 
BRANCH   8  12
ATOM     12  N   UNL A   1      29.942  24.026  25.987  1.00  0.00    -0.332 N 
ATOM     13  N   UNL A   1      31.404  22.578  27.188  1.00  0.00    -0.305 N 
ATOM     14  C   UNL A   1      30.169  23.058  26.907  1.00  0.00     0.319 C 
ATOM     15  H   UNL A   1      31.499  22.202  28.093  1.00  0.00     0.171 HD
ATOM     16  O   UNL A   1      29.226  22.721  27.629  1.00  0.00    -0.248 OA
ATOM     17  H   UNL A   1      28.992  24.270  25.893  1.00  0.00     0.165 HD
BRANCH  13  18
ATOM     18  C   UNL A   1      32.571  22.522  26.412  1.00  0.00     0.078 A 
ATOM     19  C   UNL A   1      35.612  23.249  23.488  1.00  0.00     0.044 C 
ATOM     20  C   UNL A   1      34.678  22.867  24.598  1.00  0.00    -0.048 A 
ATOM     21  C   UNL A   1      34.604  23.648  25.760  1.00  0.00     0.006 A 
ATOM     22  C   UNL A   1      33.774  21.813  24.432  1.00  0.00     0.045 A 
ATOM     23  C   UNL A   1      33.579  23.447  26.689  1.00  0.00     0.029 A 
ATOM     24  C   UNL A   1      32.731  21.644  25.339  1.00  0.00     0.147 A 
ATOM     25  F   UNL A   1      31.823  20.686  25.101  1.00  0.00    -0.205 F 
ENDBRANCH  13  18
ENDBRANCH   8  12
ENDBRANCH   4   7
ENDBRANCH   2   3
ENDBRANCH   1   2
BRANCH   1  26
ATOM     26  C   UNL A   1      34.171  28.568  25.887  1.00  0.00     0.118 C 
BRANCH  26  27
ATOM     27  N   UNL A   1      33.788  29.918  26.285  1.00  0.00    -0.352 N 
ATOM     28  C   UNL A   1      34.344  30.743  27.238  1.00  0.00     0.251 C 
ATOM     29  H   UNL A   1      33.018  30.294  25.801  1.00  0.00     0.163 HD
ATOM     30  O   UNL A   1      33.780  31.796  27.526  1.00  0.00    -0.269 OA
BRANCH  28  31
ATOM     31  C   UNL A   1      35.588  30.340  27.933  1.00  0.00     0.039 A 
ATOM     32  C   UNL A   1      35.507  29.764  29.203  1.00  0.00     0.014 A 
ATOM     33  C   UNL A   1      36.831  30.497  27.319  1.00  0.00     0.014 A 
ATOM     34  C   UNL A   1      36.662  29.260  29.812  1.00  0.00     0.010 A 
ATOM     35  C   UNL A   1      37.957  29.900  27.875  1.00  0.00     0.010 A 
ATOM     36  C   UNL A   1      37.889  29.277  29.130  1.00  0.00    -0.014 A 
BRANCH  36  37
ATOM     37  C   UNL A   1      39.123  28.671  29.705  1.00  0.00     0.031 A 
ATOM     38  C   UNL A   1      39.717  29.243  30.967  1.00  0.00     0.074 A 
ATOM     39  C   UNL A   1      39.760  27.680  29.050  1.00  0.00     0.049 A 
ATOM     40  N   UNL A   1      40.860  28.974  31.545  1.00  0.00    -0.248 NA
ATOM     41  C   UNL A   1      38.941  30.297  31.637  1.00  0.00     0.031 C 
ATOM     42  C   UNL A   1      39.321  27.075  27.790  1.00  0.00     0.029 A 
ATOM     43  N   UNL A   1      40.925  27.015  29.344  1.00  0.00    -0.354 N 
ATOM     44  C   UNL A   1      40.956  29.852  32.620  1.00  0.00     0.074 A 
ATOM     45  C   UNL A   1      39.787  30.706  32.567  1.00  0.00     0.031 C 
ATOM     46  C   UNL A   1      40.188  26.112  27.436  1.00  0.00     0.029 A 
ATOM     47  C   UNL A   1      41.270  26.061  28.415  1.00  0.00     0.049 A 
ATOM     48  H   UNL A   1      41.464  27.204  30.146  1.00  0.00     0.167 HD
ATOM     49  C   UNL A   1      41.913  29.925  33.579  1.00  0.00     0.034 A 
ATOM     50  C   UNL A   1      42.341  25.244  28.350  1.00  0.00     0.034 A 
ATOM     51  C   UNL A   1      43.050  29.038  33.641  1.00  0.00     0.049 A 
ATOM     52  C   UNL A   1      43.377  25.318  29.443  1.00  0.00     0.074 A 
ATOM     53  C   UNL A   1      44.046  28.976  34.598  1.00  0.00     0.029 A 
ATOM     54  N   UNL A   1      43.336  28.049  32.707  1.00  0.00    -0.354 N 
ATOM     55  N   UNL A   1      43.434  26.128  30.475  1.00  0.00    -0.248 NA
ATOM     56  C   UNL A   1      44.486  24.357  29.369  1.00  0.00     0.031 C 
ATOM     57  C   UNL A   1      44.961  27.987  34.218  1.00  0.00     0.029 A 
ATOM     58  C   UNL A   1      44.501  27.385  33.058  1.00  0.00     0.049 A 
ATOM     59  H   UNL A   1      42.792  27.851  31.911  1.00  0.00     0.167 HD
ATOM     60  C   UNL A   1      44.567  25.750  31.190  1.00  0.00     0.074 A 
ATOM     61  C   UNL A   1      45.155  24.635  30.477  1.00  0.00     0.031 C 
ATOM     62  C   UNL A   1      45.074  26.274  32.335  1.00  0.00     0.034 A 
BRANCH  49  63
ATOM     63  C   UNL A   1      41.770  31.012  34.619  1.00  0.00     0.023 A 
ATOM     64  C   UNL A   1      40.711  31.013  35.545  1.00  0.00     0.031 A 
ATOM     65  C   UNL A   1      42.670  32.092  34.653  1.00  0.00     0.131 A 
ATOM     66  C   UNL A   1      40.521  32.113  36.392  1.00  0.00     0.055 A 
ATOM     67  C   UNL A   1      42.528  33.141  35.566  1.00  0.00     0.041 A 
ATOM     68  F   UNL A   1      43.691  32.160  33.785  1.00  0.00    -0.206 F 
ATOM     69  C   UNL A   1      41.436  33.166  36.428  1.00  0.00     0.022 A 
BRANCH  66  70
ATOM     70  S   UNL A   1      38.965  32.227  37.319  1.00  0.00     0.124 S 
ATOM     71  O   UNL A   1      39.450  32.333  38.694  1.00  0.00    -0.237 OA
ATOM     72  O   UNL A   1      38.354  33.429  36.764  1.00  0.00    -0.237 OA
ATOM     73  O   UNL A   1      38.283  30.975  37.002  1.00  0.00    -0.744 OA
ENDBRANCH  66  70
ENDBRANCH  49  63
BRANCH  50  74
ATOM     74  C   UNL A   1      42.492  24.283  27.222  1.00  0.00     0.023 A 
ATOM     75  C   UNL A   1      41.916  23.004  27.285  1.00  0.00     0.031 A 
ATOM     76  C   UNL A   1      43.242  24.613  26.080  1.00  0.00     0.131 A 
ATOM     77  C   UNL A   1      42.138  22.085  26.248  1.00  0.00     0.055 A 
ATOM     78  C   UNL A   1      43.419  23.713  25.028  1.00  0.00     0.041 A 
ATOM     79  F   UNL A   1      43.804  25.827  25.965  1.00  0.00    -0.206 F 
ATOM     80  C   UNL A   1      42.875  22.434  25.114  1.00  0.00     0.022 A 
BRANCH  77  81
ATOM     81  S   UNL A   1      41.507  20.394  26.436  1.00  0.00     0.124 S 
ATOM     82  O   UNL A   1      42.230  19.688  25.386  1.00  0.00    -0.237 OA
ATOM     83  O   UNL A   1      41.893  20.078  27.807  1.00  0.00    -0.237 OA
ATOM     84  O   UNL A   1      40.070  20.541  26.214  1.00  0.00    -0.744 OA
ENDBRANCH  77  81
ENDBRANCH  50  74
BRANCH  62  85
ATOM     85  C   UNL A   1      46.294  25.602  32.914  1.00  0.00     0.023 A 
ATOM     86  C   UNL A   1      46.192  24.544  33.832  1.00  0.00     0.031 A 
ATOM     87  C   UNL A   1      47.578  26.041  32.546  1.00  0.00     0.131 A 
ATOM     88  C   UNL A   1      47.355  23.995  34.395  1.00  0.00     0.055 A 
ATOM     89  C   UNL A   1      48.732  25.454  33.065  1.00  0.00     0.041 A 
ATOM     90  F   UNL A   1      47.731  27.049  31.672  1.00  0.00    -0.206 F 
ATOM     91  C   UNL A   1      48.624  24.433  34.005  1.00  0.00     0.022 A 
BRANCH  88  92
ATOM     92  S   UNL A   1      47.186  22.759  35.711  1.00  0.00     0.124 S 
ATOM     93  O   UNL A   1      45.744  22.738  35.926  1.00  0.00    -0.237 OA
ATOM     94  O   UNL A   1      47.756  21.565  35.093  1.00  0.00    -0.237 OA
ATOM     95  O   UNL A   1      47.969  23.319  36.811  1.00  0.00    -0.744 OA
ENDBRANCH  88  92
ENDBRANCH  62  85
ENDBRANCH  36  37
ENDBRANCH  28  31
ENDBRANCH  26  27
ENDBRANCH   1  26
TORSDOF 15
ENDMDL
MODEL 3
REMARK VINA RESULT:     -12.0      4.756      7.857
REMARK SMILES Cc1ccc(NC(=O)N[C@@H]2C=C[C@@H](C(=O)NCCCNC(=O)c3ccc(-c4c5nc(c(-c6cc(S(=O)(=O)[O-])ccc6F)c6ccc([nH]6)c(-c6cc(S(=O)(=O)[O-])ccc6F)c6nc(c(-c7cc(S(=O)(=O)[O-])ccc7F)c7ccc4[nH]7)C=C6)C=C5)cc3)C2)c(F)c1
REMARK SMILES IDX 18 1 17 2 16 3 14 4 15 5 13 7 10 8 11 9 86 10 12 11 9 12
REMARK SMILES IDX 6 13 7 14 8 16 5 18 1 19 2 20 3 21 89 22 4 23 87 24 88 25
REMARK SMILES IDX 19 26 20 27 21 28 22 30 23 31 24 32 85 33 25 34 84 35 26 36
REMARK SMILES IDX 27 37 28 38 78 39 29 40 83 41 77 42 79 43 30 44 82 45 76 46
REMARK SMILES IDX 75 47 31 49 63 50 43 51 62 52 44 53 47 54 61 55 80 56 45 57
REMARK SMILES IDX 46 58 60 60 81 61 48 62 32 63 33 64 41 65 34 66 40 67 42 68
REMARK SMILES IDX 39 69 35 70 36 71 37 72 38 73 64 74 65 75 73 76 66 77 72 78
REMARK SMILES IDX 74 79 71 80 67 81 68 82 69 83 70 84 49 85 50 86 58 87 51 88
REMARK SMILES IDX 57 89 59 90 56 91 52 92 53 93 54 94 55 95
REMARK H PARENT 16 6 6 15 9 17 20 29 79 48 47 59
REMARK Flexibility Score: inf
ROOT
ATOM      1  C   UNL A   1      35.104  23.610  25.059  1.00  0.00     0.042 C 
ENDROOT
BRANCH   1   2
ATOM      2  C   UNL A   1      33.983  24.608  25.305  1.00  0.00     0.117 C 
BRANCH   2   3
ATOM      3  N   UNL A   1      33.090  24.193  26.366  1.00  0.00    -0.356 N 
ATOM      4  C   UNL A   1      31.746  24.166  26.510  1.00  0.00     0.227 C 
ATOM      5  O   UNL A   1      31.345  23.659  27.569  1.00  0.00    -0.274 OA
ATOM      6  H   UNL A   1      33.568  23.856  27.158  1.00  0.00     0.163 HD
BRANCH   4   7
ATOM      7  C   UNL A   1      30.707  24.598  25.467  1.00  0.00     0.103 C 
ATOM      8  C   UNL A   1      31.098  26.295  23.744  1.00  0.00     0.107 C 
ATOM      9  C   UNL A   1      31.194  24.914  23.190  1.00  0.00    -0.006 C 
ATOM     10  C   UNL A   1      30.427  26.062  25.111  1.00  0.00     0.047 C 
ATOM     11  C   UNL A   1      31.029  23.986  24.135  1.00  0.00    -0.016 C 
BRANCH   8  12
ATOM     12  N   UNL A   1      30.395  27.187  22.851  1.00  0.00    -0.332 N 
ATOM     13  N   UNL A   1      31.489  29.282  23.152  1.00  0.00    -0.305 N 
ATOM     14  C   UNL A   1      30.545  28.502  22.570  1.00  0.00     0.319 C 
ATOM     15  H   UNL A   1      31.761  30.062  22.616  1.00  0.00     0.171 HD
ATOM     16  O   UNL A   1      29.898  28.964  21.626  1.00  0.00    -0.248 OA
ATOM     17  H   UNL A   1      29.666  26.753  22.350  1.00  0.00     0.165 HD
BRANCH  13  18
ATOM     18  C   UNL A   1      32.145  29.171  24.387  1.00  0.00     0.078 A 
ATOM     19  C   UNL A   1      34.484  29.927  27.892  1.00  0.00     0.044 C 
ATOM     20  C   UNL A   1      33.604  29.493  26.756  1.00  0.00    -0.048 A 
ATOM     21  C   UNL A   1      32.287  29.961  26.663  1.00  0.00     0.006 A 
ATOM     22  C   UNL A   1      34.129  28.731  25.707  1.00  0.00     0.045 A 
ATOM     23  C   UNL A   1      31.540  29.761  25.498  1.00  0.00     0.029 A 
ATOM     24  C   UNL A   1      33.397  28.571  24.533  1.00  0.00     0.147 A 
ATOM     25  F   UNL A   1      33.963  27.918  23.508  1.00  0.00    -0.205 F 
ENDBRANCH  13  18
ENDBRANCH   8  12
ENDBRANCH   4   7
ENDBRANCH   2   3
ENDBRANCH   1   2
BRANCH   1  26
ATOM     26  C   UNL A   1      36.412  23.971  25.748  1.00  0.00     0.118 C 
BRANCH  26  27
ATOM     27  N   UNL A   1      37.328  22.843  25.866  1.00  0.00    -0.352 N 
ATOM     28  C   UNL A   1      38.648  22.821  26.260  1.00  0.00     0.251 C 
ATOM     29  H   UNL A   1      36.946  21.967  25.630  1.00  0.00     0.163 HD
ATOM     30  O   UNL A   1      39.292  21.780  26.152  1.00  0.00    -0.269 OA
BRANCH  28  31
ATOM     31  C   UNL A   1      39.290  24.054  26.770  1.00  0.00     0.039 A 
ATOM     32  C   UNL A   1      39.944  24.906  25.876  1.00  0.00     0.014 A 
ATOM     33  C   UNL A   1      39.217  24.390  28.122  1.00  0.00     0.014 A 
ATOM     34  C   UNL A   1      40.438  26.136  26.324  1.00  0.00     0.010 A 
ATOM     35  C   UNL A   1      39.610  25.656  28.543  1.00  0.00     0.010 A 
ATOM     36  C   UNL A   1      40.228  26.545  27.652  1.00  0.00    -0.014 A 
BRANCH  36  37
ATOM     37  C   UNL A   1      40.659  27.883  28.145  1.00  0.00     0.031 A 
ATOM     38  C   UNL A   1      42.129  28.195  28.271  1.00  0.00     0.074 A 
ATOM     39  C   UNL A   1      39.742  28.776  28.570  1.00  0.00     0.049 A 
ATOM     40  N   UNL A   1      42.717  29.226  28.821  1.00  0.00    -0.248 NA
ATOM     41  C   UNL A   1      43.059  27.181  27.753  1.00  0.00     0.031 C 
ATOM     42  C   UNL A   1      38.291  28.576  28.555  1.00  0.00     0.029 A 
ATOM     43  N   UNL A   1      39.895  30.028  29.113  1.00  0.00    -0.354 N 
ATOM     44  C   UNL A   1      44.082  28.965  28.751  1.00  0.00     0.074 A 
ATOM     45  C   UNL A   1      44.225  27.647  28.168  1.00  0.00     0.031 C 
ATOM     46  C   UNL A   1      37.689  29.675  29.038  1.00  0.00     0.029 A 
ATOM     47  C   UNL A   1      38.707  30.639  29.441  1.00  0.00     0.049 A 
ATOM     48  H   UNL A   1      40.774  30.448  29.255  1.00  0.00     0.167 HD
ATOM     49  C   UNL A   1      45.121  29.760  29.112  1.00  0.00     0.034 A 
ATOM     50  C   UNL A   1      38.465  31.836  30.014  1.00  0.00     0.034 A 
ATOM     51  C   UNL A   1      44.960  31.088  29.652  1.00  0.00     0.049 A 
ATOM     52  C   UNL A   1      39.632  32.717  30.377  1.00  0.00     0.074 A 
ATOM     53  C   UNL A   1      45.937  32.006  29.993  1.00  0.00     0.029 A 
ATOM     54  N   UNL A   1      43.738  31.692  29.923  1.00  0.00    -0.354 N 
ATOM     55  N   UNL A   1      40.918  32.473  30.269  1.00  0.00    -0.248 NA
ATOM     56  C   UNL A   1      39.315  34.041  30.928  1.00  0.00     0.031 C 
ATOM     57  C   UNL A   1      45.310  33.143  30.516  1.00  0.00     0.029 A 
ATOM     58  C   UNL A   1      43.938  32.962  30.440  1.00  0.00     0.049 A 
ATOM     59  H   UNL A   1      42.858  31.277  29.770  1.00  0.00     0.167 HD
ATOM     60  C   UNL A   1      41.561  33.627  30.707  1.00  0.00     0.074 A 
ATOM     61  C   UNL A   1      40.521  34.569  31.070  1.00  0.00     0.031 C 
ATOM     62  C   UNL A   1      42.890  33.888  30.797  1.00  0.00     0.034 A 
BRANCH  49  63
ATOM     63  C   UNL A   1      46.513  29.195  28.947  1.00  0.00     0.023 A 
ATOM     64  C   UNL A   1      47.133  29.117  27.686  1.00  0.00     0.031 A 
ATOM     65  C   UNL A   1      47.211  28.678  30.052  1.00  0.00     0.131 A 
ATOM     66  C   UNL A   1      48.357  28.449  27.547  1.00  0.00     0.055 A 
ATOM     67  C   UNL A   1      48.475  28.097  29.919  1.00  0.00     0.041 A 
ATOM     68  F   UNL A   1      46.667  28.705  31.279  1.00  0.00    -0.206 F 
ATOM     69  C   UNL A   1      49.046  27.961  28.658  1.00  0.00     0.022 A 
BRANCH  66  70
ATOM     70  S   UNL A   1      48.948  28.075  25.873  1.00  0.00     0.124 S 
ATOM     71  O   UNL A   1      49.266  26.653  25.984  1.00  0.00    -0.237 OA
ATOM     72  O   UNL A   1      47.793  28.409  25.048  1.00  0.00    -0.237 OA
ATOM     73  O   UNL A   1      50.106  28.953  25.713  1.00  0.00    -0.744 OA
ENDBRANCH  66  70
ENDBRANCH  49  63
BRANCH  50  74
ATOM     74  C   UNL A   1      37.066  32.279  30.274  1.00  0.00     0.023 A 
ATOM     75  C   UNL A   1      36.299  32.874  29.259  1.00  0.00     0.031 A 
ATOM     76  C   UNL A   1      36.487  32.149  31.548  1.00  0.00     0.131 A 
ATOM     77  C   UNL A   1      35.013  33.358  29.546  1.00  0.00     0.055 A 
ATOM     78  C   UNL A   1      35.189  32.587  31.816  1.00  0.00     0.041 A 
ATOM     79  F   UNL A   1      37.173  31.577  32.550  1.00  0.00    -0.206 F 
ATOM     80  C   UNL A   1      34.449  33.208  30.814  1.00  0.00     0.022 A 
BRANCH  77  81
ATOM     81  S   UNL A   1      34.115  34.255  28.250  1.00  0.00     0.124 S 
ATOM     82  O   UNL A   1      33.127  33.267  27.835  1.00  0.00    -0.237 OA
ATOM     83  O   UNL A   1      33.602  35.409  28.981  1.00  0.00    -0.237 OA
ATOM     84  O   UNL A   1      35.151  34.556  27.265  1.00  0.00    -0.744 OA
ENDBRANCH  77  81
ENDBRANCH  50  74
BRANCH  62  85
ATOM     85  C   UNL A   1      43.286  35.270  31.253  1.00  0.00     0.023 A 
ATOM     86  C   UNL A   1      43.326  35.619  32.614  1.00  0.00     0.031 A 
ATOM     87  C   UNL A   1      43.616  36.255  30.305  1.00  0.00     0.131 A 
ATOM     88  C   UNL A   1      43.635  36.937  32.986  1.00  0.00     0.055 A 
ATOM     89  C   UNL A   1      43.977  37.547  30.684  1.00  0.00     0.041 A 
ATOM     90  F   UNL A   1      43.593  35.974  28.992  1.00  0.00    -0.206 F 
ATOM     91  C   UNL A   1      43.976  37.898  32.031  1.00  0.00     0.022 A 
BRANCH  88  92
ATOM     92  S   UNL A   1      43.500  37.402  34.734  1.00  0.00     0.124 S 
ATOM     93  O   UNL A   1      44.443  36.486  35.367  1.00  0.00    -0.237 OA
ATOM     94  O   UNL A   1      43.891  38.808  34.714  1.00  0.00    -0.237 OA
ATOM     95  O   UNL A   1      42.094  37.156  35.047  1.00  0.00    -0.744 OA
ENDBRANCH  88  92
ENDBRANCH  62  85
ENDBRANCH  36  37
ENDBRANCH  28  31
ENDBRANCH  26  27
ENDBRANCH   1  26
TORSDOF 15
ENDMDL
