MODEL 1
REMARK VINA RESULT:     -12.0      0.000      0.000
REMARK SMILES O=C(NCCCNC(=O)c1csc(S(=O)(=O)Nc2ccc(F)cc2)c1)c1ccc(-c2c3nc(c(-c4cc(S(=O)(=O)[O-])ccc4F)c4ccc([nH]4)c(-c4cc(S(=O)(=O)[O-])ccc4F)c4nc(c(-c5cc(S(=O)(=O)[O-])ccc5F)c5ccc2[nH]5)C=C4)C=C3)cc1
REMARK SMILES IDX 5 1 4 2 3 3 1 4 2 5 26 7 27 8 88 9 28 10 87 11 29 12 30 13
REMARK SMILES IDX 31 14 81 15 32 16 86 17 80 18 82 19 33 20 85 21 79 22 78 23
REMARK SMILES IDX 34 25 66 26 46 27 65 28 47 29 50 30 64 31 83 32 48 33 49 34
REMARK SMILES IDX 63 36 84 37 51 38 35 39 36 40 44 41 37 42 43 43 45 44 42 45
REMARK SMILES IDX 38 46 39 47 40 48 41 49 67 50 68 51 76 52 69 53 75 54 77 55
REMARK SMILES IDX 74 56 70 57 71 58 72 59 73 60 52 61 53 62 61 63 54 64 60 65
REMARK SMILES IDX 62 66 59 67 55 68 56 69 57 70 58 71 6 72 7 73 8 74 9 76
REMARK SMILES IDX 10 77 11 78 25 79 12 80 13 81 14 82 15 83 16 84 17 85 18 87
REMARK SMILES IDX 19 88 24 89 20 90 23 91 21 92 22 93
REMARK H PARENT 3 6 82 24 50 35 7 75 17 86
REMARK Flexibility Score: inf
ROOT
ATOM      1  C   UNL A   1      32.076  28.433  25.202  1.00  0.00     0.042 C 
ENDROOT
BRANCH   1   2
ATOM      2  C   UNL A   1      33.132  29.533  25.131  1.00  0.00     0.118 C 
BRANCH   2   3
ATOM      3  N   UNL A   1      32.697  30.784  25.738  1.00  0.00    -0.352 N 
ATOM      4  O   UNL A   1      32.449  32.404  27.264  1.00  0.00    -0.269 OA
ATOM      5  C   UNL A   1      33.116  31.450  26.865  1.00  0.00     0.251 C 
ATOM      6  H   UNL A   1      31.970  31.235  25.252  1.00  0.00     0.163 HD
BRANCH   5   7
ATOM      7  C   UNL A   1      34.326  31.040  27.614  1.00  0.00     0.039 A 
ATOM      8  C   UNL A   1      34.539  29.715  27.994  1.00  0.00     0.014 A 
ATOM      9  C   UNL A   1      35.311  31.998  27.885  1.00  0.00     0.014 A 
ATOM     10  C   UNL A   1      35.643  29.380  28.777  1.00  0.00     0.010 A 
ATOM     11  C   UNL A   1      36.463  31.644  28.598  1.00  0.00     0.010 A 
ATOM     12  C   UNL A   1      36.621  30.340  29.087  1.00  0.00    -0.014 A 
BRANCH  12  13
ATOM     13  C   UNL A   1      37.794  29.947  29.915  1.00  0.00     0.031 A 
ATOM     14  C   UNL A   1      38.888  29.086  29.339  1.00  0.00     0.074 A 
ATOM     15  C   UNL A   1      37.903  30.420  31.173  1.00  0.00     0.049 A 
ATOM     16  N   UNL A   1      39.997  28.678  29.904  1.00  0.00    -0.248 NA
ATOM     17  C   UNL A   1      38.717  28.620  27.954  1.00  0.00     0.031 C 
ATOM     18  C   UNL A   1      36.911  31.262  31.846  1.00  0.00     0.029 A 
ATOM     19  N   UNL A   1      38.907  30.290  32.100  1.00  0.00    -0.354 N 
ATOM     20  C   UNL A   1      40.646  27.897  28.953  1.00  0.00     0.074 A 
ATOM     21  C   UNL A   1      39.795  27.867  27.783  1.00  0.00     0.031 C 
ATOM     22  C   UNL A   1      37.381  31.623  33.049  1.00  0.00     0.029 A 
ATOM     23  C   UNL A   1      38.680  30.993  33.261  1.00  0.00     0.049 A 
ATOM     24  H   UNL A   1      39.713  29.746  31.948  1.00  0.00     0.167 HD
ATOM     25  C   UNL A   1      41.845  27.274  29.044  1.00  0.00     0.034 A 
ATOM     26  C   UNL A   1      39.425  31.111  34.377  1.00  0.00     0.034 A 
ATOM     27  C   UNL A   1      42.705  27.332  30.199  1.00  0.00     0.049 A 
ATOM     28  C   UNL A   1      40.736  30.382  34.463  1.00  0.00     0.074 A 
ATOM     29  C   UNL A   1      43.958  26.769  30.366  1.00  0.00     0.029 A 
ATOM     30  N   UNL A   1      42.402  27.990  31.382  1.00  0.00    -0.354 N 
ATOM     31  N   UNL A   1      41.322  29.635  33.557  1.00  0.00    -0.248 NA
ATOM     32  C   UNL A   1      41.479  30.493  35.726  1.00  0.00     0.031 C 
ATOM     33  C   UNL A   1      44.393  27.046  31.667  1.00  0.00     0.029 A 
ATOM     34  C   UNL A   1      43.432  27.823  32.293  1.00  0.00     0.049 A 
ATOM     35  H   UNL A   1      41.577  28.500  31.549  1.00  0.00     0.167 HD
ATOM     36  C   UNL A   1      42.500  29.186  34.141  1.00  0.00     0.074 A 
ATOM     37  C   UNL A   1      42.553  29.758  35.472  1.00  0.00     0.031 C 
ATOM     38  C   UNL A   1      43.453  28.374  33.624  1.00  0.00     0.034 A 
BRANCH  25  39
ATOM     39  C   UNL A   1      42.297  26.450  27.869  1.00  0.00     0.023 A 
ATOM     40  C   UNL A   1      41.892  25.115  27.709  1.00  0.00     0.031 A 
ATOM     41  C   UNL A   1      43.113  27.023  26.879  1.00  0.00     0.131 A 
ATOM     42  C   UNL A   1      42.336  24.383  26.598  1.00  0.00     0.055 A 
ATOM     43  C   UNL A   1      43.509  26.306  25.749  1.00  0.00     0.041 A 
ATOM     44  F   UNL A   1      43.537  28.292  26.995  1.00  0.00    -0.206 F 
ATOM     45  C   UNL A   1      43.122  24.976  25.605  1.00  0.00     0.022 A 
BRANCH  42  46
ATOM     46  S   UNL A   1      41.914  22.624  26.487  1.00  0.00     0.124 S 
ATOM     47  O   UNL A   1      40.454  22.671  26.495  1.00  0.00    -0.237 OA
ATOM     48  O   UNL A   1      42.531  22.226  25.227  1.00  0.00    -0.237 OA
ATOM     49  O   UNL A   1      42.521  22.050  27.686  1.00  0.00    -0.744 OA
ENDBRANCH  42  46
ENDBRANCH  25  39
BRANCH  26  50
ATOM     50  C   UNL A   1      38.928  31.922  35.521  1.00  0.00     0.023 A 
ATOM     51  C   UNL A   1      38.290  31.318  36.614  1.00  0.00     0.031 A 
ATOM     52  C   UNL A   1      39.086  33.319  35.530  1.00  0.00     0.131 A 
ATOM     53  C   UNL A   1      37.814  32.115  37.669  1.00  0.00     0.055 A 
ATOM     54  C   UNL A   1      38.644  34.102  36.596  1.00  0.00     0.041 A 
ATOM     55  F   UNL A   1      39.696  33.939  34.508  1.00  0.00    -0.206 F 
ATOM     56  C   UNL A   1      37.998  33.500  37.671  1.00  0.00     0.022 A 
BRANCH  53  57
ATOM     57  S   UNL A   1      36.926  31.316  39.033  1.00  0.00     0.124 S 
ATOM     58  O   UNL A   1      35.730  32.145  39.134  1.00  0.00    -0.237 OA
ATOM     59  O   UNL A   1      36.730  29.964  38.520  1.00  0.00    -0.237 OA
ATOM     60  O   UNL A   1      37.858  31.423  40.154  1.00  0.00    -0.744 OA
ENDBRANCH  53  57
ENDBRANCH  26  50
BRANCH  38  61
ATOM     61  C   UNL A   1      44.632  28.054  34.498  1.00  0.00     0.023 A 
ATOM     62  C   UNL A   1      44.636  26.916  35.321  1.00  0.00     0.031 A 
ATOM     63  C   UNL A   1      45.772  28.875  34.482  1.00  0.00     0.131 A 
ATOM     64  C   UNL A   1      45.756  26.640  36.118  1.00  0.00     0.055 A 
ATOM     65  C   UNL A   1      46.898  28.576  35.249  1.00  0.00     0.041 A 
ATOM     66  F   UNL A   1      45.812  29.972  33.708  1.00  0.00    -0.206 F 
ATOM     67  C   UNL A   1      46.892  27.454  36.075  1.00  0.00     0.022 A 
BRANCH  64  68
ATOM     68  S   UNL A   1      45.711  25.204  37.224  1.00  0.00     0.124 S 
ATOM     69  O   UNL A   1      46.380  25.720  38.413  1.00  0.00    -0.237 OA
ATOM     70  O   UNL A   1      44.280  24.948  37.358  1.00  0.00    -0.237 OA
ATOM     71  O   UNL A   1      46.453  24.182  36.487  1.00  0.00    -0.744 OA
ENDBRANCH  64  68
ENDBRANCH  38  61
ENDBRANCH  12  13
ENDBRANCH   5   7
ENDBRANCH   2   3
ENDBRANCH   1   2
BRANCH   1  72
ATOM     72  C   UNL A   1      31.625  27.893  23.849  1.00  0.00     0.118 C 
BRANCH  72  73
ATOM     73  N   UNL A   1      30.216  27.532  23.816  1.00  0.00    -0.352 N 
ATOM     74  C   UNL A   1      29.569  26.370  24.149  1.00  0.00     0.252 C 
ATOM     75  H   UNL A   1      29.622  28.249  23.498  1.00  0.00     0.163 HD
ATOM     76  O   UNL A   1      28.378  26.267  23.859  1.00  0.00    -0.269 OA
BRANCH  74  77
ATOM     77  C   UNL A   1      30.292  25.265  24.767  1.00  0.00     0.051 A 
ATOM     78  C   UNL A   1      30.358  24.965  26.112  1.00  0.00     0.080 A 
ATOM     79  C   UNL A   1      30.955  24.241  24.014  1.00  0.00     0.048 A 
ATOM     80  S   UNL A   1      31.380  23.633  26.450  1.00  0.00    -0.130 S 
ATOM     81  C   UNL A   1      31.689  23.365  24.792  1.00  0.00     0.141 A 
BRANCH  81  82
ATOM     82  S   UNL A   1      32.792  22.031  24.359  1.00  0.00     0.271 S 
ATOM     83  O   UNL A   1      32.846  21.950  22.919  1.00  0.00    -0.200 OA
ATOM     84  O   UNL A   1      33.995  22.280  25.132  1.00  0.00    -0.200 OA
BRANCH  82  85
ATOM     85  N   UNL A   1      32.126  20.554  24.900  1.00  0.00    -0.279 N 
ATOM     86  H   UNL A   1      31.406  20.528  25.570  1.00  0.00     0.180 HD
BRANCH  85  87
ATOM     87  C   UNL A   1      32.665  19.360  24.334  1.00  0.00     0.049 A 
ATOM     88  C   UNL A   1      33.847  18.854  24.881  1.00  0.00     0.030 A 
ATOM     89  C   UNL A   1      32.089  18.757  23.213  1.00  0.00     0.030 A 
ATOM     90  C   UNL A   1      34.481  17.766  24.281  1.00  0.00     0.041 A 
ATOM     91  C   UNL A   1      32.728  17.670  22.612  1.00  0.00     0.041 A 
ATOM     92  C   UNL A   1      33.920  17.190  23.146  1.00  0.00     0.123 A 
ATOM     93  F   UNL A   1      34.543  16.166  22.548  1.00  0.00    -0.207 F 
ENDBRANCH  85  87
ENDBRANCH  82  85
ENDBRANCH  81  82
ENDBRANCH  74  77
ENDBRANCH  72  73
ENDBRANCH   1  72
TORSDOF 16
ENDMDL
MODEL 2
REMARK VINA RESULT:     -11.9      5.615     10.576
REMARK SMILES O=C(NCCCNC(=O)c1csc(S(=O)(=O)Nc2ccc(F)cc2)c1)c1ccc(-c2c3nc(c(-c4cc(S(=O)(=O)[O-])ccc4F)c4ccc([nH]4)c(-c4cc(S(=O)(=O)[O-])ccc4F)c4nc(c(-c5cc(S(=O)(=O)[O-])ccc5F)c5ccc2[nH]5)C=C4)C=C3)cc1
REMARK SMILES IDX 5 1 4 2 3 3 1 4 2 5 26 7 27 8 88 9 28 10 87 11 29 12 30 13
REMARK SMILES IDX 31 14 81 15 32 16 86 17 80 18 82 19 33 20 85 21 79 22 78 23
REMARK SMILES IDX 34 25 66 26 46 27 65 28 47 29 50 30 64 31 83 32 48 33 49 34
REMARK SMILES IDX 63 36 84 37 51 38 35 39 36 40 44 41 37 42 43 43 45 44 42 45
REMARK SMILES IDX 38 46 39 47 40 48 41 49 67 50 68 51 76 52 69 53 75 54 77 55
REMARK SMILES IDX 74 56 70 57 71 58 72 59 73 60 52 61 53 62 61 63 54 64 60 65
REMARK SMILES IDX 62 66 59 67 55 68 56 69 57 70 58 71 6 72 7 73 8 74 9 76
REMARK SMILES IDX 10 77 11 78 25 79 12 80 13 81 14 82 15 83 16 84 17 85 18 87
REMARK SMILES IDX 19 88 24 89 20 90 23 91 21 92 22 93
REMARK H PARENT 3 6 82 24 50 35 7 75 17 86
REMARK Flexibility Score: inf
ROOT
ATOM      1  C   UNL A   1      34.701  21.771  26.590  1.00  0.00     0.042 C 
ENDROOT
BRANCH   1   2
ATOM      2  C   UNL A   1      35.788  21.998  25.542  1.00  0.00     0.118 C 
BRANCH   2   3
ATOM      3  N   UNL A   1      36.829  20.979  25.567  1.00  0.00    -0.352 N 
ATOM      4  O   UNL A   1      38.871  20.061  25.530  1.00  0.00    -0.269 OA
ATOM      5  C   UNL A   1      38.190  21.064  25.739  1.00  0.00     0.251 C 
ATOM      6  H   UNL A   1      36.497  20.062  25.437  1.00  0.00     0.163 HD
BRANCH   5   7
ATOM      7  C   UNL A   1      38.851  22.325  26.147  1.00  0.00     0.039 A 
ATOM      8  C   UNL A   1      38.308  23.571  25.836  1.00  0.00     0.014 A 
ATOM      9  C   UNL A   1      40.014  22.258  26.925  1.00  0.00     0.014 A 
ATOM     10  C   UNL A   1      39.004  24.736  26.156  1.00  0.00     0.010 A 
ATOM     11  C   UNL A   1      40.668  23.431  27.321  1.00  0.00     0.010 A 
ATOM     12  C   UNL A   1      40.192  24.682  26.904  1.00  0.00    -0.014 A 
BRANCH  12  13
ATOM     13  C   UNL A   1      40.903  25.945  27.239  1.00  0.00     0.031 A 
ATOM     14  C   UNL A   1      40.241  26.999  28.088  1.00  0.00     0.074 A 
ATOM     15  C   UNL A   1      42.177  26.116  26.829  1.00  0.00     0.049 A 
ATOM     16  N   UNL A   1      40.725  28.143  28.506  1.00  0.00    -0.248 NA
ATOM     17  C   UNL A   1      38.858  26.743  28.520  1.00  0.00     0.031 C 
ATOM     18  C   UNL A   1      42.929  25.169  26.002  1.00  0.00     0.029 A 
ATOM     19  N   UNL A   1      43.074  27.125  27.073  1.00  0.00    -0.354 N 
ATOM     20  C   UNL A   1      39.706  28.746  29.235  1.00  0.00     0.074 A 
ATOM     21  C   UNL A   1      38.567  27.855  29.181  1.00  0.00     0.031 C 
ATOM     22  C   UNL A   1      44.188  25.610  25.861  1.00  0.00     0.029 A 
ATOM     23  C   UNL A   1      44.320  26.898  26.534  1.00  0.00     0.049 A 
ATOM     24  H   UNL A   1      42.849  27.934  27.586  1.00  0.00     0.167 HD
ATOM     25  C   UNL A   1      39.722  29.927  29.897  1.00  0.00     0.034 A 
ATOM     26  C   UNL A   1      45.441  27.644  26.566  1.00  0.00     0.034 A 
ATOM     27  C   UNL A   1      40.867  30.798  29.976  1.00  0.00     0.049 A 
ATOM     28  C   UNL A   1      45.421  28.966  27.280  1.00  0.00     0.074 A 
ATOM     29  C   UNL A   1      40.992  31.994  30.661  1.00  0.00     0.029 A 
ATOM     30  N   UNL A   1      42.084  30.568  29.351  1.00  0.00    -0.354 N 
ATOM     31  N   UNL A   1      44.439  29.524  27.948  1.00  0.00    -0.248 NA
ATOM     32  C   UNL A   1      46.650  29.769  27.230  1.00  0.00     0.031 C 
ATOM     33  C   UNL A   1      42.268  32.512  30.411  1.00  0.00     0.029 A 
ATOM     34  C   UNL A   1      42.954  31.613  29.610  1.00  0.00     0.049 A 
ATOM     35  H   UNL A   1      42.297  29.779  28.803  1.00  0.00     0.167 HD
ATOM     36  C   UNL A   1      44.932  30.744  28.395  1.00  0.00     0.074 A 
ATOM     37  C   UNL A   1      46.304  30.836  27.937  1.00  0.00     0.031 C 
ATOM     38  C   UNL A   1      44.306  31.702  29.121  1.00  0.00     0.034 A 
BRANCH  25  39
ATOM     39  C   UNL A   1      38.453  30.368  30.576  1.00  0.00     0.023 A 
ATOM     40  C   UNL A   1      37.485  31.130  29.901  1.00  0.00     0.031 A 
ATOM     41  C   UNL A   1      38.196  29.987  31.904  1.00  0.00     0.131 A 
ATOM     42  C   UNL A   1      36.316  31.518  30.571  1.00  0.00     0.055 A 
ATOM     43  C   UNL A   1      37.007  30.332  32.549  1.00  0.00     0.041 A 
ATOM     44  F   UNL A   1      39.097  29.270  32.595  1.00  0.00    -0.206 F 
ATOM     45  C   UNL A   1      36.060  31.105  31.882  1.00  0.00     0.022 A 
BRANCH  42  46
ATOM     46  S   UNL A   1      35.150  32.617  29.724  1.00  0.00     0.124 S 
ATOM     47  O   UNL A   1      34.424  31.675  28.874  1.00  0.00    -0.237 OA
ATOM     48  O   UNL A   1      34.390  33.190  30.830  1.00  0.00    -0.237 OA
ATOM     49  O   UNL A   1      36.016  33.554  29.012  1.00  0.00    -0.744 OA
ENDBRANCH  42  46
ENDBRANCH  25  39
BRANCH  26  50
ATOM     50  C   UNL A   1      46.667  27.176  25.863  1.00  0.00     0.023 A 
ATOM     51  C   UNL A   1      46.957  27.594  24.556  1.00  0.00     0.031 A 
ATOM     52  C   UNL A   1      47.563  26.298  26.498  1.00  0.00     0.131 A 
ATOM     53  C   UNL A   1      48.112  27.117  23.915  1.00  0.00     0.055 A 
ATOM     54  C   UNL A   1      48.727  25.856  25.870  1.00  0.00     0.041 A 
ATOM     55  F   UNL A   1      47.329  25.878  27.751  1.00  0.00    -0.206 F 
ATOM     56  C   UNL A   1      49.003  26.261  24.567  1.00  0.00     0.022 A 
BRANCH  53  57
ATOM     57  S   UNL A   1      48.423  27.613  22.199  1.00  0.00     0.124 S 
ATOM     58  O   UNL A   1      49.685  28.333  22.322  1.00  0.00    -0.237 OA
ATOM     59  O   UNL A   1      48.481  26.325  21.514  1.00  0.00    -0.237 OA
ATOM     60  O   UNL A   1      47.263  28.438  21.868  1.00  0.00    -0.744 OA
ENDBRANCH  53  57
ENDBRANCH  26  50
BRANCH  38  61
ATOM     61  C   UNL A   1      45.098  32.932  29.462  1.00  0.00     0.023 A 
ATOM     62  C   UNL A   1      45.093  34.054  28.617  1.00  0.00     0.031 A 
ATOM     63  C   UNL A   1      45.834  32.995  30.657  1.00  0.00     0.131 A 
ATOM     64  C   UNL A   1      45.835  35.191  28.968  1.00  0.00     0.055 A 
ATOM     65  C   UNL A   1      46.541  34.141  31.019  1.00  0.00     0.041 A 
ATOM     66  F   UNL A   1      45.865  31.947  31.495  1.00  0.00    -0.206 F 
ATOM     67  C   UNL A   1      46.546  35.247  30.172  1.00  0.00     0.022 A 
BRANCH  64  68
ATOM     68  S   UNL A   1      45.870  36.601  27.829  1.00  0.00     0.124 S 
ATOM     69  O   UNL A   1      45.120  37.606  28.573  1.00  0.00    -0.237 OA
ATOM     70  O   UNL A   1      47.300  36.854  27.677  1.00  0.00    -0.237 OA
ATOM     71  O   UNL A   1      45.206  36.089  26.631  1.00  0.00    -0.744 OA
ENDBRANCH  64  68
ENDBRANCH  38  61
ENDBRANCH  12  13
ENDBRANCH   5   7
ENDBRANCH   2   3
ENDBRANCH   1   2
BRANCH   1  72
ATOM     72  C   UNL A   1      33.969  23.033  27.035  1.00  0.00     0.118 C 
BRANCH  72  73
ATOM     73  N   UNL A   1      32.609  22.780  27.483  1.00  0.00    -0.352 N 
ATOM     74  C   UNL A   1      31.398  23.175  26.976  1.00  0.00     0.252 C 
ATOM     75  H   UNL A   1      32.547  22.227  28.295  1.00  0.00     0.163 HD
ATOM     76  O   UNL A   1      30.392  22.969  27.653  1.00  0.00    -0.269 OA
BRANCH  74  77
ATOM     77  C   UNL A   1      31.317  23.879  25.702  1.00  0.00     0.051 A 
ATOM     78  C   UNL A   1      31.078  23.325  24.460  1.00  0.00     0.080 A 
ATOM     79  C   UNL A   1      31.362  25.307  25.589  1.00  0.00     0.048 A 
ATOM     80  S   UNL A   1      31.143  24.475  23.193  1.00  0.00    -0.130 S 
ATOM     81  C   UNL A   1      31.403  25.763  24.285  1.00  0.00     0.141 A 
BRANCH  81  82
ATOM     82  S   UNL A   1      31.606  27.399  23.603  1.00  0.00     0.271 S 
ATOM     83  O   UNL A   1      31.273  28.353  24.634  1.00  0.00    -0.200 OA
ATOM     84  O   UNL A   1      32.927  27.389  23.003  1.00  0.00    -0.200 OA
BRANCH  82  85
ATOM     85  N   UNL A   1      30.470  27.630  22.349  1.00  0.00    -0.279 N 
ATOM     86  H   UNL A   1      30.465  27.059  21.547  1.00  0.00     0.180 HD
BRANCH  85  87
ATOM     87  C   UNL A   1      29.531  28.690  22.519  1.00  0.00     0.049 A 
ATOM     88  C   UNL A   1      29.939  29.984  22.179  1.00  0.00     0.030 A 
ATOM     89  C   UNL A   1      28.274  28.471  23.088  1.00  0.00     0.030 A 
ATOM     90  C   UNL A   1      29.105  31.069  22.448  1.00  0.00     0.041 A 
ATOM     91  C   UNL A   1      27.443  29.560  23.360  1.00  0.00     0.041 A 
ATOM     92  C   UNL A   1      27.868  30.847  23.045  1.00  0.00     0.123 A 
ATOM     93  F   UNL A   1      27.078  31.890  23.335  1.00  0.00    -0.207 F 
ENDBRANCH  85  87
ENDBRANCH  82  85
ENDBRANCH  81  82
ENDBRANCH  74  77
ENDBRANCH  72  73
ENDBRANCH   1  72
TORSDOF 16
ENDMDL
MODEL 3
REMARK VINA RESULT:     -11.9      1.172      7.631
REMARK SMILES O=C(NCCCNC(=O)c1csc(S(=O)(=O)Nc2ccc(F)cc2)c1)c1ccc(-c2c3nc(c(-c4cc(S(=O)(=O)[O-])ccc4F)c4ccc([nH]4)c(-c4cc(S(=O)(=O)[O-])ccc4F)c4nc(c(-c5cc(S(=O)(=O)[O-])ccc5F)c5ccc2[nH]5)C=C4)C=C3)cc1
REMARK SMILES IDX 5 1 4 2 3 3 1 4 2 5 26 7 27 8 88 9 28 10 87 11 29 12 30 13
REMARK SMILES IDX 31 14 81 15 32 16 86 17 80 18 82 19 33 20 85 21 79 22 78 23
REMARK SMILES IDX 34 25 66 26 46 27 65 28 47 29 50 30 64 31 83 32 48 33 49 34
REMARK SMILES IDX 63 36 84 37 51 38 35 39 36 40 44 41 37 42 43 43 45 44 42 45
REMARK SMILES IDX 38 46 39 47 40 48 41 49 67 50 68 51 76 52 69 53 75 54 77 55
REMARK SMILES IDX 74 56 70 57 71 58 72 59 73 60 52 61 53 62 61 63 54 64 60 65
REMARK SMILES IDX 62 66 59 67 55 68 56 69 57 70 58 71 6 72 7 73 8 74 9 76
REMARK SMILES IDX 10 77 11 78 25 79 12 80 13 81 14 82 15 83 16 84 17 85 18 87
REMARK SMILES IDX 19 88 24 89 20 90 23 91 21 92 22 93
REMARK H PARENT 3 6 82 24 50 35 7 75 17 86
REMARK Flexibility Score: inf
ROOT
ATOM      1  C   UNL A   1      33.224  28.905  23.827  1.00  0.00     0.042 C 
ENDROOT
BRANCH   1   2
ATOM      2  C   UNL A   1      33.072  28.918  25.346  1.00  0.00     0.118 C 
BRANCH   2   3
ATOM      3  N   UNL A   1      32.680  30.220  25.870  1.00  0.00    -0.352 N 
ATOM      4  O   UNL A   1      32.563  31.981  27.248  1.00  0.00    -0.269 OA
ATOM      5  C   UNL A   1      33.202  30.998  26.876  1.00  0.00     0.251 C 
ATOM      6  H   UNL A   1      31.898  30.615  25.422  1.00  0.00     0.163 HD
BRANCH   5   7
ATOM      7  C   UNL A   1      34.491  30.674  27.529  1.00  0.00     0.039 A 
ATOM      8  C   UNL A   1      34.788  29.382  27.964  1.00  0.00     0.014 A 
ATOM      9  C   UNL A   1      35.461  31.677  27.647  1.00  0.00     0.014 A 
ATOM     10  C   UNL A   1      35.972  29.133  28.656  1.00  0.00     0.010 A 
ATOM     11  C   UNL A   1      36.687  31.406  28.267  1.00  0.00     0.010 A 
ATOM     12  C   UNL A   1      36.938  30.140  28.815  1.00  0.00    -0.014 A 
BRANCH  12  13
ATOM     13  C   UNL A   1      38.197  29.837  29.548  1.00  0.00     0.031 A 
ATOM     14  C   UNL A   1      38.439  30.397  30.926  1.00  0.00     0.074 A 
ATOM     15  C   UNL A   1      39.099  29.000  28.995  1.00  0.00     0.049 A 
ATOM     16  N   UNL A   1      39.462  30.207  31.723  1.00  0.00    -0.248 NA
ATOM     17  C   UNL A   1      37.408  31.286  31.480  1.00  0.00     0.031 C 
ATOM     18  C   UNL A   1      38.980  28.392  27.668  1.00  0.00     0.029 A 
ATOM     19  N   UNL A   1      40.275  28.491  29.486  1.00  0.00    -0.354 N 
ATOM     20  C   UNL A   1      39.204  30.963  32.861  1.00  0.00     0.074 A 
ATOM     21  C   UNL A   1      37.941  31.634  32.643  1.00  0.00     0.031 C 
ATOM     22  C   UNL A   1      40.004  27.547  27.476  1.00  0.00     0.029 A 
ATOM     23  C   UNL A   1      40.885  27.595  28.639  1.00  0.00     0.049 A 
ATOM     24  H   UNL A   1      40.646  28.741  30.363  1.00  0.00     0.167 HD
ATOM     25  C   UNL A   1      39.946  31.076  33.989  1.00  0.00     0.034 A 
ATOM     26  C   UNL A   1      42.030  26.897  28.772  1.00  0.00     0.034 A 
ATOM     27  C   UNL A   1      41.187  30.381  34.218  1.00  0.00     0.049 A 
ATOM     28  C   UNL A   1      42.849  27.067  30.020  1.00  0.00     0.074 A 
ATOM     29  C   UNL A   1      41.986  30.398  35.347  1.00  0.00     0.029 A 
ATOM     30  N   UNL A   1      41.809  29.544  33.302  1.00  0.00    -0.354 N 
ATOM     31  N   UNL A   1      42.594  27.801  31.078  1.00  0.00    -0.248 NA
ATOM     32  C   UNL A   1      44.120  26.333  30.088  1.00  0.00     0.031 C 
ATOM     33  C   UNL A   1      43.116  29.610  35.097  1.00  0.00     0.029 A 
ATOM     34  C   UNL A   1      42.995  29.064  33.830  1.00  0.00     0.049 A 
ATOM     35  H   UNL A   1      41.458  29.326  32.409  1.00  0.00     0.167 HD
ATOM     36  C   UNL A   1      43.672  27.618  31.934  1.00  0.00     0.074 A 
ATOM     37  C   UNL A   1      44.575  26.691  31.280  1.00  0.00     0.031 C 
ATOM     38  C   UNL A   1      43.896  28.166  33.153  1.00  0.00     0.034 A 
BRANCH  25  39
ATOM     39  C   UNL A   1      39.450  32.006  35.063  1.00  0.00     0.023 A 
ATOM     40  C   UNL A   1      38.755  31.527  36.186  1.00  0.00     0.031 A 
ATOM     41  C   UNL A   1      39.709  33.384  34.977  1.00  0.00     0.131 A 
ATOM     42  C   UNL A   1      38.311  32.428  37.165  1.00  0.00     0.055 A 
ATOM     43  C   UNL A   1      39.311  34.270  35.979  1.00  0.00     0.041 A 
ATOM     44  F   UNL A   1      40.357  33.891  33.915  1.00  0.00    -0.206 F 
ATOM     45  C   UNL A   1      38.604  33.793  37.080  1.00  0.00     0.022 A 
BRANCH  42  46
ATOM     46  S   UNL A   1      37.298  31.803  38.531  1.00  0.00     0.124 S 
ATOM     47  O   UNL A   1      38.202  31.968  39.666  1.00  0.00    -0.237 OA
ATOM     48  O   UNL A   1      36.142  32.692  38.505  1.00  0.00    -0.237 OA
ATOM     49  O   UNL A   1      37.027  30.418  38.151  1.00  0.00    -0.744 OA
ENDBRANCH  42  46
ENDBRANCH  25  39
BRANCH  26  50
ATOM     50  C   UNL A   1      42.489  26.004  27.674  1.00  0.00     0.023 A 
ATOM     51  C   UNL A   1      42.071  24.667  27.605  1.00  0.00     0.031 A 
ATOM     52  C   UNL A   1      43.358  26.483  26.678  1.00  0.00     0.131 A 
ATOM     53  C   UNL A   1      42.539  23.845  26.566  1.00  0.00     0.055 A 
ATOM     54  C   UNL A   1      43.792  25.674  25.629  1.00  0.00     0.041 A 
ATOM     55  F   UNL A   1      43.779  27.758  26.702  1.00  0.00    -0.206 F 
ATOM     56  C   UNL A   1      43.387  24.344  25.573  1.00  0.00     0.022 A 
BRANCH  53  57
ATOM     57  S   UNL A   1      42.044  22.102  26.544  1.00  0.00     0.124 S 
ATOM     58  O   UNL A   1      42.294  21.704  27.925  1.00  0.00    -0.237 OA
ATOM     59  O   UNL A   1      40.643  22.186  26.143  1.00  0.00    -0.237 OA
ATOM     60  O   UNL A   1      42.937  21.508  25.551  1.00  0.00    -0.744 OA
ENDBRANCH  53  57
ENDBRANCH  26  50
BRANCH  38  61
ATOM     61  C   UNL A   1      45.166  27.781  33.857  1.00  0.00     0.023 A 
ATOM     62  C   UNL A   1      45.220  26.648  34.684  1.00  0.00     0.031 A 
ATOM     63  C   UNL A   1      46.337  28.534  33.670  1.00  0.00     0.131 A 
ATOM     64  C   UNL A   1      46.424  26.310  35.319  1.00  0.00     0.055 A 
ATOM     65  C   UNL A   1      47.541  28.172  34.275  1.00  0.00     0.041 A 
ATOM     66  F   UNL A   1      46.330  29.623  32.886  1.00  0.00    -0.206 F 
ATOM     67  C   UNL A   1      47.588  27.056  35.107  1.00  0.00     0.022 A 
BRANCH  64  68
ATOM     68  S   UNL A   1      46.454  24.883  36.438  1.00  0.00     0.124 S 
ATOM     69  O   UNL A   1      45.549  23.957  35.766  1.00  0.00    -0.237 OA
ATOM     70  O   UNL A   1      47.864  24.508  36.440  1.00  0.00    -0.237 OA
ATOM     71  O   UNL A   1      45.960  25.428  37.701  1.00  0.00    -0.744 OA
ENDBRANCH  64  68
ENDBRANCH  38  61
ENDBRANCH  12  13
ENDBRANCH   5   7
ENDBRANCH   2   3
ENDBRANCH   1   2
BRANCH   1  72
ATOM     72  C   UNL A   1      32.089  28.214  23.078  1.00  0.00     0.118 C 
BRANCH  72  73
ATOM     73  N   UNL A   1      32.537  27.490  21.899  1.00  0.00    -0.352 N 
ATOM     74  C   UNL A   1      32.719  26.151  21.670  1.00  0.00     0.252 C 
ATOM     75  H   UNL A   1      32.748  28.065  21.127  1.00  0.00     0.163 HD
ATOM     76  O   UNL A   1      33.280  25.812  20.629  1.00  0.00    -0.269 OA
BRANCH  74  77
ATOM     77  C   UNL A   1      32.318  25.163  22.665  1.00  0.00     0.051 A 
ATOM     78  C   UNL A   1      31.039  24.919  23.124  1.00  0.00     0.080 A 
ATOM     79  C   UNL A   1      33.221  24.205  23.229  1.00  0.00     0.048 A 
ATOM     80  S   UNL A   1      30.989  23.734  24.360  1.00  0.00    -0.130 S 
ATOM     81  C   UNL A   1      32.669  23.452  24.249  1.00  0.00     0.141 A 
BRANCH  81  82
ATOM     82  S   UNL A   1      33.383  22.249  25.357  1.00  0.00     0.271 S 
ATOM     83  O   UNL A   1      34.537  21.676  24.706  1.00  0.00    -0.200 OA
ATOM     84  O   UNL A   1      33.517  22.946  26.623  1.00  0.00    -0.200 OA
BRANCH  82  85
ATOM     85  N   UNL A   1      32.275  20.970  25.586  1.00  0.00    -0.279 N 
ATOM     86  H   UNL A   1      31.505  21.057  26.194  1.00  0.00     0.180 HD
BRANCH  85  87
ATOM     87  C   UNL A   1      32.519  19.768  24.856  1.00  0.00     0.049 A 
ATOM     88  C   UNL A   1      33.207  18.739  25.505  1.00  0.00     0.030 A 
ATOM     89  C   UNL A   1      32.168  19.646  23.510  1.00  0.00     0.030 A 
ATOM     90  C   UNL A   1      33.583  17.598  24.795  1.00  0.00     0.041 A 
ATOM     91  C   UNL A   1      32.550  18.505  22.800  1.00  0.00     0.041 A 
ATOM     92  C   UNL A   1      33.259  17.496  23.446  1.00  0.00     0.123 A 
ATOM     93  F   UNL A   1      33.647  16.418  22.753  1.00  0.00    -0.207 F 
ENDBRANCH  85  87
ENDBRANCH  82  85
ENDBRANCH  81  82
ENDBRANCH  74  77
ENDBRANCH  72  73
ENDBRANCH   1  72
TORSDOF 16
ENDMDL
