MODEL 1
REMARK VINA RESULT:     -10.9      0.000      0.000
REMARK SMILES CC[C@@H](Oc1cccc(/C=C2/SC(=O)N(c3cccc(OC)c3)C2=O)c1)C(=O)NCCCNC(=O)c1ccc(-c2c3nc(c(-c4cc(S(=O)(=O)[O-])ccc4F)c4ccc([nH]4)c(-c4cc(S(=O)(=O)[O-])ccc4F)c4nc(c(-c5cc(S(=O)(=O)[O-])ccc5F)c5ccc2[nH]5)C=C4)C=C3)cc1
REMARK SMILES IDX 30 1 29 2 27 3 28 4 3 6 2 7 1 8 4 9 5 10 6 11 26 12 7 13
REMARK SMILES IDX 9 14 8 15 10 16 11 17 12 18 24 19 13 20 15 21 25 22 14 23
REMARK SMILES IDX 16 24 17 25 23 26 18 27 20 28 19 29 21 30 22 31 31 32 32 33
REMARK SMILES IDX 33 34 34 35 35 37 36 38 37 39 98 40 38 41 97 42 39 43 40 44
REMARK SMILES IDX 41 45 91 46 42 47 96 48 90 49 92 50 43 51 95 52 89 53 88 54
REMARK SMILES IDX 44 56 76 57 56 58 75 59 57 60 60 61 74 62 93 63 58 64 59 65
REMARK SMILES IDX 73 67 94 68 61 69 45 70 46 71 54 72 47 73 53 74 55 75 52 76
REMARK SMILES IDX 48 77 49 78 50 79 51 80 77 81 78 82 86 83 79 84 85 85 87 86
REMARK SMILES IDX 84 87 80 88 81 89 82 90 83 91 62 92 63 93 71 94 64 95 70 96
REMARK SMILES IDX 72 97 69 98 65 99 66 100 67 101 68 102
REMARK H PARENT 29 5 33 36 92 55 60 66
REMARK Flexibility Score: inf
ROOT
ATOM      1  C   UNL A   1      35.059  32.229  30.119  1.00  0.00     0.118 C 
ENDROOT
BRANCH   1   2
ATOM      2  N   UNL A   1      34.186  32.963  29.210  1.00  0.00    -0.353 N 
ATOM      3  C   UNL A   1      33.628  32.568  28.021  1.00  0.00     0.261 C 
ATOM      4  O   UNL A   1      32.847  33.342  27.460  1.00  0.00    -0.271 OA
ATOM      5  H   UNL A   1      33.964  33.880  29.493  1.00  0.00     0.163 HD
BRANCH   3   6
ATOM      6  C   UNL A   1      34.030  31.234  27.367  1.00  0.00     0.261 C 
BRANCH   6   7
ATOM      7  C   UNL A   1      35.464  30.912  27.834  1.00  0.00     0.052 C 
ATOM      8  C   UNL A   1      35.795  29.425  27.779  1.00  0.00     0.008 C 
ENDBRANCH   6   7
BRANCH   6   9
ATOM      9  O   UNL A   1      32.986  30.319  27.738  1.00  0.00    -0.481 OA
BRANCH   9  10
ATOM     10  C   UNL A   1      32.482  29.514  26.766  1.00  0.00     0.121 A 
ATOM     11  C   UNL A   1      32.363  30.010  25.473  1.00  0.00     0.046 A 
ATOM     12  C   UNL A   1      31.904  28.292  27.086  1.00  0.00     0.054 A 
ATOM     13  C   UNL A   1      31.724  29.246  24.492  1.00  0.00     0.004 A 
ATOM     14  C   UNL A   1      31.270  27.509  26.113  1.00  0.00    -0.021 A 
ATOM     15  C   UNL A   1      31.196  27.987  24.806  1.00  0.00     0.008 A 
BRANCH  14  16
ATOM     16  C   UNL A   1      30.779  26.175  26.483  1.00  0.00     0.029 C 
ATOM     17  C   UNL A   1      31.476  25.033  26.362  1.00  0.00     0.083 C 
ATOM     18  S   UNL A   1      30.740  23.482  26.407  1.00  0.00    -0.022 SA
ATOM     19  C   UNL A   1      32.919  24.890  26.009  1.00  0.00     0.272 C 
ATOM     20  C   UNL A   1      32.104  22.736  25.573  1.00  0.00     0.298 C 
ATOM     21  N   UNL A   1      33.157  23.627  25.488  1.00  0.00    -0.236 N 
ATOM     22  O   UNL A   1      33.718  25.806  26.153  1.00  0.00    -0.268 OA
ATOM     23  O   UNL A   1      32.033  21.581  25.189  1.00  0.00    -0.260 OA
BRANCH  21  24
ATOM     24  C   UNL A   1      34.401  23.294  24.866  1.00  0.00     0.057 A 
ATOM     25  C   UNL A   1      34.594  23.465  23.485  1.00  0.00     0.027 A 
ATOM     26  C   UNL A   1      35.448  22.727  25.612  1.00  0.00     0.073 A 
ATOM     27  C   UNL A   1      35.788  23.084  22.871  1.00  0.00     0.006 A 
ATOM     28  C   UNL A   1      36.628  22.298  24.994  1.00  0.00     0.120 A 
ATOM     29  C   UNL A   1      36.799  22.496  23.625  1.00  0.00     0.046 A 
BRANCH  28  30
ATOM     30  O   UNL A   1      37.667  21.661  25.617  1.00  0.00    -0.497 OA
ATOM     31  C   UNL A   1      37.989  20.358  25.144  1.00  0.00     0.278 C 
ENDBRANCH  28  30
ENDBRANCH  21  24
ENDBRANCH  14  16
ENDBRANCH   9  10
ENDBRANCH   6   9
ENDBRANCH   3   6
ENDBRANCH   1   2
BRANCH   1  32
ATOM     32  C   UNL A   1      35.964  33.136  30.944  1.00  0.00     0.042 C 
BRANCH  32  33
ATOM     33  C   UNL A   1      36.233  32.640  32.360  1.00  0.00     0.118 C 
BRANCH  33  34
ATOM     34  N   UNL A   1      36.194  31.189  32.465  1.00  0.00    -0.352 N 
ATOM     35  C   UNL A   1      37.089  30.237  32.046  1.00  0.00     0.251 C 
ATOM     36  H   UNL A   1      35.392  30.832  32.910  1.00  0.00     0.163 HD
ATOM     37  O   UNL A   1      36.752  29.055  32.075  1.00  0.00    -0.269 OA
BRANCH  35  38
ATOM     38  C   UNL A   1      38.435  30.609  31.547  1.00  0.00     0.039 A 
ATOM     39  C   UNL A   1      38.658  30.616  30.165  1.00  0.00     0.014 A 
ATOM     40  C   UNL A   1      39.489  30.900  32.416  1.00  0.00     0.014 A 
ATOM     41  C   UNL A   1      39.911  30.974  29.659  1.00  0.00     0.010 A 
ATOM     42  C   UNL A   1      40.715  31.332  31.908  1.00  0.00     0.010 A 
ATOM     43  C   UNL A   1      40.942  31.373  30.523  1.00  0.00    -0.014 A 
BRANCH  43  44
ATOM     44  C   UNL A   1      42.258  31.838  30.006  1.00  0.00     0.031 A 
ATOM     45  C   UNL A   1      42.480  33.292  29.691  1.00  0.00     0.074 A 
ATOM     46  C   UNL A   1      43.232  30.942  29.750  1.00  0.00     0.049 A 
ATOM     47  N   UNL A   1      43.513  33.871  29.133  1.00  0.00    -0.248 NA
ATOM     48  C   UNL A   1      41.385  34.213  30.031  1.00  0.00     0.031 C 
ATOM     49  C   UNL A   1      43.144  29.506  30.005  1.00  0.00     0.029 A 
ATOM     50  N   UNL A   1      44.480  31.102  29.198  1.00  0.00    -0.354 N 
ATOM     51  C   UNL A   1      43.195  35.222  29.052  1.00  0.00     0.074 A 
ATOM     52  C   UNL A   1      41.843  35.362  29.555  1.00  0.00     0.031 C 
ATOM     53  C   UNL A   1      44.280  28.914  29.604  1.00  0.00     0.029 A 
ATOM     54  C   UNL A   1      45.162  29.919  29.026  1.00  0.00     0.049 A 
ATOM     55  H   UNL A   1      44.852  31.979  28.950  1.00  0.00     0.167 HD
ATOM     56  C   UNL A   1      43.966  36.254  28.626  1.00  0.00     0.034 A 
ATOM     57  C   UNL A   1      46.355  29.665  28.452  1.00  0.00     0.034 A 
ATOM     58  C   UNL A   1      45.315  36.100  28.135  1.00  0.00     0.049 A 
ATOM     59  C   UNL A   1      47.171  30.814  27.928  1.00  0.00     0.074 A 
ATOM     60  C   UNL A   1      46.205  37.084  27.734  1.00  0.00     0.029 A 
ATOM     61  N   UNL A   1      45.969  34.885  27.966  1.00  0.00    -0.354 N 
ATOM     62  N   UNL A   1      46.874  32.093  27.903  1.00  0.00    -0.248 NA
ATOM     63  C   UNL A   1      48.492  30.491  27.375  1.00  0.00     0.031 C 
ATOM     64  C   UNL A   1      47.365  36.460  27.261  1.00  0.00     0.029 A 
ATOM     65  C   UNL A   1      47.234  35.093  27.435  1.00  0.00     0.049 A 
ATOM     66  H   UNL A   1      45.589  34.005  28.191  1.00  0.00     0.167 HD
ATOM     67  C   UNL A   1      47.991  32.730  27.371  1.00  0.00     0.074 A 
ATOM     68  C   UNL A   1      48.966  31.696  27.092  1.00  0.00     0.031 C 
ATOM     69  C   UNL A   1      48.195  34.053  27.146  1.00  0.00     0.034 A 
BRANCH  56  70
ATOM     70  C   UNL A   1      43.353  37.634  28.655  1.00  0.00     0.023 A 
ATOM     71  C   UNL A   1      43.541  38.503  29.745  1.00  0.00     0.031 A 
ATOM     72  C   UNL A   1      42.541  38.078  27.595  1.00  0.00     0.131 A 
ATOM     73  C   UNL A   1      42.863  39.730  29.790  1.00  0.00     0.055 A 
ATOM     74  C   UNL A   1      41.936  39.337  27.608  1.00  0.00     0.041 A 
ATOM     75  F   UNL A   1      42.307  37.288  26.536  1.00  0.00    -0.206 F 
ATOM     76  C   UNL A   1      42.081  40.164  28.718  1.00  0.00     0.022 A 
BRANCH  73  77
ATOM     77  S   UNL A   1      42.895  40.678  31.336  1.00  0.00     0.124 S 
ATOM     78  O   UNL A   1      43.149  39.629  32.321  1.00  0.00    -0.237 OA
ATOM     79  O   UNL A   1      43.986  41.618  31.108  1.00  0.00    -0.237 OA
ATOM     80  O   UNL A   1      41.561  41.272  31.401  1.00  0.00    -0.744 OA
ENDBRANCH  73  77
ENDBRANCH  56  70
BRANCH  57  81
ATOM     81  C   UNL A   1      46.845  28.261  28.332  1.00  0.00     0.023 A 
ATOM     82  C   UNL A   1      46.541  27.483  27.205  1.00  0.00     0.031 A 
ATOM     83  C   UNL A   1      47.598  27.669  29.362  1.00  0.00     0.131 A 
ATOM     84  C   UNL A   1      46.949  26.142  27.151  1.00  0.00     0.055 A 
ATOM     85  C   UNL A   1      48.042  26.348  29.282  1.00  0.00     0.041 A 
ATOM     86  F   UNL A   1      47.926  28.375  30.456  1.00  0.00    -0.206 F 
ATOM     87  C   UNL A   1      47.707  25.572  28.177  1.00  0.00     0.022 A 
BRANCH  84  88
ATOM     88  S   UNL A   1      46.410  25.127  25.748  1.00  0.00     0.124 S 
ATOM     89  O   UNL A   1      47.005  25.837  24.622  1.00  0.00    -0.237 OA
ATOM     90  O   UNL A   1      46.997  23.831  26.071  1.00  0.00    -0.237 OA
ATOM     91  O   UNL A   1      44.952  25.186  25.826  1.00  0.00    -0.744 OA
ENDBRANCH  84  88
ENDBRANCH  57  81
BRANCH  69  92
ATOM     92  C   UNL A   1      49.549  34.454  26.615  1.00  0.00     0.023 A 
ATOM     93  C   UNL A   1      50.702  34.415  27.418  1.00  0.00     0.031 A 
ATOM     94  C   UNL A   1      49.681  34.902  25.287  1.00  0.00     0.131 A 
ATOM     95  C   UNL A   1      51.926  34.870  26.904  1.00  0.00     0.055 A 
ATOM     96  C   UNL A   1      50.913  35.296  24.764  1.00  0.00     0.041 A 
ATOM     97  F   UNL A   1      48.612  34.964  24.478  1.00  0.00    -0.206 F 
ATOM     98  C   UNL A   1      52.042  35.293  25.578  1.00  0.00     0.022 A 
BRANCH  95  99
ATOM     99  S   UNL A   1      53.351  34.985  28.021  1.00  0.00     0.124 S 
ATOM    100  O   UNL A   1      54.329  34.134  27.352  1.00  0.00    -0.237 OA
ATOM    101  O   UNL A   1      53.640  36.416  28.011  1.00  0.00    -0.237 OA
ATOM    102  O   UNL A   1      52.839  34.466  29.287  1.00  0.00    -0.744 OA
ENDBRANCH  95  99
ENDBRANCH  69  92
ENDBRANCH  43  44
ENDBRANCH  35  38
ENDBRANCH  33  34
ENDBRANCH  32  33
ENDBRANCH   1  32
TORSDOF 19
ENDMDL
MODEL 2
REMARK VINA RESULT:     -10.8      6.270     10.836
REMARK SMILES CC[C@@H](Oc1cccc(/C=C2/SC(=O)N(c3cccc(OC)c3)C2=O)c1)C(=O)NCCCNC(=O)c1ccc(-c2c3nc(c(-c4cc(S(=O)(=O)[O-])ccc4F)c4ccc([nH]4)c(-c4cc(S(=O)(=O)[O-])ccc4F)c4nc(c(-c5cc(S(=O)(=O)[O-])ccc5F)c5ccc2[nH]5)C=C4)C=C3)cc1
REMARK SMILES IDX 30 1 29 2 27 3 28 4 3 6 2 7 1 8 4 9 5 10 6 11 26 12 7 13
REMARK SMILES IDX 9 14 8 15 10 16 11 17 12 18 24 19 13 20 15 21 25 22 14 23
REMARK SMILES IDX 16 24 17 25 23 26 18 27 20 28 19 29 21 30 22 31 31 32 32 33
REMARK SMILES IDX 33 34 34 35 35 37 36 38 37 39 98 40 38 41 97 42 39 43 40 44
REMARK SMILES IDX 41 45 91 46 42 47 96 48 90 49 92 50 43 51 95 52 89 53 88 54
REMARK SMILES IDX 44 56 76 57 56 58 75 59 57 60 60 61 74 62 93 63 58 64 59 65
REMARK SMILES IDX 73 67 94 68 61 69 45 70 46 71 54 72 47 73 53 74 55 75 52 76
REMARK SMILES IDX 48 77 49 78 50 79 51 80 77 81 78 82 86 83 79 84 85 85 87 86
REMARK SMILES IDX 84 87 80 88 81 89 82 90 83 91 62 92 63 93 71 94 64 95 70 96
REMARK SMILES IDX 72 97 69 98 65 99 66 100 67 101 68 102
REMARK H PARENT 29 5 33 36 92 55 60 66
REMARK Flexibility Score: inf
ROOT
ATOM      1  C   UNL A   1      42.303  22.816  26.004  1.00  0.00     0.118 C 
ENDROOT
BRANCH   1   2
ATOM      2  N   UNL A   1      41.939  24.152  25.547  1.00  0.00    -0.353 N 
ATOM      3  C   UNL A   1      40.955  24.994  25.998  1.00  0.00     0.261 C 
ATOM      4  O   UNL A   1      40.885  26.124  25.505  1.00  0.00    -0.271 OA
ATOM      5  H   UNL A   1      42.481  24.502  24.803  1.00  0.00     0.163 HD
BRANCH   3   6
ATOM      6  C   UNL A   1      39.918  24.513  27.029  1.00  0.00     0.261 C 
BRANCH   6   7
ATOM      7  C   UNL A   1      40.195  25.274  28.341  1.00  0.00     0.052 C 
ATOM      8  C   UNL A   1      39.233  26.433  28.580  1.00  0.00     0.008 C 
ENDBRANCH   6   7
BRANCH   6   9
ATOM      9  O   UNL A   1      38.647  24.724  26.391  1.00  0.00    -0.481 OA
BRANCH   9  10
ATOM     10  C   UNL A   1      37.888  23.628  26.127  1.00  0.00     0.121 A 
ATOM     11  C   UNL A   1      38.424  22.606  25.353  1.00  0.00     0.046 A 
ATOM     12  C   UNL A   1      36.536  23.609  26.444  1.00  0.00     0.054 A 
ATOM     13  C   UNL A   1      37.616  21.536  24.960  1.00  0.00     0.004 A 
ATOM     14  C   UNL A   1      35.714  22.539  26.068  1.00  0.00    -0.021 A 
ATOM     15  C   UNL A   1      36.267  21.491  25.334  1.00  0.00     0.008 A 
BRANCH  14  16
ATOM     16  C   UNL A   1      34.320  22.516  26.529  1.00  0.00     0.029 C 
ATOM     17  C   UNL A   1      33.350  23.341  26.100  1.00  0.00     0.083 C 
ATOM     18  S   UNL A   1      31.870  23.559  26.944  1.00  0.00    -0.022 SA
ATOM     19  C   UNL A   1      33.425  24.309  24.966  1.00  0.00     0.272 C 
ATOM     20  C   UNL A   1      31.575  25.111  26.160  1.00  0.00     0.298 C 
ATOM     21  N   UNL A   1      32.478  25.308  25.133  1.00  0.00    -0.236 N 
ATOM     22  O   UNL A   1      34.250  24.198  24.070  1.00  0.00    -0.268 OA
ATOM     23  O   UNL A   1      30.658  25.824  26.534  1.00  0.00    -0.260 OA
BRANCH  21  24
ATOM     24  C   UNL A   1      32.473  26.483  24.316  1.00  0.00     0.057 A 
ATOM     25  C   UNL A   1      33.523  27.414  24.374  1.00  0.00     0.027 A 
ATOM     26  C   UNL A   1      31.385  26.767  23.474  1.00  0.00     0.073 A 
ATOM     27  C   UNL A   1      33.487  28.588  23.619  1.00  0.00     0.006 A 
ATOM     28  C   UNL A   1      31.322  27.965  22.754  1.00  0.00     0.120 A 
ATOM     29  C   UNL A   1      32.385  28.863  22.816  1.00  0.00     0.046 A 
BRANCH  28  30
ATOM     30  O   UNL A   1      30.271  28.370  21.975  1.00  0.00    -0.497 OA
ATOM     31  C   UNL A   1      30.064  29.775  21.870  1.00  0.00     0.278 C 
ENDBRANCH  28  30
ENDBRANCH  21  24
ENDBRANCH  14  16
ENDBRANCH   9  10
ENDBRANCH   6   9
ENDBRANCH   3   6
ENDBRANCH   1   2
BRANCH   1  32
ATOM     32  C   UNL A   1      43.565  22.799  26.859  1.00  0.00     0.042 C 
BRANCH  32  33
ATOM     33  C   UNL A   1      44.184  24.171  27.099  1.00  0.00     0.118 C 
BRANCH  33  34
ATOM     34  N   UNL A   1      45.606  24.102  27.402  1.00  0.00    -0.352 N 
ATOM     35  C   UNL A   1      46.353  24.764  28.343  1.00  0.00     0.251 C 
ATOM     36  H   UNL A   1      46.115  23.477  26.837  1.00  0.00     0.163 HD
ATOM     37  O   UNL A   1      47.579  24.682  28.288  1.00  0.00    -0.269 OA
BRANCH  35  38
ATOM     38  C   UNL A   1      45.714  25.580  29.403  1.00  0.00     0.039 A 
ATOM     39  C   UNL A   1      45.878  26.969  29.368  1.00  0.00     0.014 A 
ATOM     40  C   UNL A   1      45.002  24.997  30.454  1.00  0.00     0.014 A 
ATOM     41  C   UNL A   1      45.279  27.771  30.344  1.00  0.00     0.010 A 
ATOM     42  C   UNL A   1      44.341  25.802  31.382  1.00  0.00     0.010 A 
ATOM     43  C   UNL A   1      44.472  27.199  31.340  1.00  0.00    -0.014 A 
BRANCH  43  44
ATOM     44  C   UNL A   1      43.756  28.037  32.341  1.00  0.00     0.031 A 
ATOM     45  C   UNL A   1      42.410  28.626  32.015  1.00  0.00     0.074 A 
ATOM     46  C   UNL A   1      44.347  28.330  33.516  1.00  0.00     0.049 A 
ATOM     47  N   UNL A   1      41.684  29.466  32.708  1.00  0.00    -0.248 NA
ATOM     48  C   UNL A   1      41.814  28.233  30.730  1.00  0.00     0.031 C 
ATOM     49  C   UNL A   1      45.649  27.828  33.952  1.00  0.00     0.029 A 
ATOM     50  N   UNL A   1      43.942  29.137  34.551  1.00  0.00    -0.354 N 
ATOM     51  C   UNL A   1      40.546  29.705  31.945  1.00  0.00     0.074 A 
ATOM     52  C   UNL A   1      40.716  28.973  30.705  1.00  0.00     0.031 C 
ATOM     53  C   UNL A   1      45.942  28.344  35.156  1.00  0.00     0.029 A 
ATOM     54  C   UNL A   1      44.870  29.243  35.562  1.00  0.00     0.049 A 
ATOM     55  H   UNL A   1      43.071  29.596  34.569  1.00  0.00     0.167 HD
ATOM     56  C   UNL A   1      39.450  30.439  32.259  1.00  0.00     0.034 A 
ATOM     57  C   UNL A   1      44.870  29.992  36.683  1.00  0.00     0.034 A 
ATOM     58  C   UNL A   1      39.291  31.156  33.503  1.00  0.00     0.049 A 
ATOM     59  C   UNL A   1      43.673  30.851  36.986  1.00  0.00     0.074 A 
ATOM     60  C   UNL A   1      38.198  31.883  33.947  1.00  0.00     0.029 A 
ATOM     61  N   UNL A   1      40.256  31.248  34.498  1.00  0.00    -0.354 N 
ATOM     62  N   UNL A   1      42.583  31.027  36.275  1.00  0.00    -0.248 NA
ATOM     63  C   UNL A   1      43.694  31.593  38.252  1.00  0.00     0.031 C 
ATOM     64  C   UNL A   1      38.528  32.467  35.175  1.00  0.00     0.029 A 
ATOM     65  C   UNL A   1      39.797  32.047  35.537  1.00  0.00     0.049 A 
ATOM     66  H   UNL A   1      41.137  30.810  34.471  1.00  0.00     0.167 HD
ATOM     67  C   UNL A   1      41.772  31.868  37.030  1.00  0.00     0.074 A 
ATOM     68  C   UNL A   1      42.496  32.160  38.250  1.00  0.00     0.031 C 
ATOM     69  C   UNL A   1      40.533  32.345  36.744  1.00  0.00     0.034 A 
BRANCH  56  70
ATOM     70  C   UNL A   1      38.350  30.518  31.226  1.00  0.00     0.023 A 
ATOM     71  C   UNL A   1      38.114  31.691  30.487  1.00  0.00     0.031 A 
ATOM     72  C   UNL A   1      37.503  29.418  30.999  1.00  0.00     0.131 A 
ATOM     73  C   UNL A   1      37.013  31.766  29.621  1.00  0.00     0.055 A 
ATOM     74  C   UNL A   1      36.459  29.471  30.072  1.00  0.00     0.041 A 
ATOM     75  F   UNL A   1      37.665  28.277  31.687  1.00  0.00    -0.206 F 
ATOM     76  C   UNL A   1      36.198  30.656  29.390  1.00  0.00     0.022 A 
BRANCH  73  77
ATOM     77  S   UNL A   1      36.572  33.380  28.922  1.00  0.00     0.124 S 
ATOM     78  O   UNL A   1      35.564  33.848  29.872  1.00  0.00    -0.237 OA
ATOM     79  O   UNL A   1      37.844  34.091  28.939  1.00  0.00    -0.237 OA
ATOM     80  O   UNL A   1      36.057  33.049  27.595  1.00  0.00    -0.744 OA
ENDBRANCH  73  77
ENDBRANCH  56  70
BRANCH  57  81
ATOM     81  C   UNL A   1      46.049  29.973  37.596  1.00  0.00     0.023 A 
ATOM     82  C   UNL A   1      46.126  29.059  38.658  1.00  0.00     0.031 A 
ATOM     83  C   UNL A   1      47.101  30.894  37.438  1.00  0.00     0.131 A 
ATOM     84  C   UNL A   1      47.208  29.113  39.549  1.00  0.00     0.055 A 
ATOM     85  C   UNL A   1      48.199  30.912  38.299  1.00  0.00     0.041 A 
ATOM     86  F   UNL A   1      47.081  31.780  36.430  1.00  0.00    -0.206 F 
ATOM     87  C   UNL A   1      48.251  30.026  39.371  1.00  0.00     0.022 A 
BRANCH  84  88
ATOM     88  S   UNL A   1      47.198  28.017  40.994  1.00  0.00     0.124 S 
ATOM     89  O   UNL A   1      46.201  28.656  41.844  1.00  0.00    -0.237 OA
ATOM     90  O   UNL A   1      46.813  26.741  40.401  1.00  0.00    -0.237 OA
ATOM     91  O   UNL A   1      48.573  28.086  41.483  1.00  0.00    -0.744 OA
ENDBRANCH  84  88
ENDBRANCH  57  81
BRANCH  69  92
ATOM     92  C   UNL A   1      39.868  33.193  37.799  1.00  0.00     0.023 A 
ATOM     93  C   UNL A   1      38.962  32.648  38.726  1.00  0.00     0.031 A 
ATOM     94  C   UNL A   1      40.132  34.574  37.864  1.00  0.00     0.131 A 
ATOM     95  C   UNL A   1      38.309  33.489  39.641  1.00  0.00     0.055 A 
ATOM     96  C   UNL A   1      39.525  35.394  38.816  1.00  0.00     0.041 A 
ATOM     97  F   UNL A   1      40.985  35.147  37.001  1.00  0.00    -0.206 F 
ATOM     98  C   UNL A   1      38.598  34.854  39.703  1.00  0.00     0.022 A 
BRANCH  95  99
ATOM     99  S   UNL A   1      37.008  32.788  40.694  1.00  0.00     0.124 S 
ATOM    100  O   UNL A   1      36.659  33.924  41.540  1.00  0.00    -0.237 OA
ATOM    101  O   UNL A   1      35.999  32.388  39.718  1.00  0.00    -0.237 OA
ATOM    102  O   UNL A   1      37.677  31.685  41.380  1.00  0.00    -0.744 OA
ENDBRANCH  95  99
ENDBRANCH  69  92
ENDBRANCH  43  44
ENDBRANCH  35  38
ENDBRANCH  33  34
ENDBRANCH  32  33
ENDBRANCH   1  32
TORSDOF 19
ENDMDL
MODEL 3
REMARK VINA RESULT:     -10.7      3.903      8.329
REMARK SMILES CC[C@@H](Oc1cccc(/C=C2/SC(=O)N(c3cccc(OC)c3)C2=O)c1)C(=O)NCCCNC(=O)c1ccc(-c2c3nc(c(-c4cc(S(=O)(=O)[O-])ccc4F)c4ccc([nH]4)c(-c4cc(S(=O)(=O)[O-])ccc4F)c4nc(c(-c5cc(S(=O)(=O)[O-])ccc5F)c5ccc2[nH]5)C=C4)C=C3)cc1
REMARK SMILES IDX 30 1 29 2 27 3 28 4 3 6 2 7 1 8 4 9 5 10 6 11 26 12 7 13
REMARK SMILES IDX 9 14 8 15 10 16 11 17 12 18 24 19 13 20 15 21 25 22 14 23
REMARK SMILES IDX 16 24 17 25 23 26 18 27 20 28 19 29 21 30 22 31 31 32 32 33
REMARK SMILES IDX 33 34 34 35 35 37 36 38 37 39 98 40 38 41 97 42 39 43 40 44
REMARK SMILES IDX 41 45 91 46 42 47 96 48 90 49 92 50 43 51 95 52 89 53 88 54
REMARK SMILES IDX 44 56 76 57 56 58 75 59 57 60 60 61 74 62 93 63 58 64 59 65
REMARK SMILES IDX 73 67 94 68 61 69 45 70 46 71 54 72 47 73 53 74 55 75 52 76
REMARK SMILES IDX 48 77 49 78 50 79 51 80 77 81 78 82 86 83 79 84 85 85 87 86
REMARK SMILES IDX 84 87 80 88 81 89 82 90 83 91 62 92 63 93 71 94 64 95 70 96
REMARK SMILES IDX 72 97 69 98 65 99 66 100 67 101 68 102
REMARK H PARENT 29 5 33 36 92 55 60 66
REMARK Flexibility Score: inf
ROOT
ATOM      1  C   UNL A   1      38.589  21.522  26.116  1.00  0.00     0.118 C 
ENDROOT
BRANCH   1   2
ATOM      2  N   UNL A   1      38.800  22.916  26.486  1.00  0.00    -0.353 N 
ATOM      3  C   UNL A   1      37.969  23.997  26.339  1.00  0.00     0.261 C 
ATOM      4  O   UNL A   1      38.334  25.080  26.807  1.00  0.00    -0.271 OA
ATOM      5  H   UNL A   1      39.670  23.110  26.904  1.00  0.00     0.163 HD
BRANCH   3   6
ATOM      6  C   UNL A   1      36.657  23.880  25.542  1.00  0.00     0.261 C 
BRANCH   6   7
ATOM      7  C   UNL A   1      37.036  23.504  24.096  1.00  0.00     0.052 C 
ATOM      8  C   UNL A   1      36.281  22.287  23.572  1.00  0.00     0.008 C 
ENDBRANCH   6   7
BRANCH   6   9
ATOM      9  O   UNL A   1      35.862  22.945  26.289  1.00  0.00    -0.481 OA
BRANCH   9  10
ATOM     10  C   UNL A   1      34.543  23.230  26.450  1.00  0.00     0.121 A 
ATOM     11  C   UNL A   1      33.853  22.656  27.510  1.00  0.00     0.046 A 
ATOM     12  C   UNL A   1      33.840  23.913  25.466  1.00  0.00     0.054 A 
ATOM     13  C   UNL A   1      32.470  22.829  27.614  1.00  0.00     0.004 A 
ATOM     14  C   UNL A   1      32.456  24.106  25.560  1.00  0.00    -0.021 A 
ATOM     15  C   UNL A   1      31.774  23.571  26.651  1.00  0.00     0.008 A 
BRANCH  14  16
ATOM     16  C   UNL A   1      31.782  24.934  24.551  1.00  0.00     0.029 C 
ATOM     17  C   UNL A   1      31.887  26.270  24.452  1.00  0.00     0.083 C 
ATOM     18  S   UNL A   1      30.783  27.228  23.548  1.00  0.00    -0.022 SA
ATOM     19  C   UNL A   1      32.821  27.160  25.203  1.00  0.00     0.272 C 
ATOM     20  C   UNL A   1      31.211  28.685  24.444  1.00  0.00     0.298 C 
ATOM     21  N   UNL A   1      32.320  28.453  25.235  1.00  0.00    -0.236 N 
ATOM     22  O   UNL A   1      33.847  26.738  25.719  1.00  0.00    -0.268 OA
ATOM     23  O   UNL A   1      30.567  29.710  24.295  1.00  0.00    -0.260 OA
BRANCH  21  24
ATOM     24  C   UNL A   1      32.897  29.461  26.071  1.00  0.00     0.057 A 
ATOM     25  C   UNL A   1      34.118  29.247  26.733  1.00  0.00     0.027 A 
ATOM     26  C   UNL A   1      32.225  30.673  26.301  1.00  0.00     0.073 A 
ATOM     27  C   UNL A   1      34.648  30.209  27.594  1.00  0.00     0.006 A 
ATOM     28  C   UNL A   1      32.728  31.619  27.202  1.00  0.00     0.120 A 
ATOM     29  C   UNL A   1      33.951  31.389  27.831  1.00  0.00     0.046 A 
BRANCH  28  30
ATOM     30  O   UNL A   1      32.110  32.787  27.556  1.00  0.00    -0.497 OA
ATOM     31  C   UNL A   1      32.960  33.879  27.891  1.00  0.00     0.278 C 
ENDBRANCH  28  30
ENDBRANCH  21  24
ENDBRANCH  14  16
ENDBRANCH   9  10
ENDBRANCH   6   9
ENDBRANCH   3   6
ENDBRANCH   1   2
BRANCH   1  32
ATOM     32  C   UNL A   1      39.733  20.609  26.542  1.00  0.00     0.042 C 
BRANCH  32  33
ATOM     33  C   UNL A   1      40.048  19.490  25.556  1.00  0.00     0.118 C 
BRANCH  33  34
ATOM     34  N   UNL A   1      41.166  18.662  25.984  1.00  0.00    -0.352 N 
ATOM     35  C   UNL A   1      42.440  19.005  26.363  1.00  0.00     0.251 C 
ATOM     36  H   UNL A   1      40.976  17.696  26.004  1.00  0.00     0.163 HD
ATOM     37  O   UNL A   1      43.274  18.113  26.504  1.00  0.00    -0.269 OA
BRANCH  35  38
ATOM     38  C   UNL A   1      42.825  20.419  26.587  1.00  0.00     0.039 A 
ATOM     39  C   UNL A   1      42.712  20.946  27.878  1.00  0.00     0.014 A 
ATOM     40  C   UNL A   1      43.242  21.243  25.540  1.00  0.00     0.014 A 
ATOM     41  C   UNL A   1      43.078  22.273  28.128  1.00  0.00     0.010 A 
ATOM     42  C   UNL A   1      43.680  22.541  25.804  1.00  0.00     0.010 A 
ATOM     43  C   UNL A   1      43.602  23.073  27.101  1.00  0.00    -0.014 A 
BRANCH  43  44
ATOM     44  C   UNL A   1      44.076  24.461  27.359  1.00  0.00     0.031 A 
ATOM     45  C   UNL A   1      43.112  25.521  27.818  1.00  0.00     0.074 A 
ATOM     46  C   UNL A   1      45.360  24.788  27.111  1.00  0.00     0.049 A 
ATOM     47  N   UNL A   1      43.309  26.803  27.988  1.00  0.00    -0.248 NA
ATOM     48  C   UNL A   1      41.738  25.081  28.101  1.00  0.00     0.031 C 
ATOM     49  C   UNL A   1      46.393  23.857  26.660  1.00  0.00     0.029 A 
ATOM     50  N   UNL A   1      46.012  25.995  27.181  1.00  0.00    -0.354 N 
ATOM     51  C   UNL A   1      42.087  27.326  28.397  1.00  0.00     0.074 A 
ATOM     52  C   UNL A   1      41.140  26.230  28.380  1.00  0.00     0.031 C 
ATOM     53  C   UNL A   1      47.544  24.526  26.484  1.00  0.00     0.029 A 
ATOM     54  C   UNL A   1      47.324  25.937  26.770  1.00  0.00     0.049 A 
ATOM     55  H   UNL A   1      45.582  26.822  27.497  1.00  0.00     0.167 HD
ATOM     56  C   UNL A   1      41.790  28.593  28.780  1.00  0.00     0.034 A 
ATOM     57  C   UNL A   1      48.244  26.911  26.621  1.00  0.00     0.034 A 
ATOM     58  C   UNL A   1      42.747  29.673  28.801  1.00  0.00     0.049 A 
ATOM     59  C   UNL A   1      47.878  28.322  26.991  1.00  0.00     0.074 A 
ATOM     60  C   UNL A   1      42.565  30.979  29.225  1.00  0.00     0.029 A 
ATOM     61  N   UNL A   1      44.064  29.579  28.367  1.00  0.00    -0.354 N 
ATOM     62  N   UNL A   1      46.730  28.791  27.422  1.00  0.00    -0.248 NA
ATOM     63  C   UNL A   1      48.937  29.333  26.876  1.00  0.00     0.031 C 
ATOM     64  C   UNL A   1      43.749  31.688  28.985  1.00  0.00     0.029 A 
ATOM     65  C   UNL A   1      44.694  30.811  28.483  1.00  0.00     0.049 A 
ATOM     66  H   UNL A   1      44.489  28.758  28.028  1.00  0.00     0.167 HD
ATOM     67  C   UNL A   1      46.943  30.143  27.670  1.00  0.00     0.074 A 
ATOM     68  C   UNL A   1      48.327  30.413  27.343  1.00  0.00     0.031 C 
ATOM     69  C   UNL A   1      46.073  31.074  28.139  1.00  0.00     0.034 A 
BRANCH  56  70
ATOM     70  C   UNL A   1      40.362  28.875  29.185  1.00  0.00     0.023 A 
ATOM     71  C   UNL A   1      39.958  28.853  30.532  1.00  0.00     0.031 A 
ATOM     72  C   UNL A   1      39.381  29.139  28.212  1.00  0.00     0.131 A 
ATOM     73  C   UNL A   1      38.603  29.005  30.862  1.00  0.00     0.055 A 
ATOM     74  C   UNL A   1      38.048  29.374  28.554  1.00  0.00     0.041 A 
ATOM     75  F   UNL A   1      39.700  29.156  26.907  1.00  0.00    -0.206 F 
ATOM     76  C   UNL A   1      37.649  29.290  29.884  1.00  0.00     0.022 A 
BRANCH  73  77
ATOM     77  S   UNL A   1      38.086  28.670  32.568  1.00  0.00     0.124 S 
ATOM     78  O   UNL A   1      36.760  29.283  32.600  1.00  0.00    -0.237 OA
ATOM     79  O   UNL A   1      38.119  27.214  32.628  1.00  0.00    -0.237 OA
ATOM     80  O   UNL A   1      39.098  29.352  33.372  1.00  0.00    -0.744 OA
ENDBRANCH  73  77
ENDBRANCH  56  70
BRANCH  57  81
ATOM     81  C   UNL A   1      49.598  26.587  26.086  1.00  0.00     0.023 A 
ATOM     82  C   UNL A   1      49.994  27.018  24.811  1.00  0.00     0.031 A 
ATOM     83  C   UNL A   1      50.503  25.811  26.833  1.00  0.00     0.131 A 
ATOM     84  C   UNL A   1      51.244  26.635  24.301  1.00  0.00     0.055 A 
ATOM     85  C   UNL A   1      51.764  25.473  26.340  1.00  0.00     0.041 A 
ATOM     86  F   UNL A   1      50.177  25.385  28.064  1.00  0.00    -0.206 F 
ATOM     87  C   UNL A   1      52.136  25.874  25.061  1.00  0.00     0.022 A 
BRANCH  84  88
ATOM     88  S   UNL A   1      51.659  27.085  22.594  1.00  0.00     0.124 S 
ATOM     89  O   UNL A   1      50.444  26.704  21.883  1.00  0.00    -0.237 OA
ATOM     90  O   UNL A   1      51.911  28.517  22.712  1.00  0.00    -0.237 OA
ATOM     91  O   UNL A   1      52.835  26.269  22.303  1.00  0.00    -0.744 OA
ENDBRANCH  84  88
ENDBRANCH  57  81
BRANCH  69  92
ATOM     92  C   UNL A   1      46.618  32.462  28.371  1.00  0.00     0.023 A 
ATOM     93  C   UNL A   1      46.779  33.380  27.319  1.00  0.00     0.031 A 
ATOM     94  C   UNL A   1      47.000  32.862  29.664  1.00  0.00     0.131 A 
ATOM     95  C   UNL A   1      47.361  34.633  27.569  1.00  0.00     0.055 A 
ATOM     96  C   UNL A   1      47.522  34.132  29.917  1.00  0.00     0.041 A 
ATOM     97  F   UNL A   1      46.873  32.023  30.705  1.00  0.00    -0.206 F 
ATOM     98  C   UNL A   1      47.717  35.020  28.863  1.00  0.00     0.022 A 
BRANCH  95  99
ATOM     99  S   UNL A   1      47.729  35.719  26.163  1.00  0.00     0.124 S 
ATOM    100  O   UNL A   1      47.723  34.780  25.046  1.00  0.00    -0.237 OA
ATOM    101  O   UNL A   1      46.621  36.668  26.203  1.00  0.00    -0.237 OA
ATOM    102  O   UNL A   1      49.037  36.280  26.496  1.00  0.00    -0.744 OA
ENDBRANCH  95  99
ENDBRANCH  69  92
ENDBRANCH  43  44
ENDBRANCH  35  38
ENDBRANCH  33  34
ENDBRANCH  32  33
ENDBRANCH   1  32
TORSDOF 19
ENDMDL
