MODEL 1
REMARK VINA RESULT:     -12.7      0.000      0.000
REMARK SMILES CCc1ccc2c(CC(=O)NCCCNC(=O)c3ccc(-c4c5nc(c(-c6cc(S(=O)(=O)[O-])ccc6F)c6ccc([nH]6)c(-c6cc(S(=O)(=O)[O-])ccc6F)c6nc(c(-c7cc(S(=O)(=O)[O-])ccc7F)c7ccc4[nH]7)C=C6)C=C5)cc3)c(C(=O)c3cc(C)ccn3)[nH]c2c1
REMARK SMILES IDX 13 1 12 2 11 3 9 4 10 5 8 7 7 8 3 9 4 10 93 11 5 12 92 13
REMARK SMILES IDX 6 14 91 15 81 16 2 18 1 19 82 20 83 21 84 22 85 23 90 24
REMARK SMILES IDX 86 25 89 26 87 27 88 28 14 29 15 30 16 31 17 33 18 34 19 35
REMARK SMILES IDX 80 36 20 37 79 38 21 39 22 40 23 41 73 42 24 43 78 44 72 45
REMARK SMILES IDX 74 46 25 47 77 48 71 49 70 50 26 52 58 53 38 54 57 55 39 56
REMARK SMILES IDX 42 57 56 58 75 59 40 60 41 61 55 63 76 64 43 65 27 66 28 67
REMARK SMILES IDX 36 68 29 69 35 70 37 71 34 72 30 73 31 74 32 75 33 76 59 77
REMARK SMILES IDX 60 78 68 79 61 80 67 81 69 82 66 83 62 84 63 85 64 86 65 87
REMARK SMILES IDX 44 88 45 89 53 90 46 91 52 92 54 93 51 94 47 95 48 96 49 97
REMARK SMILES IDX 50 98
REMARK H PARENT 11 6 91 17 15 32 74 51 42 62
REMARK Flexibility Score: inf
ROOT
ATOM      1  C   UNL A   1      33.097  29.110  24.793  1.00  0.00     0.042 C 
ENDROOT
BRANCH   1   2
ATOM      2  C   UNL A   1      33.886  27.806  24.746  1.00  0.00     0.117 C 
BRANCH   2   3
ATOM      3  N   UNL A   1      33.356  26.788  25.631  1.00  0.00    -0.356 N 
ATOM      4  C   UNL A   1      33.570  25.439  25.640  1.00  0.00     0.224 C 
ATOM      5  O   UNL A   1      33.174  24.819  26.631  1.00  0.00    -0.275 OA
ATOM      6  H   UNL A   1      32.749  27.119  26.332  1.00  0.00     0.163 HD
BRANCH   4   7
ATOM      7  C   UNL A   1      34.382  24.757  24.546  1.00  0.00     0.138 C 
BRANCH   7   8
ATOM      8  C   UNL A   1      33.609  23.796  23.681  1.00  0.00    -0.002 A 
ATOM      9  C   UNL A   1      32.821  19.633  23.821  1.00  0.00    -0.046 A 
ATOM     10  C   UNL A   1      33.549  20.163  24.896  1.00  0.00     0.004 A 
ATOM     11  C   UNL A   1      32.412  20.487  22.785  1.00  0.00     0.030 A 
ATOM     12  C   UNL A   1      33.864  21.525  24.967  1.00  0.00     0.011 A 
ATOM     13  C   UNL A   1      32.732  21.851  22.877  1.00  0.00     0.046 A 
ATOM     14  C   UNL A   1      33.448  22.391  23.937  1.00  0.00     0.004 A 
ATOM     15  N   UNL A   1      32.455  22.882  22.014  1.00  0.00    -0.352 N 
ATOM     16  C   UNL A   1      32.870  24.092  22.533  1.00  0.00     0.093 A 
ATOM     17  H   UNL A   1      32.018  22.774  21.139  1.00  0.00     0.167 HD
BRANCH   9  18
ATOM     18  C   UNL A   1      32.536  18.146  23.832  1.00  0.00     0.032 C 
ATOM     19  C   UNL A   1      33.562  17.241  23.163  1.00  0.00     0.009 C 
ENDBRANCH   9  18
BRANCH  16  20
ATOM     20  C   UNL A   1      32.576  25.398  21.953  1.00  0.00     0.227 C 
ATOM     21  O   UNL A   1      33.272  25.928  21.088  1.00  0.00    -0.285 OA
BRANCH  20  22
ATOM     22  C   UNL A   1      31.433  26.180  22.490  1.00  0.00     0.113 A 
ATOM     23  C   UNL A   1      31.240  27.492  22.065  1.00  0.00     0.036 A 
ATOM     24  N   UNL A   1      30.638  25.545  23.386  1.00  0.00    -0.253 NA
ATOM     25  C   UNL A   1      30.164  28.206  22.594  1.00  0.00    -0.047 A 
ATOM     26  C   UNL A   1      29.591  26.249  23.860  1.00  0.00     0.112 A 
ATOM     27  C   UNL A   1      29.902  29.628  22.198  1.00  0.00     0.044 C 
ATOM     28  C   UNL A   1      29.319  27.563  23.504  1.00  0.00     0.023 A 
ENDBRANCH  20  22
ENDBRANCH  16  20
ENDBRANCH   7   8
ENDBRANCH   4   7
ENDBRANCH   2   3
ENDBRANCH   1   2
BRANCH   1  29
ATOM     29  C   UNL A   1      32.518  29.453  26.164  1.00  0.00     0.118 C 
BRANCH  29  30
ATOM     30  N   UNL A   1      32.368  30.888  26.371  1.00  0.00    -0.352 N 
ATOM     31  C   UNL A   1      33.093  31.764  27.141  1.00  0.00     0.251 C 
ATOM     32  H   UNL A   1      31.624  31.298  25.875  1.00  0.00     0.163 HD
ATOM     33  O   UNL A   1      32.662  32.904  27.303  1.00  0.00    -0.269 OA
BRANCH  31  34
ATOM     34  C   UNL A   1      34.359  31.354  27.790  1.00  0.00     0.039 A 
ATOM     35  C   UNL A   1      35.354  32.319  27.983  1.00  0.00     0.014 A 
ATOM     36  C   UNL A   1      34.598  30.030  28.167  1.00  0.00     0.014 A 
ATOM     37  C   UNL A   1      36.552  31.973  28.615  1.00  0.00     0.010 A 
ATOM     38  C   UNL A   1      35.767  29.699  28.856  1.00  0.00     0.010 A 
ATOM     39  C   UNL A   1      36.754  30.669  29.092  1.00  0.00    -0.014 A 
BRANCH  39  40
ATOM     40  C   UNL A   1      37.977  30.309  29.859  1.00  0.00     0.031 A 
ATOM     41  C   UNL A   1      38.975  29.337  29.293  1.00  0.00     0.074 A 
ATOM     42  C   UNL A   1      38.151  30.812  31.098  1.00  0.00     0.049 A 
ATOM     43  N   UNL A   1      40.051  28.838  29.847  1.00  0.00    -0.248 NA
ATOM     44  C   UNL A   1      38.712  28.840  27.935  1.00  0.00     0.031 C 
ATOM     45  C   UNL A   1      37.236  31.737  31.770  1.00  0.00     0.029 A 
ATOM     46  N   UNL A   1      39.150  30.609  32.017  1.00  0.00    -0.354 N 
ATOM     47  C   UNL A   1      40.590  27.961  28.911  1.00  0.00     0.074 A 
ATOM     48  C   UNL A   1      39.688  27.958  27.777  1.00  0.00     0.031 C 
ATOM     49  C   UNL A   1      37.723  32.033  32.985  1.00  0.00     0.029 A 
ATOM     50  C   UNL A   1      38.959  31.286  33.200  1.00  0.00     0.049 A 
ATOM     51  H   UNL A   1      39.929  30.032  31.848  1.00  0.00     0.167 HD
ATOM     52  C   UNL A   1      41.736  27.239  28.984  1.00  0.00     0.034 A 
ATOM     53  C   UNL A   1      39.685  31.293  34.336  1.00  0.00     0.034 A 
ATOM     54  C   UNL A   1      42.630  27.260  30.119  1.00  0.00     0.049 A 
ATOM     55  C   UNL A   1      40.939  30.462  34.405  1.00  0.00     0.074 A 
ATOM     56  C   UNL A   1      43.845  26.615  30.272  1.00  0.00     0.029 A 
ATOM     57  N   UNL A   1      42.401  27.955  31.300  1.00  0.00    -0.354 N 
ATOM     58  N   UNL A   1      41.458  29.673  33.492  1.00  0.00    -0.248 NA
ATOM     59  C   UNL A   1      41.710  30.530  35.652  1.00  0.00     0.031 C 
ATOM     60  C   UNL A   1      44.317  26.865  31.566  1.00  0.00     0.029 A 
ATOM     61  C   UNL A   1      43.434  27.726  32.198  1.00  0.00     0.049 A 
ATOM     62  H   UNL A   1      41.619  28.526  31.475  1.00  0.00     0.167 HD
ATOM     63  C   UNL A   1      42.630  29.169  34.050  1.00  0.00     0.074 A 
ATOM     64  C   UNL A   1      42.749  29.759  35.368  1.00  0.00     0.031 C 
ATOM     65  C   UNL A   1      43.529  28.302  33.519  1.00  0.00     0.034 A 
BRANCH  52  66
ATOM     66  C   UNL A   1      42.072  26.347  27.813  1.00  0.00     0.023 A 
ATOM     67  C   UNL A   1      41.599  25.025  27.732  1.00  0.00     0.031 A 
ATOM     68  C   UNL A   1      42.895  26.815  26.774  1.00  0.00     0.131 A 
ATOM     69  C   UNL A   1      42.012  24.195  26.679  1.00  0.00     0.055 A 
ATOM     70  C   UNL A   1      43.237  26.008  25.686  1.00  0.00     0.041 A 
ATOM     71  F   UNL A   1      43.392  28.061  26.803  1.00  0.00    -0.206 F 
ATOM     72  C   UNL A   1      42.808  24.685  25.641  1.00  0.00     0.022 A 
BRANCH  69  73
ATOM     73  S   UNL A   1      41.607  22.429  26.757  1.00  0.00     0.124 S 
ATOM     74  O   UNL A   1      40.147  22.460  26.708  1.00  0.00    -0.237 OA
ATOM     75  O   UNL A   1      42.276  21.900  25.574  1.00  0.00    -0.237 OA
ATOM     76  O   UNL A   1      42.172  22.004  28.036  1.00  0.00    -0.744 OA
ENDBRANCH  69  73
ENDBRANCH  52  66
BRANCH  53  77
ATOM     77  C   UNL A   1      39.239  32.095  35.509  1.00  0.00     0.023 A 
ATOM     78  C   UNL A   1      39.668  33.420  35.684  1.00  0.00     0.031 A 
ATOM     79  C   UNL A   1      38.405  31.535  36.494  1.00  0.00     0.131 A 
ATOM     80  C   UNL A   1      39.298  34.128  36.838  1.00  0.00     0.055 A 
ATOM     81  C   UNL A   1      37.999  32.260  37.616  1.00  0.00     0.041 A 
ATOM     82  F   UNL A   1      37.961  30.274  36.372  1.00  0.00    -0.206 F 
ATOM     83  C   UNL A   1      38.456  33.562  37.799  1.00  0.00     0.022 A 
BRANCH  80  84
ATOM     84  S   UNL A   1      39.997  35.779  37.105  1.00  0.00     0.124 S 
ATOM     85  O   UNL A   1      39.652  36.454  35.859  1.00  0.00    -0.237 OA
ATOM     86  O   UNL A   1      39.280  36.222  38.297  1.00  0.00    -0.237 OA
ATOM     87  O   UNL A   1      41.421  35.518  37.300  1.00  0.00    -0.744 OA
ENDBRANCH  80  84
ENDBRANCH  53  77
BRANCH  65  88
ATOM     88  C   UNL A   1      44.735  27.969  34.363  1.00  0.00     0.023 A 
ATOM     89  C   UNL A   1      44.726  26.895  35.269  1.00  0.00     0.031 A 
ATOM     90  C   UNL A   1      45.899  28.751  34.273  1.00  0.00     0.131 A 
ATOM     91  C   UNL A   1      45.839  26.664  36.091  1.00  0.00     0.055 A 
ATOM     92  C   UNL A   1      47.026  28.481  35.053  1.00  0.00     0.041 A 
ATOM     93  F   UNL A   1      45.961  29.791  33.427  1.00  0.00    -0.206 F 
ATOM     94  C   UNL A   1      46.995  27.441  35.977  1.00  0.00     0.022 A 
BRANCH  91  95
ATOM     95  S   UNL A   1      45.725  25.389  37.376  1.00  0.00     0.124 S 
ATOM     96  O   UNL A   1      44.661  24.534  36.861  1.00  0.00    -0.237 OA
ATOM     97  O   UNL A   1      47.066  24.814  37.367  1.00  0.00    -0.237 OA
ATOM     98  O   UNL A   1      45.383  26.145  38.580  1.00  0.00    -0.744 OA
ENDBRANCH  91  95
ENDBRANCH  65  88
ENDBRANCH  39  40
ENDBRANCH  31  34
ENDBRANCH  29  30
ENDBRANCH   1  29
TORSDOF 17
ENDMDL
MODEL 2
REMARK VINA RESULT:     -12.7      2.415      3.161
REMARK SMILES CCc1ccc2c(CC(=O)NCCCNC(=O)c3ccc(-c4c5nc(c(-c6cc(S(=O)(=O)[O-])ccc6F)c6ccc([nH]6)c(-c6cc(S(=O)(=O)[O-])ccc6F)c6nc(c(-c7cc(S(=O)(=O)[O-])ccc7F)c7ccc4[nH]7)C=C6)C=C5)cc3)c(C(=O)c3cc(C)ccn3)[nH]c2c1
REMARK SMILES IDX 13 1 12 2 11 3 9 4 10 5 8 7 7 8 3 9 4 10 93 11 5 12 92 13
REMARK SMILES IDX 6 14 91 15 81 16 2 18 1 19 82 20 83 21 84 22 85 23 90 24
REMARK SMILES IDX 86 25 89 26 87 27 88 28 14 29 15 30 16 31 17 33 18 34 19 35
REMARK SMILES IDX 80 36 20 37 79 38 21 39 22 40 23 41 73 42 24 43 78 44 72 45
REMARK SMILES IDX 74 46 25 47 77 48 71 49 70 50 26 52 58 53 38 54 57 55 39 56
REMARK SMILES IDX 42 57 56 58 75 59 40 60 41 61 55 63 76 64 43 65 27 66 28 67
REMARK SMILES IDX 36 68 29 69 35 70 37 71 34 72 30 73 31 74 32 75 33 76 59 77
REMARK SMILES IDX 60 78 68 79 61 80 67 81 69 82 66 83 62 84 63 85 64 86 65 87
REMARK SMILES IDX 44 88 45 89 53 90 46 91 52 92 54 93 51 94 47 95 48 96 49 97
REMARK SMILES IDX 50 98
REMARK H PARENT 11 6 91 17 15 32 74 51 42 62
REMARK Flexibility Score: inf
ROOT
ATOM      1  C   UNL A   1      31.748  31.405  26.588  1.00  0.00     0.042 C 
ENDROOT
BRANCH   1   2
ATOM      2  C   UNL A   1      32.048  30.169  25.746  1.00  0.00     0.117 C 
BRANCH   2   3
ATOM      3  N   UNL A   1      31.567  28.941  26.347  1.00  0.00    -0.356 N 
ATOM      4  C   UNL A   1      32.205  27.745  26.520  1.00  0.00     0.224 C 
ATOM      5  O   UNL A   1      31.652  26.921  27.255  1.00  0.00    -0.275 OA
ATOM      6  H   UNL A   1      30.642  28.973  26.679  1.00  0.00     0.163 HD
BRANCH   4   7
ATOM      7  C   UNL A   1      33.594  27.494  25.946  1.00  0.00     0.138 C 
BRANCH   7   8
ATOM      8  C   UNL A   1      33.666  26.424  24.890  1.00  0.00    -0.002 A 
ATOM      9  C   UNL A   1      34.416  22.252  24.923  1.00  0.00    -0.046 A 
ATOM     10  C   UNL A   1      34.366  22.883  26.174  1.00  0.00     0.004 A 
ATOM     11  C   UNL A   1      34.226  23.017  23.762  1.00  0.00     0.030 A 
ATOM     12  C   UNL A   1      34.118  24.255  26.293  1.00  0.00     0.011 A 
ATOM     13  C   UNL A   1      33.972  24.391  23.902  1.00  0.00     0.046 A 
ATOM     14  C   UNL A   1      33.915  25.030  25.134  1.00  0.00     0.004 A 
ATOM     15  N   UNL A   1      33.755  25.350  22.944  1.00  0.00    -0.352 N 
ATOM     16  C   UNL A   1      33.448  26.567  23.518  1.00  0.00     0.093 A 
ATOM     17  H   UNL A   1      33.810  25.191  21.974  1.00  0.00     0.167 HD
BRANCH   9  18
ATOM     18  C   UNL A   1      34.698  20.764  24.898  1.00  0.00     0.032 C 
ATOM     19  C   UNL A   1      36.159  20.336  24.946  1.00  0.00     0.009 C 
ENDBRANCH   9  18
BRANCH  16  20
ATOM     20  C   UNL A   1      32.997  27.748  22.788  1.00  0.00     0.227 C 
ATOM     21  O   UNL A   1      33.761  28.525  22.217  1.00  0.00    -0.285 OA
BRANCH  20  22
ATOM     22  C   UNL A   1      31.552  28.093  22.806  1.00  0.00     0.113 A 
ATOM     23  C   UNL A   1      30.638  27.186  23.336  1.00  0.00     0.036 A 
ATOM     24  N   UNL A   1      31.214  29.297  22.284  1.00  0.00    -0.253 NA
ATOM     25  C   UNL A   1      29.286  27.532  23.330  1.00  0.00    -0.047 A 
ATOM     26  C   UNL A   1      29.905  29.617  22.315  1.00  0.00     0.112 A 
ATOM     27  C   UNL A   1      28.241  26.601  23.867  1.00  0.00     0.044 C 
ATOM     28  C   UNL A   1      28.918  28.779  22.815  1.00  0.00     0.023 A 
ENDBRANCH  20  22
ENDBRANCH  16  20
ENDBRANCH   7   8
ENDBRANCH   4   7
ENDBRANCH   2   3
ENDBRANCH   1   2
BRANCH   1  29
ATOM     29  C   UNL A   1      32.982  32.093  27.168  1.00  0.00     0.118 C 
BRANCH  29  30
ATOM     30  N   UNL A   1      32.725  33.470  27.568  1.00  0.00    -0.352 N 
ATOM     31  C   UNL A   1      33.284  34.235  28.562  1.00  0.00     0.251 C 
ATOM     32  H   UNL A   1      32.036  33.930  27.037  1.00  0.00     0.163 HD
ATOM     33  O   UNL A   1      32.772  35.320  28.832  1.00  0.00    -0.269 OA
BRANCH  31  34
ATOM     34  C   UNL A   1      34.468  33.769  29.320  1.00  0.00     0.039 A 
ATOM     35  C   UNL A   1      34.273  32.886  30.388  1.00  0.00     0.014 A 
ATOM     36  C   UNL A   1      35.756  34.223  29.025  1.00  0.00     0.014 A 
ATOM     37  C   UNL A   1      35.370  32.407  31.110  1.00  0.00     0.010 A 
ATOM     38  C   UNL A   1      36.856  33.695  29.703  1.00  0.00     0.010 A 
ATOM     39  C   UNL A   1      36.675  32.776  30.749  1.00  0.00    -0.014 A 
BRANCH  39  40
ATOM     40  C   UNL A   1      37.859  32.195  31.437  1.00  0.00     0.031 A 
ATOM     41  C   UNL A   1      38.659  31.100  30.787  1.00  0.00     0.074 A 
ATOM     42  C   UNL A   1      38.170  32.612  32.681  1.00  0.00     0.049 A 
ATOM     43  N   UNL A   1      39.666  30.413  31.266  1.00  0.00    -0.248 NA
ATOM     44  C   UNL A   1      38.256  30.708  29.429  1.00  0.00     0.031 C 
ATOM     45  C   UNL A   1      37.449  33.643  33.431  1.00  0.00     0.029 A 
ATOM     46  N   UNL A   1      39.165  32.214  33.539  1.00  0.00    -0.354 N 
ATOM     47  C   UNL A   1      40.010  29.500  30.274  1.00  0.00     0.074 A 
ATOM     48  C   UNL A   1      39.069  29.689  29.191  1.00  0.00     0.031 C 
ATOM     49  C   UNL A   1      38.034  33.806  34.628  1.00  0.00     0.029 A 
ATOM     50  C   UNL A   1      39.142  32.864  34.752  1.00  0.00     0.049 A 
ATOM     51  H   UNL A   1      39.832  31.528  33.309  1.00  0.00     0.167 HD
ATOM     52  C   UNL A   1      41.028  28.603  30.263  1.00  0.00     0.034 A 
ATOM     53  C   UNL A   1      39.912  32.707  35.847  1.00  0.00     0.034 A 
ATOM     54  C   UNL A   1      41.965  28.434  31.349  1.00  0.00     0.049 A 
ATOM     55  C   UNL A   1      41.017  31.685  35.822  1.00  0.00     0.074 A 
ATOM     56  C   UNL A   1      43.066  27.597  31.416  1.00  0.00     0.029 A 
ATOM     57  N   UNL A   1      41.907  29.106  32.563  1.00  0.00    -0.354 N 
ATOM     58  N   UNL A   1      41.358  30.861  34.857  1.00  0.00    -0.248 NA
ATOM     59  C   UNL A   1      41.847  31.577  37.028  1.00  0.00     0.031 C 
ATOM     60  C   UNL A   1      43.632  27.715  32.691  1.00  0.00     0.029 A 
ATOM     61  C   UNL A   1      42.930  28.679  33.396  1.00  0.00     0.049 A 
ATOM     62  H   UNL A   1      41.236  29.788  32.798  1.00  0.00     0.167 HD
ATOM     63  C   UNL A   1      42.458  30.154  35.336  1.00  0.00     0.074 A 
ATOM     64  C   UNL A   1      42.732  30.662  36.664  1.00  0.00     0.031 C 
ATOM     65  C   UNL A   1      43.179  29.177  34.729  1.00  0.00     0.034 A 
BRANCH  52  66
ATOM     66  C   UNL A   1      41.159  27.717  29.046  1.00  0.00     0.023 A 
ATOM     67  C   UNL A   1      42.153  27.937  28.077  1.00  0.00     0.031 A 
ATOM     68  C   UNL A   1      40.264  26.653  28.841  1.00  0.00     0.131 A 
ATOM     69  C   UNL A   1      42.182  27.155  26.911  1.00  0.00     0.055 A 
ATOM     70  C   UNL A   1      40.348  25.827  27.717  1.00  0.00     0.041 A 
ATOM     71  F   UNL A   1      39.283  26.403  29.721  1.00  0.00    -0.206 F 
ATOM     72  C   UNL A   1      41.301  26.085  26.736  1.00  0.00     0.022 A 
BRANCH  69  73
ATOM     73  S   UNL A   1      43.296  27.645  25.567  1.00  0.00     0.124 S 
ATOM     74  O   UNL A   1      44.062  26.418  25.359  1.00  0.00    -0.237 OA
ATOM     75  O   UNL A   1      42.366  28.007  24.503  1.00  0.00    -0.237 OA
ATOM     76  O   UNL A   1      44.054  28.756  26.137  1.00  0.00    -0.744 OA
ENDBRANCH  69  73
ENDBRANCH  52  66
BRANCH  53  77
ATOM     77  C   UNL A   1      39.657  33.522  37.069  1.00  0.00     0.023 A 
ATOM     78  C   UNL A   1      39.021  32.965  38.189  1.00  0.00     0.031 A 
ATOM     79  C   UNL A   1      40.013  34.882  37.118  1.00  0.00     0.131 A 
ATOM     80  C   UNL A   1      38.722  33.774  39.296  1.00  0.00     0.055 A 
ATOM     81  C   UNL A   1      39.758  35.670  38.242  1.00  0.00     0.041 A 
ATOM     82  F   UNL A   1      40.629  35.462  36.075  1.00  0.00    -0.206 F 
ATOM     83  C   UNL A   1      39.097  35.120  39.335  1.00  0.00     0.022 A 
BRANCH  80  84
ATOM     84  S   UNL A   1      37.762  33.061  40.659  1.00  0.00     0.124 S 
ATOM     85  O   UNL A   1      36.444  32.917  40.051  1.00  0.00    -0.237 OA
ATOM     86  O   UNL A   1      38.487  31.822  40.923  1.00  0.00    -0.237 OA
ATOM     87  O   UNL A   1      37.858  34.072  41.709  1.00  0.00    -0.744 OA
ENDBRANCH  80  84
ENDBRANCH  53  77
BRANCH  65  88
ATOM     88  C   UNL A   1      44.354  28.621  35.496  1.00  0.00     0.023 A 
ATOM     89  C   UNL A   1      44.191  27.619  36.469  1.00  0.00     0.031 A 
ATOM     90  C   UNL A   1      45.649  29.116  35.266  1.00  0.00     0.131 A 
ATOM     91  C   UNL A   1      45.296  27.183  37.215  1.00  0.00     0.055 A 
ATOM     92  C   UNL A   1      46.754  28.637  35.971  1.00  0.00     0.041 A 
ATOM     93  F   UNL A   1      45.861  30.076  34.351  1.00  0.00    -0.206 F 
ATOM     94  C   UNL A   1      46.580  27.674  36.961  1.00  0.00     0.022 A 
BRANCH  91  95
ATOM     95  S   UNL A   1      45.021  26.027  38.585  1.00  0.00     0.124 S 
ATOM     96  O   UNL A   1      46.233  26.201  39.378  1.00  0.00    -0.237 OA
ATOM     97  O   UNL A   1      43.790  26.536  39.181  1.00  0.00    -0.237 OA
ATOM     98  O   UNL A   1      44.896  24.731  37.920  1.00  0.00    -0.744 OA
ENDBRANCH  91  95
ENDBRANCH  65  88
ENDBRANCH  39  40
ENDBRANCH  31  34
ENDBRANCH  29  30
ENDBRANCH   1  29
TORSDOF 17
ENDMDL
MODEL 3
REMARK VINA RESULT:     -12.6      1.387      7.458
REMARK SMILES CCc1ccc2c(CC(=O)NCCCNC(=O)c3ccc(-c4c5nc(c(-c6cc(S(=O)(=O)[O-])ccc6F)c6ccc([nH]6)c(-c6cc(S(=O)(=O)[O-])ccc6F)c6nc(c(-c7cc(S(=O)(=O)[O-])ccc7F)c7ccc4[nH]7)C=C6)C=C5)cc3)c(C(=O)c3cc(C)ccn3)[nH]c2c1
REMARK SMILES IDX 13 1 12 2 11 3 9 4 10 5 8 7 7 8 3 9 4 10 93 11 5 12 92 13
REMARK SMILES IDX 6 14 91 15 81 16 2 18 1 19 82 20 83 21 84 22 85 23 90 24
REMARK SMILES IDX 86 25 89 26 87 27 88 28 14 29 15 30 16 31 17 33 18 34 19 35
REMARK SMILES IDX 80 36 20 37 79 38 21 39 22 40 23 41 73 42 24 43 78 44 72 45
REMARK SMILES IDX 74 46 25 47 77 48 71 49 70 50 26 52 58 53 38 54 57 55 39 56
REMARK SMILES IDX 42 57 56 58 75 59 40 60 41 61 55 63 76 64 43 65 27 66 28 67
REMARK SMILES IDX 36 68 29 69 35 70 37 71 34 72 30 73 31 74 32 75 33 76 59 77
REMARK SMILES IDX 60 78 68 79 61 80 67 81 69 82 66 83 62 84 63 85 64 86 65 87
REMARK SMILES IDX 44 88 45 89 53 90 46 91 52 92 54 93 51 94 47 95 48 96 49 97
REMARK SMILES IDX 50 98
REMARK H PARENT 11 6 91 17 15 32 74 51 42 62
REMARK Flexibility Score: inf
ROOT
ATOM      1  C   UNL A   1      32.945  29.330  24.931  1.00  0.00     0.042 C 
ENDROOT
BRANCH   1   2
ATOM      2  C   UNL A   1      33.617  27.961  24.947  1.00  0.00     0.117 C 
BRANCH   2   3
ATOM      3  N   UNL A   1      32.886  26.977  25.721  1.00  0.00    -0.356 N 
ATOM      4  C   UNL A   1      33.045  25.622  25.785  1.00  0.00     0.224 C 
ATOM      5  O   UNL A   1      32.439  25.032  26.685  1.00  0.00    -0.275 OA
ATOM      6  H   UNL A   1      32.166  27.341  26.284  1.00  0.00     0.163 HD
BRANCH   4   7
ATOM      7  C   UNL A   1      34.029  24.893  24.879  1.00  0.00     0.138 C 
BRANCH   7   8
ATOM      8  C   UNL A   1      33.414  23.882  23.948  1.00  0.00    -0.002 A 
ATOM      9  C   UNL A   1      32.766  19.696  24.104  1.00  0.00    -0.046 A 
ATOM     10  C   UNL A   1      33.325  20.280  25.249  1.00  0.00     0.004 A 
ATOM     11  C   UNL A   1      32.468  20.507  22.998  1.00  0.00     0.030 A 
ATOM     12  C   UNL A   1      33.578  21.655  25.322  1.00  0.00     0.011 A 
ATOM     13  C   UNL A   1      32.723  21.885  23.092  1.00  0.00     0.046 A 
ATOM     14  C   UNL A   1      33.271  22.479  24.221  1.00  0.00     0.004 A 
ATOM     15  N   UNL A   1      32.527  22.883  22.170  1.00  0.00    -0.352 N 
ATOM     16  C   UNL A   1      32.824  24.120  22.704  1.00  0.00     0.093 A 
ATOM     17  H   UNL A   1      32.214  22.736  21.248  1.00  0.00     0.167 HD
BRANCH   9  18
ATOM     18  C   UNL A   1      32.537  18.199  24.121  1.00  0.00     0.032 C 
ATOM     19  C   UNL A   1      33.771  17.311  24.214  1.00  0.00     0.009 C 
ENDBRANCH   9  18
BRANCH  16  20
ATOM     20  C   UNL A   1      32.563  25.400  22.053  1.00  0.00     0.227 C 
ATOM     21  O   UNL A   1      33.275  25.866  21.165  1.00  0.00    -0.285 OA
BRANCH  20  22
ATOM     22  C   UNL A   1      31.435  26.235  22.539  1.00  0.00     0.113 A 
ATOM     23  C   UNL A   1      31.283  27.531  22.054  1.00  0.00     0.036 A 
ATOM     24  N   UNL A   1      30.612  25.661  23.450  1.00  0.00    -0.253 NA
ATOM     25  C   UNL A   1      30.220  28.296  22.536  1.00  0.00    -0.047 A 
ATOM     26  C   UNL A   1      29.578  26.413  23.879  1.00  0.00     0.112 A 
ATOM     27  C   UNL A   1      30.002  29.705  22.075  1.00  0.00     0.044 C 
ATOM     28  C   UNL A   1      29.347  27.717  23.462  1.00  0.00     0.023 A 
ENDBRANCH  20  22
ENDBRANCH  16  20
ENDBRANCH   7   8
ENDBRANCH   4   7
ENDBRANCH   2   3
ENDBRANCH   1   2
BRANCH   1  29
ATOM     29  C   UNL A   1      32.289  29.731  26.250  1.00  0.00     0.118 C 
BRANCH  29  30
ATOM     30  N   UNL A   1      32.293  31.171  26.468  1.00  0.00    -0.352 N 
ATOM     31  C   UNL A   1      33.113  31.961  27.235  1.00  0.00     0.251 C 
ATOM     32  H   UNL A   1      31.590  31.661  25.984  1.00  0.00     0.163 HD
ATOM     33  O   UNL A   1      32.806  33.139  27.409  1.00  0.00    -0.269 OA
BRANCH  31  34
ATOM     34  C   UNL A   1      34.337  31.417  27.867  1.00  0.00     0.039 A 
ATOM     35  C   UNL A   1      35.412  32.282  28.097  1.00  0.00     0.014 A 
ATOM     36  C   UNL A   1      34.457  30.063  28.192  1.00  0.00     0.014 A 
ATOM     37  C   UNL A   1      36.573  31.808  28.715  1.00  0.00     0.010 A 
ATOM     38  C   UNL A   1      35.590  29.604  28.867  1.00  0.00     0.010 A 
ATOM     39  C   UNL A   1      36.657  30.473  29.141  1.00  0.00    -0.014 A 
BRANCH  39  40
ATOM     40  C   UNL A   1      37.842  29.978  29.892  1.00  0.00     0.031 A 
ATOM     41  C   UNL A   1      38.109  30.451  31.295  1.00  0.00     0.074 A 
ATOM     42  C   UNL A   1      38.713  29.150  29.281  1.00  0.00     0.049 A 
ATOM     43  N   UNL A   1      39.131  30.199  32.074  1.00  0.00    -0.248 NA
ATOM     44  C   UNL A   1      37.107  31.348  31.889  1.00  0.00     0.031 C 
ATOM     45  C   UNL A   1      38.582  28.649  27.911  1.00  0.00     0.029 A 
ATOM     46  N   UNL A   1      39.887  28.594  29.726  1.00  0.00    -0.354 N 
ATOM     47  C   UNL A   1      38.902  30.913  33.245  1.00  0.00     0.074 A 
ATOM     48  C   UNL A   1      37.670  31.649  33.050  1.00  0.00     0.031 C 
ATOM     49  C   UNL A   1      39.623  27.848  27.634  1.00  0.00     0.029 A 
ATOM     50  C   UNL A   1      40.520  27.814  28.785  1.00  0.00     0.049 A 
ATOM     51  H   UNL A   1      40.243  28.741  30.631  1.00  0.00     0.167 HD
ATOM     52  C   UNL A   1      39.641  30.938  34.383  1.00  0.00     0.034 A 
ATOM     53  C   UNL A   1      41.697  27.159  28.836  1.00  0.00     0.034 A 
ATOM     54  C   UNL A   1      40.863  30.190  34.566  1.00  0.00     0.049 A 
ATOM     55  C   UNL A   1      42.514  27.224  30.099  1.00  0.00     0.074 A 
ATOM     56  C   UNL A   1      41.657  30.097  35.697  1.00  0.00     0.029 A 
ATOM     57  N   UNL A   1      41.476  29.414  33.590  1.00  0.00    -0.354 N 
ATOM     58  N   UNL A   1      42.260  27.867  31.215  1.00  0.00    -0.248 NA
ATOM     59  C   UNL A   1      43.772  26.467  30.113  1.00  0.00     0.031 C 
ATOM     60  C   UNL A   1      42.780  29.321  35.384  1.00  0.00     0.029 A 
ATOM     61  C   UNL A   1      42.653  28.868  34.081  1.00  0.00     0.049 A 
ATOM     62  H   UNL A   1      41.125  29.272  32.681  1.00  0.00     0.167 HD
ATOM     63  C   UNL A   1      43.317  27.572  32.071  1.00  0.00     0.074 A 
ATOM     64  C   UNL A   1      44.200  26.679  31.348  1.00  0.00     0.031 C 
ATOM     65  C   UNL A   1      43.536  27.997  33.342  1.00  0.00     0.034 A 
BRANCH  52  66
ATOM     66  C   UNL A   1      39.158  31.825  35.506  1.00  0.00     0.023 A 
ATOM     67  C   UNL A   1      38.522  31.297  36.643  1.00  0.00     0.031 A 
ATOM     68  C   UNL A   1      39.314  33.220  35.429  1.00  0.00     0.131 A 
ATOM     69  C   UNL A   1      37.998  32.159  37.619  1.00  0.00     0.055 A 
ATOM     70  C   UNL A   1      38.862  34.068  36.443  1.00  0.00     0.041 A 
ATOM     71  F   UNL A   1      39.898  33.785  34.361  1.00  0.00    -0.206 F 
ATOM     72  C   UNL A   1      38.186  33.540  37.539  1.00  0.00     0.022 A 
BRANCH  69  73
ATOM     73  S   UNL A   1      36.949  31.458  38.921  1.00  0.00     0.124 S 
ATOM     74  O   UNL A   1      36.747  30.096  38.435  1.00  0.00    -0.237 OA
ATOM     75  O   UNL A   1      37.786  31.597  40.108  1.00  0.00    -0.237 OA
ATOM     76  O   UNL A   1      35.759  32.305  38.895  1.00  0.00    -0.744 OA
ENDBRANCH  69  73
ENDBRANCH  52  66
BRANCH  53  77
ATOM     77  C   UNL A   1      42.188  26.401  27.651  1.00  0.00     0.023 A 
ATOM     78  C   UNL A   1      41.857  25.049  27.470  1.00  0.00     0.031 A 
ATOM     79  C   UNL A   1      43.027  27.008  26.699  1.00  0.00     0.131 A 
ATOM     80  C   UNL A   1      42.396  24.336  26.388  1.00  0.00     0.055 A 
ATOM     81  C   UNL A   1      43.521  26.308  25.597  1.00  0.00     0.041 A 
ATOM     82  F   UNL A   1      43.369  28.301  26.821  1.00  0.00    -0.206 F 
ATOM     83  C   UNL A   1      43.215  24.959  25.444  1.00  0.00     0.022 A 
BRANCH  80  84
ATOM     84  S   UNL A   1      42.073  22.555  26.275  1.00  0.00     0.124 S 
ATOM     85  O   UNL A   1      42.767  22.051  27.454  1.00  0.00    -0.237 OA
ATOM     86  O   UNL A   1      40.615  22.509  26.318  1.00  0.00    -0.237 OA
ATOM     87  O   UNL A   1      42.668  22.183  24.993  1.00  0.00    -0.744 OA
ENDBRANCH  80  84
ENDBRANCH  53  77
BRANCH  65  88
ATOM     88  C   UNL A   1      44.769  27.468  34.034  1.00  0.00     0.023 A 
ATOM     89  C   UNL A   1      44.744  26.271  34.771  1.00  0.00     0.031 A 
ATOM     90  C   UNL A   1      45.977  28.183  33.973  1.00  0.00     0.131 A 
ATOM     91  C   UNL A   1      45.890  25.853  35.463  1.00  0.00     0.055 A 
ATOM     92  C   UNL A   1      47.130  27.732  34.617  1.00  0.00     0.041 A 
ATOM     93  F   UNL A   1      46.056  29.335  33.287  1.00  0.00    -0.206 F 
ATOM     94  C   UNL A   1      47.088  26.568  35.378  1.00  0.00     0.022 A 
BRANCH  91  95
ATOM     95  S   UNL A   1      45.771  24.407  36.552  1.00  0.00     0.124 S 
ATOM     96  O   UNL A   1      44.720  23.626  35.906  1.00  0.00    -0.237 OA
ATOM     97  O   UNL A   1      47.117  23.848  36.478  1.00  0.00    -0.237 OA
ATOM     98  O   UNL A   1      45.408  24.980  37.847  1.00  0.00    -0.744 OA
ENDBRANCH  91  95
ENDBRANCH  65  88
ENDBRANCH  39  40
ENDBRANCH  31  34
ENDBRANCH  29  30
ENDBRANCH   1  29
TORSDOF 17
ENDMDL
