MODEL 1
REMARK VINA RESULT:     -13.2      0.000      0.000
REMARK SMILES O=C(NCCCNC(=O)c1nccnc1C(=O)Nc1n[nH]c2ncccc12)c1ccc(-c2c3nc(c(-c4cc(S(=O)(=O)[O-])ccc4F)c4ccc([nH]4)c(-c4cc(S(=O)(=O)[O-])ccc4F)c4nc(c(-c5cc(S(=O)(=O)[O-])ccc5F)c5ccc2[nH]5)C=C4)C=C3)cc1
REMARK SMILES IDX 4 1 3 2 1 3 2 4 28 6 29 7 90 8 30 9 89 10 31 11 32 12 33 13
REMARK SMILES IDX 83 14 34 15 88 16 82 17 84 18 35 19 87 20 81 21 80 22 36 24
REMARK SMILES IDX 68 25 48 26 67 27 49 28 52 29 66 30 85 31 50 32 51 33 65 35
REMARK SMILES IDX 86 36 53 37 37 38 38 39 46 40 39 41 45 42 47 43 44 44 40 45
REMARK SMILES IDX 41 46 42 47 43 48 69 49 70 50 78 51 71 52 77 53 79 54 76 55
REMARK SMILES IDX 72 56 73 57 74 58 75 59 54 60 55 61 63 62 56 63 62 64 64 65
REMARK SMILES IDX 61 66 57 67 58 68 59 69 60 70 5 71 6 72 7 73 8 74 9 76 10 77
REMARK SMILES IDX 11 78 15 79 12 80 14 81 13 82 16 83 17 84 18 85 19 87 20 88
REMARK SMILES IDX 27 89 21 90 22 91 26 92 23 94 25 95 24 96
REMARK H PARENT 3 5 84 23 52 34 7 75 18 86 21 93
REMARK Flexibility Score: inf
ROOT
ATOM      1  C   UNL A   1      33.835  28.903  24.989  1.00  0.00     0.118 C 
ENDROOT
BRANCH   1   2
ATOM      2  N   UNL A   1      33.187  30.087  25.548  1.00  0.00    -0.352 N 
ATOM      3  O   UNL A   1      32.432  31.523  27.095  1.00  0.00    -0.269 OA
ATOM      4  C   UNL A   1      33.324  30.759  26.730  1.00  0.00     0.251 C 
ATOM      5  H   UNL A   1      32.511  30.481  24.951  1.00  0.00     0.163 HD
BRANCH   4   6
ATOM      6  C   UNL A   1      34.515  30.552  27.579  1.00  0.00     0.039 A 
ATOM      7  C   UNL A   1      34.656  29.397  28.344  1.00  0.00     0.014 A 
ATOM      8  C   UNL A   1      35.536  31.509  27.575  1.00  0.00     0.014 A 
ATOM      9  C   UNL A   1      35.706  29.278  29.237  1.00  0.00     0.010 A 
ATOM     10  C   UNL A   1      36.679  31.307  28.352  1.00  0.00     0.010 A 
ATOM     11  C   UNL A   1      36.764  30.193  29.200  1.00  0.00    -0.014 A 
BRANCH  11  12
ATOM     12  C   UNL A   1      37.993  29.875  29.966  1.00  0.00     0.031 A 
ATOM     13  C   UNL A   1      38.231  30.453  31.326  1.00  0.00     0.074 A 
ATOM     14  C   UNL A   1      38.881  29.025  29.410  1.00  0.00     0.049 A 
ATOM     15  N   UNL A   1      39.256  30.284  32.119  1.00  0.00    -0.248 NA
ATOM     16  C   UNL A   1      37.195  31.346  31.861  1.00  0.00     0.031 C 
ATOM     17  C   UNL A   1      38.740  28.410  28.085  1.00  0.00     0.029 A 
ATOM     18  N   UNL A   1      40.060  28.513  29.883  1.00  0.00    -0.354 N 
ATOM     19  C   UNL A   1      39.002  31.062  33.242  1.00  0.00     0.074 A 
ATOM     20  C   UNL A   1      37.741  31.735  33.005  1.00  0.00     0.031 C 
ATOM     21  C   UNL A   1      39.754  27.563  27.879  1.00  0.00     0.029 A 
ATOM     22  C   UNL A   1      40.677  27.658  29.000  1.00  0.00     0.049 A 
ATOM     23  H   UNL A   1      40.429  28.733  30.769  1.00  0.00     0.167 HD
ATOM     24  C   UNL A   1      39.755  31.193  34.362  1.00  0.00     0.034 A 
ATOM     25  C   UNL A   1      41.879  27.053  29.056  1.00  0.00     0.034 A 
ATOM     26  C   UNL A   1      41.019  30.519  34.554  1.00  0.00     0.049 A 
ATOM     27  C   UNL A   1      42.728  27.277  30.274  1.00  0.00     0.074 A 
ATOM     28  C   UNL A   1      41.854  30.556  35.657  1.00  0.00     0.029 A 
ATOM     29  N   UNL A   1      41.644  29.705  33.614  1.00  0.00    -0.354 N 
ATOM     30  N   UNL A   1      42.464  27.999  31.339  1.00  0.00    -0.248 NA
ATOM     31  C   UNL A   1      44.032  26.609  30.302  1.00  0.00     0.031 C 
ATOM     32  C   UNL A   1      43.023  29.855  35.345  1.00  0.00     0.029 A 
ATOM     33  C   UNL A   1      42.874  29.280  34.093  1.00  0.00     0.049 A 
ATOM     34  H   UNL A   1      41.267  29.467  32.736  1.00  0.00     0.167 HD
ATOM     35  C   UNL A   1      43.564  27.851  32.177  1.00  0.00     0.074 A 
ATOM     36  C   UNL A   1      44.481  26.957  31.499  1.00  0.00     0.031 C 
ATOM     37  C   UNL A   1      43.788  28.400  33.398  1.00  0.00     0.034 A 
BRANCH  24  38
ATOM     38  C   UNL A   1      39.264  32.149  35.424  1.00  0.00     0.023 A 
ATOM     39  C   UNL A   1      39.655  33.499  35.447  1.00  0.00     0.031 A 
ATOM     40  C   UNL A   1      38.422  31.693  36.455  1.00  0.00     0.131 A 
ATOM     41  C   UNL A   1      39.285  34.317  36.526  1.00  0.00     0.055 A 
ATOM     42  C   UNL A   1      37.974  32.539  37.471  1.00  0.00     0.041 A 
ATOM     43  F   UNL A   1      38.036  30.408  36.504  1.00  0.00    -0.206 F 
ATOM     44  C   UNL A   1      38.421  33.855  37.522  1.00  0.00     0.022 A 
BRANCH  41  45
ATOM     45  S   UNL A   1      40.099  35.928  36.707  1.00  0.00     0.124 S 
ATOM     46  O   UNL A   1      39.736  36.586  35.453  1.00  0.00    -0.237 OA
ATOM     47  O   UNL A   1      39.474  36.465  37.911  1.00  0.00    -0.237 OA
ATOM     48  O   UNL A   1      41.514  35.588  36.834  1.00  0.00    -0.744 OA
ENDBRANCH  41  45
ENDBRANCH  24  38
BRANCH  25  49
ATOM     49  C   UNL A   1      42.363  26.247  27.899  1.00  0.00     0.023 A 
ATOM     50  C   UNL A   1      41.921  24.934  27.685  1.00  0.00     0.031 A 
ATOM     51  C   UNL A   1      43.299  26.784  26.994  1.00  0.00     0.131 A 
ATOM     52  C   UNL A   1      42.447  24.189  26.618  1.00  0.00     0.055 A 
ATOM     53  C   UNL A   1      43.764  26.063  25.894  1.00  0.00     0.041 A 
ATOM     54  F   UNL A   1      43.758  28.036  27.153  1.00  0.00    -0.206 F 
ATOM     55  C   UNL A   1      43.348  24.751  25.710  1.00  0.00     0.022 A 
BRANCH  52  56
ATOM     56  S   UNL A   1      42.015  22.433  26.494  1.00  0.00     0.124 S 
ATOM     57  O   UNL A   1      42.647  21.887  27.690  1.00  0.00    -0.237 OA
ATOM     58  O   UNL A   1      40.557  22.477  26.501  1.00  0.00    -0.237 OA
ATOM     59  O   UNL A   1      42.619  22.023  25.226  1.00  0.00    -0.744 OA
ENDBRANCH  52  56
ENDBRANCH  25  49
BRANCH  37  60
ATOM     60  C   UNL A   1      45.064  28.002  34.103  1.00  0.00     0.023 A 
ATOM     61  C   UNL A   1      45.124  26.892  34.963  1.00  0.00     0.031 A 
ATOM     62  C   UNL A   1      46.237  28.754  33.911  1.00  0.00     0.131 A 
ATOM     63  C   UNL A   1      46.316  26.602  35.643  1.00  0.00     0.055 A 
ATOM     64  C   UNL A   1      47.439  28.412  34.527  1.00  0.00     0.041 A 
ATOM     65  F   UNL A   1      46.234  29.832  33.110  1.00  0.00    -0.206 F 
ATOM     66  C   UNL A   1      47.481  27.339  35.411  1.00  0.00     0.022 A 
BRANCH  63  67
ATOM     67  S   UNL A   1      46.295  25.320  36.926  1.00  0.00     0.124 S 
ATOM     68  O   UNL A   1      46.196  24.101  36.129  1.00  0.00    -0.237 OA
ATOM     69  O   UNL A   1      47.567  25.536  37.606  1.00  0.00    -0.237 OA
ATOM     70  O   UNL A   1      45.107  25.643  37.714  1.00  0.00    -0.744 OA
ENDBRANCH  63  67
ENDBRANCH  37  60
ENDBRANCH  11  12
ENDBRANCH   4   6
ENDBRANCH   1   2
BRANCH   1  71
ATOM     71  C   UNL A   1      33.414  27.388  25.680  1.00  0.00     0.042 C 
BRANCH  71  72
ATOM     72  C   UNL A   1      31.487  26.482  26.234  1.00  0.00     0.118 C 
BRANCH  72  73
ATOM     73  N   UNL A   1      31.102  25.004  26.766  1.00  0.00    -0.351 N 
ATOM     74  C   UNL A   1      31.633  23.775  26.427  1.00  0.00     0.272 C 
ATOM     75  H   UNL A   1      30.379  24.976  27.434  1.00  0.00     0.163 HD
ATOM     76  O   UNL A   1      31.102  22.723  26.762  1.00  0.00    -0.267 OA
BRANCH  74  77
ATOM     77  C   UNL A   1      32.898  23.784  25.674  1.00  0.00     0.159 A 
ATOM     78  N   UNL A   1      33.984  24.012  26.487  1.00  0.00    -0.247 NA
ATOM     79  C   UNL A   1      32.991  23.702  24.290  1.00  0.00     0.159 A 
ATOM     80  C   UNL A   1      35.168  24.151  25.864  1.00  0.00     0.132 A 
ATOM     81  N   UNL A   1      34.212  23.848  23.683  1.00  0.00    -0.247 NA
ATOM     82  C   UNL A   1      35.278  24.073  24.491  1.00  0.00     0.132 A 
BRANCH  79  83
ATOM     83  C   UNL A   1      31.880  23.391  23.334  1.00  0.00     0.277 C 
ATOM     84  O   UNL A   1      31.679  22.203  23.062  1.00  0.00    -0.267 OA
ATOM     85  N   UNL A   1      31.039  24.325  22.772  1.00  0.00    -0.303 N 
ATOM     86  H   UNL A   1      30.280  23.951  22.270  1.00  0.00     0.172 HD
BRANCH  85  87
ATOM     87  C   UNL A   1      31.093  25.691  22.800  1.00  0.00     0.164 A 
ATOM     88  N   UNL A   1      32.239  26.285  22.419  1.00  0.00    -0.155 NA
ATOM     89  C   UNL A   1      30.048  26.595  23.069  1.00  0.00     0.063 A 
ATOM     90  N   UNL A   1      31.975  27.564  22.027  1.00  0.00    -0.259 N 
ATOM     91  C   UNL A   1      30.711  28.001  22.301  1.00  0.00     0.157 A 
ATOM     92  C   UNL A   1      28.384  26.693  23.725  1.00  0.00     0.017 A 
ATOM     93  H   UNL A   1      32.645  28.130  21.580  1.00  0.00     0.192 HD
ATOM     94  N   UNL A   1      29.811  29.459  22.000  1.00  0.00    -0.237 NA
ATOM     95  C   UNL A   1      27.405  28.166  23.515  1.00  0.00     0.021 A 
ATOM     96  C   UNL A   1      28.159  29.525  22.695  1.00  0.00     0.113 A 
ENDBRANCH  85  87
ENDBRANCH  79  83
ENDBRANCH  74  77
ENDBRANCH  72  73
ENDBRANCH  71  72
ENDBRANCH   1  71
TORSDOF 15
ENDMDL
MODEL 2
REMARK VINA RESULT:     -13.2      4.470      9.017
REMARK SMILES O=C(NCCCNC(=O)c1nccnc1C(=O)Nc1n[nH]c2ncccc12)c1ccc(-c2c3nc(c(-c4cc(S(=O)(=O)[O-])ccc4F)c4ccc([nH]4)c(-c4cc(S(=O)(=O)[O-])ccc4F)c4nc(c(-c5cc(S(=O)(=O)[O-])ccc5F)c5ccc2[nH]5)C=C4)C=C3)cc1
REMARK SMILES IDX 4 1 3 2 1 3 2 4 28 6 29 7 90 8 30 9 89 10 31 11 32 12 33 13
REMARK SMILES IDX 83 14 34 15 88 16 82 17 84 18 35 19 87 20 81 21 80 22 36 24
REMARK SMILES IDX 68 25 48 26 67 27 49 28 52 29 66 30 85 31 50 32 51 33 65 35
REMARK SMILES IDX 86 36 53 37 37 38 38 39 46 40 39 41 45 42 47 43 44 44 40 45
REMARK SMILES IDX 41 46 42 47 43 48 69 49 70 50 78 51 71 52 77 53 79 54 76 55
REMARK SMILES IDX 72 56 73 57 74 58 75 59 54 60 55 61 63 62 56 63 62 64 64 65
REMARK SMILES IDX 61 66 57 67 58 68 59 69 60 70 5 71 6 72 7 73 8 74 9 76 10 77
REMARK SMILES IDX 11 78 15 79 12 80 14 81 13 82 16 83 17 84 18 85 19 87 20 88
REMARK SMILES IDX 27 89 21 90 22 91 26 92 23 94 25 95 24 96
REMARK H PARENT 3 5 84 23 52 34 7 75 18 86 21 93
REMARK Flexibility Score: inf
ROOT
ATOM      1  C   UNL A   1      36.989  23.471  25.132  1.00  0.00     0.118 C 
ENDROOT
BRANCH   1   2
ATOM      2  N   UNL A   1      37.909  22.564  25.814  1.00  0.00    -0.352 N 
ATOM      3  O   UNL A   1      39.828  21.794  26.680  1.00  0.00    -0.269 OA
ATOM      4  C   UNL A   1      39.083  22.753  26.487  1.00  0.00     0.251 C 
ATOM      5  H   UNL A   1      37.625  21.622  25.781  1.00  0.00     0.163 HD
BRANCH   4   6
ATOM      6  C   UNL A   1      39.473  24.099  26.956  1.00  0.00     0.039 A 
ATOM      7  C   UNL A   1      39.306  24.470  28.287  1.00  0.00     0.014 A 
ATOM      8  C   UNL A   1      40.062  24.995  26.056  1.00  0.00     0.014 A 
ATOM      9  C   UNL A   1      39.545  25.774  28.682  1.00  0.00     0.010 A 
ATOM     10  C   UNL A   1      40.461  26.259  26.497  1.00  0.00     0.010 A 
ATOM     11  C   UNL A   1      40.191  26.661  27.813  1.00  0.00    -0.014 A 
BRANCH  11  12
ATOM     12  C   UNL A   1      40.682  27.947  28.364  1.00  0.00     0.031 A 
ATOM     13  C   UNL A   1      42.147  28.227  28.494  1.00  0.00     0.074 A 
ATOM     14  C   UNL A   1      39.768  28.872  28.720  1.00  0.00     0.049 A 
ATOM     15  N   UNL A   1      42.738  29.294  28.965  1.00  0.00    -0.248 NA
ATOM     16  C   UNL A   1      43.069  27.172  28.053  1.00  0.00     0.031 C 
ATOM     17  C   UNL A   1      38.313  28.692  28.633  1.00  0.00     0.029 A 
ATOM     18  N   UNL A   1      39.910  30.145  29.204  1.00  0.00    -0.354 N 
ATOM     19  C   UNL A   1      44.102  29.035  28.897  1.00  0.00     0.074 A 
ATOM     20  C   UNL A   1      44.245  27.692  28.375  1.00  0.00     0.031 C 
ATOM     21  C   UNL A   1      37.703  29.828  28.990  1.00  0.00     0.029 A 
ATOM     22  C   UNL A   1      38.711  30.777  29.441  1.00  0.00     0.049 A 
ATOM     23  H   UNL A   1      40.784  30.568  29.365  1.00  0.00     0.167 HD
ATOM     24  C   UNL A   1      45.129  29.852  29.237  1.00  0.00     0.034 A 
ATOM     25  C   UNL A   1      38.442  31.968  30.007  1.00  0.00     0.034 A 
ATOM     26  C   UNL A   1      44.946  31.180  29.773  1.00  0.00     0.049 A 
ATOM     27  C   UNL A   1      39.598  32.820  30.447  1.00  0.00     0.074 A 
ATOM     28  C   UNL A   1      45.913  32.106  30.128  1.00  0.00     0.029 A 
ATOM     29  N   UNL A   1      43.717  31.768  30.056  1.00  0.00    -0.354 N 
ATOM     30  N   UNL A   1      40.884  32.572  30.355  1.00  0.00    -0.248 NA
ATOM     31  C   UNL A   1      39.271  34.109  31.064  1.00  0.00     0.031 C 
ATOM     32  C   UNL A   1      45.275  33.201  30.717  1.00  0.00     0.029 A 
ATOM     33  C   UNL A   1      43.904  33.018  30.627  1.00  0.00     0.049 A 
ATOM     34  H   UNL A   1      42.841  31.355  29.876  1.00  0.00     0.167 HD
ATOM     35  C   UNL A   1      41.522  33.689  30.883  1.00  0.00     0.074 A 
ATOM     36  C   UNL A   1      40.478  34.615  31.272  1.00  0.00     0.031 C 
ATOM     37  C   UNL A   1      42.851  33.926  31.026  1.00  0.00     0.034 A 
BRANCH  24  38
ATOM     38  C   UNL A   1      46.530  29.300  29.104  1.00  0.00     0.023 A 
ATOM     39  C   UNL A   1      47.207  29.277  27.872  1.00  0.00     0.031 A 
ATOM     40  C   UNL A   1      47.184  28.748  30.222  1.00  0.00     0.131 A 
ATOM     41  C   UNL A   1      48.449  28.633  27.767  1.00  0.00     0.055 A 
ATOM     42  C   UNL A   1      48.465  28.200  30.131  1.00  0.00     0.041 A 
ATOM     43  F   UNL A   1      46.580  28.714  31.420  1.00  0.00    -0.206 F 
ATOM     44  C   UNL A   1      49.097  28.122  28.894  1.00  0.00     0.022 A 
BRANCH  41  45
ATOM     45  S   UNL A   1      49.115  28.306  26.112  1.00  0.00     0.124 S 
ATOM     46  O   UNL A   1      50.144  29.339  25.998  1.00  0.00    -0.237 OA
ATOM     47  O   UNL A   1      49.600  26.936  26.230  1.00  0.00    -0.237 OA
ATOM     48  O   UNL A   1      47.962  28.489  25.234  1.00  0.00    -0.744 OA
ENDBRANCH  41  45
ENDBRANCH  24  38
BRANCH  25  49
ATOM     49  C   UNL A   1      37.029  32.378  30.246  1.00  0.00     0.023 A 
ATOM     50  C   UNL A   1      36.285  33.050  29.267  1.00  0.00     0.031 A 
ATOM     51  C   UNL A   1      36.406  32.114  31.482  1.00  0.00     0.131 A 
ATOM     52  C   UNL A   1      34.977  33.472  29.553  1.00  0.00     0.055 A 
ATOM     53  C   UNL A   1      35.082  32.472  31.736  1.00  0.00     0.041 A 
ATOM     54  F   UNL A   1      37.073  31.476  32.457  1.00  0.00    -0.206 F 
ATOM     55  C   UNL A   1      34.364  33.169  30.772  1.00  0.00     0.022 A 
BRANCH  52  56
ATOM     56  S   UNL A   1      34.121  34.518  28.346  1.00  0.00     0.124 S 
ATOM     57  O   UNL A   1      34.060  35.794  29.050  1.00  0.00    -0.237 OA
ATOM     58  O   UNL A   1      35.021  34.459  27.199  1.00  0.00    -0.237 OA
ATOM     59  O   UNL A   1      32.836  33.844  28.164  1.00  0.00    -0.744 OA
ENDBRANCH  52  56
ENDBRANCH  25  49
BRANCH  37  60
ATOM     60  C   UNL A   1      43.249  35.273  31.584  1.00  0.00     0.023 A 
ATOM     61  C   UNL A   1      43.545  36.366  30.752  1.00  0.00     0.031 A 
ATOM     62  C   UNL A   1      43.338  35.458  32.975  1.00  0.00     0.131 A 
ATOM     63  C   UNL A   1      43.972  37.576  31.318  1.00  0.00     0.055 A 
ATOM     64  C   UNL A   1      43.684  36.687  33.534  1.00  0.00     0.041 A 
ATOM     65  F   UNL A   1      43.079  34.444  33.818  1.00  0.00    -0.206 F 
ATOM     66  C   UNL A   1      44.018  37.752  32.703  1.00  0.00     0.022 A 
BRANCH  63  67
ATOM     67  S   UNL A   1      44.579  38.884  30.218  1.00  0.00     0.124 S 
ATOM     68  O   UNL A   1      43.519  38.950  29.217  1.00  0.00    -0.237 OA
ATOM     69  O   UNL A   1      44.680  40.028  31.117  1.00  0.00    -0.237 OA
ATOM     70  O   UNL A   1      45.856  38.360  29.734  1.00  0.00    -0.744 OA
ENDBRANCH  63  67
ENDBRANCH  37  60
ENDBRANCH  11  12
ENDBRANCH   4   6
ENDBRANCH   1   2
BRANCH   1  71
ATOM     71  C   UNL A   1      36.210  22.872  23.724  1.00  0.00     0.042 C 
BRANCH  71  72
ATOM     72  C   UNL A   1      34.093  22.672  23.158  1.00  0.00     0.118 C 
BRANCH  72  73
ATOM     73  N   UNL A   1      33.030  21.470  23.362  1.00  0.00    -0.351 N 
ATOM     74  C   UNL A   1      32.578  20.876  24.525  1.00  0.00     0.272 C 
ATOM     75  H   UNL A   1      32.648  21.105  22.532  1.00  0.00     0.163 HD
ATOM     76  O   UNL A   1      31.925  19.840  24.513  1.00  0.00    -0.267 OA
BRANCH  74  77
ATOM     77  C   UNL A   1      32.882  21.572  25.787  1.00  0.00     0.159 A 
ATOM     78  N   UNL A   1      34.158  21.309  26.230  1.00  0.00    -0.247 NA
ATOM     79  C   UNL A   1      31.960  22.306  26.523  1.00  0.00     0.159 A 
ATOM     80  C   UNL A   1      34.478  21.811  27.434  1.00  0.00     0.132 A 
ATOM     81  N   UNL A   1      32.318  22.806  27.749  1.00  0.00    -0.247 NA
ATOM     82  C   UNL A   1      33.576  22.543  28.179  1.00  0.00     0.132 A 
BRANCH  79  83
ATOM     83  C   UNL A   1      30.579  22.697  26.095  1.00  0.00     0.277 C 
ATOM     84  O   UNL A   1      29.629  22.141  26.656  1.00  0.00    -0.267 OA
ATOM     85  N   UNL A   1      30.288  23.662  25.157  1.00  0.00    -0.303 N 
ATOM     86  H   UNL A   1      29.335  23.895  25.083  1.00  0.00     0.172 HD
BRANCH  85  87
ATOM     87  C   UNL A   1      31.116  24.347  24.311  1.00  0.00     0.164 A 
ATOM     88  N   UNL A   1      30.982  24.135  22.989  1.00  0.00    -0.155 NA
ATOM     89  C   UNL A   1      32.038  25.362  24.632  1.00  0.00     0.063 A 
ATOM     90  N   UNL A   1      31.479  25.207  22.308  1.00  0.00    -0.259 N 
ATOM     91  C   UNL A   1      32.162  26.108  23.072  1.00  0.00     0.157 A 
ATOM     92  C   UNL A   1      32.885  26.132  26.010  1.00  0.00     0.017 A 
ATOM     93  H   UNL A   1      31.354  25.322  21.338  1.00  0.00     0.192 HD
ATOM     94  N   UNL A   1      32.942  27.637  22.786  1.00  0.00    -0.237 NA
ATOM     95  C   UNL A   1      33.758  27.670  25.800  1.00  0.00     0.021 A 
ATOM     96  C   UNL A   1      33.799  28.360  24.185  1.00  0.00     0.113 A 
ENDBRANCH  85  87
ENDBRANCH  79  83
ENDBRANCH  74  77
ENDBRANCH  72  73
ENDBRANCH  71  72
ENDBRANCH   1  71
TORSDOF 15
ENDMDL
MODEL 3
REMARK VINA RESULT:     -13.1      4.945      7.062
REMARK SMILES O=C(NCCCNC(=O)c1nccnc1C(=O)Nc1n[nH]c2ncccc12)c1ccc(-c2c3nc(c(-c4cc(S(=O)(=O)[O-])ccc4F)c4ccc([nH]4)c(-c4cc(S(=O)(=O)[O-])ccc4F)c4nc(c(-c5cc(S(=O)(=O)[O-])ccc5F)c5ccc2[nH]5)C=C4)C=C3)cc1
REMARK SMILES IDX 4 1 3 2 1 3 2 4 28 6 29 7 90 8 30 9 89 10 31 11 32 12 33 13
REMARK SMILES IDX 83 14 34 15 88 16 82 17 84 18 35 19 87 20 81 21 80 22 36 24
REMARK SMILES IDX 68 25 48 26 67 27 49 28 52 29 66 30 85 31 50 32 51 33 65 35
REMARK SMILES IDX 86 36 53 37 37 38 38 39 46 40 39 41 45 42 47 43 44 44 40 45
REMARK SMILES IDX 41 46 42 47 43 48 69 49 70 50 78 51 71 52 77 53 79 54 76 55
REMARK SMILES IDX 72 56 73 57 74 58 75 59 54 60 55 61 63 62 56 63 62 64 64 65
REMARK SMILES IDX 61 66 57 67 58 68 59 69 60 70 5 71 6 72 7 73 8 74 9 76 10 77
REMARK SMILES IDX 11 78 15 79 12 80 14 81 13 82 16 83 17 84 18 85 19 87 20 88
REMARK SMILES IDX 27 89 21 90 22 91 26 92 23 94 25 95 24 96
REMARK H PARENT 3 5 84 23 52 34 7 75 18 86 21 93
REMARK Flexibility Score: inf
ROOT
ATOM      1  C   UNL A   1      37.105  21.680  24.894  1.00  0.00     0.118 C 
ENDROOT
BRANCH   1   2
ATOM      2  N   UNL A   1      38.033  20.715  25.481  1.00  0.00    -0.352 N 
ATOM      3  O   UNL A   1      39.980  19.824  26.144  1.00  0.00    -0.269 OA
ATOM      4  C   UNL A   1      39.281  20.829  26.026  1.00  0.00     0.251 C 
ATOM      5  H   UNL A   1      37.689  19.793  25.482  1.00  0.00     0.163 HD
BRANCH   4   6
ATOM      6  C   UNL A   1      39.801  22.147  26.445  1.00  0.00     0.039 A 
ATOM      7  C   UNL A   1      41.024  22.258  27.101  1.00  0.00     0.014 A 
ATOM      8  C   UNL A   1      39.075  23.302  26.132  1.00  0.00     0.014 A 
ATOM      9  C   UNL A   1      41.433  23.478  27.608  1.00  0.00     0.010 A 
ATOM     10  C   UNL A   1      39.574  24.555  26.498  1.00  0.00     0.010 A 
ATOM     11  C   UNL A   1      40.752  24.649  27.252  1.00  0.00    -0.014 A 
BRANCH  11  12
ATOM     12  C   UNL A   1      41.381  25.951  27.578  1.00  0.00     0.031 A 
ATOM     13  C   UNL A   1      40.656  26.982  28.386  1.00  0.00     0.074 A 
ATOM     14  C   UNL A   1      42.640  26.170  27.145  1.00  0.00     0.049 A 
ATOM     15  N   UNL A   1      41.061  28.172  28.746  1.00  0.00    -0.248 NA
ATOM     16  C   UNL A   1      39.301  26.643  28.837  1.00  0.00     0.031 C 
ATOM     17  C   UNL A   1      43.430  25.226  26.346  1.00  0.00     0.029 A 
ATOM     18  N   UNL A   1      43.486  27.232  27.325  1.00  0.00    -0.354 N 
ATOM     19  C   UNL A   1      40.004  28.736  29.451  1.00  0.00     0.074 A 
ATOM     20  C   UNL A   1      38.927  27.767  29.431  1.00  0.00     0.031 C 
ATOM     21  C   UNL A   1      44.658  25.723  26.158  1.00  0.00     0.029 A 
ATOM     22  C   UNL A   1      44.709  27.065  26.720  1.00  0.00     0.049 A 
ATOM     23  H   UNL A   1      43.242  28.036  27.838  1.00  0.00     0.167 HD
ATOM     24  C   UNL A   1      39.951  29.947  30.058  1.00  0.00     0.034 A 
ATOM     25  C   UNL A   1      45.745  27.914  26.582  1.00  0.00     0.034 A 
ATOM     26  C   UNL A   1      41.041  30.895  30.040  1.00  0.00     0.049 A 
ATOM     27  C   UNL A   1      45.629  29.279  27.197  1.00  0.00     0.074 A 
ATOM     28  C   UNL A   1      41.108  32.139  30.642  1.00  0.00     0.029 A 
ATOM     29  N   UNL A   1      42.246  30.717  29.368  1.00  0.00    -0.354 N 
ATOM     30  N   UNL A   1      44.632  29.790  27.882  1.00  0.00    -0.248 NA
ATOM     31  C   UNL A   1      46.771  30.180  27.025  1.00  0.00     0.031 C 
ATOM     32  C   UNL A   1      42.302  32.752  30.250  1.00  0.00     0.029 A 
ATOM     33  C   UNL A   1      43.037  31.848  29.498  1.00  0.00     0.049 A 
ATOM     34  H   UNL A   1      42.499  29.905  28.871  1.00  0.00     0.167 HD
ATOM     35  C   UNL A   1      45.039  31.069  28.243  1.00  0.00     0.074 A 
ATOM     36  C   UNL A   1      46.378  31.240  27.716  1.00  0.00     0.031 C 
ATOM     37  C   UNL A   1      44.367  32.012  28.952  1.00  0.00     0.034 A 
BRANCH  24  38
ATOM     38  C   UNL A   1      38.651  30.334  30.725  1.00  0.00     0.023 A 
ATOM     39  C   UNL A   1      37.603  30.944  30.013  1.00  0.00     0.031 A 
ATOM     40  C   UNL A   1      38.473  30.129  32.106  1.00  0.00     0.131 A 
ATOM     41  C   UNL A   1      36.470  31.410  30.698  1.00  0.00     0.055 A 
ATOM     42  C   UNL A   1      37.300  30.503  32.762  1.00  0.00     0.041 A 
ATOM     43  F   UNL A   1      39.447  29.577  32.846  1.00  0.00    -0.206 F 
ATOM     44  C   UNL A   1      36.297  31.166  32.062  1.00  0.00     0.022 A 
BRANCH  41  45
ATOM     45  S   UNL A   1      35.319  32.502  29.818  1.00  0.00     0.124 S 
ATOM     46  O   UNL A   1      34.404  32.892  30.890  1.00  0.00    -0.237 OA
ATOM     47  O   UNL A   1      36.198  33.553  29.318  1.00  0.00    -0.237 OA
ATOM     48  O   UNL A   1      34.733  31.637  28.797  1.00  0.00    -0.744 OA
ENDBRANCH  41  45
ENDBRANCH  24  38
BRANCH  25  49
ATOM     49  C   UNL A   1      46.934  27.515  25.776  1.00  0.00     0.023 A 
ATOM     50  C   UNL A   1      47.074  27.900  24.436  1.00  0.00     0.031 A 
ATOM     51  C   UNL A   1      47.948  26.717  26.342  1.00  0.00     0.131 A 
ATOM     52  C   UNL A   1      48.179  27.454  23.694  1.00  0.00     0.055 A 
ATOM     53  C   UNL A   1      49.080  26.336  25.621  1.00  0.00     0.041 A 
ATOM     54  F   UNL A   1      47.864  26.316  27.621  1.00  0.00    -0.206 F 
ATOM     55  C   UNL A   1      49.192  26.693  24.283  1.00  0.00     0.022 A 
BRANCH  52  56
ATOM     56  S   UNL A   1      48.222  27.794  21.915  1.00  0.00     0.124 S 
ATOM     57  O   UNL A   1      48.448  26.463  21.364  1.00  0.00    -0.237 OA
ATOM     58  O   UNL A   1      46.901  28.369  21.683  1.00  0.00    -0.237 OA
ATOM     59  O   UNL A   1      49.340  28.726  21.774  1.00  0.00    -0.744 OA
ENDBRANCH  52  56
ENDBRANCH  25  49
BRANCH  37  60
ATOM     60  C   UNL A   1      45.100  33.300  29.243  1.00  0.00     0.023 A 
ATOM     61  C   UNL A   1      45.043  34.403  28.374  1.00  0.00     0.031 A 
ATOM     62  C   UNL A   1      45.875  33.419  30.411  1.00  0.00     0.131 A 
ATOM     63  C   UNL A   1      45.793  35.553  28.657  1.00  0.00     0.055 A 
ATOM     64  C   UNL A   1      46.553  34.595  30.728  1.00  0.00     0.041 A 
ATOM     65  F   UNL A   1      45.976  32.393  31.272  1.00  0.00    -0.206 F 
ATOM     66  C   UNL A   1      46.527  35.667  29.841  1.00  0.00     0.022 A 
BRANCH  63  67
ATOM     67  S   UNL A   1      45.892  36.859  27.402  1.00  0.00     0.124 S 
ATOM     68  O   UNL A   1      44.636  37.572  27.611  1.00  0.00    -0.237 OA
ATOM     69  O   UNL A   1      47.104  37.573  27.787  1.00  0.00    -0.237 OA
ATOM     70  O   UNL A   1      45.982  36.118  26.144  1.00  0.00    -0.744 OA
ENDBRANCH  63  67
ENDBRANCH  37  60
ENDBRANCH  11  12
ENDBRANCH   4   6
ENDBRANCH   1   2
BRANCH   1  71
ATOM     71  C   UNL A   1      35.488  21.650  25.469  1.00  0.00     0.042 C 
BRANCH  71  72
ATOM     72  C   UNL A   1      34.517  22.514  27.245  1.00  0.00     0.118 C 
BRANCH  72  73
ATOM     73  N   UNL A   1      32.960  22.717  27.632  1.00  0.00    -0.351 N 
ATOM     74  C   UNL A   1      31.896  23.116  26.846  1.00  0.00     0.272 C 
ATOM     75  H   UNL A   1      32.736  22.530  28.573  1.00  0.00     0.163 HD
ATOM     76  O   UNL A   1      30.812  23.421  27.326  1.00  0.00    -0.267 OA
BRANCH  74  77
ATOM     77  C   UNL A   1      32.113  23.117  25.389  1.00  0.00     0.159 A 
ATOM     78  N   UNL A   1      31.884  21.881  24.829  1.00  0.00    -0.247 NA
ATOM     79  C   UNL A   1      32.614  24.194  24.669  1.00  0.00     0.159 A 
ATOM     80  C   UNL A   1      32.170  21.765  23.521  1.00  0.00     0.132 A 
ATOM     81  N   UNL A   1      32.896  24.044  23.335  1.00  0.00    -0.247 NA
ATOM     82  C   UNL A   1      32.668  22.824  22.791  1.00  0.00     0.132 A 
BRANCH  79  83
ATOM     83  C   UNL A   1      32.831  25.588  25.175  1.00  0.00     0.277 C 
ATOM     84  O   UNL A   1      33.843  25.797  25.853  1.00  0.00    -0.267 OA
ATOM     85  N   UNL A   1      32.013  26.661  24.904  1.00  0.00    -0.303 N 
ATOM     86  H   UNL A   1      32.362  27.533  25.197  1.00  0.00     0.172 HD
BRANCH  85  87
ATOM     87  C   UNL A   1      30.791  26.706  24.289  1.00  0.00     0.164 A 
ATOM     88  N   UNL A   1      29.896  25.751  24.597  1.00  0.00    -0.155 NA
ATOM     89  C   UNL A   1      30.283  27.710  23.443  1.00  0.00     0.063 A 
ATOM     90  N   UNL A   1      28.639  26.206  24.324  1.00  0.00    -0.259 N 
ATOM     91  C   UNL A   1      28.591  27.382  23.633  1.00  0.00     0.157 A 
ATOM     92  C   UNL A   1      30.766  29.145  22.486  1.00  0.00     0.017 A 
ATOM     93  H   UNL A   1      27.828  25.722  24.604  1.00  0.00     0.192 HD
ATOM     94  N   UNL A   1      27.328  28.439  23.072  1.00  0.00    -0.237 NA
ATOM     95  C   UNL A   1      29.541  30.254  21.822  1.00  0.00     0.021 A 
ATOM     96  C   UNL A   1      27.854  29.849  22.097  1.00  0.00     0.113 A 
ENDBRANCH  85  87
ENDBRANCH  79  83
ENDBRANCH  74  77
ENDBRANCH  72  73
ENDBRANCH  71  72
ENDBRANCH   1  71
TORSDOF 15
ENDMDL
