MODEL 1
REMARK VINA RESULT:     -13.6      0.000      0.000
REMARK SMILES C[C@@H]1C(C(=O)NCCCNC(=O)c2ccc(-c3c4nc(c(-c5cc(S(=O)(=O)[O-])ccc5F)c5ccc([nH]5)c(-c5cc(S(=O)(=O)[O-])ccc5F)c5nc(c(-c6cc(S(=O)(=O)[O-])ccc6F)c6ccc3[nH]6)C=C5)C=C4)cc2)=NC2=C1C(=O)C[C@H](c1ccccc1)C2
REMARK SMILES IDX 9 1 8 2 7 3 6 4 4 5 5 6 3 8 1 9 2 10 78 11 76 12 77 13 79 14
REMARK SMILES IDX 89 15 80 16 81 17 82 18 83 19 84 20 88 21 85 22 87 23 86 24
REMARK SMILES IDX 10 25 11 26 12 28 13 29 14 30 75 31 15 32 74 33 16 34 17 35
REMARK SMILES IDX 18 36 68 37 19 38 73 39 67 40 69 41 20 42 72 43 66 44 65 45
REMARK SMILES IDX 21 47 53 48 33 49 52 50 34 51 37 52 51 53 70 54 35 55 36 56
REMARK SMILES IDX 50 58 71 59 38 60 22 61 23 62 31 63 24 64 30 65 32 66 29 67
REMARK SMILES IDX 25 68 26 69 27 70 28 71 54 72 55 73 63 74 56 75 62 76 64 77
REMARK SMILES IDX 61 78 57 79 58 80 59 81 60 82 39 83 40 84 48 85 41 86 47 87
REMARK SMILES IDX 49 88 46 89 42 90 43 91 44 92 45 93
REMARK H PARENT 6 7 10 27 69 46 37 57
REMARK Flexibility Score: inf
ROOT
ATOM      1  C   UNL A   1      35.239  29.305  27.489  1.00  0.00     0.118 C 
ENDROOT
BRANCH   1   2
ATOM      2  C   UNL A   1      33.792  29.211  27.050  1.00  0.00     0.042 C 
BRANCH   2   3
ATOM      3  C   UNL A   1      33.450  27.829  26.496  1.00  0.00     0.118 C 
BRANCH   3   4
ATOM      4  N   UNL A   1      34.026  27.502  25.201  1.00  0.00    -0.351 N 
ATOM      5  C   UNL A   1      33.418  27.541  23.956  1.00  0.00     0.266 C 
ATOM      6  O   UNL A   1      34.028  28.007  22.999  1.00  0.00    -0.268 OA
ATOM      7  H   UNL A   1      34.968  27.215  25.209  1.00  0.00     0.163 HD
BRANCH   5   8
ATOM      8  C   UNL A   1      32.108  26.800  23.698  1.00  0.00     0.113 C 
ATOM      9  C   UNL A   1      29.957  27.989  23.340  1.00  0.00     0.020 C 
ATOM     10  C   UNL A   1      30.790  27.166  24.323  1.00  0.00     0.076 C 
ATOM     11  C   UNL A   1      30.371  25.737  24.391  1.00  0.00     0.026 C 
ATOM     12  N   UNL A   1      32.061  25.727  22.944  1.00  0.00    -0.251 NA
ATOM     13  C   UNL A   1      30.972  25.034  23.428  1.00  0.00     0.049 C 
ATOM     14  C   UNL A   1      30.257  25.052  25.701  1.00  0.00     0.161 C 
ATOM     15  C   UNL A   1      30.981  23.536  23.490  1.00  0.00     0.065 C 
ATOM     16  O   UNL A   1      29.589  25.581  26.590  1.00  0.00    -0.294 OA
ATOM     17  C   UNL A   1      31.092  23.786  25.969  1.00  0.00     0.089 C 
ATOM     18  C   UNL A   1      31.791  23.124  24.735  1.00  0.00     0.033 C 
BRANCH  18  19
ATOM     19  C   UNL A   1      33.306  23.369  24.584  1.00  0.00    -0.044 A 
ATOM     20  C   UNL A   1      34.028  24.090  25.560  1.00  0.00     0.004 A 
ATOM     21  C   UNL A   1      34.036  22.915  23.477  1.00  0.00     0.004 A 
ATOM     22  C   UNL A   1      35.418  24.209  25.523  1.00  0.00     0.000 A 
ATOM     23  C   UNL A   1      35.431  23.058  23.420  1.00  0.00     0.000 A 
ATOM     24  C   UNL A   1      36.124  23.675  24.458  1.00  0.00     0.000 A 
ENDBRANCH  18  19
ENDBRANCH   5   8
ENDBRANCH   3   4
ENDBRANCH   2   3
ENDBRANCH   1   2
BRANCH   1  25
ATOM     25  N   UNL A   1      35.423  29.781  28.869  1.00  0.00    -0.352 N 
ATOM     26  C   UNL A   1      36.500  29.555  29.724  1.00  0.00     0.251 C 
ATOM     27  H   UNL A   1      34.692  30.330  29.234  1.00  0.00     0.163 HD
ATOM     28  O   UNL A   1      36.423  29.806  30.908  1.00  0.00    -0.269 OA
BRANCH  26  29
ATOM     29  C   UNL A   1      37.732  28.995  29.128  1.00  0.00     0.039 A 
ATOM     30  C   UNL A   1      38.372  29.562  28.025  1.00  0.00     0.014 A 
ATOM     31  C   UNL A   1      38.304  27.930  29.808  1.00  0.00     0.014 A 
ATOM     32  C   UNL A   1      39.641  29.089  27.688  1.00  0.00     0.010 A 
ATOM     33  C   UNL A   1      39.635  27.693  29.668  1.00  0.00     0.010 A 
ATOM     34  C   UNL A   1      40.276  28.170  28.542  1.00  0.00    -0.014 A 
BRANCH  34  35
ATOM     35  C   UNL A   1      41.653  27.737  28.368  1.00  0.00     0.031 A 
ATOM     36  C   UNL A   1      41.796  26.535  27.519  1.00  0.00     0.074 A 
ATOM     37  C   UNL A   1      42.714  28.490  28.745  1.00  0.00     0.049 A 
ATOM     38  N   UNL A   1      41.994  25.331  27.931  1.00  0.00    -0.248 NA
ATOM     39  C   UNL A   1      41.475  26.622  26.086  1.00  0.00     0.031 C 
ATOM     40  C   UNL A   1      42.733  29.840  29.325  1.00  0.00     0.029 A 
ATOM     41  N   UNL A   1      44.037  28.229  28.589  1.00  0.00    -0.354 N 
ATOM     42  C   UNL A   1      42.119  24.553  26.789  1.00  0.00     0.074 A 
ATOM     43  C   UNL A   1      41.546  25.336  25.726  1.00  0.00     0.031 C 
ATOM     44  C   UNL A   1      43.981  30.355  29.249  1.00  0.00     0.029 A 
ATOM     45  C   UNL A   1      44.884  29.321  28.776  1.00  0.00     0.049 A 
ATOM     46  H   UNL A   1      44.374  27.333  28.361  1.00  0.00     0.167 HD
ATOM     47  C   UNL A   1      42.925  23.456  26.789  1.00  0.00     0.034 A 
ATOM     48  C   UNL A   1      46.226  29.365  28.544  1.00  0.00     0.034 A 
ATOM     49  C   UNL A   1      43.355  23.143  28.139  1.00  0.00     0.049 A 
ATOM     50  C   UNL A   1      46.699  27.955  28.618  1.00  0.00     0.074 A 
ATOM     51  C   UNL A   1      42.695  22.849  29.318  1.00  0.00     0.029 A 
ATOM     52  N   UNL A   1      44.623  23.542  28.514  1.00  0.00    -0.354 N 
ATOM     53  N   UNL A   1      46.646  27.250  29.718  1.00  0.00    -0.248 NA
ATOM     54  C   UNL A   1      46.706  27.175  27.389  1.00  0.00     0.031 C 
ATOM     55  C   UNL A   1      43.402  23.579  30.320  1.00  0.00     0.029 A 
ATOM     56  C   UNL A   1      44.517  24.178  29.729  1.00  0.00     0.049 A 
ATOM     57  H   UNL A   1      45.452  23.397  28.004  1.00  0.00     0.167 HD
ATOM     58  C   UNL A   1      46.158  26.011  29.328  1.00  0.00     0.074 A 
ATOM     59  C   UNL A   1      46.299  25.995  27.869  1.00  0.00     0.031 C 
ATOM     60  C   UNL A   1      45.404  25.242  30.173  1.00  0.00     0.034 A 
BRANCH  47  61
ATOM     61  C   UNL A   1      43.644  22.883  25.589  1.00  0.00     0.023 A 
ATOM     62  C   UNL A   1      43.597  21.485  25.437  1.00  0.00     0.031 A 
ATOM     63  C   UNL A   1      44.577  23.560  24.775  1.00  0.00     0.131 A 
ATOM     64  C   UNL A   1      44.519  20.814  24.617  1.00  0.00     0.055 A 
ATOM     65  C   UNL A   1      45.446  22.893  23.906  1.00  0.00     0.041 A 
ATOM     66  F   UNL A   1      44.771  24.881  24.835  1.00  0.00    -0.206 F 
ATOM     67  C   UNL A   1      45.446  21.510  23.849  1.00  0.00     0.022 A 
BRANCH  64  68
ATOM     68  S   UNL A   1      44.598  19.009  24.725  1.00  0.00     0.124 S 
ATOM     69  O   UNL A   1      45.658  18.821  25.709  1.00  0.00    -0.237 OA
ATOM     70  O   UNL A   1      43.246  18.676  25.161  1.00  0.00    -0.237 OA
ATOM     71  O   UNL A   1      44.931  18.605  23.361  1.00  0.00    -0.744 OA
ENDBRANCH  64  68
ENDBRANCH  47  61
BRANCH  48  72
ATOM     72  C   UNL A   1      47.009  30.475  27.915  1.00  0.00     0.023 A 
ATOM     73  C   UNL A   1      46.410  31.533  27.188  1.00  0.00     0.031 A 
ATOM     74  C   UNL A   1      48.374  30.645  28.246  1.00  0.00     0.131 A 
ATOM     75  C   UNL A   1      47.161  32.686  26.842  1.00  0.00     0.055 A 
ATOM     76  C   UNL A   1      49.108  31.786  27.908  1.00  0.00     0.041 A 
ATOM     77  F   UNL A   1      49.027  29.741  28.994  1.00  0.00    -0.206 F 
ATOM     78  C   UNL A   1      48.500  32.818  27.216  1.00  0.00     0.022 A 
BRANCH  75  79
ATOM     79  S   UNL A   1      46.385  34.097  25.979  1.00  0.00     0.124 S 
ATOM     80  O   UNL A   1      45.976  34.952  27.087  1.00  0.00    -0.237 OA
ATOM     81  O   UNL A   1      47.469  34.592  25.140  1.00  0.00    -0.237 OA
ATOM     82  O   UNL A   1      45.280  33.480  25.241  1.00  0.00    -0.744 OA
ENDBRANCH  75  79
ENDBRANCH  48  72
BRANCH  60  83
ATOM     83  C   UNL A   1      45.332  25.624  31.642  1.00  0.00     0.023 A 
ATOM     84  C   UNL A   1      46.297  25.301  32.625  1.00  0.00     0.031 A 
ATOM     85  C   UNL A   1      44.275  26.469  32.030  1.00  0.00     0.131 A 
ATOM     86  C   UNL A   1      46.171  25.810  33.936  1.00  0.00     0.055 A 
ATOM     87  C   UNL A   1      44.168  26.992  33.317  1.00  0.00     0.041 A 
ATOM     88  F   UNL A   1      43.335  26.833  31.141  1.00  0.00    -0.206 F 
ATOM     89  C   UNL A   1      45.113  26.659  34.278  1.00  0.00     0.022 A 
BRANCH  86  90
ATOM     90  S   UNL A   1      47.362  25.354  35.241  1.00  0.00     0.124 S 
ATOM     91  O   UNL A   1      48.258  24.416  34.574  1.00  0.00    -0.237 OA
ATOM     92  O   UNL A   1      47.943  26.644  35.604  1.00  0.00    -0.237 OA
ATOM     93  O   UNL A   1      46.517  24.756  36.277  1.00  0.00    -0.744 OA
ENDBRANCH  86  90
ENDBRANCH  60  83
ENDBRANCH  34  35
ENDBRANCH  26  29
ENDBRANCH   1  25
TORSDOF 14
ENDMDL
MODEL 2
REMARK VINA RESULT:     -13.4      3.372      8.168
REMARK SMILES C[C@@H]1C(C(=O)NCCCNC(=O)c2ccc(-c3c4nc(c(-c5cc(S(=O)(=O)[O-])ccc5F)c5ccc([nH]5)c(-c5cc(S(=O)(=O)[O-])ccc5F)c5nc(c(-c6cc(S(=O)(=O)[O-])ccc6F)c6ccc3[nH]6)C=C5)C=C4)cc2)=NC2=C1C(=O)C[C@H](c1ccccc1)C2
REMARK SMILES IDX 9 1 8 2 7 3 6 4 4 5 5 6 3 8 1 9 2 10 78 11 76 12 77 13 79 14
REMARK SMILES IDX 89 15 80 16 81 17 82 18 83 19 84 20 88 21 85 22 87 23 86 24
REMARK SMILES IDX 10 25 11 26 12 28 13 29 14 30 75 31 15 32 74 33 16 34 17 35
REMARK SMILES IDX 18 36 68 37 19 38 73 39 67 40 69 41 20 42 72 43 66 44 65 45
REMARK SMILES IDX 21 47 53 48 33 49 52 50 34 51 37 52 51 53 70 54 35 55 36 56
REMARK SMILES IDX 50 58 71 59 38 60 22 61 23 62 31 63 24 64 30 65 32 66 29 67
REMARK SMILES IDX 25 68 26 69 27 70 28 71 54 72 55 73 63 74 56 75 62 76 64 77
REMARK SMILES IDX 61 78 57 79 58 80 59 81 60 82 39 83 40 84 48 85 41 86 47 87
REMARK SMILES IDX 49 88 46 89 42 90 43 91 44 92 45 93
REMARK H PARENT 6 7 10 27 69 46 37 57
REMARK Flexibility Score: inf
ROOT
ATOM      1  C   UNL A   1      38.426  21.067  25.645  1.00  0.00     0.118 C 
ENDROOT
BRANCH   1   2
ATOM      2  C   UNL A   1      37.225  20.992  24.726  1.00  0.00     0.042 C 
BRANCH   2   3
ATOM      3  C   UNL A   1      35.909  21.133  25.488  1.00  0.00     0.118 C 
BRANCH   3   4
ATOM      4  N   UNL A   1      35.478  22.494  25.768  1.00  0.00    -0.351 N 
ATOM      5  C   UNL A   1      34.187  22.965  25.954  1.00  0.00     0.266 C 
ATOM      6  O   UNL A   1      33.959  23.764  26.856  1.00  0.00    -0.268 OA
ATOM      7  H   UNL A   1      36.194  23.167  25.834  1.00  0.00     0.163 HD
BRANCH   5   8
ATOM      8  C   UNL A   1      33.099  22.702  24.915  1.00  0.00     0.113 C 
ATOM      9  C   UNL A   1      32.861  20.515  23.764  1.00  0.00     0.020 C 
ATOM     10  C   UNL A   1      33.320  21.966  23.623  1.00  0.00     0.076 C 
ATOM     11  C   UNL A   1      32.334  22.825  22.909  1.00  0.00     0.026 C 
ATOM     12  N   UNL A   1      31.882  23.172  25.060  1.00  0.00    -0.251 NA
ATOM     13  C   UNL A   1      31.421  23.289  23.766  1.00  0.00     0.049 C 
ATOM     14  C   UNL A   1      32.788  23.791  21.880  1.00  0.00     0.161 C 
ATOM     15  C   UNL A   1      30.531  24.428  23.368  1.00  0.00     0.065 C 
ATOM     16  O   UNL A   1      33.517  23.391  20.973  1.00  0.00    -0.294 OA
ATOM     17  C   UNL A   1      32.468  25.288  22.053  1.00  0.00     0.089 C 
ATOM     18  C   UNL A   1      31.424  25.666  23.155  1.00  0.00     0.033 C 
BRANCH  18  19
ATOM     19  C   UNL A   1      31.985  26.246  24.470  1.00  0.00    -0.044 A 
ATOM     20  C   UNL A   1      33.371  26.448  24.644  1.00  0.00     0.004 A 
ATOM     21  C   UNL A   1      31.164  26.577  25.557  1.00  0.00     0.004 A 
ATOM     22  C   UNL A   1      33.895  27.097  25.763  1.00  0.00     0.000 A 
ATOM     23  C   UNL A   1      31.690  27.203  26.698  1.00  0.00     0.000 A 
ATOM     24  C   UNL A   1      33.049  27.491  26.786  1.00  0.00     0.000 A 
ENDBRANCH  18  19
ENDBRANCH   5   8
ENDBRANCH   3   4
ENDBRANCH   2   3
ENDBRANCH   1   2
BRANCH   1  25
ATOM     25  N   UNL A   1      39.259  19.854  25.653  1.00  0.00    -0.352 N 
ATOM     26  C   UNL A   1      40.623  19.745  25.915  1.00  0.00     0.251 C 
ATOM     27  H   UNL A   1      38.793  19.011  25.447  1.00  0.00     0.163 HD
ATOM     28  O   UNL A   1      41.231  18.726  25.661  1.00  0.00    -0.269 OA
BRANCH  26  29
ATOM     29  C   UNL A   1      41.295  20.920  26.510  1.00  0.00     0.039 A 
ATOM     30  C   UNL A   1      41.958  21.885  25.751  1.00  0.00     0.014 A 
ATOM     31  C   UNL A   1      41.125  21.089  27.876  1.00  0.00     0.014 A 
ATOM     32  C   UNL A   1      42.358  23.061  26.387  1.00  0.00     0.010 A 
ATOM     33  C   UNL A   1      41.238  22.334  28.409  1.00  0.00     0.010 A 
ATOM     34  C   UNL A   1      41.961  23.285  27.718  1.00  0.00    -0.014 A 
BRANCH  34  35
ATOM     35  C   UNL A   1      42.188  24.539  28.419  1.00  0.00     0.031 A 
ATOM     36  C   UNL A   1      41.124  25.542  28.202  1.00  0.00     0.074 A 
ATOM     37  C   UNL A   1      43.147  24.690  29.363  1.00  0.00     0.049 A 
ATOM     38  N   UNL A   1      41.182  26.554  27.406  1.00  0.00    -0.248 NA
ATOM     39  C   UNL A   1      39.779  25.298  28.745  1.00  0.00     0.031 C 
ATOM     40  C   UNL A   1      44.083  23.694  29.903  1.00  0.00     0.029 A 
ATOM     41  N   UNL A   1      43.423  25.780  30.124  1.00  0.00    -0.354 N 
ATOM     42  C   UNL A   1      39.988  27.240  27.574  1.00  0.00     0.074 A 
ATOM     43  C   UNL A   1      39.090  26.301  28.194  1.00  0.00     0.031 C 
ATOM     44  C   UNL A   1      44.642  24.158  31.043  1.00  0.00     0.029 A 
ATOM     45  C   UNL A   1      44.242  25.543  31.228  1.00  0.00     0.049 A 
ATOM     46  H   UNL A   1      43.069  26.674  29.912  1.00  0.00     0.167 HD
ATOM     47  C   UNL A   1      39.946  28.593  27.430  1.00  0.00     0.034 A 
ATOM     48  C   UNL A   1      44.554  26.421  32.221  1.00  0.00     0.034 A 
ATOM     49  C   UNL A   1      41.189  29.081  26.861  1.00  0.00     0.049 A 
ATOM     50  C   UNL A   1      44.355  27.778  31.641  1.00  0.00     0.074 A 
ATOM     51  C   UNL A   1      41.881  28.823  25.693  1.00  0.00     0.029 A 
ATOM     52  N   UNL A   1      42.114  29.633  27.725  1.00  0.00    -0.354 N 
ATOM     53  N   UNL A   1      45.076  28.236  30.651  1.00  0.00    -0.248 NA
ATOM     54  C   UNL A   1      43.040  28.388  31.775  1.00  0.00     0.031 C 
ATOM     55  C   UNL A   1      43.248  28.737  26.094  1.00  0.00     0.029 A 
ATOM     56  C   UNL A   1      43.335  29.063  27.449  1.00  0.00     0.049 A 
ATOM     57  H   UNL A   1      41.931  30.312  28.413  1.00  0.00     0.167 HD
ATOM     58  C   UNL A   1      44.167  28.828  29.787  1.00  0.00     0.074 A 
ATOM     59  C   UNL A   1      42.940  28.972  30.575  1.00  0.00     0.031 C 
ATOM     60  C   UNL A   1      44.385  28.866  28.437  1.00  0.00     0.034 A 
BRANCH  47  61
ATOM     61  C   UNL A   1      38.987  29.530  28.126  1.00  0.00     0.023 A 
ATOM     62  C   UNL A   1      39.158  29.687  29.515  1.00  0.00     0.031 A 
ATOM     63  C   UNL A   1      37.782  30.037  27.594  1.00  0.00     0.131 A 
ATOM     64  C   UNL A   1      38.127  30.201  30.318  1.00  0.00     0.055 A 
ATOM     65  C   UNL A   1      36.787  30.613  28.389  1.00  0.00     0.041 A 
ATOM     66  F   UNL A   1      37.454  29.924  26.303  1.00  0.00    -0.206 F 
ATOM     67  C   UNL A   1      36.939  30.666  29.764  1.00  0.00     0.022 A 
BRANCH  64  68
ATOM     68  S   UNL A   1      38.305  30.074  32.114  1.00  0.00     0.124 S 
ATOM     69  O   UNL A   1      38.372  31.479  32.501  1.00  0.00    -0.237 OA
ATOM     70  O   UNL A   1      37.087  29.361  32.486  1.00  0.00    -0.237 OA
ATOM     71  O   UNL A   1      39.545  29.319  32.278  1.00  0.00    -0.744 OA
ENDBRANCH  64  68
ENDBRANCH  47  61
BRANCH  48  72
ATOM     72  C   UNL A   1      44.642  26.147  33.690  1.00  0.00     0.023 A 
ATOM     73  C   UNL A   1      43.567  26.368  34.586  1.00  0.00     0.031 A 
ATOM     74  C   UNL A   1      45.734  25.408  34.200  1.00  0.00     0.131 A 
ATOM     75  C   UNL A   1      43.612  25.850  35.907  1.00  0.00     0.055 A 
ATOM     76  C   UNL A   1      45.771  24.895  35.500  1.00  0.00     0.041 A 
ATOM     77  F   UNL A   1      46.776  25.076  33.421  1.00  0.00    -0.206 F 
ATOM     78  C   UNL A   1      44.703  25.103  36.356  1.00  0.00     0.022 A 
BRANCH  75  79
ATOM     79  S   UNL A   1      42.202  26.052  37.051  1.00  0.00     0.124 S 
ATOM     80  O   UNL A   1      41.538  24.758  36.955  1.00  0.00    -0.237 OA
ATOM     81  O   UNL A   1      42.860  26.353  38.317  1.00  0.00    -0.237 OA
ATOM     82  O   UNL A   1      41.452  27.171  36.475  1.00  0.00    -0.744 OA
ENDBRANCH  75  79
ENDBRANCH  48  72
BRANCH  60  83
ATOM     83  C   UNL A   1      45.761  28.499  27.906  1.00  0.00     0.023 A 
ATOM     84  C   UNL A   1      46.167  27.207  27.494  1.00  0.00     0.031 A 
ATOM     85  C   UNL A   1      46.667  29.556  27.699  1.00  0.00     0.131 A 
ATOM     86  C   UNL A   1      47.440  27.017  26.914  1.00  0.00     0.055 A 
ATOM     87  C   UNL A   1      47.911  29.369  27.101  1.00  0.00     0.041 A 
ATOM     88  F   UNL A   1      46.337  30.811  28.047  1.00  0.00    -0.206 F 
ATOM     89  C   UNL A   1      48.306  28.096  26.711  1.00  0.00     0.022 A 
BRANCH  86  90
ATOM     90  S   UNL A   1      48.017  25.352  26.438  1.00  0.00     0.124 S 
ATOM     91  O   UNL A   1      47.326  25.098  25.179  1.00  0.00    -0.237 OA
ATOM     92  O   UNL A   1      49.463  25.533  26.347  1.00  0.00    -0.237 OA
ATOM     93  O   UNL A   1      47.579  24.510  27.553  1.00  0.00    -0.744 OA
ENDBRANCH  86  90
ENDBRANCH  60  83
ENDBRANCH  34  35
ENDBRANCH  26  29
ENDBRANCH   1  25
TORSDOF 14
ENDMDL
MODEL 3
REMARK VINA RESULT:     -13.3      1.569      2.360
REMARK SMILES C[C@@H]1C(C(=O)NCCCNC(=O)c2ccc(-c3c4nc(c(-c5cc(S(=O)(=O)[O-])ccc5F)c5ccc([nH]5)c(-c5cc(S(=O)(=O)[O-])ccc5F)c5nc(c(-c6cc(S(=O)(=O)[O-])ccc6F)c6ccc3[nH]6)C=C5)C=C4)cc2)=NC2=C1C(=O)C[C@H](c1ccccc1)C2
REMARK SMILES IDX 9 1 8 2 7 3 6 4 4 5 5 6 3 8 1 9 2 10 78 11 76 12 77 13 79 14
REMARK SMILES IDX 89 15 80 16 81 17 82 18 83 19 84 20 88 21 85 22 87 23 86 24
REMARK SMILES IDX 10 25 11 26 12 28 13 29 14 30 75 31 15 32 74 33 16 34 17 35
REMARK SMILES IDX 18 36 68 37 19 38 73 39 67 40 69 41 20 42 72 43 66 44 65 45
REMARK SMILES IDX 21 47 53 48 33 49 52 50 34 51 37 52 51 53 70 54 35 55 36 56
REMARK SMILES IDX 50 58 71 59 38 60 22 61 23 62 31 63 24 64 30 65 32 66 29 67
REMARK SMILES IDX 25 68 26 69 27 70 28 71 54 72 55 73 63 74 56 75 62 76 64 77
REMARK SMILES IDX 61 78 57 79 58 80 59 81 60 82 39 83 40 84 48 85 41 86 47 87
REMARK SMILES IDX 49 88 46 89 42 90 43 91 44 92 45 93
REMARK H PARENT 6 7 10 27 69 46 37 57
REMARK Flexibility Score: inf
ROOT
ATOM      1  C   UNL A   1      35.240  29.322  27.569  1.00  0.00     0.118 C 
ENDROOT
BRANCH   1   2
ATOM      2  C   UNL A   1      33.854  29.580  27.015  1.00  0.00     0.042 C 
BRANCH   2   3
ATOM      3  C   UNL A   1      32.888  28.439  27.332  1.00  0.00     0.118 C 
BRANCH   3   4
ATOM      4  N   UNL A   1      31.847  28.195  26.347  1.00  0.00    -0.351 N 
ATOM      5  C   UNL A   1      31.746  27.145  25.446  1.00  0.00     0.266 C 
ATOM      6  O   UNL A   1      30.660  26.602  25.269  1.00  0.00    -0.268 OA
ATOM      7  H   UNL A   1      31.119  28.858  26.315  1.00  0.00     0.163 HD
BRANCH   5   8
ATOM      8  C   UNL A   1      32.894  26.814  24.495  1.00  0.00     0.113 C 
ATOM      9  C   UNL A   1      33.956  28.530  23.047  1.00  0.00     0.020 C 
ATOM     10  C   UNL A   1      33.006  27.333  23.088  1.00  0.00     0.076 C 
ATOM     11  C   UNL A   1      33.638  26.067  22.621  1.00  0.00     0.026 C 
ATOM     12  N   UNL A   1      33.849  25.981  24.834  1.00  0.00    -0.251 NA
ATOM     13  C   UNL A   1      34.286  25.476  23.628  1.00  0.00     0.049 C 
ATOM     14  C   UNL A   1      32.903  25.152  21.714  1.00  0.00     0.161 C 
ATOM     15  C   UNL A   1      34.715  24.045  23.505  1.00  0.00     0.065 C 
ATOM     16  O   UNL A   1      32.405  25.611  20.687  1.00  0.00    -0.294 OA
ATOM     17  C   UNL A   1      32.649  23.697  22.151  1.00  0.00     0.089 C 
ATOM     18  C   UNL A   1      33.441  23.183  23.399  1.00  0.00     0.033 C 
BRANCH  18  19
ATOM     19  C   UNL A   1      32.658  23.088  24.724  1.00  0.00    -0.044 A 
ATOM     20  C   UNL A   1      33.316  22.800  25.939  1.00  0.00     0.004 A 
ATOM     21  C   UNL A   1      31.268  23.257  24.791  1.00  0.00     0.004 A 
ATOM     22  C   UNL A   1      32.660  22.843  27.170  1.00  0.00     0.000 A 
ATOM     23  C   UNL A   1      30.599  23.272  26.025  1.00  0.00     0.000 A 
ATOM     24  C   UNL A   1      31.301  23.098  27.215  1.00  0.00     0.000 A 
ENDBRANCH  18  19
ENDBRANCH   5   8
ENDBRANCH   3   4
ENDBRANCH   2   3
ENDBRANCH   1   2
BRANCH   1  25
ATOM     25  N   UNL A   1      35.414  29.720  28.974  1.00  0.00    -0.352 N 
ATOM     26  C   UNL A   1      36.495  29.465  29.816  1.00  0.00     0.251 C 
ATOM     27  H   UNL A   1      34.673  30.233  29.370  1.00  0.00     0.163 HD
ATOM     28  O   UNL A   1      36.412  29.645  31.013  1.00  0.00    -0.269 OA
BRANCH  26  29
ATOM     29  C   UNL A   1      37.738  28.963  29.191  1.00  0.00     0.039 A 
ATOM     30  C   UNL A   1      38.284  29.515  28.032  1.00  0.00     0.014 A 
ATOM     31  C   UNL A   1      38.416  27.980  29.896  1.00  0.00     0.014 A 
ATOM     32  C   UNL A   1      39.569  29.117  27.658  1.00  0.00     0.010 A 
ATOM     33  C   UNL A   1      39.753  27.831  29.704  1.00  0.00     0.010 A 
ATOM     34  C   UNL A   1      40.307  28.292  28.526  1.00  0.00    -0.014 A 
BRANCH  34  35
ATOM     35  C   UNL A   1      41.703  27.950  28.309  1.00  0.00     0.031 A 
ATOM     36  C   UNL A   1      41.897  26.713  27.521  1.00  0.00     0.074 A 
ATOM     37  C   UNL A   1      42.721  28.799  28.590  1.00  0.00     0.049 A 
ATOM     38  N   UNL A   1      42.203  25.553  27.989  1.00  0.00    -0.248 NA
ATOM     39  C   UNL A   1      41.506  26.692  26.103  1.00  0.00     0.031 C 
ATOM     40  C   UNL A   1      42.665  30.178  29.092  1.00  0.00     0.029 A 
ATOM     41  N   UNL A   1      44.051  28.625  28.383  1.00  0.00    -0.354 N 
ATOM     42  C   UNL A   1      42.334  24.721  26.887  1.00  0.00     0.074 A 
ATOM     43  C   UNL A   1      41.656  25.396  25.813  1.00  0.00     0.031 C 
ATOM     44  C   UNL A   1      43.867  30.777  28.926  1.00  0.00     0.029 A 
ATOM     45  C   UNL A   1      44.822  29.784  28.467  1.00  0.00     0.049 A 
ATOM     46  H   UNL A   1      44.443  27.743  28.189  1.00  0.00     0.167 HD
ATOM     47  C   UNL A   1      43.219  23.686  26.908  1.00  0.00     0.034 A 
ATOM     48  C   UNL A   1      46.145  29.911  28.166  1.00  0.00     0.034 A 
ATOM     49  C   UNL A   1      43.732  23.485  28.251  1.00  0.00     0.049 A 
ATOM     50  C   UNL A   1      46.725  28.546  28.296  1.00  0.00     0.074 A 
ATOM     51  C   UNL A   1      43.150  23.214  29.475  1.00  0.00     0.029 A 
ATOM     52  N   UNL A   1      44.982  23.996  28.540  1.00  0.00    -0.354 N 
ATOM     53  N   UNL A   1      46.775  27.905  29.434  1.00  0.00    -0.248 NA
ATOM     54  C   UNL A   1      46.734  27.697  27.112  1.00  0.00     0.031 C 
ATOM     55  C   UNL A   1      43.845  24.051  30.398  1.00  0.00     0.029 A 
ATOM     56  C   UNL A   1      44.884  24.693  29.721  1.00  0.00     0.049 A 
ATOM     57  H   UNL A   1      45.795  23.881  27.998  1.00  0.00     0.167 HD
ATOM     58  C   UNL A   1      46.363  26.613  29.138  1.00  0.00     0.074 A 
ATOM     59  C   UNL A   1      46.439  26.521  27.677  1.00  0.00     0.031 C 
ATOM     60  C   UNL A   1      45.709  25.843  30.061  1.00  0.00     0.034 A 
BRANCH  47  61
ATOM     61  C   UNL A   1      43.923  23.097  25.708  1.00  0.00     0.023 A 
ATOM     62  C   UNL A   1      43.727  21.723  25.476  1.00  0.00     0.031 A 
ATOM     63  C   UNL A   1      44.963  23.702  24.971  1.00  0.00     0.131 A 
ATOM     64  C   UNL A   1      44.604  20.994  24.657  1.00  0.00     0.055 A 
ATOM     65  C   UNL A   1      45.791  22.986  24.101  1.00  0.00     0.041 A 
ATOM     66  F   UNL A   1      45.302  24.988  25.113  1.00  0.00    -0.206 F 
ATOM     67  C   UNL A   1      45.638  21.617  23.967  1.00  0.00     0.022 A 
BRANCH  64  68
ATOM     68  S   UNL A   1      44.474  19.188  24.666  1.00  0.00     0.124 S 
ATOM     69  O   UNL A   1      43.063  18.999  24.984  1.00  0.00    -0.237 OA
ATOM     70  O   UNL A   1      44.878  18.852  23.305  1.00  0.00    -0.237 OA
ATOM     71  O   UNL A   1      45.411  18.787  25.712  1.00  0.00    -0.744 OA
ENDBRANCH  64  68
ENDBRANCH  47  61
BRANCH  48  72
ATOM     72  C   UNL A   1      46.814  31.036  27.439  1.00  0.00     0.023 A 
ATOM     73  C   UNL A   1      46.104  32.122  26.869  1.00  0.00     0.031 A 
ATOM     74  C   UNL A   1      48.218  31.183  27.516  1.00  0.00     0.131 A 
ATOM     75  C   UNL A   1      46.795  33.280  26.427  1.00  0.00     0.055 A 
ATOM     76  C   UNL A   1      48.892  32.329  27.084  1.00  0.00     0.041 A 
ATOM     77  F   UNL A   1      48.986  30.250  28.102  1.00  0.00    -0.206 F 
ATOM     78  C   UNL A   1      48.181  33.389  26.550  1.00  0.00     0.022 A 
BRANCH  75  79
ATOM     79  S   UNL A   1      45.892  34.725  25.768  1.00  0.00     0.124 S 
ATOM     80  O   UNL A   1      46.949  35.722  25.646  1.00  0.00    -0.237 OA
ATOM     81  O   UNL A   1      45.335  34.211  24.522  1.00  0.00    -0.237 OA
ATOM     82  O   UNL A   1      44.897  35.009  26.805  1.00  0.00    -0.744 OA
ENDBRANCH  75  79
ENDBRANCH  48  72
BRANCH  60  83
ATOM     83  C   UNL A   1      45.675  26.305  31.508  1.00  0.00     0.023 A 
ATOM     84  C   UNL A   1      44.580  26.938  32.145  1.00  0.00     0.031 A 
ATOM     85  C   UNL A   1      46.781  25.968  32.311  1.00  0.00     0.131 A 
ATOM     86  C   UNL A   1      44.631  27.218  33.527  1.00  0.00     0.055 A 
ATOM     87  C   UNL A   1      46.816  26.222  33.680  1.00  0.00     0.041 A 
ATOM     88  F   UNL A   1      47.844  25.347  31.775  1.00  0.00    -0.206 F 
ATOM     89  C   UNL A   1      45.743  26.855  34.294  1.00  0.00     0.022 A 
BRANCH  86  90
ATOM     90  S   UNL A   1      43.265  28.096  34.360  1.00  0.00     0.124 S 
ATOM     91  O   UNL A   1      43.798  28.378  35.688  1.00  0.00    -0.237 OA
ATOM     92  O   UNL A   1      43.060  29.255  33.495  1.00  0.00    -0.237 OA
ATOM     93  O   UNL A   1      42.172  27.121  34.337  1.00  0.00    -0.744 OA
ENDBRANCH  86  90
ENDBRANCH  60  83
ENDBRANCH  34  35
ENDBRANCH  26  29
ENDBRANCH   1  25
TORSDOF 14
ENDMDL
