MODEL 1
REMARK VINA RESULT:     -11.8      0.000      0.000
REMARK SMILES CN(C(=O)N1CCC(C(=O)NCCCNC(=O)c2ccc(-c3c4nc(c(-c5cc(S(=O)(=O)[O-])ccc5F)c5ccc([nH]5)c(-c5cc(S(=O)(=O)[O-])ccc5F)c5nc(c(-c6cc(S(=O)(=O)[O-])ccc6F)c6ccc3[nH]6)C=C5)C=C4)cc2)CC1)[C@H]1CCSC1
REMARK SMILES IDX 13 1 12 2 11 3 9 4 10 5 8 7 3 8 4 9 5 10 6 11 82 12 7 13
REMARK SMILES IDX 81 14 2 15 1 16 83 17 84 18 87 19 85 20 86 21 14 22 15 23
REMARK SMILES IDX 16 24 17 26 18 27 19 28 80 29 20 30 79 31 21 32 22 33 23 34
REMARK SMILES IDX 73 35 24 36 78 37 72 38 74 39 25 40 77 41 71 42 70 43 26 45
REMARK SMILES IDX 58 46 38 47 57 48 39 49 42 50 56 51 75 52 40 53 41 54 55 56
REMARK SMILES IDX 76 57 43 58 27 59 28 60 36 61 29 62 35 63 37 64 34 65 30 66
REMARK SMILES IDX 31 67 32 68 33 69 59 70 60 71 68 72 61 73 67 74 69 75 66 76
REMARK SMILES IDX 62 77 63 78 64 79 65 80 44 81 45 82 53 83 46 84 52 85 54 86
REMARK SMILES IDX 51 87 47 88 48 89 49 90 50 91
REMARK H PARENT 11 6 15 25 74 44 42 55
REMARK Flexibility Score: inf
ROOT
ATOM      1  C   UNL A   1      31.552  31.937  26.699  1.00  0.00     0.042 C 
ENDROOT
BRANCH   1   2
ATOM      2  C   UNL A   1      31.736  30.482  26.301  1.00  0.00     0.117 C 
BRANCH   2   3
ATOM      3  N   UNL A   1      31.291  30.221  24.940  1.00  0.00    -0.356 N 
ATOM      4  C   UNL A   1      31.027  29.051  24.299  1.00  0.00     0.223 C 
ATOM      5  O   UNL A   1      30.665  29.099  23.121  1.00  0.00    -0.275 OA
ATOM      6  H   UNL A   1      31.161  31.027  24.389  1.00  0.00     0.163 HD
BRANCH   4   7
ATOM      7  C   UNL A   1      31.148  27.715  25.010  1.00  0.00     0.082 C 
ATOM      8  C   UNL A   1      32.503  23.711  24.734  1.00  0.00     0.320 C 
ATOM      9  O   UNL A   1      32.025  23.190  23.724  1.00  0.00    -0.248 OA
ATOM     10  N   UNL A   1      32.065  24.967  25.115  1.00  0.00    -0.325 N 
ATOM     11  C   UNL A   1      30.652  25.245  24.875  1.00  0.00     0.122 C 
ATOM     12  C   UNL A   1      32.794  25.980  25.871  1.00  0.00     0.122 C 
ATOM     13  C   UNL A   1      30.404  26.608  24.264  1.00  0.00     0.035 C 
ATOM     14  C   UNL A   1      32.608  27.393  25.339  1.00  0.00     0.035 C 
BRANCH   8  15
ATOM     15  N   UNL A   1      33.365  22.999  25.555  1.00  0.00    -0.324 N 
ATOM     16  C   UNL A   1      32.979  22.225  26.731  1.00  0.00     0.149 C 
BRANCH  15  17
ATOM     17  C   UNL A   1      34.701  22.638  25.046  1.00  0.00     0.097 C 
ATOM     18  C   UNL A   1      35.732  23.716  25.398  1.00  0.00     0.037 C 
ATOM     19  C   UNL A   1      35.358  21.308  25.433  1.00  0.00     0.094 C 
ATOM     20  C   UNL A   1      37.006  23.318  24.681  1.00  0.00     0.072 C 
ATOM     21  S   UNL A   1      37.079  21.507  24.822  1.00  0.00    -0.160 SA
ENDBRANCH  15  17
ENDBRANCH   8  15
ENDBRANCH   4   7
ENDBRANCH   2   3
ENDBRANCH   1   2
BRANCH   1  22
ATOM     22  C   UNL A   1      32.816  32.575  27.249  1.00  0.00     0.118 C 
BRANCH  22  23
ATOM     23  N   UNL A   1      32.619  33.973  27.604  1.00  0.00    -0.352 N 
ATOM     24  C   UNL A   1      33.161  34.703  28.631  1.00  0.00     0.251 C 
ATOM     25  H   UNL A   1      32.002  34.471  27.018  1.00  0.00     0.163 HD
ATOM     26  O   UNL A   1      32.683  35.805  28.902  1.00  0.00    -0.269 OA
BRANCH  24  27
ATOM     27  C   UNL A   1      34.291  34.161  29.413  1.00  0.00     0.039 A 
ATOM     28  C   UNL A   1      34.030  33.306  30.485  1.00  0.00     0.014 A 
ATOM     29  C   UNL A   1      35.608  34.502  29.096  1.00  0.00     0.014 A 
ATOM     30  C   UNL A   1      35.092  32.750  31.199  1.00  0.00     0.010 A 
ATOM     31  C   UNL A   1      36.664  33.863  29.734  1.00  0.00     0.010 A 
ATOM     32  C   UNL A   1      36.420  32.994  30.807  1.00  0.00    -0.014 A 
BRANCH  32  33
ATOM     33  C   UNL A   1      37.564  32.378  31.525  1.00  0.00     0.031 A 
ATOM     34  C   UNL A   1      38.322  31.239  30.896  1.00  0.00     0.074 A 
ATOM     35  C   UNL A   1      37.889  32.810  32.760  1.00  0.00     0.049 A 
ATOM     36  N   UNL A   1      39.311  30.533  31.381  1.00  0.00    -0.248 NA
ATOM     37  C   UNL A   1      37.886  30.817  29.555  1.00  0.00     0.031 C 
ATOM     38  C   UNL A   1      37.202  33.879  33.489  1.00  0.00     0.029 A 
ATOM     39  N   UNL A   1      38.878  32.407  33.620  1.00  0.00    -0.354 N 
ATOM     40  C   UNL A   1      39.608  29.582  30.411  1.00  0.00     0.074 A 
ATOM     41  C   UNL A   1      38.640  29.750  29.349  1.00  0.00     0.031 C 
ATOM     42  C   UNL A   1      37.819  34.076  34.665  1.00  0.00     0.029 A 
ATOM     43  C   UNL A   1      38.908  33.114  34.801  1.00  0.00     0.049 A 
ATOM     44  H   UNL A   1      39.510  31.680  33.413  1.00  0.00     0.167 HD
ATOM     45  C   UNL A   1      40.616  28.674  30.391  1.00  0.00     0.034 A 
ATOM     46  C   UNL A   1      39.717  32.995  35.872  1.00  0.00     0.034 A 
ATOM     47  C   UNL A   1      41.577  28.527  31.457  1.00  0.00     0.049 A 
ATOM     48  C   UNL A   1      40.800  31.948  35.849  1.00  0.00     0.074 A 
ATOM     49  C   UNL A   1      42.662  27.671  31.527  1.00  0.00     0.029 A 
ATOM     50  N   UNL A   1      41.562  29.247  32.645  1.00  0.00    -0.354 N 
ATOM     51  N   UNL A   1      41.099  31.086  34.903  1.00  0.00    -0.248 NA
ATOM     52  C   UNL A   1      41.664  31.864  37.034  1.00  0.00     0.031 C 
ATOM     53  C   UNL A   1      43.254  27.819  32.786  1.00  0.00     0.029 A 
ATOM     54  C   UNL A   1      42.598  28.831  33.468  1.00  0.00     0.049 A 
ATOM     55  H   UNL A   1      40.911  29.950  32.870  1.00  0.00     0.167 HD
ATOM     56  C   UNL A   1      42.210  30.384  35.366  1.00  0.00     0.074 A 
ATOM     57  C   UNL A   1      42.533  30.934  36.667  1.00  0.00     0.031 C 
ATOM     58  C   UNL A   1      42.903  29.382  34.768  1.00  0.00     0.034 A 
BRANCH  45  59
ATOM     59  C   UNL A   1      40.706  27.764  29.187  1.00  0.00     0.023 A 
ATOM     60  C   UNL A   1      41.646  27.984  28.163  1.00  0.00     0.031 A 
ATOM     61  C   UNL A   1      39.819  26.683  29.039  1.00  0.00     0.131 A 
ATOM     62  C   UNL A   1      41.618  27.197  27.003  1.00  0.00     0.055 A 
ATOM     63  C   UNL A   1      39.859  25.845  27.923  1.00  0.00     0.041 A 
ATOM     64  F   UNL A   1      38.884  26.433  29.969  1.00  0.00    -0.206 F 
ATOM     65  C   UNL A   1      40.750  26.110  26.888  1.00  0.00     0.022 A 
BRANCH  62  66
ATOM     66  S   UNL A   1      42.617  27.719  25.581  1.00  0.00     0.124 S 
ATOM     67  O   UNL A   1      43.898  28.020  26.216  1.00  0.00    -0.237 OA
ATOM     68  O   UNL A   1      42.589  26.539  24.725  1.00  0.00    -0.237 OA
ATOM     69  O   UNL A   1      41.897  28.882  25.066  1.00  0.00    -0.744 OA
ENDBRANCH  62  66
ENDBRANCH  45  59
BRANCH  46  70
ATOM     70  C   UNL A   1      39.541  33.885  37.056  1.00  0.00     0.023 A 
ATOM     71  C   UNL A   1      38.939  33.409  38.233  1.00  0.00     0.031 A 
ATOM     72  C   UNL A   1      39.929  35.237  37.017  1.00  0.00     0.131 A 
ATOM     73  C   UNL A   1      38.697  34.287  39.300  1.00  0.00     0.055 A 
ATOM     74  C   UNL A   1      39.742  36.091  38.105  1.00  0.00     0.041 A 
ATOM     75  F   UNL A   1      40.510  35.745  35.918  1.00  0.00    -0.206 F 
ATOM     76  C   UNL A   1      39.109  35.620  39.251  1.00  0.00     0.022 A 
BRANCH  73  77
ATOM     77  S   UNL A   1      37.745  33.682  40.720  1.00  0.00     0.124 S 
ATOM     78  O   UNL A   1      37.512  34.912  41.467  1.00  0.00    -0.237 OA
ATOM     79  O   UNL A   1      36.576  33.093  40.073  1.00  0.00    -0.237 OA
ATOM     80  O   UNL A   1      38.650  32.726  41.355  1.00  0.00    -0.744 OA
ENDBRANCH  73  77
ENDBRANCH  46  70
BRANCH  58  81
ATOM     81  C   UNL A   1      44.114  28.853  35.499  1.00  0.00     0.023 A 
ATOM     82  C   UNL A   1      44.028  27.778  36.401  1.00  0.00     0.031 A 
ATOM     83  C   UNL A   1      45.374  29.442  35.293  1.00  0.00     0.131 A 
ATOM     84  C   UNL A   1      45.168  27.366  37.107  1.00  0.00     0.055 A 
ATOM     85  C   UNL A   1      46.518  28.983  35.947  1.00  0.00     0.041 A 
ATOM     86  F   UNL A   1      45.516  30.475  34.445  1.00  0.00    -0.206 F 
ATOM     87  C   UNL A   1      46.416  27.948  36.871  1.00  0.00     0.022 A 
BRANCH  84  88
ATOM     88  S   UNL A   1      44.980  26.124  38.417  1.00  0.00     0.124 S 
ATOM     89  O   UNL A   1      44.161  25.111  37.758  1.00  0.00    -0.237 OA
ATOM     90  O   UNL A   1      46.363  25.747  38.691  1.00  0.00    -0.237 OA
ATOM     91  O   UNL A   1      44.314  26.857  39.492  1.00  0.00    -0.744 OA
ENDBRANCH  84  88
ENDBRANCH  58  81
ENDBRANCH  32  33
ENDBRANCH  24  27
ENDBRANCH  22  23
ENDBRANCH   1  22
TORSDOF 15
ENDMDL
MODEL 2
REMARK VINA RESULT:     -11.8      1.636      7.848
REMARK SMILES CN(C(=O)N1CCC(C(=O)NCCCNC(=O)c2ccc(-c3c4nc(c(-c5cc(S(=O)(=O)[O-])ccc5F)c5ccc([nH]5)c(-c5cc(S(=O)(=O)[O-])ccc5F)c5nc(c(-c6cc(S(=O)(=O)[O-])ccc6F)c6ccc3[nH]6)C=C5)C=C4)cc2)CC1)[C@H]1CCSC1
REMARK SMILES IDX 13 1 12 2 11 3 9 4 10 5 8 7 3 8 4 9 5 10 6 11 82 12 7 13
REMARK SMILES IDX 81 14 2 15 1 16 83 17 84 18 87 19 85 20 86 21 14 22 15 23
REMARK SMILES IDX 16 24 17 26 18 27 19 28 80 29 20 30 79 31 21 32 22 33 23 34
REMARK SMILES IDX 73 35 24 36 78 37 72 38 74 39 25 40 77 41 71 42 70 43 26 45
REMARK SMILES IDX 58 46 38 47 57 48 39 49 42 50 56 51 75 52 40 53 41 54 55 56
REMARK SMILES IDX 76 57 43 58 27 59 28 60 36 61 29 62 35 63 37 64 34 65 30 66
REMARK SMILES IDX 31 67 32 68 33 69 59 70 60 71 68 72 61 73 67 74 69 75 66 76
REMARK SMILES IDX 62 77 63 78 64 79 65 80 44 81 45 82 53 83 46 84 52 85 54 86
REMARK SMILES IDX 51 87 47 88 48 89 49 90 50 91
REMARK H PARENT 11 6 15 25 74 44 42 55
REMARK Flexibility Score: inf
ROOT
ATOM      1  C   UNL A   1      31.381  32.236  26.633  1.00  0.00     0.042 C 
ENDROOT
BRANCH   1   2
ATOM      2  C   UNL A   1      31.443  30.729  26.449  1.00  0.00     0.117 C 
BRANCH   2   3
ATOM      3  N   UNL A   1      31.252  30.333  25.061  1.00  0.00    -0.356 N 
ATOM      4  C   UNL A   1      31.271  29.106  24.475  1.00  0.00     0.223 C 
ATOM      5  O   UNL A   1      31.085  29.037  23.258  1.00  0.00    -0.275 OA
ATOM      6  H   UNL A   1      31.081  31.080  24.442  1.00  0.00     0.163 HD
BRANCH   4   7
ATOM      7  C   UNL A   1      31.491  27.844  25.290  1.00  0.00     0.082 C 
ATOM      8  C   UNL A   1      32.648  23.770  25.196  1.00  0.00     0.320 C 
ATOM      9  O   UNL A   1      31.966  23.175  24.359  1.00  0.00    -0.248 OA
ATOM     10  N   UNL A   1      32.331  25.078  25.515  1.00  0.00    -0.325 N 
ATOM     11  C   UNL A   1      30.907  25.401  25.523  1.00  0.00     0.122 C 
ATOM     12  C   UNL A   1      33.224  26.125  26.001  1.00  0.00     0.122 C 
ATOM     13  C   UNL A   1      30.583  26.706  24.827  1.00  0.00     0.035 C 
ATOM     14  C   UNL A   1      32.977  27.485  25.365  1.00  0.00     0.035 C 
BRANCH   8  15
ATOM     15  N   UNL A   1      33.634  23.103  25.907  1.00  0.00    -0.324 N 
ATOM     16  C   UNL A   1      33.494  22.560  27.254  1.00  0.00     0.149 C 
BRANCH  15  17
ATOM     17  C   UNL A   1      34.779  22.531  25.175  1.00  0.00     0.097 C 
ATOM     18  C   UNL A   1      35.520  23.613  24.382  1.00  0.00     0.037 C 
ATOM     19  C   UNL A   1      35.873  21.749  25.912  1.00  0.00     0.094 C 
ATOM     20  C   UNL A   1      36.554  22.881  23.551  1.00  0.00     0.072 C 
ATOM     21  S   UNL A   1      37.176  21.557  24.631  1.00  0.00    -0.160 SA
ENDBRANCH  15  17
ENDBRANCH   8  15
ENDBRANCH   4   7
ENDBRANCH   2   3
ENDBRANCH   1   2
BRANCH   1  22
ATOM     22  C   UNL A   1      32.736  32.867  26.901  1.00  0.00     0.118 C 
BRANCH  22  23
ATOM     23  N   UNL A   1      32.629  34.102  27.664  1.00  0.00    -0.352 N 
ATOM     24  C   UNL A   1      33.287  34.490  28.803  1.00  0.00     0.251 C 
ATOM     25  H   UNL A   1      31.987  34.759  27.308  1.00  0.00     0.163 HD
ATOM     26  O   UNL A   1      32.880  35.471  29.426  1.00  0.00    -0.269 OA
BRANCH  24  27
ATOM     27  C   UNL A   1      34.455  33.725  29.285  1.00  0.00     0.039 A 
ATOM     28  C   UNL A   1      35.739  34.199  29.012  1.00  0.00     0.014 A 
ATOM     29  C   UNL A   1      34.287  32.536  29.999  1.00  0.00     0.014 A 
ATOM     30  C   UNL A   1      36.848  33.511  29.505  1.00  0.00     0.010 A 
ATOM     31  C   UNL A   1      35.384  31.914  30.582  1.00  0.00     0.010 A 
ATOM     32  C   UNL A   1      36.680  32.382  30.326  1.00  0.00    -0.014 A 
BRANCH  32  33
ATOM     33  C   UNL A   1      37.845  31.660  30.897  1.00  0.00     0.031 A 
ATOM     34  C   UNL A   1      38.308  31.969  32.296  1.00  0.00     0.074 A 
ATOM     35  C   UNL A   1      38.513  30.765  30.142  1.00  0.00     0.049 A 
ATOM     36  N   UNL A   1      39.333  31.491  32.954  1.00  0.00    -0.248 NA
ATOM     37  C   UNL A   1      37.535  32.975  33.041  1.00  0.00     0.031 C 
ATOM     38  C   UNL A   1      38.182  30.413  28.759  1.00  0.00     0.029 A 
ATOM     39  N   UNL A   1      39.606  29.988  30.428  1.00  0.00    -0.354 N 
ATOM     40  C   UNL A   1      39.331  32.142  34.183  1.00  0.00     0.074 A 
ATOM     41  C   UNL A   1      38.254  33.106  34.144  1.00  0.00     0.031 C 
ATOM     42  C   UNL A   1      39.025  29.459  28.335  1.00  0.00     0.029 A 
ATOM     43  C   UNL A   1      39.990  29.169  29.391  1.00  0.00     0.049 A 
ATOM     44  H   UNL A   1      40.073  30.012  31.295  1.00  0.00     0.167 HD
ATOM     45  C   UNL A   1      40.132  31.931  35.259  1.00  0.00     0.034 A 
ATOM     46  C   UNL A   1      41.008  28.291  29.300  1.00  0.00     0.034 A 
ATOM     47  C   UNL A   1      41.197  30.959  35.280  1.00  0.00     0.049 A 
ATOM     48  C   UNL A   1      41.915  28.107  30.490  1.00  0.00     0.074 A 
ATOM     49  C   UNL A   1      42.043  30.631  36.325  1.00  0.00     0.029 A 
ATOM     50  N   UNL A   1      41.568  30.162  34.205  1.00  0.00    -0.354 N 
ATOM     51  N   UNL A   1      41.871  28.697  31.664  1.00  0.00    -0.248 NA
ATOM     52  C   UNL A   1      43.002  27.131  30.348  1.00  0.00     0.031 C 
ATOM     53  C   UNL A   1      42.973  29.696  35.857  1.00  0.00     0.029 A 
ATOM     54  C   UNL A   1      42.653  29.370  34.550  1.00  0.00     0.049 A 
ATOM     55  H   UNL A   1      41.126  30.161  33.325  1.00  0.00     0.167 HD
ATOM     56  C   UNL A   1      42.902  28.133  32.410  1.00  0.00     0.074 A 
ATOM     57  C   UNL A   1      43.540  27.149  31.559  1.00  0.00     0.031 C 
ATOM     58  C   UNL A   1      43.284  28.399  33.686  1.00  0.00     0.034 A 
BRANCH  45  59
ATOM     59  C   UNL A   1      39.891  32.788  36.481  1.00  0.00     0.023 A 
ATOM     60  C   UNL A   1      39.062  32.357  37.533  1.00  0.00     0.031 A 
ATOM     61  C   UNL A   1      40.465  34.068  36.582  1.00  0.00     0.131 A 
ATOM     62  C   UNL A   1      38.759  33.228  38.590  1.00  0.00     0.055 A 
ATOM     63  C   UNL A   1      40.235  34.893  37.686  1.00  0.00     0.041 A 
ATOM     64  F   UNL A   1      41.246  34.546  35.602  1.00  0.00    -0.206 F 
ATOM     65  C   UNL A   1      39.363  34.482  38.689  1.00  0.00     0.022 A 
BRANCH  62  66
ATOM     66  S   UNL A   1      37.439  32.759  39.743  1.00  0.00     0.124 S 
ATOM     67  O   UNL A   1      37.473  33.868  40.696  1.00  0.00    -0.237 OA
ATOM     68  O   UNL A   1      36.269  32.698  38.876  1.00  0.00    -0.237 OA
ATOM     69  O   UNL A   1      37.890  31.476  40.277  1.00  0.00    -0.744 OA
ENDBRANCH  62  66
ENDBRANCH  45  59
BRANCH  46  70
ATOM     70  C   UNL A   1      41.230  27.516  28.045  1.00  0.00     0.023 A 
ATOM     71  C   UNL A   1      40.912  26.150  27.975  1.00  0.00     0.031 A 
ATOM     72  C   UNL A   1      41.805  28.116  26.909  1.00  0.00     0.131 A 
ATOM     73  C   UNL A   1      41.217  25.418  26.817  1.00  0.00     0.055 A 
ATOM     74  C   UNL A   1      42.049  27.397  25.738  1.00  0.00     0.041 A 
ATOM     75  F   UNL A   1      42.128  29.419  26.920  1.00  0.00    -0.206 F 
ATOM     76  C   UNL A   1      41.768  26.035  25.693  1.00  0.00     0.022 A 
BRANCH  73  77
ATOM     77  S   UNL A   1      40.972  23.621  26.838  1.00  0.00     0.124 S 
ATOM     78  O   UNL A   1      41.363  23.285  28.202  1.00  0.00    -0.237 OA
ATOM     79  O   UNL A   1      39.549  23.505  26.532  1.00  0.00    -0.237 OA
ATOM     80  O   UNL A   1      41.873  23.142  25.792  1.00  0.00    -0.744 OA
ENDBRANCH  73  77
ENDBRANCH  46  70
BRANCH  58  81
ATOM     81  C   UNL A   1      44.415  27.573  34.252  1.00  0.00     0.023 A 
ATOM     82  C   UNL A   1      44.194  26.318  34.846  1.00  0.00     0.031 A 
ATOM     83  C   UNL A   1      45.735  28.056  34.201  1.00  0.00     0.131 A 
ATOM     84  C   UNL A   1      45.267  25.618  35.418  1.00  0.00     0.055 A 
ATOM     85  C   UNL A   1      46.807  27.324  34.711  1.00  0.00     0.041 A 
ATOM     86  F   UNL A   1      46.005  29.251  33.649  1.00  0.00    -0.206 F 
ATOM     87  C   UNL A   1      46.575  26.103  35.337  1.00  0.00     0.022 A 
BRANCH  84  88
ATOM     88  S   UNL A   1      44.917  24.109  36.364  1.00  0.00     0.124 S 
ATOM     89  O   UNL A   1      44.581  24.647  37.678  1.00  0.00    -0.237 OA
ATOM     90  O   UNL A   1      43.812  23.520  35.615  1.00  0.00    -0.237 OA
ATOM     91  O   UNL A   1      46.174  23.365  36.301  1.00  0.00    -0.744 OA
ENDBRANCH  84  88
ENDBRANCH  58  81
ENDBRANCH  32  33
ENDBRANCH  24  27
ENDBRANCH  22  23
ENDBRANCH   1  22
TORSDOF 15
ENDMDL
MODEL 3
REMARK VINA RESULT:     -11.7      1.434      1.757
REMARK SMILES CN(C(=O)N1CCC(C(=O)NCCCNC(=O)c2ccc(-c3c4nc(c(-c5cc(S(=O)(=O)[O-])ccc5F)c5ccc([nH]5)c(-c5cc(S(=O)(=O)[O-])ccc5F)c5nc(c(-c6cc(S(=O)(=O)[O-])ccc6F)c6ccc3[nH]6)C=C5)C=C4)cc2)CC1)[C@H]1CCSC1
REMARK SMILES IDX 13 1 12 2 11 3 9 4 10 5 8 7 3 8 4 9 5 10 6 11 82 12 7 13
REMARK SMILES IDX 81 14 2 15 1 16 83 17 84 18 87 19 85 20 86 21 14 22 15 23
REMARK SMILES IDX 16 24 17 26 18 27 19 28 80 29 20 30 79 31 21 32 22 33 23 34
REMARK SMILES IDX 73 35 24 36 78 37 72 38 74 39 25 40 77 41 71 42 70 43 26 45
REMARK SMILES IDX 58 46 38 47 57 48 39 49 42 50 56 51 75 52 40 53 41 54 55 56
REMARK SMILES IDX 76 57 43 58 27 59 28 60 36 61 29 62 35 63 37 64 34 65 30 66
REMARK SMILES IDX 31 67 32 68 33 69 59 70 60 71 68 72 61 73 67 74 69 75 66 76
REMARK SMILES IDX 62 77 63 78 64 79 65 80 44 81 45 82 53 83 46 84 52 85 54 86
REMARK SMILES IDX 51 87 47 88 48 89 49 90 50 91
REMARK H PARENT 11 6 15 25 74 44 42 55
REMARK Flexibility Score: inf
ROOT
ATOM      1  C   UNL A   1      31.625  32.003  26.777  1.00  0.00     0.042 C 
ENDROOT
BRANCH   1   2
ATOM      2  C   UNL A   1      31.832  30.603  26.226  1.00  0.00     0.117 C 
BRANCH   2   3
ATOM      3  N   UNL A   1      31.039  30.356  25.030  1.00  0.00    -0.356 N 
ATOM      4  C   UNL A   1      30.990  29.279  24.201  1.00  0.00     0.223 C 
ATOM      5  O   UNL A   1      30.226  29.322  23.234  1.00  0.00    -0.275 OA
ATOM      6  H   UNL A   1      30.437  31.094  24.779  1.00  0.00     0.163 HD
BRANCH   4   7
ATOM      7  C   UNL A   1      31.833  28.043  24.460  1.00  0.00     0.082 C 
ATOM      8  C   UNL A   1      31.983  23.813  24.314  1.00  0.00     0.320 C 
ATOM      9  O   UNL A   1      31.021  23.351  24.931  1.00  0.00    -0.248 OA
ATOM     10  N   UNL A   1      32.228  25.173  24.368  1.00  0.00    -0.325 N 
ATOM     11  C   UNL A   1      31.936  25.818  25.645  1.00  0.00     0.122 C 
ATOM     12  C   UNL A   1      32.893  26.006  23.371  1.00  0.00     0.122 C 
ATOM     13  C   UNL A   1      31.187  27.127  25.498  1.00  0.00     0.035 C 
ATOM     14  C   UNL A   1      32.220  27.351  23.150  1.00  0.00     0.035 C 
BRANCH   8  15
ATOM     15  N   UNL A   1      32.887  22.970  23.683  1.00  0.00    -0.324 N 
ATOM     16  C   UNL A   1      32.827  22.547  22.288  1.00  0.00     0.149 C 
BRANCH  15  17
ATOM     17  C   UNL A   1      34.218  22.772  24.285  1.00  0.00     0.097 C 
ATOM     18  C   UNL A   1      34.364  21.350  24.839  1.00  0.00     0.037 C 
ATOM     19  C   UNL A   1      35.495  23.022  23.473  1.00  0.00     0.094 C 
ATOM     20  C   UNL A   1      35.690  21.327  25.572  1.00  0.00     0.072 C 
ATOM     21  S   UNL A   1      36.811  22.330  24.551  1.00  0.00    -0.160 SA
ENDBRANCH  15  17
ENDBRANCH   8  15
ENDBRANCH   4   7
ENDBRANCH   2   3
ENDBRANCH   1   2
BRANCH   1  22
ATOM     22  C   UNL A   1      32.909  32.657  27.257  1.00  0.00     0.118 C 
BRANCH  22  23
ATOM     23  N   UNL A   1      32.705  34.040  27.665  1.00  0.00    -0.352 N 
ATOM     24  C   UNL A   1      33.238  34.731  28.722  1.00  0.00     0.251 C 
ATOM     25  H   UNL A   1      32.090  34.558  27.095  1.00  0.00     0.163 HD
ATOM     26  O   UNL A   1      32.755  35.820  29.033  1.00  0.00    -0.269 OA
BRANCH  24  27
ATOM     27  C   UNL A   1      34.366  34.163  29.490  1.00  0.00     0.039 A 
ATOM     28  C   UNL A   1      34.098  33.340  30.585  1.00  0.00     0.014 A 
ATOM     29  C   UNL A   1      35.687  34.448  29.136  1.00  0.00     0.014 A 
ATOM     30  C   UNL A   1      35.155  32.759  31.287  1.00  0.00     0.010 A 
ATOM     31  C   UNL A   1      36.733  33.782  29.764  1.00  0.00     0.010 A 
ATOM     32  C   UNL A   1      36.482  32.945  30.860  1.00  0.00    -0.014 A 
BRANCH  32  33
ATOM     33  C   UNL A   1      37.619  32.301  31.565  1.00  0.00     0.031 A 
ATOM     34  C   UNL A   1      38.377  31.182  30.902  1.00  0.00     0.074 A 
ATOM     35  C   UNL A   1      37.936  32.690  32.817  1.00  0.00     0.049 A 
ATOM     36  N   UNL A   1      39.360  30.456  31.370  1.00  0.00    -0.248 NA
ATOM     37  C   UNL A   1      37.950  30.807  29.545  1.00  0.00     0.031 C 
ATOM     38  C   UNL A   1      37.247  33.736  33.576  1.00  0.00     0.029 A 
ATOM     39  N   UNL A   1      38.918  32.254  33.669  1.00  0.00    -0.354 N 
ATOM     40  C   UNL A   1      39.662  29.538  30.371  1.00  0.00     0.074 A 
ATOM     41  C   UNL A   1      38.702  29.745  29.308  1.00  0.00     0.031 C 
ATOM     42  C   UNL A   1      37.856  33.890  34.763  1.00  0.00     0.029 A 
ATOM     43  C   UNL A   1      38.941  32.921  34.873  1.00  0.00     0.049 A 
ATOM     44  H   UNL A   1      39.548  31.533  33.442  1.00  0.00     0.167 HD
ATOM     45  C   UNL A   1      40.667  28.628  30.327  1.00  0.00     0.034 A 
ATOM     46  C   UNL A   1      39.741  32.763  35.945  1.00  0.00     0.034 A 
ATOM     47  C   UNL A   1      41.619  28.441  31.395  1.00  0.00     0.049 A 
ATOM     48  C   UNL A   1      40.822  31.713  35.894  1.00  0.00     0.074 A 
ATOM     49  C   UNL A   1      42.701  27.580  31.443  1.00  0.00     0.029 A 
ATOM     50  N   UNL A   1      41.599  29.120  32.606  1.00  0.00    -0.354 N 
ATOM     51  N   UNL A   1      41.125  30.883  34.922  1.00  0.00    -0.248 NA
ATOM     52  C   UNL A   1      41.676  31.586  37.082  1.00  0.00     0.031 C 
ATOM     53  C   UNL A   1      43.285  27.683  32.711  1.00  0.00     0.029 A 
ATOM     54  C   UNL A   1      42.627  28.673  33.422  1.00  0.00     0.049 A 
ATOM     55  H   UNL A   1      40.948  29.818  32.851  1.00  0.00     0.167 HD
ATOM     56  C   UNL A   1      42.230  30.162  35.369  1.00  0.00     0.074 A 
ATOM     57  C   UNL A   1      42.545  30.666  36.690  1.00  0.00     0.031 C 
ATOM     58  C   UNL A   1      42.924  29.178  34.742  1.00  0.00     0.034 A 
BRANCH  45  59
ATOM     59  C   UNL A   1      40.763  27.759  29.094  1.00  0.00     0.023 A 
ATOM     60  C   UNL A   1      41.687  28.032  28.068  1.00  0.00     0.031 A 
ATOM     61  C   UNL A   1      39.897  26.665  28.920  1.00  0.00     0.131 A 
ATOM     62  C   UNL A   1      41.662  27.282  26.883  1.00  0.00     0.055 A 
ATOM     63  C   UNL A   1      39.943  25.863  27.777  1.00  0.00     0.041 A 
ATOM     64  F   UNL A   1      38.978  26.365  29.851  1.00  0.00    -0.206 F 
ATOM     65  C   UNL A   1      40.816  26.181  26.742  1.00  0.00     0.022 A 
BRANCH  62  66
ATOM     66  S   UNL A   1      42.634  27.871  25.468  1.00  0.00     0.124 S 
ATOM     67  O   UNL A   1      42.657  26.686  24.613  1.00  0.00    -0.237 OA
ATOM     68  O   UNL A   1      41.840  28.993  24.984  1.00  0.00    -0.237 OA
ATOM     69  O   UNL A   1      43.922  28.226  26.061  1.00  0.00    -0.744 OA
ENDBRANCH  62  66
ENDBRANCH  45  59
BRANCH  46  70
ATOM     70  C   UNL A   1      39.559  33.612  37.158  1.00  0.00     0.023 A 
ATOM     71  C   UNL A   1      40.363  34.745  37.372  1.00  0.00     0.031 A 
ATOM     72  C   UNL A   1      38.612  33.283  38.144  1.00  0.00     0.131 A 
ATOM     73  C   UNL A   1      40.240  35.475  38.564  1.00  0.00     0.055 A 
ATOM     74  C   UNL A   1      38.451  34.050  39.300  1.00  0.00     0.041 A 
ATOM     75  F   UNL A   1      37.817  32.212  37.991  1.00  0.00    -0.206 F 
ATOM     76  C   UNL A   1      39.280  35.146  39.521  1.00  0.00     0.022 A 
BRANCH  73  77
ATOM     77  S   UNL A   1      41.427  36.809  38.888  1.00  0.00     0.124 S 
ATOM     78  O   UNL A   1      42.074  36.951  37.590  1.00  0.00    -0.237 OA
ATOM     79  O   UNL A   1      40.549  37.904  39.291  1.00  0.00    -0.237 OA
ATOM     80  O   UNL A   1      42.269  36.264  39.951  1.00  0.00    -0.744 OA
ENDBRANCH  73  77
ENDBRANCH  46  70
BRANCH  58  81
ATOM     81  C   UNL A   1      44.128  28.620  35.463  1.00  0.00     0.023 A 
ATOM     82  C   UNL A   1      44.020  27.566  36.387  1.00  0.00     0.031 A 
ATOM     83  C   UNL A   1      45.405  29.162  35.225  1.00  0.00     0.131 A 
ATOM     84  C   UNL A   1      45.157  27.128  37.082  1.00  0.00     0.055 A 
ATOM     85  C   UNL A   1      46.542  28.674  35.869  1.00  0.00     0.041 A 
ATOM     86  F   UNL A   1      45.568  30.173  34.356  1.00  0.00    -0.206 F 
ATOM     87  C   UNL A   1      46.421  27.661  36.815  1.00  0.00     0.022 A 
BRANCH  84  88
ATOM     88  S   UNL A   1      44.948  25.918  38.419  1.00  0.00     0.124 S 
ATOM     89  O   UNL A   1      44.246  24.834  37.738  1.00  0.00    -0.237 OA
ATOM     90  O   UNL A   1      46.326  25.640  38.807  1.00  0.00    -0.237 OA
ATOM     91  O   UNL A   1      44.157  26.640  39.414  1.00  0.00    -0.744 OA
ENDBRANCH  84  88
ENDBRANCH  58  81
ENDBRANCH  32  33
ENDBRANCH  24  27
ENDBRANCH  22  23
ENDBRANCH   1  22
TORSDOF 15
ENDMDL
