MODEL 1
REMARK VINA RESULT:     -11.1      0.000      0.000
REMARK SMILES CC1(C(=O)N[C@H](C(=O)NCCCNC(=O)c2ccc(-c3c4nc(c(-c5cc(S(=O)(=O)[O-])ccc5F)c5ccc([nH]5)c(-c5cc(S(=O)(=O)[O-])ccc5F)c5nc(c(-c6cc(S(=O)(=O)[O-])ccc6F)c6ccc3[nH]6)C=C5)C=C4)cc2)C2CC2)CCCC1
REMARK SMILES IDX 11 1 10 2 9 3 7 4 8 5 6 7 5 8 3 9 4 10 2 12 1 13 82 14 85 15
REMARK SMILES IDX 83 16 84 17 79 18 80 19 81 20 12 21 13 22 14 23 15 25 16 26
REMARK SMILES IDX 17 27 78 28 18 29 77 30 19 31 20 32 21 33 71 34 22 35 76 36
REMARK SMILES IDX 70 37 72 38 23 39 75 40 69 41 68 42 24 44 56 45 36 46 55 47
REMARK SMILES IDX 37 48 40 49 54 50 73 51 38 52 39 53 53 55 74 56 41 57 25 58
REMARK SMILES IDX 26 59 34 60 27 61 33 62 35 63 32 64 28 65 29 66 30 67 31 68
REMARK SMILES IDX 57 69 58 70 66 71 59 72 65 73 67 74 64 75 60 76 61 77 62 78
REMARK SMILES IDX 63 79 42 80 43 81 51 82 44 83 50 84 52 85 49 86 45 87 46 88
REMARK SMILES IDX 47 89 48 90
REMARK H PARENT 9 6 5 11 13 24 72 43 40 54
REMARK Flexibility Score: inf
ROOT
ATOM      1  C   UNL A   1      32.031  28.986  26.654  1.00  0.00     0.042 C 
ENDROOT
BRANCH   1   2
ATOM      2  C   UNL A   1      32.287  27.489  26.768  1.00  0.00     0.117 C 
BRANCH   2   3
ATOM      3  N   UNL A   1      31.060  26.732  26.916  1.00  0.00    -0.354 N 
ATOM      4  C   UNL A   1      30.459  25.864  26.054  1.00  0.00     0.242 C 
ATOM      5  O   UNL A   1      29.526  25.185  26.495  1.00  0.00    -0.273 OA
ATOM      6  H   UNL A   1      30.590  26.864  27.770  1.00  0.00     0.163 HD
BRANCH   4   7
ATOM      7  C   UNL A   1      31.039  25.592  24.640  1.00  0.00     0.174 C 
BRANCH   7   8
ATOM      8  N   UNL A   1      31.124  24.171  24.317  1.00  0.00    -0.344 N 
ATOM      9  C   UNL A   1      32.176  23.345  24.088  1.00  0.00     0.226 C 
ATOM     10  O   UNL A   1      31.888  22.168  23.852  1.00  0.00    -0.274 OA
ATOM     11  H   UNL A   1      30.248  23.726  24.251  1.00  0.00     0.164 HD
BRANCH   9  12
ATOM     12  C   UNL A   1      33.631  23.833  24.053  1.00  0.00     0.046 C 
ATOM     13  C   UNL A   1      33.818  24.849  22.915  1.00  0.00     0.022 C 
ATOM     14  C   UNL A   1      34.580  22.631  23.834  1.00  0.00     0.016 C 
ATOM     15  C   UNL A   1      34.139  24.353  25.403  1.00  0.00     0.016 C 
ATOM     16  C   UNL A   1      35.942  23.104  24.319  1.00  0.00     0.001 C 
ATOM     17  C   UNL A   1      35.647  24.095  25.436  1.00  0.00     0.001 C 
ENDBRANCH   9  12
ENDBRANCH   7   8
BRANCH   7  18
ATOM     18  C   UNL A   1      30.227  26.345  23.596  1.00  0.00     0.021 C 
ATOM     19  C   UNL A   1      30.112  27.851  23.683  1.00  0.00     0.006 C 
ATOM     20  C   UNL A   1      30.823  27.232  22.517  1.00  0.00     0.006 C 
ENDBRANCH   7  18
ENDBRANCH   4   7
ENDBRANCH   2   3
ENDBRANCH   1   2
BRANCH   1  21
ATOM     21  C   UNL A   1      33.253  29.786  26.207  1.00  0.00     0.118 C 
BRANCH  21  22
ATOM     22  N   UNL A   1      33.176  31.185  26.599  1.00  0.00    -0.352 N 
ATOM     23  C   UNL A   1      33.914  31.888  27.516  1.00  0.00     0.251 C 
ATOM     24  H   UNL A   1      32.485  31.710  26.134  1.00  0.00     0.163 HD
ATOM     25  O   UNL A   1      33.531  33.011  27.850  1.00  0.00    -0.269 OA
BRANCH  23  26
ATOM     26  C   UNL A   1      35.143  31.314  28.101  1.00  0.00     0.039 A 
ATOM     27  C   UNL A   1      35.082  30.044  28.683  1.00  0.00     0.014 A 
ATOM     28  C   UNL A   1      36.338  32.037  28.130  1.00  0.00     0.014 A 
ATOM     29  C   UNL A   1      36.227  29.489  29.261  1.00  0.00     0.010 A 
ATOM     30  C   UNL A   1      37.496  31.449  28.630  1.00  0.00     0.010 A 
ATOM     31  C   UNL A   1      37.449  30.179  29.222  1.00  0.00    -0.014 A 
BRANCH  31  32
ATOM     32  C   UNL A   1      38.671  29.616  29.851  1.00  0.00     0.031 A 
ATOM     33  C   UNL A   1      39.113  30.115  31.202  1.00  0.00     0.074 A 
ATOM     34  C   UNL A   1      39.403  28.694  29.193  1.00  0.00     0.049 A 
ATOM     35  N   UNL A   1      40.184  29.813  31.889  1.00  0.00    -0.248 NA
ATOM     36  C   UNL A   1      38.245  31.111  31.850  1.00  0.00     0.031 C 
ATOM     37  C   UNL A   1      39.091  28.158  27.867  1.00  0.00     0.029 A 
ATOM     38  N   UNL A   1      40.560  28.049  29.549  1.00  0.00    -0.354 N 
ATOM     39  C   UNL A   1      40.127  30.593  33.041  1.00  0.00     0.074 A 
ATOM     40  C   UNL A   1      38.953  31.430  32.922  1.00  0.00     0.031 C 
ATOM     41  C   UNL A   1      40.019  27.245  27.534  1.00  0.00     0.029 A 
ATOM     42  C   UNL A   1      41.013  27.163  28.599  1.00  0.00     0.049 A 
ATOM     43  H   UNL A   1      41.022  28.205  30.404  1.00  0.00     0.167 HD
ATOM     44  C   UNL A   1      40.961  30.591  34.111  1.00  0.00     0.034 A 
ATOM     45  C   UNL A   1      42.111  26.380  28.588  1.00  0.00     0.034 A 
ATOM     46  C   UNL A   1      42.118  29.736  34.219  1.00  0.00     0.049 A 
ATOM     47  C   UNL A   1      43.033  26.406  29.782  1.00  0.00     0.074 A 
ATOM     48  C   UNL A   1      43.015  29.625  35.266  1.00  0.00     0.029 A 
ATOM     49  N   UNL A   1      42.538  28.842  33.242  1.00  0.00    -0.354 N 
ATOM     50  N   UNL A   1      42.948  27.125  30.878  1.00  0.00    -0.248 NA
ATOM     51  C   UNL A   1      44.188  25.501  29.744  1.00  0.00     0.031 C 
ATOM     52  C   UNL A   1      44.009  28.711  34.899  1.00  0.00     0.029 A 
ATOM     53  C   UNL A   1      43.690  28.190  33.655  1.00  0.00     0.049 A 
ATOM     54  H   UNL A   1      42.085  28.692  32.381  1.00  0.00     0.167 HD
ATOM     55  C   UNL A   1      44.015  26.724  31.677  1.00  0.00     0.074 A 
ATOM     56  C   UNL A   1      44.720  25.695  30.942  1.00  0.00     0.031 C 
ATOM     57  C   UNL A   1      44.377  27.161  32.911  1.00  0.00     0.034 A 
BRANCH  44  58
ATOM     58  C   UNL A   1      40.655  31.557  35.232  1.00  0.00     0.023 A 
ATOM     59  C   UNL A   1      39.614  31.319  36.148  1.00  0.00     0.031 A 
ATOM     60  C   UNL A   1      41.390  32.747  35.371  1.00  0.00     0.131 A 
ATOM     61  C   UNL A   1      39.285  32.291  37.104  1.00  0.00     0.055 A 
ATOM     62  C   UNL A   1      41.114  33.670  36.381  1.00  0.00     0.041 A 
ATOM     63  F   UNL A   1      42.382  33.042  34.515  1.00  0.00    -0.206 F 
ATOM     64  C   UNL A   1      40.045  33.453  37.245  1.00  0.00     0.022 A 
BRANCH  61  65
ATOM     65  S   UNL A   1      37.758  32.081  38.060  1.00  0.00     0.124 S 
ATOM     66  O   UNL A   1      38.226  32.335  39.421  1.00  0.00    -0.237 OA
ATOM     67  O   UNL A   1      36.882  33.096  37.485  1.00  0.00    -0.237 OA
ATOM     68  O   UNL A   1      37.372  30.698  37.790  1.00  0.00    -0.744 OA
ENDBRANCH  61  65
ENDBRANCH  44  58
BRANCH  45  69
ATOM     69  C   UNL A   1      42.405  25.501  27.419  1.00  0.00     0.023 A 
ATOM     70  C   UNL A   1      41.905  24.190  27.357  1.00  0.00     0.031 A 
ATOM     71  C   UNL A   1      43.236  25.938  26.372  1.00  0.00     0.131 A 
ATOM     72  C   UNL A   1      42.286  23.343  26.306  1.00  0.00     0.055 A 
ATOM     73  C   UNL A   1      43.566  25.110  25.297  1.00  0.00     0.041 A 
ATOM     74  F   UNL A   1      43.737  27.183  26.377  1.00  0.00    -0.206 F 
ATOM     75  C   UNL A   1      43.103  23.798  25.269  1.00  0.00     0.022 A 
BRANCH  72  76
ATOM     76  S   UNL A   1      41.781  21.601  26.368  1.00  0.00     0.124 S 
ATOM     77  O   UNL A   1      42.060  21.263  27.759  1.00  0.00    -0.237 OA
ATOM     78  O   UNL A   1      40.373  21.683  25.996  1.00  0.00    -0.237 OA
ATOM     79  O   UNL A   1      42.649  20.960  25.383  1.00  0.00    -0.744 OA
ENDBRANCH  72  76
ENDBRANCH  45  69
BRANCH  57  80
ATOM     80  C   UNL A   1      45.549  26.471  33.568  1.00  0.00     0.023 A 
ATOM     81  C   UNL A   1      45.387  25.331  34.374  1.00  0.00     0.031 A 
ATOM     82  C   UNL A   1      46.848  26.979  33.394  1.00  0.00     0.131 A 
ATOM     83  C   UNL A   1      46.497  24.774  35.025  1.00  0.00     0.055 A 
ATOM     84  C   UNL A   1      47.958  26.382  33.994  1.00  0.00     0.041 A 
ATOM     85  F   UNL A   1      47.062  28.067  32.637  1.00  0.00    -0.206 F 
ATOM     86  C   UNL A   1      47.784  25.281  34.827  1.00  0.00     0.022 A 
BRANCH  83  87
ATOM     87  S   UNL A   1      46.224  23.436  36.221  1.00  0.00     0.124 S 
ATOM     88  O   UNL A   1      47.308  22.515  35.899  1.00  0.00    -0.237 OA
ATOM     89  O   UNL A   1      46.337  24.132  37.498  1.00  0.00    -0.237 OA
ATOM     90  O   UNL A   1      44.882  22.954  35.895  1.00  0.00    -0.744 OA
ENDBRANCH  83  87
ENDBRANCH  57  80
ENDBRANCH  31  32
ENDBRANCH  23  26
ENDBRANCH  21  22
ENDBRANCH   1  21
TORSDOF 16
ENDMDL
MODEL 2
REMARK VINA RESULT:     -10.9      2.488      2.854
REMARK SMILES CC1(C(=O)N[C@H](C(=O)NCCCNC(=O)c2ccc(-c3c4nc(c(-c5cc(S(=O)(=O)[O-])ccc5F)c5ccc([nH]5)c(-c5cc(S(=O)(=O)[O-])ccc5F)c5nc(c(-c6cc(S(=O)(=O)[O-])ccc6F)c6ccc3[nH]6)C=C5)C=C4)cc2)C2CC2)CCCC1
REMARK SMILES IDX 11 1 10 2 9 3 7 4 8 5 6 7 5 8 3 9 4 10 2 12 1 13 82 14 85 15
REMARK SMILES IDX 83 16 84 17 79 18 80 19 81 20 12 21 13 22 14 23 15 25 16 26
REMARK SMILES IDX 17 27 78 28 18 29 77 30 19 31 20 32 21 33 71 34 22 35 76 36
REMARK SMILES IDX 70 37 72 38 23 39 75 40 69 41 68 42 24 44 56 45 36 46 55 47
REMARK SMILES IDX 37 48 40 49 54 50 73 51 38 52 39 53 53 55 74 56 41 57 25 58
REMARK SMILES IDX 26 59 34 60 27 61 33 62 35 63 32 64 28 65 29 66 30 67 31 68
REMARK SMILES IDX 57 69 58 70 66 71 59 72 65 73 67 74 64 75 60 76 61 77 62 78
REMARK SMILES IDX 63 79 42 80 43 81 51 82 44 83 50 84 52 85 49 86 45 87 46 88
REMARK SMILES IDX 47 89 48 90
REMARK H PARENT 9 6 5 11 13 24 72 43 40 54
REMARK Flexibility Score: inf
ROOT
ATOM      1  C   UNL A   1      32.973  28.093  26.989  1.00  0.00     0.042 C 
ENDROOT
BRANCH   1   2
ATOM      2  C   UNL A   1      32.732  26.773  26.268  1.00  0.00     0.117 C 
BRANCH   2   3
ATOM      3  N   UNL A   1      31.442  26.196  26.594  1.00  0.00    -0.354 N 
ATOM      4  C   UNL A   1      30.798  25.129  26.045  1.00  0.00     0.242 C 
ATOM      5  O   UNL A   1      29.799  24.707  26.635  1.00  0.00    -0.273 OA
ATOM      6  H   UNL A   1      30.959  26.645  27.325  1.00  0.00     0.163 HD
BRANCH   4   7
ATOM      7  C   UNL A   1      31.396  24.351  24.842  1.00  0.00     0.174 C 
BRANCH   7   8
ATOM      8  N   UNL A   1      31.293  22.902  24.985  1.00  0.00    -0.344 N 
ATOM      9  C   UNL A   1      32.218  21.935  25.207  1.00  0.00     0.226 C 
ATOM     10  O   UNL A   1      31.778  20.785  25.292  1.00  0.00    -0.274 OA
ATOM     11  H   UNL A   1      30.373  22.560  24.903  1.00  0.00     0.164 HD
BRANCH   9  12
ATOM     12  C   UNL A   1      33.725  22.220  25.284  1.00  0.00     0.046 C 
ATOM     13  C   UNL A   1      34.016  23.212  26.421  1.00  0.00     0.022 C 
ATOM     14  C   UNL A   1      34.213  22.814  23.941  1.00  0.00     0.016 C 
ATOM     15  C   UNL A   1      34.587  20.955  25.364  1.00  0.00     0.016 C 
ATOM     16  C   UNL A   1      35.716  22.580  23.923  1.00  0.00     0.001 C 
ATOM     17  C   UNL A   1      35.929  21.294  24.710  1.00  0.00     0.001 C 
ENDBRANCH   9  12
ENDBRANCH   7   8
BRANCH   7  18
ATOM     18  C   UNL A   1      30.748  24.823  23.548  1.00  0.00     0.021 C 
ATOM     19  C   UNL A   1      30.562  26.303  23.303  1.00  0.00     0.006 C 
ATOM     20  C   UNL A   1      31.485  25.520  22.419  1.00  0.00     0.006 C 
ENDBRANCH   7  18
ENDBRANCH   4   7
ENDBRANCH   2   3
ENDBRANCH   1   2
BRANCH   1  21
ATOM     21  C   UNL A   1      33.795  29.093  26.179  1.00  0.00     0.118 C 
BRANCH  21  22
ATOM     22  N   UNL A   1      33.699  30.447  26.705  1.00  0.00    -0.352 N 
ATOM     23  C   UNL A   1      34.448  31.079  27.663  1.00  0.00     0.251 C 
ATOM     24  H   UNL A   1      32.983  30.996  26.311  1.00  0.00     0.163 HD
ATOM     25  O   UNL A   1      34.051  32.155  28.113  1.00  0.00    -0.269 OA
BRANCH  23  26
ATOM     26  C   UNL A   1      35.706  30.483  28.157  1.00  0.00     0.039 A 
ATOM     27  C   UNL A   1      35.676  29.720  29.328  1.00  0.00     0.014 A 
ATOM     28  C   UNL A   1      36.922  30.714  27.507  1.00  0.00     0.014 A 
ATOM     29  C   UNL A   1      36.857  29.163  29.826  1.00  0.00     0.010 A 
ATOM     30  C   UNL A   1      38.081  30.090  27.956  1.00  0.00     0.010 A 
ATOM     31  C   UNL A   1      38.067  29.327  29.133  1.00  0.00    -0.014 A 
BRANCH  31  32
ATOM     32  C   UNL A   1      39.337  28.762  29.657  1.00  0.00     0.031 A 
ATOM     33  C   UNL A   1      39.960  29.351  30.896  1.00  0.00     0.074 A 
ATOM     34  C   UNL A   1      39.947  27.755  29.001  1.00  0.00     0.049 A 
ATOM     35  N   UNL A   1      41.097  29.058  31.473  1.00  0.00    -0.248 NA
ATOM     36  C   UNL A   1      39.216  30.438  31.553  1.00  0.00     0.031 C 
ATOM     37  C   UNL A   1      39.455  27.125  27.775  1.00  0.00     0.029 A 
ATOM     38  N   UNL A   1      41.115  27.088  29.271  1.00  0.00    -0.354 N 
ATOM     39  C   UNL A   1      41.212  29.933  32.550  1.00  0.00     0.074 A 
ATOM     40  C   UNL A   1      40.063  30.811  32.499  1.00  0.00     0.031 C 
ATOM     41  C   UNL A   1      40.300  26.145  27.415  1.00  0.00     0.029 A 
ATOM     42  C   UNL A   1      41.415  26.106  28.355  1.00  0.00     0.049 A 
ATOM     43  H   UNL A   1      41.686  27.294  30.047  1.00  0.00     0.167 HD
ATOM     44  C   UNL A   1      42.171  29.982  33.507  1.00  0.00     0.034 A 
ATOM     45  C   UNL A   1      42.474  25.274  28.281  1.00  0.00     0.034 A 
ATOM     46  C   UNL A   1      43.301  29.086  33.550  1.00  0.00     0.049 A 
ATOM     47  C   UNL A   1      43.538  25.357  29.349  1.00  0.00     0.074 A 
ATOM     48  C   UNL A   1      44.317  29.021  34.488  1.00  0.00     0.029 A 
ATOM     49  N   UNL A   1      43.564  28.094  32.613  1.00  0.00    -0.354 N 
ATOM     50  N   UNL A   1      43.615  26.168  30.379  1.00  0.00    -0.248 NA
ATOM     51  C   UNL A   1      44.646  24.399  29.253  1.00  0.00     0.031 C 
ATOM     52  C   UNL A   1      45.224  28.034  34.086  1.00  0.00     0.029 A 
ATOM     53  C   UNL A   1      44.734  27.426  32.941  1.00  0.00     0.049 A 
ATOM     54  H   UNL A   1      43.002  27.894  31.830  1.00  0.00     0.167 HD
ATOM     55  C   UNL A   1      44.758  25.786  31.076  1.00  0.00     0.074 A 
ATOM     56  C   UNL A   1      45.329  24.668  30.356  1.00  0.00     0.031 C 
ATOM     57  C   UNL A   1      45.286  26.308  32.214  1.00  0.00     0.034 A 
BRANCH  44  58
ATOM     58  C   UNL A   1      42.042  31.052  34.567  1.00  0.00     0.023 A 
ATOM     59  C   UNL A   1      42.598  32.332  34.395  1.00  0.00     0.031 A 
ATOM     60  C   UNL A   1      41.384  30.781  35.780  1.00  0.00     0.131 A 
ATOM     61  C   UNL A   1      42.560  33.261  35.444  1.00  0.00     0.055 A 
ATOM     62  C   UNL A   1      41.272  31.742  36.787  1.00  0.00     0.041 A 
ATOM     63  F   UNL A   1      40.851  29.571  36.014  1.00  0.00    -0.206 F 
ATOM     64  C   UNL A   1      41.876  32.985  36.630  1.00  0.00     0.022 A 
BRANCH  61  65
ATOM     65  S   UNL A   1      43.543  34.778  35.294  1.00  0.00     0.124 S 
ATOM     66  O   UNL A   1      44.035  34.946  36.660  1.00  0.00    -0.237 OA
ATOM     67  O   UNL A   1      44.541  34.411  34.296  1.00  0.00    -0.237 OA
ATOM     68  O   UNL A   1      42.568  35.778  34.864  1.00  0.00    -0.744 OA
ENDBRANCH  61  65
ENDBRANCH  44  58
BRANCH  45  69
ATOM     69  C   UNL A   1      42.589  24.288  27.169  1.00  0.00     0.023 A 
ATOM     70  C   UNL A   1      41.954  23.037  27.243  1.00  0.00     0.031 A 
ATOM     71  C   UNL A   1      43.380  24.558  26.038  1.00  0.00     0.131 A 
ATOM     72  C   UNL A   1      42.168  22.082  26.239  1.00  0.00     0.055 A 
ATOM     73  C   UNL A   1      43.543  23.624  25.012  1.00  0.00     0.041 A 
ATOM     74  F   UNL A   1      44.005  25.738  25.912  1.00  0.00    -0.206 F 
ATOM     75  C   UNL A   1      42.947  22.371  25.118  1.00  0.00     0.022 A 
BRANCH  72  76
ATOM     76  S   UNL A   1      41.493  20.413  26.472  1.00  0.00     0.124 S 
ATOM     77  O   UNL A   1      42.196  19.664  25.438  1.00  0.00    -0.237 OA
ATOM     78  O   UNL A   1      41.877  20.123  27.849  1.00  0.00    -0.237 OA
ATOM     79  O   UNL A   1      40.060  20.591  26.249  1.00  0.00    -0.744 OA
ENDBRANCH  72  76
ENDBRANCH  45  69
BRANCH  57  80
ATOM     80  C   UNL A   1      46.505  25.621  32.783  1.00  0.00     0.023 A 
ATOM     81  C   UNL A   1      47.803  25.908  32.327  1.00  0.00     0.031 A 
ATOM     82  C   UNL A   1      46.356  24.649  33.788  1.00  0.00     0.131 A 
ATOM     83  C   UNL A   1      48.895  25.185  32.832  1.00  0.00     0.055 A 
ATOM     84  C   UNL A   1      47.452  23.979  34.332  1.00  0.00     0.041 A 
ATOM     85  F   UNL A   1      45.139  24.334  34.260  1.00  0.00    -0.206 F 
ATOM     86  C   UNL A   1      48.730  24.235  33.843  1.00  0.00     0.022 A 
BRANCH  83  87
ATOM     87  S   UNL A   1      50.525  25.429  32.074  1.00  0.00     0.124 S 
ATOM     88  O   UNL A   1      50.395  26.762  31.494  1.00  0.00    -0.237 OA
ATOM     89  O   UNL A   1      51.421  25.318  33.221  1.00  0.00    -0.237 OA
ATOM     90  O   UNL A   1      50.620  24.337  31.106  1.00  0.00    -0.744 OA
ENDBRANCH  83  87
ENDBRANCH  57  80
ENDBRANCH  31  32
ENDBRANCH  23  26
ENDBRANCH  21  22
ENDBRANCH   1  21
TORSDOF 16
ENDMDL
MODEL 3
REMARK VINA RESULT:     -10.8      4.842      9.729
REMARK SMILES CC1(C(=O)N[C@H](C(=O)NCCCNC(=O)c2ccc(-c3c4nc(c(-c5cc(S(=O)(=O)[O-])ccc5F)c5ccc([nH]5)c(-c5cc(S(=O)(=O)[O-])ccc5F)c5nc(c(-c6cc(S(=O)(=O)[O-])ccc6F)c6ccc3[nH]6)C=C5)C=C4)cc2)C2CC2)CCCC1
REMARK SMILES IDX 11 1 10 2 9 3 7 4 8 5 6 7 5 8 3 9 4 10 2 12 1 13 82 14 85 15
REMARK SMILES IDX 83 16 84 17 79 18 80 19 81 20 12 21 13 22 14 23 15 25 16 26
REMARK SMILES IDX 17 27 78 28 18 29 77 30 19 31 20 32 21 33 71 34 22 35 76 36
REMARK SMILES IDX 70 37 72 38 23 39 75 40 69 41 68 42 24 44 56 45 36 46 55 47
REMARK SMILES IDX 37 48 40 49 54 50 73 51 38 52 39 53 53 55 74 56 41 57 25 58
REMARK SMILES IDX 26 59 34 60 27 61 33 62 35 63 32 64 28 65 29 66 30 67 31 68
REMARK SMILES IDX 57 69 58 70 66 71 59 72 65 73 67 74 64 75 60 76 61 77 62 78
REMARK SMILES IDX 63 79 42 80 43 81 51 82 44 83 50 84 52 85 49 86 45 87 46 88
REMARK SMILES IDX 47 89 48 90
REMARK H PARENT 9 6 5 11 13 24 72 43 40 54
REMARK Flexibility Score: inf
ROOT
ATOM      1  C   UNL A   1      36.006  23.373  24.729  1.00  0.00     0.042 C 
ENDROOT
BRANCH   1   2
ATOM      2  C   UNL A   1      34.945  24.464  24.661  1.00  0.00     0.117 C 
BRANCH   2   3
ATOM      3  N   UNL A   1      34.678  24.887  23.301  1.00  0.00    -0.354 N 
ATOM      4  C   UNL A   1      33.556  25.439  22.761  1.00  0.00     0.242 C 
ATOM      5  O   UNL A   1      33.646  25.904  21.620  1.00  0.00    -0.273 OA
ATOM      6  H   UNL A   1      35.423  24.756  22.670  1.00  0.00     0.163 HD
BRANCH   4   7
ATOM      7  C   UNL A   1      32.270  25.655  23.606  1.00  0.00     0.174 C 
BRANCH   7   8
ATOM      8  N   UNL A   1      31.649  26.956  23.385  1.00  0.00    -0.344 N 
ATOM      9  C   UNL A   1      31.567  28.074  24.150  1.00  0.00     0.226 C 
ATOM     10  O   UNL A   1      30.968  29.026  23.641  1.00  0.00    -0.274 OA
ATOM     11  H   UNL A   1      31.201  27.040  22.512  1.00  0.00     0.164 HD
BRANCH   9  12
ATOM     12  C   UNL A   1      32.116  28.150  25.582  1.00  0.00     0.046 C 
ATOM     13  C   UNL A   1      31.351  27.177  26.491  1.00  0.00     0.022 C 
ATOM     14  C   UNL A   1      31.965  29.592  26.123  1.00  0.00     0.016 C 
ATOM     15  C   UNL A   1      33.637  27.973  25.668  1.00  0.00     0.016 C 
ATOM     16  C   UNL A   1      32.959  29.694  27.271  1.00  0.00     0.001 C 
ATOM     17  C   UNL A   1      34.104  28.766  26.891  1.00  0.00     0.001 C 
ENDBRANCH   9  12
ENDBRANCH   7   8
BRANCH   7  18
ATOM     18  C   UNL A   1      31.286  24.524  23.344  1.00  0.00     0.021 C 
ATOM     19  C   UNL A   1      31.801  23.118  23.136  1.00  0.00     0.006 C 
ATOM     20  C   UNL A   1      30.955  23.423  24.335  1.00  0.00     0.006 C 
ENDBRANCH   7  18
ENDBRANCH   4   7
ENDBRANCH   2   3
ENDBRANCH   1   2
BRANCH   1  21
ATOM     21  C   UNL A   1      36.560  23.141  26.133  1.00  0.00     0.118 C 
BRANCH  21  22
ATOM     22  N   UNL A   1      37.747  22.300  26.131  1.00  0.00    -0.352 N 
ATOM     23  C   UNL A   1      39.065  22.630  26.308  1.00  0.00     0.251 C 
ATOM     24  H   UNL A   1      37.577  21.342  25.978  1.00  0.00     0.163 HD
ATOM     25  O   UNL A   1      39.928  21.790  26.044  1.00  0.00    -0.269 OA
BRANCH  23  26
ATOM     26  C   UNL A   1      39.453  23.969  26.797  1.00  0.00     0.039 A 
ATOM     27  C   UNL A   1      39.983  24.891  25.890  1.00  0.00     0.014 A 
ATOM     28  C   UNL A   1      39.348  24.304  28.150  1.00  0.00     0.014 A 
ATOM     29  C   UNL A   1      40.375  26.156  26.334  1.00  0.00     0.010 A 
ATOM     30  C   UNL A   1      39.660  25.592  28.575  1.00  0.00     0.010 A 
ATOM     31  C   UNL A   1      40.199  26.525  27.677  1.00  0.00    -0.014 A 
BRANCH  31  32
ATOM     32  C   UNL A   1      40.630  27.857  28.173  1.00  0.00     0.031 A 
ATOM     33  C   UNL A   1      42.094  28.214  28.175  1.00  0.00     0.074 A 
ATOM     34  C   UNL A   1      39.717  28.722  28.658  1.00  0.00     0.049 A 
ATOM     35  N   UNL A   1      42.686  29.287  28.633  1.00  0.00    -0.248 NA
ATOM     36  C   UNL A   1      43.016  27.213  27.615  1.00  0.00     0.031 C 
ATOM     37  C   UNL A   1      38.277  28.475  28.735  1.00  0.00     0.029 A 
ATOM     38  N   UNL A   1      39.867  29.982  29.180  1.00  0.00    -0.354 N 
ATOM     39  C   UNL A   1      44.048  29.084  28.430  1.00  0.00     0.074 A 
ATOM     40  C   UNL A   1      44.195  27.756  27.875  1.00  0.00     0.031 C 
ATOM     41  C   UNL A   1      37.672  29.560  29.248  1.00  0.00     0.029 A 
ATOM     42  C   UNL A   1      38.683  30.559  29.576  1.00  0.00     0.049 A 
ATOM     43  H   UNL A   1      40.740  30.430  29.264  1.00  0.00     0.167 HD
ATOM     44  C   UNL A   1      45.078  29.935  28.660  1.00  0.00     0.034 A 
ATOM     45  C   UNL A   1      38.443  31.758  30.146  1.00  0.00     0.034 A 
ATOM     46  C   UNL A   1      44.911  31.263  29.200  1.00  0.00     0.049 A 
ATOM     47  C   UNL A   1      39.606  32.683  30.408  1.00  0.00     0.074 A 
ATOM     48  C   UNL A   1      45.876  32.223  29.445  1.00  0.00     0.029 A 
ATOM     49  N   UNL A   1      43.694  31.819  29.576  1.00  0.00    -0.354 N 
ATOM     50  N   UNL A   1      40.886  32.489  30.180  1.00  0.00    -0.248 NA
ATOM     51  C   UNL A   1      39.290  33.995  30.985  1.00  0.00     0.031 C 
ATOM     52  C   UNL A   1      45.252  33.334  30.025  1.00  0.00     0.029 A 
ATOM     53  C   UNL A   1      43.887  33.101  30.067  1.00  0.00     0.049 A 
ATOM     54  H   UNL A   1      42.821  31.369  29.504  1.00  0.00     0.167 HD
ATOM     55  C   UNL A   1      41.519  33.673  30.547  1.00  0.00     0.074 A 
ATOM     56  C   UNL A   1      40.481  34.576  30.998  1.00  0.00     0.031 C 
ATOM     57  C   UNL A   1      42.839  33.990  30.508  1.00  0.00     0.034 A 
BRANCH  44  58
ATOM     58  C   UNL A   1      46.472  29.441  28.346  1.00  0.00     0.023 A 
ATOM     59  C   UNL A   1      47.249  28.767  29.304  1.00  0.00     0.031 A 
ATOM     60  C   UNL A   1      47.045  29.675  27.084  1.00  0.00     0.131 A 
ATOM     61  C   UNL A   1      48.579  28.426  29.016  1.00  0.00     0.055 A 
ATOM     62  C   UNL A   1      48.340  29.254  26.774  1.00  0.00     0.041 A 
ATOM     63  F   UNL A   1      46.363  30.333  26.133  1.00  0.00    -0.206 F 
ATOM     64  C   UNL A   1      49.121  28.640  27.748  1.00  0.00     0.022 A 
BRANCH  61  65
ATOM     65  S   UNL A   1      49.633  27.835  30.369  1.00  0.00     0.124 S 
ATOM     66  O   UNL A   1      49.016  26.548  30.682  1.00  0.00    -0.237 OA
ATOM     67  O   UNL A   1      50.949  27.779  29.743  1.00  0.00    -0.237 OA
ATOM     68  O   UNL A   1      49.475  28.860  31.399  1.00  0.00    -0.744 OA
ENDBRANCH  61  65
ENDBRANCH  44  58
BRANCH  45  69
ATOM     69  C   UNL A   1      37.054  32.163  30.507  1.00  0.00     0.023 A 
ATOM     70  C   UNL A   1      36.202  32.750  29.557  1.00  0.00     0.031 A 
ATOM     71  C   UNL A   1      36.574  32.022  31.821  1.00  0.00     0.131 A 
ATOM     72  C   UNL A   1      34.942  33.227  29.944  1.00  0.00     0.055 A 
ATOM     73  C   UNL A   1      35.295  32.446  32.190  1.00  0.00     0.041 A 
ATOM     74  F   UNL A   1      37.342  31.463  32.769  1.00  0.00    -0.206 F 
ATOM     75  C   UNL A   1      34.477  33.068  31.251  1.00  0.00     0.022 A 
BRANCH  72  76
ATOM     76  S   UNL A   1      33.956  34.155  28.736  1.00  0.00     0.124 S 
ATOM     77  O   UNL A   1      33.626  33.119  27.766  1.00  0.00    -0.237 OA
ATOM     78  O   UNL A   1      32.853  34.641  29.558  1.00  0.00    -0.237 OA
ATOM     79  O   UNL A   1      34.879  35.184  28.262  1.00  0.00    -0.744 OA
ENDBRANCH  72  76
ENDBRANCH  45  69
BRANCH  57  80
ATOM     80  C   UNL A   1      43.219  35.399  30.899  1.00  0.00     0.023 A 
ATOM     81  C   UNL A   1      43.366  36.423  29.948  1.00  0.00     0.031 A 
ATOM     82  C   UNL A   1      43.454  35.711  32.250  1.00  0.00     0.131 A 
ATOM     83  C   UNL A   1      43.798  37.694  30.353  1.00  0.00     0.055 A 
ATOM     84  C   UNL A   1      43.821  36.995  32.654  1.00  0.00     0.041 A 
ATOM     85  F   UNL A   1      43.330  34.772  33.201  1.00  0.00    -0.206 F 
ATOM     86  C   UNL A   1      44.010  37.993  31.701  1.00  0.00     0.022 A 
BRANCH  83  87
ATOM     87  S   UNL A   1      44.180  38.930  29.080  1.00  0.00     0.124 S 
ATOM     88  O   UNL A   1      45.624  38.782  28.936  1.00  0.00    -0.237 OA
ATOM     89  O   UNL A   1      43.375  38.475  27.952  1.00  0.00    -0.237 OA
ATOM     90  O   UNL A   1      43.743  40.189  29.684  1.00  0.00    -0.744 OA
ENDBRANCH  83  87
ENDBRANCH  57  80
ENDBRANCH  31  32
ENDBRANCH  23  26
ENDBRANCH  21  22
ENDBRANCH   1  21
TORSDOF 16
ENDMDL
