MODEL 1
REMARK VINA RESULT:     -12.2      0.000      0.000
REMARK SMILES CC[C@](C)([NH3+])C(=O)N1CC[NH+]([C@H](C)C(=O)NCCCNC(=O)c2ccc(-c3c4nc(c(-c5cc(S(=O)(=O)[O-])ccc5F)c5ccc([nH]5)c(-c5cc(S(=O)(=O)[O-])ccc5F)c5nc(c(-c6cc(S(=O)(=O)[O-])ccc6F)c6ccc3[nH]6)C=C5)C=C4)cc2)CC1
REMARK SMILES IDX 18 1 17 2 16 3 14 4 15 5 12 7 13 8 11 9 6 10 7 11 8 12 9 13
REMARK SMILES IDX 87 14 10 15 86 16 3 18 4 19 2 20 1 21 5 22 19 26 20 27 21 28
REMARK SMILES IDX 22 30 23 31 24 32 85 33 25 34 84 35 26 36 27 37 28 38 78 39
REMARK SMILES IDX 29 40 83 41 77 42 79 43 30 44 82 45 76 46 75 47 31 49 63 50
REMARK SMILES IDX 43 51 62 52 44 53 47 54 61 55 80 56 45 57 46 58 60 60 81 61
REMARK SMILES IDX 48 62 32 63 33 64 41 65 34 66 40 67 42 68 39 69 35 70 36 71
REMARK SMILES IDX 37 72 38 73 64 74 65 75 73 76 66 77 72 78 74 79 71 80 67 81
REMARK SMILES IDX 68 82 69 83 70 84 49 85 50 86 58 87 51 88 57 89 59 90 56 91
REMARK SMILES IDX 52 92 53 93 54 94 55 95
REMARK H PARENT 16 6 11 17 5 23 5 24 5 25 20 29 79 48 47 59
REMARK Flexibility Score: inf
ROOT
ATOM      1  C   UNL A   1      35.705  23.006  24.060  1.00  0.00     0.042 C 
ENDROOT
BRANCH   1   2
ATOM      2  C   UNL A   1      34.732  24.169  24.122  1.00  0.00     0.118 C 
BRANCH   2   3
ATOM      3  N   UNL A   1      34.034  24.412  22.870  1.00  0.00    -0.351 N 
ATOM      4  C   UNL A   1      33.633  25.573  22.275  1.00  0.00     0.278 C 
ATOM      5  O   UNL A   1      33.240  25.484  21.105  1.00  0.00    -0.268 OA
ATOM      6  H   UNL A   1      33.811  23.597  22.364  1.00  0.00     0.163 HD
BRANCH   4   7
ATOM      7  C   UNL A   1      33.651  26.938  23.001  1.00  0.00     0.271 C 
ATOM      8  C   UNL A   1      34.273  28.058  22.157  1.00  0.00     0.086 C 
BRANCH   7   9
ATOM      9  N   UNL A   1      32.386  27.235  23.738  1.00  0.00    -0.322 N 
ATOM     10  C   UNL A   1      28.813  29.035  23.018  1.00  0.00     0.283 C 
ATOM     11  O   UNL A   1      27.787  28.389  22.758  1.00  0.00    -0.268 OA
ATOM     12  N   UNL A   1      29.766  28.464  23.847  1.00  0.00    -0.326 N 
ATOM     13  C   UNL A   1      29.861  27.010  23.879  1.00  0.00     0.181 C 
ATOM     14  C   UNL A   1      30.859  29.082  24.590  1.00  0.00     0.181 C 
ATOM     15  C   UNL A   1      31.173  26.616  23.170  1.00  0.00     0.284 C 
ATOM     16  C   UNL A   1      32.222  28.687  23.986  1.00  0.00     0.284 C 
ATOM     17  H   UNL A   1      32.497  26.775  24.642  1.00  0.00     0.348 HD
BRANCH  10  18
ATOM     18  C   UNL A   1      29.092  30.357  22.213  1.00  0.00     0.171 C 
ATOM     19  C   UNL A   1      29.105  31.543  23.200  1.00  0.00     0.090 C 
BRANCH  18  20
ATOM     20  C   UNL A   1      27.998  30.568  21.133  1.00  0.00     0.075 C 
ATOM     21  C   UNL A   1      27.979  31.940  20.465  1.00  0.00     0.011 C 
ENDBRANCH  18  20
BRANCH  18  22
ATOM     22  N   UNL A   1      30.418  30.359  21.546  1.00  0.00    -0.345 N 
ATOM     23  H   UNL A   1      31.020  29.664  21.984  1.00  0.00     0.345 HD
ATOM     24  H   UNL A   1      30.842  31.283  21.637  1.00  0.00     0.345 HD
ATOM     25  H   UNL A   1      30.302  30.134  20.557  1.00  0.00     0.345 HD
ENDBRANCH  18  22
ENDBRANCH  10  18
ENDBRANCH   7   9
ENDBRANCH   4   7
ENDBRANCH   2   3
ENDBRANCH   1   2
BRANCH   1  26
ATOM     26  C   UNL A   1      36.095  22.471  25.430  1.00  0.00     0.118 C 
BRANCH  26  27
ATOM     27  N   UNL A   1      37.039  21.359  25.365  1.00  0.00    -0.352 N 
ATOM     28  C   UNL A   1      38.378  21.295  25.684  1.00  0.00     0.251 C 
ATOM     29  H   UNL A   1      36.653  20.514  25.038  1.00  0.00     0.163 HD
ATOM     30  O   UNL A   1      39.022  20.297  25.386  1.00  0.00    -0.269 OA
BRANCH  28  31
ATOM     31  C   UNL A   1      39.039  22.444  26.341  1.00  0.00     0.039 A 
ATOM     32  C   UNL A   1      40.115  22.220  27.204  1.00  0.00     0.014 A 
ATOM     33  C   UNL A   1      38.614  23.745  26.084  1.00  0.00     0.014 A 
ATOM     34  C   UNL A   1      40.834  23.307  27.710  1.00  0.00     0.010 A 
ATOM     35  C   UNL A   1      39.401  24.815  26.482  1.00  0.00     0.010 A 
ATOM     36  C   UNL A   1      40.524  24.613  27.299  1.00  0.00    -0.014 A 
BRANCH  36  37
ATOM     37  C   UNL A   1      41.329  25.799  27.702  1.00  0.00     0.031 A 
ATOM     38  C   UNL A   1      40.686  26.874  28.540  1.00  0.00     0.074 A 
ATOM     39  C   UNL A   1      42.572  25.977  27.212  1.00  0.00     0.049 A 
ATOM     40  N   UNL A   1      41.094  28.091  28.788  1.00  0.00    -0.248 NA
ATOM     41  C   UNL A   1      39.375  26.549  29.123  1.00  0.00     0.031 C 
ATOM     42  C   UNL A   1      43.293  25.033  26.356  1.00  0.00     0.029 A 
ATOM     43  N   UNL A   1      43.442  27.032  27.342  1.00  0.00    -0.354 N 
ATOM     44  C   UNL A   1      40.066  28.693  29.509  1.00  0.00     0.074 A 
ATOM     45  C   UNL A   1      38.996  27.723  29.602  1.00  0.00     0.031 C 
ATOM     46  C   UNL A   1      44.500  25.540  26.056  1.00  0.00     0.029 A 
ATOM     47  C   UNL A   1      44.618  26.870  26.644  1.00  0.00     0.049 A 
ATOM     48  H   UNL A   1      43.244  27.829  27.884  1.00  0.00     0.167 HD
ATOM     49  C   UNL A   1      40.027  29.932  30.060  1.00  0.00     0.034 A 
ATOM     50  C   UNL A   1      45.660  27.708  26.475  1.00  0.00     0.034 A 
ATOM     51  C   UNL A   1      41.128  30.861  30.006  1.00  0.00     0.049 A 
ATOM     52  C   UNL A   1      45.610  29.070  27.120  1.00  0.00     0.074 A 
ATOM     53  C   UNL A   1      41.233  32.111  30.592  1.00  0.00     0.029 A 
ATOM     54  N   UNL A   1      42.324  30.635  29.336  1.00  0.00    -0.354 N 
ATOM     55  N   UNL A   1      44.641  29.618  27.816  1.00  0.00    -0.248 NA
ATOM     56  C   UNL A   1      46.794  29.924  26.959  1.00  0.00     0.031 C 
ATOM     57  C   UNL A   1      42.470  32.660  30.235  1.00  0.00     0.029 A 
ATOM     58  C   UNL A   1      43.163  31.727  29.481  1.00  0.00     0.049 A 
ATOM     59  H   UNL A   1      42.542  29.818  28.832  1.00  0.00     0.167 HD
ATOM     60  C   UNL A   1      45.113  30.868  28.204  1.00  0.00     0.074 A 
ATOM     61  C   UNL A   1      46.454  30.991  27.668  1.00  0.00     0.031 C 
ATOM     62  C   UNL A   1      44.498  31.826  28.941  1.00  0.00     0.034 A 
BRANCH  49  63
ATOM     63  C   UNL A   1      38.749  30.346  30.748  1.00  0.00     0.023 A 
ATOM     64  C   UNL A   1      37.715  30.999  30.055  1.00  0.00     0.031 A 
ATOM     65  C   UNL A   1      38.579  30.129  32.127  1.00  0.00     0.131 A 
ATOM     66  C   UNL A   1      36.607  31.498  30.755  1.00  0.00     0.055 A 
ATOM     67  C   UNL A   1      37.430  30.547  32.802  1.00  0.00     0.041 A 
ATOM     68  F   UNL A   1      39.538  29.527  32.849  1.00  0.00    -0.206 F 
ATOM     69  C   UNL A   1      36.444  31.254  32.120  1.00  0.00     0.022 A 
BRANCH  66  70
ATOM     70  S   UNL A   1      35.469  32.610  29.885  1.00  0.00     0.124 S 
ATOM     71  O   UNL A   1      34.362  32.696  30.836  1.00  0.00    -0.237 OA
ATOM     72  O   UNL A   1      36.269  33.819  29.725  1.00  0.00    -0.237 OA
ATOM     73  O   UNL A   1      35.166  31.891  28.649  1.00  0.00    -0.744 OA
ENDBRANCH  66  70
ENDBRANCH  49  63
BRANCH  50  74
ATOM     74  C   UNL A   1      46.835  27.297  25.656  1.00  0.00     0.023 A 
ATOM     75  C   UNL A   1      46.999  27.775  24.346  1.00  0.00     0.031 A 
ATOM     76  C   UNL A   1      47.793  26.397  26.155  1.00  0.00     0.131 A 
ATOM     77  C   UNL A   1      48.070  27.316  23.563  1.00  0.00     0.055 A 
ATOM     78  C   UNL A   1      48.883  25.981  25.390  1.00  0.00     0.041 A 
ATOM     79  F   UNL A   1      47.688  25.919  27.406  1.00  0.00    -0.206 F 
ATOM     80  C   UNL A   1      49.020  26.432  24.079  1.00  0.00     0.022 A 
BRANCH  77  81
ATOM     81  S   UNL A   1      48.161  27.836  21.828  1.00  0.00     0.124 S 
ATOM     82  O   UNL A   1      46.878  28.507  21.651  1.00  0.00    -0.237 OA
ATOM     83  O   UNL A   1      49.341  28.695  21.832  1.00  0.00    -0.237 OA
ATOM     84  O   UNL A   1      48.313  26.576  21.103  1.00  0.00    -0.744 OA
ENDBRANCH  77  81
ENDBRANCH  50  74
BRANCH  62  85
ATOM     85  C   UNL A   1      45.297  33.061  29.264  1.00  0.00     0.023 A 
ATOM     86  C   UNL A   1      45.270  34.197  28.438  1.00  0.00     0.031 A 
ATOM     87  C   UNL A   1      46.087  33.102  30.426  1.00  0.00     0.131 A 
ATOM     88  C   UNL A   1      46.050  35.315  28.768  1.00  0.00     0.055 A 
ATOM     89  C   UNL A   1      46.823  34.234  30.774  1.00  0.00     0.041 A 
ATOM     90  F   UNL A   1      46.146  32.041  31.248  1.00  0.00    -0.206 F 
ATOM     91  C   UNL A   1      46.814  35.346  29.938  1.00  0.00     0.022 A 
BRANCH  88  92
ATOM     92  S   UNL A   1      46.100  36.716  27.615  1.00  0.00     0.124 S 
ATOM     93  O   UNL A   1      47.422  36.567  27.015  1.00  0.00    -0.237 OA
ATOM     94  O   UNL A   1      44.968  36.439  26.738  1.00  0.00    -0.237 OA
ATOM     95  O   UNL A   1      45.941  37.880  28.482  1.00  0.00    -0.744 OA
ENDBRANCH  88  92
ENDBRANCH  62  85
ENDBRANCH  36  37
ENDBRANCH  28  31
ENDBRANCH  26  27
ENDBRANCH   1  26
TORSDOF 17
ENDMDL
MODEL 2
REMARK VINA RESULT:     -12.0      1.590      7.975
REMARK SMILES CC[C@](C)([NH3+])C(=O)N1CC[NH+]([C@H](C)C(=O)NCCCNC(=O)c2ccc(-c3c4nc(c(-c5cc(S(=O)(=O)[O-])ccc5F)c5ccc([nH]5)c(-c5cc(S(=O)(=O)[O-])ccc5F)c5nc(c(-c6cc(S(=O)(=O)[O-])ccc6F)c6ccc3[nH]6)C=C5)C=C4)cc2)CC1
REMARK SMILES IDX 18 1 17 2 16 3 14 4 15 5 12 7 13 8 11 9 6 10 7 11 8 12 9 13
REMARK SMILES IDX 87 14 10 15 86 16 3 18 4 19 2 20 1 21 5 22 19 26 20 27 21 28
REMARK SMILES IDX 22 30 23 31 24 32 85 33 25 34 84 35 26 36 27 37 28 38 78 39
REMARK SMILES IDX 29 40 83 41 77 42 79 43 30 44 82 45 76 46 75 47 31 49 63 50
REMARK SMILES IDX 43 51 62 52 44 53 47 54 61 55 80 56 45 57 46 58 60 60 81 61
REMARK SMILES IDX 48 62 32 63 33 64 41 65 34 66 40 67 42 68 39 69 35 70 36 71
REMARK SMILES IDX 37 72 38 73 64 74 65 75 73 76 66 77 72 78 74 79 71 80 67 81
REMARK SMILES IDX 68 82 69 83 70 84 49 85 50 86 58 87 51 88 57 89 59 90 56 91
REMARK SMILES IDX 52 92 53 93 54 94 55 95
REMARK H PARENT 16 6 11 17 5 23 5 24 5 25 20 29 79 48 47 59
REMARK Flexibility Score: inf
ROOT
ATOM      1  C   UNL A   1      36.959  19.996  24.920  1.00  0.00     0.042 C 
ENDROOT
BRANCH   1   2
ATOM      2  C   UNL A   1      35.665  20.784  24.846  1.00  0.00     0.118 C 
BRANCH   2   3
ATOM      3  N   UNL A   1      35.073  21.055  26.146  1.00  0.00    -0.351 N 
ATOM      4  C   UNL A   1      34.424  22.155  26.627  1.00  0.00     0.278 C 
ATOM      5  O   UNL A   1      33.845  22.021  27.711  1.00  0.00    -0.268 OA
ATOM      6  H   UNL A   1      35.154  20.316  26.792  1.00  0.00     0.163 HD
BRANCH   4   7
ATOM      7  C   UNL A   1      34.403  23.510  25.882  1.00  0.00     0.271 C 
ATOM      8  C   UNL A   1      35.792  24.153  25.767  1.00  0.00     0.086 C 
BRANCH   7   9
ATOM      9  N   UNL A   1      33.530  23.507  24.670  1.00  0.00    -0.322 N 
ATOM     10  C   UNL A   1      31.009  26.053  22.748  1.00  0.00     0.283 C 
ATOM     11  O   UNL A   1      31.354  26.693  21.744  1.00  0.00    -0.268 OA
ATOM     12  N   UNL A   1      31.577  24.809  22.971  1.00  0.00    -0.326 N 
ATOM     13  C   UNL A   1      32.914  24.564  22.445  1.00  0.00     0.181 C 
ATOM     14  C   UNL A   1      31.138  23.713  23.829  1.00  0.00     0.181 C 
ATOM     15  C   UNL A   1      33.881  24.508  23.644  1.00  0.00     0.284 C 
ATOM     16  C   UNL A   1      32.091  23.541  25.028  1.00  0.00     0.284 C 
ATOM     17  H   UNL A   1      33.716  22.613  24.215  1.00  0.00     0.348 HD
BRANCH  10  18
ATOM     18  C   UNL A   1      30.132  26.777  23.836  1.00  0.00     0.171 C 
ATOM     19  C   UNL A   1      29.608  28.103  23.246  1.00  0.00     0.090 C 
BRANCH  18  20
ATOM     20  C   UNL A   1      30.977  27.052  25.108  1.00  0.00     0.075 C 
ATOM     21  C   UNL A   1      32.109  28.062  24.948  1.00  0.00     0.011 C 
ENDBRANCH  18  20
BRANCH  18  22
ATOM     22  N   UNL A   1      28.933  25.995  24.227  1.00  0.00    -0.345 N 
ATOM     23  H   UNL A   1      28.615  25.440  23.433  1.00  0.00     0.345 HD
ATOM     24  H   UNL A   1      28.191  26.634  24.516  1.00  0.00     0.345 HD
ATOM     25  H   UNL A   1      29.169  25.375  25.002  1.00  0.00     0.345 HD
ENDBRANCH  18  22
ENDBRANCH  10  18
ENDBRANCH   7   9
ENDBRANCH   4   7
ENDBRANCH   2   3
ENDBRANCH   1   2
BRANCH   1  26
ATOM     26  C   UNL A   1      38.149  20.826  25.378  1.00  0.00     0.118 C 
BRANCH  26  27
ATOM     27  N   UNL A   1      39.223  20.024  25.954  1.00  0.00    -0.352 N 
ATOM     28  C   UNL A   1      40.369  20.398  26.622  1.00  0.00     0.251 C 
ATOM     29  H   UNL A   1      39.109  19.052  25.846  1.00  0.00     0.163 HD
ATOM     30  O   UNL A   1      41.225  19.558  26.869  1.00  0.00    -0.269 OA
BRANCH  28  31
ATOM     31  C   UNL A   1      40.578  21.813  26.996  1.00  0.00     0.039 A 
ATOM     32  C   UNL A   1      41.486  22.132  28.010  1.00  0.00     0.014 A 
ATOM     33  C   UNL A   1      39.898  22.829  26.329  1.00  0.00     0.014 A 
ATOM     34  C   UNL A   1      41.796  23.471  28.266  1.00  0.00     0.010 A 
ATOM     35  C   UNL A   1      40.298  24.147  26.495  1.00  0.00     0.010 A 
ATOM     36  C   UNL A   1      41.254  24.488  27.464  1.00  0.00    -0.014 A 
BRANCH  36  37
ATOM     37  C   UNL A   1      41.640  25.919  27.604  1.00  0.00     0.031 A 
ATOM     38  C   UNL A   1      42.964  26.382  27.054  1.00  0.00     0.074 A 
ATOM     39  C   UNL A   1      40.879  26.762  28.331  1.00  0.00     0.049 A 
ATOM     40  N   UNL A   1      43.617  27.492  27.278  1.00  0.00    -0.248 NA
ATOM     41  C   UNL A   1      43.674  25.434  26.181  1.00  0.00     0.031 C 
ATOM     42  C   UNL A   1      39.596  26.428  28.954  1.00  0.00     0.029 A 
ATOM     43  N   UNL A   1      41.090  28.069  28.694  1.00  0.00    -0.354 N 
ATOM     44  C   UNL A   1      44.836  27.352  26.620  1.00  0.00     0.074 A 
ATOM     45  C   UNL A   1      44.849  26.026  26.042  1.00  0.00     0.031 C 
ATOM     46  C   UNL A   1      39.125  27.506  29.602  1.00  0.00     0.029 A 
ATOM     47  C   UNL A   1      40.098  28.588  29.497  1.00  0.00     0.049 A 
ATOM     48  H   UNL A   1      41.876  28.587  28.408  1.00  0.00     0.167 HD
ATOM     49  C   UNL A   1      45.841  28.254  26.493  1.00  0.00     0.034 A 
ATOM     50  C   UNL A   1      39.997  29.790  30.100  1.00  0.00     0.034 A 
ATOM     51  C   UNL A   1      45.782  29.591  27.028  1.00  0.00     0.049 A 
ATOM     52  C   UNL A   1      41.112  30.789  29.923  1.00  0.00     0.074 A 
ATOM     53  C   UNL A   1      46.705  30.615  26.898  1.00  0.00     0.029 A 
ATOM     54  N   UNL A   1      44.734  30.095  27.788  1.00  0.00    -0.354 N 
ATOM     55  N   UNL A   1      42.249  30.651  29.281  1.00  0.00    -0.248 NA
ATOM     56  C   UNL A   1      40.929  32.105  30.548  1.00  0.00     0.031 C 
ATOM     57  C   UNL A   1      46.237  31.720  27.617  1.00  0.00     0.029 A 
ATOM     58  C   UNL A   1      44.995  31.408  28.144  1.00  0.00     0.049 A 
ATOM     59  H   UNL A   1      43.925  29.592  28.036  1.00  0.00     0.167 HD
ATOM     60  C   UNL A   1      42.901  31.874  29.397  1.00  0.00     0.074 A 
ATOM     61  C   UNL A   1      42.029  32.739  30.166  1.00  0.00     0.031 C 
ATOM     62  C   UNL A   1      44.108  32.253  28.908  1.00  0.00     0.034 A 
BRANCH  49  63
ATOM     63  C   UNL A   1      47.085  27.808  25.763  1.00  0.00     0.023 A 
ATOM     64  C   UNL A   1      47.288  28.102  24.403  1.00  0.00     0.031 A 
ATOM     65  C   UNL A   1      48.061  27.038  26.420  1.00  0.00     0.131 A 
ATOM     66  C   UNL A   1      48.382  27.549  23.722  1.00  0.00     0.055 A 
ATOM     67  C   UNL A   1      49.198  26.568  25.759  1.00  0.00     0.041 A 
ATOM     68  F   UNL A   1      47.917  26.709  27.714  1.00  0.00    -0.206 F 
ATOM     69  C   UNL A   1      49.354  26.806  24.396  1.00  0.00     0.022 A 
BRANCH  66  70
ATOM     70  S   UNL A   1      48.426  27.679  21.914  1.00  0.00     0.124 S 
ATOM     71  O   UNL A   1      49.539  28.607  21.716  1.00  0.00    -0.237 OA
ATOM     72  O   UNL A   1      48.663  26.301  21.503  1.00  0.00    -0.237 OA
ATOM     73  O   UNL A   1      47.109  28.216  21.577  1.00  0.00    -0.744 OA
ENDBRANCH  66  70
ENDBRANCH  49  63
BRANCH  50  74
ATOM     74  C   UNL A   1      38.808  30.118  30.936  1.00  0.00     0.023 A 
ATOM     75  C   UNL A   1      37.739  30.857  30.405  1.00  0.00     0.031 A 
ATOM     76  C   UNL A   1      38.736  29.729  32.286  1.00  0.00     0.131 A 
ATOM     77  C   UNL A   1      36.664  31.223  31.229  1.00  0.00     0.055 A 
ATOM     78  C   UNL A   1      37.642  30.054  33.089  1.00  0.00     0.041 A 
ATOM     79  F   UNL A   1      39.727  29.012  32.839  1.00  0.00    -0.206 F 
ATOM     80  C   UNL A   1      36.602  30.817  32.564  1.00  0.00     0.022 A 
BRANCH  77  81
ATOM     81  S   UNL A   1      35.379  32.307  30.549  1.00  0.00     0.124 S 
ATOM     82  O   UNL A   1      35.019  31.607  29.321  1.00  0.00    -0.237 OA
ATOM     83  O   UNL A   1      34.379  32.295  31.612  1.00  0.00    -0.237 OA
ATOM     84  O   UNL A   1      36.072  33.581  30.363  1.00  0.00    -0.744 OA
ENDBRANCH  77  81
ENDBRANCH  50  74
BRANCH  62  85
ATOM     85  C   UNL A   1      44.523  33.682  29.138  1.00  0.00     0.023 A 
ATOM     86  C   UNL A   1      44.049  34.729  28.331  1.00  0.00     0.031 A 
ATOM     87  C   UNL A   1      45.397  33.998  30.193  1.00  0.00     0.131 A 
ATOM     88  C   UNL A   1      44.484  36.042  28.568  1.00  0.00     0.055 A 
ATOM     89  C   UNL A   1      45.788  35.310  30.455  1.00  0.00     0.041 A 
ATOM     90  F   UNL A   1      45.877  33.031  30.992  1.00  0.00    -0.206 F 
ATOM     91  C   UNL A   1      45.338  36.340  29.635  1.00  0.00     0.022 A 
BRANCH  88  92
ATOM     92  S   UNL A   1      43.962  37.354  27.429  1.00  0.00     0.124 S 
ATOM     93  O   UNL A   1      45.220  37.708  26.778  1.00  0.00    -0.237 OA
ATOM     94  O   UNL A   1      42.982  36.671  26.592  1.00  0.00    -0.237 OA
ATOM     95  O   UNL A   1      43.413  38.378  28.314  1.00  0.00    -0.744 OA
ENDBRANCH  88  92
ENDBRANCH  62  85
ENDBRANCH  36  37
ENDBRANCH  28  31
ENDBRANCH  26  27
ENDBRANCH   1  26
TORSDOF 17
ENDMDL
MODEL 3
REMARK VINA RESULT:     -12.0      5.252      8.134
REMARK SMILES CC[C@](C)([NH3+])C(=O)N1CC[NH+]([C@H](C)C(=O)NCCCNC(=O)c2ccc(-c3c4nc(c(-c5cc(S(=O)(=O)[O-])ccc5F)c5ccc([nH]5)c(-c5cc(S(=O)(=O)[O-])ccc5F)c5nc(c(-c6cc(S(=O)(=O)[O-])ccc6F)c6ccc3[nH]6)C=C5)C=C4)cc2)CC1
REMARK SMILES IDX 18 1 17 2 16 3 14 4 15 5 12 7 13 8 11 9 6 10 7 11 8 12 9 13
REMARK SMILES IDX 87 14 10 15 86 16 3 18 4 19 2 20 1 21 5 22 19 26 20 27 21 28
REMARK SMILES IDX 22 30 23 31 24 32 85 33 25 34 84 35 26 36 27 37 28 38 78 39
REMARK SMILES IDX 29 40 83 41 77 42 79 43 30 44 82 45 76 46 75 47 31 49 63 50
REMARK SMILES IDX 43 51 62 52 44 53 47 54 61 55 80 56 45 57 46 58 60 60 81 61
REMARK SMILES IDX 48 62 32 63 33 64 41 65 34 66 40 67 42 68 39 69 35 70 36 71
REMARK SMILES IDX 37 72 38 73 64 74 65 75 73 76 66 77 72 78 74 79 71 80 67 81
REMARK SMILES IDX 68 82 69 83 70 84 49 85 50 86 58 87 51 88 57 89 59 90 56 91
REMARK SMILES IDX 52 92 53 93 54 94 55 95
REMARK H PARENT 16 6 11 17 5 23 5 24 5 25 20 29 79 48 47 59
REMARK Flexibility Score: inf
ROOT
ATOM      1  C   UNL A   1      31.876  29.271  27.185  1.00  0.00     0.042 C 
ENDROOT
BRANCH   1   2
ATOM      2  C   UNL A   1      32.146  27.778  27.154  1.00  0.00     0.118 C 
BRANCH   2   3
ATOM      3  N   UNL A   1      30.953  26.975  26.942  1.00  0.00    -0.351 N 
ATOM      4  C   UNL A   1      30.759  25.823  26.236  1.00  0.00     0.278 C 
ATOM      5  O   UNL A   1      29.675  25.251  26.404  1.00  0.00    -0.268 OA
ATOM      6  H   UNL A   1      30.145  27.322  27.383  1.00  0.00     0.163 HD
BRANCH   4   7
ATOM      7  C   UNL A   1      31.816  25.244  25.268  1.00  0.00     0.271 C 
ATOM      8  C   UNL A   1      32.258  26.245  24.193  1.00  0.00     0.086 C 
BRANCH   7   9
ATOM      9  N   UNL A   1      32.872  24.440  25.953  1.00  0.00    -0.322 N 
ATOM     10  C   UNL A   1      34.572  20.761  25.621  1.00  0.00     0.283 C 
ATOM     11  O   UNL A   1      35.665  20.585  25.064  1.00  0.00    -0.268 OA
ATOM     12  N   UNL A   1      34.342  21.964  26.271  1.00  0.00    -0.326 N 
ATOM     13  C   UNL A   1      35.050  23.145  25.794  1.00  0.00     0.181 C 
ATOM     14  C   UNL A   1      33.342  22.316  27.273  1.00  0.00     0.181 C 
ATOM     15  C   UNL A   1      34.017  24.058  25.104  1.00  0.00     0.284 C 
ATOM     16  C   UNL A   1      32.297  23.286  26.686  1.00  0.00     0.284 C 
ATOM     17  H   UNL A   1      33.277  25.074  26.642  1.00  0.00     0.348 HD
BRANCH  10  18
ATOM     18  C   UNL A   1      33.421  19.719  25.363  1.00  0.00     0.171 C 
ATOM     19  C   UNL A   1      33.961  18.605  24.442  1.00  0.00     0.090 C 
BRANCH  18  20
ATOM     20  C   UNL A   1      32.203  20.419  24.704  1.00  0.00     0.075 C 
ATOM     21  C   UNL A   1      32.481  21.132  23.384  1.00  0.00     0.011 C 
ENDBRANCH  18  20
BRANCH  18  22
ATOM     22  N   UNL A   1      32.962  19.045  26.603  1.00  0.00    -0.345 N 
ATOM     23  H   UNL A   1      32.676  19.746  27.285  1.00  0.00     0.345 HD
ATOM     24  H   UNL A   1      33.725  18.486  26.987  1.00  0.00     0.345 HD
ATOM     25  H   UNL A   1      32.171  18.437  26.387  1.00  0.00     0.345 HD
ENDBRANCH  18  22
ENDBRANCH  10  18
ENDBRANCH   7   9
ENDBRANCH   4   7
ENDBRANCH   2   3
ENDBRANCH   1   2
BRANCH   1  26
ATOM     26  C   UNL A   1      32.904  30.088  26.417  1.00  0.00     0.118 C 
BRANCH  26  27
ATOM     27  N   UNL A   1      32.957  31.485  26.835  1.00  0.00    -0.352 N 
ATOM     28  C   UNL A   1      33.876  32.159  27.611  1.00  0.00     0.251 C 
ATOM     29  H   UNL A   1      32.212  32.039  26.508  1.00  0.00     0.163 HD
ATOM     30  O   UNL A   1      33.631  33.300  27.983  1.00  0.00    -0.269 OA
BRANCH  28  31
ATOM     31  C   UNL A   1      35.127  31.489  28.026  1.00  0.00     0.039 A 
ATOM     32  C   UNL A   1      36.308  32.230  28.120  1.00  0.00     0.014 A 
ATOM     33  C   UNL A   1      35.130  30.134  28.350  1.00  0.00     0.014 A 
ATOM     34  C   UNL A   1      37.458  31.636  28.652  1.00  0.00     0.010 A 
ATOM     35  C   UNL A   1      36.230  29.584  28.992  1.00  0.00     0.010 A 
ATOM     36  C   UNL A   1      37.409  30.327  29.155  1.00  0.00    -0.014 A 
BRANCH  36  37
ATOM     37  C   UNL A   1      38.560  29.683  29.846  1.00  0.00     0.031 A 
ATOM     38  C   UNL A   1      38.952  30.158  31.221  1.00  0.00     0.074 A 
ATOM     39  C   UNL A   1      39.326  28.783  29.198  1.00  0.00     0.049 A 
ATOM     40  N   UNL A   1      40.050  29.936  31.897  1.00  0.00    -0.248 NA
ATOM     41  C   UNL A   1      38.001  31.054  31.897  1.00  0.00     0.031 C 
ATOM     42  C   UNL A   1      39.081  28.270  27.848  1.00  0.00     0.029 A 
ATOM     43  N   UNL A   1      40.488  28.158  29.579  1.00  0.00    -0.354 N 
ATOM     44  C   UNL A   1      39.944  30.709  33.050  1.00  0.00     0.074 A 
ATOM     45  C   UNL A   1      38.704  31.446  32.948  1.00  0.00     0.031 C 
ATOM     46  C   UNL A   1      40.047  27.396  27.524  1.00  0.00     0.029 A 
ATOM     47  C   UNL A   1      41.015  27.330  28.613  1.00  0.00     0.049 A 
ATOM     48  H   UNL A   1      40.905  28.289  30.461  1.00  0.00     0.167 HD
ATOM     49  C   UNL A   1      40.793  30.780  34.105  1.00  0.00     0.034 A 
ATOM     50  C   UNL A   1      42.161  26.621  28.596  1.00  0.00     0.034 A 
ATOM     51  C   UNL A   1      41.995  29.992  34.213  1.00  0.00     0.049 A 
ATOM     52  C   UNL A   1      43.078  26.691  29.791  1.00  0.00     0.074 A 
ATOM     53  C   UNL A   1      42.891  29.923  35.267  1.00  0.00     0.029 A 
ATOM     54  N   UNL A   1      42.464  29.124  33.236  1.00  0.00    -0.354 N 
ATOM     55  N   UNL A   1      42.955  27.409  30.884  1.00  0.00    -0.248 NA
ATOM     56  C   UNL A   1      44.284  25.853  29.752  1.00  0.00     0.031 C 
ATOM     57  C   UNL A   1      43.925  29.051  34.906  1.00  0.00     0.029 A 
ATOM     58  C   UNL A   1      43.642  28.527  33.655  1.00  0.00     0.049 A 
ATOM     59  H   UNL A   1      42.023  28.956  32.371  1.00  0.00     0.167 HD
ATOM     60  C   UNL A   1      44.052  27.083  31.676  1.00  0.00     0.074 A 
ATOM     61  C   UNL A   1      44.821  26.102  30.938  1.00  0.00     0.031 C 
ATOM     62  C   UNL A   1      44.390  27.548  32.904  1.00  0.00     0.034 A 
BRANCH  49  63
ATOM     63  C   UNL A   1      40.452  31.754  35.207  1.00  0.00     0.023 A 
ATOM     64  C   UNL A   1      39.514  31.439  36.206  1.00  0.00     0.031 A 
ATOM     65  C   UNL A   1      41.034  33.033  35.234  1.00  0.00     0.131 A 
ATOM     66  C   UNL A   1      39.114  32.419  37.127  1.00  0.00     0.055 A 
ATOM     67  C   UNL A   1      40.700  33.974  36.211  1.00  0.00     0.041 A 
ATOM     68  F   UNL A   1      41.923  33.401  34.298  1.00  0.00    -0.206 F 
ATOM     69  C   UNL A   1      39.719  33.676  37.153  1.00  0.00     0.022 A 
BRANCH  66  70
ATOM     70  S   UNL A   1      37.677  32.077  38.179  1.00  0.00     0.124 S 
ATOM     71  O   UNL A   1      38.226  32.321  39.511  1.00  0.00    -0.237 OA
ATOM     72  O   UNL A   1      36.699  33.047  37.703  1.00  0.00    -0.237 OA
ATOM     73  O   UNL A   1      37.364  30.679  37.887  1.00  0.00    -0.744 OA
ENDBRANCH  66  70
ENDBRANCH  49  63
BRANCH  50  74
ATOM     74  C   UNL A   1      42.519  25.791  27.411  1.00  0.00     0.023 A 
ATOM     75  C   UNL A   1      42.119  24.448  27.328  1.00  0.00     0.031 A 
ATOM     76  C   UNL A   1      43.294  26.316  26.361  1.00  0.00     0.131 A 
ATOM     77  C   UNL A   1      42.532  23.661  26.241  1.00  0.00     0.055 A 
ATOM     78  C   UNL A   1      43.662  25.542  25.259  1.00  0.00     0.041 A 
ATOM     79  F   UNL A   1      43.694  27.597  26.387  1.00  0.00    -0.206 F 
ATOM     80  C   UNL A   1      43.290  24.201  25.201  1.00  0.00     0.022 A 
BRANCH  77  81
ATOM     81  S   UNL A   1      42.125  21.894  26.247  1.00  0.00     0.124 S 
ATOM     82  O   UNL A   1      42.463  21.515  27.614  1.00  0.00    -0.237 OA
ATOM     83  O   UNL A   1      40.703  21.911  25.917  1.00  0.00    -0.237 OA
ATOM     84  O   UNL A   1      42.995  21.341  25.211  1.00  0.00    -0.744 OA
ENDBRANCH  77  81
ENDBRANCH  50  74
BRANCH  62  85
ATOM     85  C   UNL A   1      45.612  26.949  33.551  1.00  0.00     0.023 A 
ATOM     86  C   UNL A   1      45.531  25.824  34.387  1.00  0.00     0.031 A 
ATOM     87  C   UNL A   1      46.878  27.511  33.312  1.00  0.00     0.131 A 
ATOM     88  C   UNL A   1      46.693  25.317  34.986  1.00  0.00     0.055 A 
ATOM     89  C   UNL A   1      48.037  26.974  33.871  1.00  0.00     0.041 A 
ATOM     90  F   UNL A   1      47.007  28.588  32.519  1.00  0.00    -0.206 F 
ATOM     91  C   UNL A   1      47.948  25.876  34.721  1.00  0.00     0.022 A 
BRANCH  88  92
ATOM     92  S   UNL A   1      46.542  23.947  36.166  1.00  0.00     0.124 S 
ATOM     93  O   UNL A   1      47.888  23.879  36.726  1.00  0.00    -0.237 OA
ATOM     94  O   UNL A   1      45.500  24.424  37.068  1.00  0.00    -0.237 OA
ATOM     95  O   UNL A   1      46.162  22.812  35.327  1.00  0.00    -0.744 OA
ENDBRANCH  88  92
ENDBRANCH  62  85
ENDBRANCH  36  37
ENDBRANCH  28  31
ENDBRANCH  26  27
ENDBRANCH   1  26
TORSDOF 17
ENDMDL
