MODEL 1
REMARK VINA RESULT:     -10.6      0.000      0.000
REMARK SMILES CC[N@H+](CC(C)(C)C(=O)NCCCNC(=O)c1ccc(-c2c3nc(c(-c4cc(S(=O)(=O)[O-])ccc4F)c4ccc([nH]4)c(-c4cc(S(=O)(=O)[O-])ccc4F)c4nc(c(-c5cc(S(=O)(=O)[O-])ccc5F)c5ccc2[nH]5)C=C4)C=C3)cc1)[C@H]1CC[NH2+]C1
REMARK SMILES IDX 12 1 11 2 10 3 8 4 9 5 5 7 6 8 7 9 4 10 3 11 2 13 1 14 80 15
REMARK SMILES IDX 81 16 84 17 82 18 83 19 13 22 14 23 15 24 16 26 17 27 18 28
REMARK SMILES IDX 79 29 19 30 78 31 20 32 21 33 22 34 72 35 23 36 77 37 71 38
REMARK SMILES IDX 73 39 24 40 76 41 70 42 69 43 25 45 57 46 37 47 56 48 38 49
REMARK SMILES IDX 41 50 55 51 74 52 39 53 40 54 54 56 75 57 42 58 26 59 27 60
REMARK SMILES IDX 35 61 28 62 34 63 36 64 33 65 29 66 30 67 31 68 32 69 58 70
REMARK SMILES IDX 59 71 67 72 60 73 66 74 68 75 65 76 61 77 62 78 63 79 64 80
REMARK SMILES IDX 43 81 44 82 52 83 45 84 51 85 53 86 50 87 46 88 47 89 48 90
REMARK SMILES IDX 49 91
REMARK H PARENT 10 6 3 12 83 20 83 21 14 25 73 44 41 55
REMARK Flexibility Score: inf
ROOT
ATOM      1  C   UNL A   1      31.433  32.266  26.500  1.00  0.00     0.042 C 
ENDROOT
BRANCH   1   2
ATOM      2  C   UNL A   1      31.236  30.771  26.290  1.00  0.00     0.117 C 
BRANCH   2   3
ATOM      3  N   UNL A   1      32.313  30.223  25.491  1.00  0.00    -0.355 N 
ATOM      4  C   UNL A   1      32.963  29.036  25.568  1.00  0.00     0.231 C 
ATOM      5  O   UNL A   1      34.134  29.051  25.177  1.00  0.00    -0.274 OA
ATOM      6  H   UNL A   1      32.626  30.814  24.768  1.00  0.00     0.163 HD
BRANCH   4   7
ATOM      7  C   UNL A   1      32.308  27.763  26.129  1.00  0.00     0.092 C 
ATOM      8  C   UNL A   1      31.732  27.909  27.550  1.00  0.00     0.027 C 
ATOM      9  C   UNL A   1      33.376  26.649  26.099  1.00  0.00     0.027 C 
BRANCH   7  10
ATOM     10  C   UNL A   1      31.139  27.321  25.169  1.00  0.00     0.279 C 
BRANCH  10  11
ATOM     11  N   UNL A   1      31.474  26.967  23.757  1.00  0.00    -0.327 N 
ATOM     12  H   UNL A   1      32.476  27.131  23.642  1.00  0.00     0.348 HD
BRANCH  11  13
ATOM     13  C   UNL A   1      31.210  25.533  23.489  1.00  0.00     0.259 C 
ATOM     14  C   UNL A   1      32.426  24.680  23.132  1.00  0.00     0.071 C 
ENDBRANCH  11  13
BRANCH  11  15
ATOM     15  C   UNL A   1      30.794  27.841  22.772  1.00  0.00     0.245 C 
ATOM     16  C   UNL A   1      29.436  28.414  23.186  1.00  0.00     0.132 C 
ATOM     17  C   UNL A   1      31.543  29.072  22.199  1.00  0.00     0.326 C 
ATOM     18  C   UNL A   1      29.252  29.559  22.212  1.00  0.00     0.267 C 
ATOM     19  N   UNL A   1      30.574  30.190  22.155  1.00  0.00    -0.341 N 
ATOM     20  H   UNL A   1      30.709  30.810  22.954  1.00  0.00     0.346 HD
ATOM     21  H   UNL A   1      30.688  30.760  21.316  1.00  0.00     0.346 HD
ENDBRANCH  11  15
ENDBRANCH  10  11
ENDBRANCH   7  10
ENDBRANCH   4   7
ENDBRANCH   2   3
ENDBRANCH   1   2
BRANCH   1  22
ATOM     22  C   UNL A   1      32.695  32.608  27.283  1.00  0.00     0.118 C 
BRANCH  22  23
ATOM     23  N   UNL A   1      32.700  33.990  27.744  1.00  0.00    -0.352 N 
ATOM     24  C   UNL A   1      33.433  34.572  28.747  1.00  0.00     0.251 C 
ATOM     25  H   UNL A   1      32.088  34.595  27.264  1.00  0.00     0.163 HD
ATOM     26  O   UNL A   1      33.120  35.688  29.157  1.00  0.00    -0.269 OA
BRANCH  24  27
ATOM     27  C   UNL A   1      34.573  33.844  29.341  1.00  0.00     0.039 A 
ATOM     28  C   UNL A   1      35.873  34.216  28.995  1.00  0.00     0.014 A 
ATOM     29  C   UNL A   1      34.356  32.800  30.243  1.00  0.00     0.014 A 
ATOM     30  C   UNL A   1      36.955  33.585  29.610  1.00  0.00     0.010 A 
ATOM     31  C   UNL A   1      35.430  32.246  30.930  1.00  0.00     0.010 A 
ATOM     32  C   UNL A   1      36.742  32.625  30.614  1.00  0.00    -0.014 A 
BRANCH  32  33
ATOM     33  C   UNL A   1      37.880  32.004  31.339  1.00  0.00     0.031 A 
ATOM     34  C   UNL A   1      38.663  30.890  30.701  1.00  0.00     0.074 A 
ATOM     35  C   UNL A   1      38.162  32.398  32.596  1.00  0.00     0.049 A 
ATOM     36  N   UNL A   1      39.648  30.182  31.191  1.00  0.00    -0.248 NA
ATOM     37  C   UNL A   1      38.261  30.496  29.343  1.00  0.00     0.031 C 
ATOM     38  C   UNL A   1      37.434  33.429  33.339  1.00  0.00     0.029 A 
ATOM     39  N   UNL A   1      39.126  31.976  33.475  1.00  0.00    -0.354 N 
ATOM     40  C   UNL A   1      39.971  29.249  30.212  1.00  0.00     0.074 A 
ATOM     41  C   UNL A   1      39.026  29.436  29.132  1.00  0.00     0.031 C 
ATOM     42  C   UNL A   1      37.997  33.580  34.548  1.00  0.00     0.029 A 
ATOM     43  C   UNL A   1      39.088  32.622  34.688  1.00  0.00     0.049 A 
ATOM     44  H   UNL A   1      39.783  31.276  33.257  1.00  0.00     0.167 HD
ATOM     45  C   UNL A   1      40.978  28.341  30.202  1.00  0.00     0.034 A 
ATOM     46  C   UNL A   1      39.837  32.453  35.796  1.00  0.00     0.034 A 
ATOM     47  C   UNL A   1      41.910  28.175  31.293  1.00  0.00     0.049 A 
ATOM     48  C   UNL A   1      40.936  31.424  35.778  1.00  0.00     0.074 A 
ATOM     49  C   UNL A   1      43.009  27.338  31.368  1.00  0.00     0.029 A 
ATOM     50  N   UNL A   1      41.841  28.847  32.510  1.00  0.00    -0.354 N 
ATOM     51  N   UNL A   1      41.277  30.597  34.815  1.00  0.00    -0.248 NA
ATOM     52  C   UNL A   1      41.756  31.313  36.989  1.00  0.00     0.031 C 
ATOM     53  C   UNL A   1      43.548  27.438  32.655  1.00  0.00     0.029 A 
ATOM     54  C   UNL A   1      42.849  28.408  33.355  1.00  0.00     0.049 A 
ATOM     55  H   UNL A   1      41.173  29.534  32.737  1.00  0.00     0.167 HD
ATOM     56  C   UNL A   1      42.371  29.884  35.299  1.00  0.00     0.074 A 
ATOM     57  C   UNL A   1      42.638  30.391  36.630  1.00  0.00     0.031 C 
ATOM     58  C   UNL A   1      43.091  28.903  34.693  1.00  0.00     0.034 A 
BRANCH  45  59
ATOM     59  C   UNL A   1      41.088  27.440  28.992  1.00  0.00     0.023 A 
ATOM     60  C   UNL A   1      42.108  27.603  28.036  1.00  0.00     0.031 A 
ATOM     61  C   UNL A   1      40.126  26.442  28.756  1.00  0.00     0.131 A 
ATOM     62  C   UNL A   1      42.082  26.859  26.846  1.00  0.00     0.055 A 
ATOM     63  C   UNL A   1      40.165  25.634  27.616  1.00  0.00     0.041 A 
ATOM     64  F   UNL A   1      39.115  26.249  29.616  1.00  0.00    -0.206 F 
ATOM     65  C   UNL A   1      41.133  25.855  26.642  1.00  0.00     0.022 A 
BRANCH  62  66
ATOM     66  S   UNL A   1      43.183  27.358  25.493  1.00  0.00     0.124 S 
ATOM     67  O   UNL A   1      42.297  28.190  24.682  1.00  0.00    -0.237 OA
ATOM     68  O   UNL A   1      44.251  28.057  26.198  1.00  0.00    -0.237 OA
ATOM     69  O   UNL A   1      43.567  26.089  24.877  1.00  0.00    -0.744 OA
ENDBRANCH  62  66
ENDBRANCH  45  59
BRANCH  46  70
ATOM     70  C   UNL A   1      39.558  33.269  37.012  1.00  0.00     0.023 A 
ATOM     71  C   UNL A   1      40.240  34.470  37.257  1.00  0.00     0.031 A 
ATOM     72  C   UNL A   1      38.596  32.853  37.950  1.00  0.00     0.131 A 
ATOM     73  C   UNL A   1      39.969  35.201  38.425  1.00  0.00     0.055 A 
ATOM     74  C   UNL A   1      38.294  33.608  39.084  1.00  0.00     0.041 A 
ATOM     75  F   UNL A   1      37.910  31.714  37.760  1.00  0.00    -0.206 F 
ATOM     76  C   UNL A   1      38.989  34.787  39.331  1.00  0.00     0.022 A 
BRANCH  73  77
ATOM     77  S   UNL A   1      40.957  36.681  38.777  1.00  0.00     0.124 S 
ATOM     78  O   UNL A   1      39.934  37.720  38.809  1.00  0.00    -0.237 OA
ATOM     79  O   UNL A   1      41.567  36.341  40.058  1.00  0.00    -0.237 OA
ATOM     80  O   UNL A   1      41.883  36.749  37.648  1.00  0.00    -0.744 OA
ENDBRANCH  73  77
ENDBRANCH  46  70
BRANCH  58  81
ATOM     81  C   UNL A   1      44.264  28.339  35.460  1.00  0.00     0.023 A 
ATOM     82  C   UNL A   1      44.099  27.364  36.460  1.00  0.00     0.031 A 
ATOM     83  C   UNL A   1      45.568  28.792  35.192  1.00  0.00     0.131 A 
ATOM     84  C   UNL A   1      45.208  26.920  37.194  1.00  0.00     0.055 A 
ATOM     85  C   UNL A   1      46.677  28.293  35.876  1.00  0.00     0.041 A 
ATOM     86  F   UNL A   1      45.788  29.727  34.253  1.00  0.00    -0.206 F 
ATOM     87  C   UNL A   1      46.499  27.362  36.894  1.00  0.00     0.022 A 
BRANCH  84  88
ATOM     88  S   UNL A   1      44.932  25.834  38.621  1.00  0.00     0.124 S 
ATOM     89  O   UNL A   1      46.227  25.880  39.292  1.00  0.00    -0.237 OA
ATOM     90  O   UNL A   1      43.832  26.500  39.311  1.00  0.00    -0.237 OA
ATOM     91  O   UNL A   1      44.593  24.549  38.014  1.00  0.00    -0.744 OA
ENDBRANCH  84  88
ENDBRANCH  58  81
ENDBRANCH  32  33
ENDBRANCH  24  27
ENDBRANCH  22  23
ENDBRANCH   1  22
TORSDOF 17
ENDMDL
MODEL 2
REMARK VINA RESULT:     -10.6      4.794      8.176
REMARK SMILES CC[N@H+](CC(C)(C)C(=O)NCCCNC(=O)c1ccc(-c2c3nc(c(-c4cc(S(=O)(=O)[O-])ccc4F)c4ccc([nH]4)c(-c4cc(S(=O)(=O)[O-])ccc4F)c4nc(c(-c5cc(S(=O)(=O)[O-])ccc5F)c5ccc2[nH]5)C=C4)C=C3)cc1)[C@H]1CC[NH2+]C1
REMARK SMILES IDX 12 1 11 2 10 3 8 4 9 5 5 7 6 8 7 9 4 10 3 11 2 13 1 14 80 15
REMARK SMILES IDX 81 16 84 17 82 18 83 19 13 22 14 23 15 24 16 26 17 27 18 28
REMARK SMILES IDX 79 29 19 30 78 31 20 32 21 33 22 34 72 35 23 36 77 37 71 38
REMARK SMILES IDX 73 39 24 40 76 41 70 42 69 43 25 45 57 46 37 47 56 48 38 49
REMARK SMILES IDX 41 50 55 51 74 52 39 53 40 54 54 56 75 57 42 58 26 59 27 60
REMARK SMILES IDX 35 61 28 62 34 63 36 64 33 65 29 66 30 67 31 68 32 69 58 70
REMARK SMILES IDX 59 71 67 72 60 73 66 74 68 75 65 76 61 77 62 78 63 79 64 80
REMARK SMILES IDX 43 81 44 82 52 83 45 84 51 85 53 86 50 87 46 88 47 89 48 90
REMARK SMILES IDX 49 91
REMARK H PARENT 10 6 3 12 83 20 83 21 14 25 73 44 41 55
REMARK Flexibility Score: inf
ROOT
ATOM      1  C   UNL A   1      36.543  22.887  23.745  1.00  0.00     0.042 C 
ENDROOT
BRANCH   1   2
ATOM      2  C   UNL A   1      35.061  23.120  23.484  1.00  0.00     0.117 C 
BRANCH   2   3
ATOM      3  N   UNL A   1      34.346  23.299  24.731  1.00  0.00    -0.355 N 
ATOM      4  C   UNL A   1      33.540  24.301  25.158  1.00  0.00     0.231 C 
ATOM      5  O   UNL A   1      33.526  24.481  26.380  1.00  0.00    -0.274 OA
ATOM      6  H   UNL A   1      34.465  22.567  25.378  1.00  0.00     0.163 HD
BRANCH   4   7
ATOM      7  C   UNL A   1      32.722  25.179  24.197  1.00  0.00     0.092 C 
ATOM      8  C   UNL A   1      31.765  24.402  23.274  1.00  0.00     0.027 C 
ATOM      9  C   UNL A   1      33.727  25.996  23.357  1.00  0.00     0.027 C 
BRANCH   7  10
ATOM     10  C   UNL A   1      31.868  26.203  25.037  1.00  0.00     0.279 C 
BRANCH  10  11
ATOM     11  N   UNL A   1      32.239  27.649  24.985  1.00  0.00    -0.327 N 
ATOM     12  H   UNL A   1      33.005  27.733  24.316  1.00  0.00     0.348 HD
BRANCH  11  13
ATOM     13  C   UNL A   1      31.108  28.472  24.492  1.00  0.00     0.259 C 
ATOM     14  C   UNL A   1      30.063  27.745  23.648  1.00  0.00     0.071 C 
ENDBRANCH  11  13
BRANCH  11  15
ATOM     15  C   UNL A   1      32.758  28.154  26.278  1.00  0.00     0.245 C 
ATOM     16  C   UNL A   1      34.223  28.599  26.302  1.00  0.00     0.132 C 
ATOM     17  C   UNL A   1      32.020  29.314  26.996  1.00  0.00     0.326 C 
ATOM     18  C   UNL A   1      34.289  29.442  27.558  1.00  0.00     0.267 C 
ATOM     19  N   UNL A   1      33.054  30.232  27.519  1.00  0.00    -0.341 N 
ATOM     20  H   UNL A   1      33.164  31.036  26.901  1.00  0.00     0.346 HD
ATOM     21  H   UNL A   1      32.808  30.599  28.439  1.00  0.00     0.346 HD
ENDBRANCH  11  15
ENDBRANCH  10  11
ENDBRANCH   7  10
ENDBRANCH   4   7
ENDBRANCH   2   3
ENDBRANCH   1   2
BRANCH   1  22
ATOM     22  C   UNL A   1      36.978  23.272  25.154  1.00  0.00     0.118 C 
BRANCH  22  23
ATOM     23  N   UNL A   1      37.972  22.353  25.693  1.00  0.00    -0.352 N 
ATOM     24  C   UNL A   1      39.164  22.625  26.316  1.00  0.00     0.251 C 
ATOM     25  H   UNL A   1      37.755  21.397  25.599  1.00  0.00     0.163 HD
ATOM     26  O   UNL A   1      39.983  21.723  26.475  1.00  0.00    -0.269 OA
BRANCH  24  27
ATOM     27  C   UNL A   1      39.461  24.001  26.763  1.00  0.00     0.039 A 
ATOM     28  C   UNL A   1      39.265  24.337  28.104  1.00  0.00     0.014 A 
ATOM     29  C   UNL A   1      39.939  24.954  25.861  1.00  0.00     0.014 A 
ATOM     30  C   UNL A   1      39.618  25.612  28.550  1.00  0.00     0.010 A 
ATOM     31  C   UNL A   1      40.386  26.184  26.328  1.00  0.00     0.010 A 
ATOM     32  C   UNL A   1      40.220  26.531  27.675  1.00  0.00    -0.014 A 
BRANCH  32  33
ATOM     33  C   UNL A   1      40.678  27.862  28.152  1.00  0.00     0.031 A 
ATOM     34  C   UNL A   1      42.146  28.183  28.197  1.00  0.00     0.074 A 
ATOM     35  C   UNL A   1      39.774  28.752  28.606  1.00  0.00     0.049 A 
ATOM     36  N   UNL A   1      42.746  29.260  28.635  1.00  0.00    -0.248 NA
ATOM     37  C   UNL A   1      43.064  27.138  27.721  1.00  0.00     0.031 C 
ATOM     38  C   UNL A   1      38.328  28.529  28.665  1.00  0.00     0.029 A 
ATOM     39  N   UNL A   1      39.935  30.015  29.114  1.00  0.00    -0.354 N 
ATOM     40  C   UNL A   1      44.109  29.017  28.502  1.00  0.00     0.074 A 
ATOM     41  C   UNL A   1      44.244  27.661  28.015  1.00  0.00     0.031 C 
ATOM     42  C   UNL A   1      37.732  29.630  29.150  1.00  0.00     0.029 A 
ATOM     43  C   UNL A   1      38.754  30.615  29.487  1.00  0.00     0.049 A 
ATOM     44  H   UNL A   1      40.812  30.453  29.202  1.00  0.00     0.167 HD
ATOM     45  C   UNL A   1      45.149  29.855  28.740  1.00  0.00     0.034 A 
ATOM     46  C   UNL A   1      38.520  31.816  30.051  1.00  0.00     0.034 A 
ATOM     47  C   UNL A   1      44.988  31.205  29.225  1.00  0.00     0.049 A 
ATOM     48  C   UNL A   1      39.688  32.725  30.330  1.00  0.00     0.074 A 
ATOM     49  C   UNL A   1      45.958  32.167  29.436  1.00  0.00     0.029 A 
ATOM     50  N   UNL A   1      43.775  31.780  29.594  1.00  0.00    -0.354 N 
ATOM     51  N   UNL A   1      40.968  32.510  30.131  1.00  0.00    -0.248 NA
ATOM     52  C   UNL A   1      39.378  34.042  30.897  1.00  0.00     0.031 C 
ATOM     53  C   UNL A   1      45.349  33.286  30.014  1.00  0.00     0.029 A 
ATOM     54  C   UNL A   1      43.982  33.064  30.074  1.00  0.00     0.049 A 
ATOM     55  H   UNL A   1      42.898  31.339  29.524  1.00  0.00     0.167 HD
ATOM     56  C   UNL A   1      41.615  33.677  30.528  1.00  0.00     0.074 A 
ATOM     57  C   UNL A   1      40.581  34.595  30.961  1.00  0.00     0.031 C 
ATOM     58  C   UNL A   1      42.944  33.964  30.529  1.00  0.00     0.034 A 
BRANCH  45  59
ATOM     59  C   UNL A   1      46.542  29.312  28.512  1.00  0.00     0.023 A 
ATOM     60  C   UNL A   1      47.051  29.091  27.218  1.00  0.00     0.031 A 
ATOM     61  C   UNL A   1      47.354  28.952  29.602  1.00  0.00     0.131 A 
ATOM     62  C   UNL A   1      48.280  28.434  27.049  1.00  0.00     0.055 A 
ATOM     63  C   UNL A   1      48.622  28.391  29.425  1.00  0.00     0.041 A 
ATOM     64  F   UNL A   1      46.921  29.116  30.862  1.00  0.00    -0.206 F 
ATOM     65  C   UNL A   1      49.082  28.108  28.144  1.00  0.00     0.022 A 
BRANCH  62  66
ATOM     66  S   UNL A   1      48.717  27.839  25.392  1.00  0.00     0.124 S 
ATOM     67  O   UNL A   1      47.552  28.252  24.612  1.00  0.00    -0.237 OA
ATOM     68  O   UNL A   1      49.958  28.556  25.117  1.00  0.00    -0.237 OA
ATOM     69  O   UNL A   1      48.856  26.396  25.571  1.00  0.00    -0.744 OA
ENDBRANCH  62  66
ENDBRANCH  45  59
BRANCH  46  70
ATOM     70  C   UNL A   1      37.127  32.214  30.400  1.00  0.00     0.023 A 
ATOM     71  C   UNL A   1      36.292  32.843  29.464  1.00  0.00     0.031 A 
ATOM     72  C   UNL A   1      36.609  31.965  31.684  1.00  0.00     0.131 A 
ATOM     73  C   UNL A   1      34.992  33.226  29.834  1.00  0.00     0.055 A 
ATOM     74  C   UNL A   1      35.301  32.301  32.031  1.00  0.00     0.041 A 
ATOM     75  F   UNL A   1      37.365  31.359  32.614  1.00  0.00    -0.206 F 
ATOM     76  C   UNL A   1      34.486  32.943  31.105  1.00  0.00     0.022 A 
BRANCH  73  77
ATOM     77  S   UNL A   1      33.983  34.151  28.644  1.00  0.00     0.124 S 
ATOM     78  O   UNL A   1      34.910  35.194  28.218  1.00  0.00    -0.237 OA
ATOM     79  O   UNL A   1      33.668  33.129  27.653  1.00  0.00    -0.237 OA
ATOM     80  O   UNL A   1      32.850  34.612  29.444  1.00  0.00    -0.744 OA
ENDBRANCH  73  77
ENDBRANCH  46  70
BRANCH  58  81
ATOM     81  C   UNL A   1      43.347  35.347  30.982  1.00  0.00     0.023 A 
ATOM     82  C   UNL A   1      43.488  35.672  32.343  1.00  0.00     0.031 A 
ATOM     83  C   UNL A   1      43.586  36.361  30.036  1.00  0.00     0.131 A 
ATOM     84  C   UNL A   1      43.798  36.987  32.720  1.00  0.00     0.055 A 
ATOM     85  C   UNL A   1      43.964  37.649  30.415  1.00  0.00     0.041 A 
ATOM     86  F   UNL A   1      43.460  36.112  28.722  1.00  0.00    -0.206 F 
ATOM     87  C   UNL A   1      44.058  37.972  31.764  1.00  0.00     0.022 A 
BRANCH  84  88
ATOM     88  S   UNL A   1      43.751  37.423  34.481  1.00  0.00     0.124 S 
ATOM     89  O   UNL A   1      42.653  38.383  34.525  1.00  0.00    -0.237 OA
ATOM     90  O   UNL A   1      43.497  36.134  35.115  1.00  0.00    -0.237 OA
ATOM     91  O   UNL A   1      45.076  37.986  34.730  1.00  0.00    -0.744 OA
ENDBRANCH  84  88
ENDBRANCH  58  81
ENDBRANCH  32  33
ENDBRANCH  24  27
ENDBRANCH  22  23
ENDBRANCH   1  22
TORSDOF 17
ENDMDL
MODEL 3
REMARK VINA RESULT:     -10.5      3.854      9.312
REMARK SMILES CC[N@H+](CC(C)(C)C(=O)NCCCNC(=O)c1ccc(-c2c3nc(c(-c4cc(S(=O)(=O)[O-])ccc4F)c4ccc([nH]4)c(-c4cc(S(=O)(=O)[O-])ccc4F)c4nc(c(-c5cc(S(=O)(=O)[O-])ccc5F)c5ccc2[nH]5)C=C4)C=C3)cc1)[C@H]1CC[NH2+]C1
REMARK SMILES IDX 12 1 11 2 10 3 8 4 9 5 5 7 6 8 7 9 4 10 3 11 2 13 1 14 80 15
REMARK SMILES IDX 81 16 84 17 82 18 83 19 13 22 14 23 15 24 16 26 17 27 18 28
REMARK SMILES IDX 79 29 19 30 78 31 20 32 21 33 22 34 72 35 23 36 77 37 71 38
REMARK SMILES IDX 73 39 24 40 76 41 70 42 69 43 25 45 57 46 37 47 56 48 38 49
REMARK SMILES IDX 41 50 55 51 74 52 39 53 40 54 54 56 75 57 42 58 26 59 27 60
REMARK SMILES IDX 35 61 28 62 34 63 36 64 33 65 29 66 30 67 31 68 32 69 58 70
REMARK SMILES IDX 59 71 67 72 60 73 66 74 68 75 65 76 61 77 62 78 63 79 64 80
REMARK SMILES IDX 43 81 44 82 52 83 45 84 51 85 53 86 50 87 46 88 47 89 48 90
REMARK SMILES IDX 49 91
REMARK H PARENT 10 6 3 12 83 20 83 21 14 25 73 44 41 55
REMARK Flexibility Score: inf
ROOT
ATOM      1  C   UNL A   1      32.590  27.855  26.712  1.00  0.00     0.042 C 
ENDROOT
BRANCH   1   2
ATOM      2  C   UNL A   1      32.636  26.429  26.179  1.00  0.00     0.117 C 
BRANCH   2   3
ATOM      3  N   UNL A   1      31.596  25.625  26.788  1.00  0.00    -0.355 N 
ATOM      4  C   UNL A   1      31.242  24.331  26.593  1.00  0.00     0.231 C 
ATOM      5  O   UNL A   1      30.050  24.075  26.791  1.00  0.00    -0.274 OA
ATOM      6  H   UNL A   1      31.053  26.099  27.459  1.00  0.00     0.163 HD
BRANCH   4   7
ATOM      7  C   UNL A   1      32.239  23.257  26.127  1.00  0.00     0.092 C 
ATOM      8  C   UNL A   1      31.591  21.984  25.552  1.00  0.00     0.027 C 
ATOM      9  C   UNL A   1      33.127  22.902  27.339  1.00  0.00     0.027 C 
BRANCH   7  10
ATOM     10  C   UNL A   1      33.177  23.872  25.020  1.00  0.00     0.279 C 
BRANCH  10  11
ATOM     11  N   UNL A   1      33.962  22.942  24.155  1.00  0.00    -0.327 N 
ATOM     12  H   UNL A   1      33.609  22.001  24.338  1.00  0.00     0.348 HD
BRANCH  11  13
ATOM     13  C   UNL A   1      33.748  23.240  22.718  1.00  0.00     0.259 C 
ATOM     14  C   UNL A   1      32.765  24.366  22.403  1.00  0.00     0.071 C 
ENDBRANCH  11  13
BRANCH  11  15
ATOM     15  C   UNL A   1      35.404  22.920  24.499  1.00  0.00     0.245 C 
ATOM     16  C   UNL A   1      35.951  24.142  25.242  1.00  0.00     0.132 C 
ATOM     17  C   UNL A   1      35.977  21.725  25.305  1.00  0.00     0.326 C 
ATOM     18  C   UNL A   1      37.252  23.622  25.816  1.00  0.00     0.267 C 
ATOM     19  N   UNL A   1      36.911  22.283  26.308  1.00  0.00    -0.341 N 
ATOM     20  H   UNL A   1      36.460  22.342  27.221  1.00  0.00     0.346 HD
ATOM     21  H   UNL A   1      37.739  21.699  26.425  1.00  0.00     0.346 HD
ENDBRANCH  11  15
ENDBRANCH  10  11
ENDBRANCH   7  10
ENDBRANCH   4   7
ENDBRANCH   2   3
ENDBRANCH   1   2
BRANCH   1  22
ATOM     22  C   UNL A   1      33.885  28.627  26.491  1.00  0.00     0.118 C 
BRANCH  22  23
ATOM     23  N   UNL A   1      33.706  30.062  26.665  1.00  0.00    -0.352 N 
ATOM     24  C   UNL A   1      34.389  30.934  27.476  1.00  0.00     0.251 C 
ATOM     25  H   UNL A   1      32.992  30.466  26.120  1.00  0.00     0.163 HD
ATOM     26  O   UNL A   1      33.933  32.058  27.676  1.00  0.00    -0.269 OA
BRANCH  24  27
ATOM     27  C   UNL A   1      35.648  30.506  28.118  1.00  0.00     0.039 A 
ATOM     28  C   UNL A   1      35.592  29.739  29.283  1.00  0.00     0.014 A 
ATOM     29  C   UNL A   1      36.882  30.856  27.565  1.00  0.00     0.014 A 
ATOM     30  C   UNL A   1      36.775  29.265  29.851  1.00  0.00     0.010 A 
ATOM     31  C   UNL A   1      38.050  30.298  28.072  1.00  0.00     0.010 A 
ATOM     32  C   UNL A   1      38.011  29.505  29.227  1.00  0.00    -0.014 A 
BRANCH  32  33
ATOM     33  C   UNL A   1      39.272  28.939  29.771  1.00  0.00     0.031 A 
ATOM     34  C   UNL A   1      39.935  29.579  30.960  1.00  0.00     0.074 A 
ATOM     35  C   UNL A   1      39.851  27.892  29.152  1.00  0.00     0.049 A 
ATOM     36  N   UNL A   1      41.064  29.271  31.543  1.00  0.00    -0.248 NA
ATOM     37  C   UNL A   1      39.254  30.742  31.547  1.00  0.00     0.031 C 
ATOM     38  C   UNL A   1      39.330  27.226  27.956  1.00  0.00     0.029 A 
ATOM     39  N   UNL A   1      41.007  27.211  29.433  1.00  0.00    -0.354 N 
ATOM     40  C   UNL A   1      41.238  30.211  32.554  1.00  0.00     0.074 A 
ATOM     41  C   UNL A   1      40.134  31.141  32.451  1.00  0.00     0.031 C 
ATOM     42  C   UNL A   1      40.147  26.214  27.626  1.00  0.00     0.029 A 
ATOM     43  C   UNL A   1      41.276  26.191  28.550  1.00  0.00     0.049 A 
ATOM     44  H   UNL A   1      41.591  27.430  30.195  1.00  0.00     0.167 HD
ATOM     45  C   UNL A   1      42.212  30.276  33.496  1.00  0.00     0.034 A 
ATOM     46  C   UNL A   1      42.320  25.342  28.481  1.00  0.00     0.034 A 
ATOM     47  C   UNL A   1      43.303  29.334  33.578  1.00  0.00     0.049 A 
ATOM     48  C   UNL A   1      43.405  25.442  29.520  1.00  0.00     0.074 A 
ATOM     49  C   UNL A   1      44.307  29.258  34.526  1.00  0.00     0.029 A 
ATOM     50  N   UNL A   1      43.545  28.312  32.664  1.00  0.00    -0.354 N 
ATOM     51  N   UNL A   1      43.519  26.292  30.515  1.00  0.00    -0.248 NA
ATOM     52  C   UNL A   1      44.495  24.464  29.433  1.00  0.00     0.031 C 
ATOM     53  C   UNL A   1      45.201  28.253  34.139  1.00  0.00     0.029 A 
ATOM     54  C   UNL A   1      44.706  27.634  33.003  1.00  0.00     0.049 A 
ATOM     55  H   UNL A   1      42.974  28.102  31.890  1.00  0.00     0.167 HD
ATOM     56  C   UNL A   1      44.684  25.933  31.189  1.00  0.00     0.074 A 
ATOM     57  C   UNL A   1      45.224  24.781  30.494  1.00  0.00     0.031 C 
ATOM     58  C   UNL A   1      45.251  26.500  32.286  1.00  0.00     0.034 A 
BRANCH  45  59
ATOM     59  C   UNL A   1      42.152  31.425  34.477  1.00  0.00     0.023 A 
ATOM     60  C   UNL A   1      41.272  31.418  35.575  1.00  0.00     0.031 A 
ATOM     61  C   UNL A   1      42.941  32.573  34.281  1.00  0.00     0.131 A 
ATOM     62  C   UNL A   1      41.127  32.569  36.367  1.00  0.00     0.055 A 
ATOM     63  C   UNL A   1      42.864  33.677  35.134  1.00  0.00     0.041 A 
ATOM     64  F   UNL A   1      43.785  32.653  33.240  1.00  0.00    -0.206 F 
ATOM     65  C   UNL A   1      41.937  33.688  36.171  1.00  0.00     0.022 A 
BRANCH  62  66
ATOM     66  S   UNL A   1      39.730  32.648  37.523  1.00  0.00     0.124 S 
ATOM     67  O   UNL A   1      39.216  33.992  37.274  1.00  0.00    -0.237 OA
ATOM     68  O   UNL A   1      38.887  31.546  37.074  1.00  0.00    -0.237 OA
ATOM     69  O   UNL A   1      40.357  32.463  38.830  1.00  0.00    -0.744 OA
ENDBRANCH  62  66
ENDBRANCH  45  59
BRANCH  46  70
ATOM     70  C   UNL A   1      42.391  24.339  27.380  1.00  0.00     0.023 A 
ATOM     71  C   UNL A   1      41.641  23.153  27.425  1.00  0.00     0.031 A 
ATOM     72  C   UNL A   1      43.214  24.558  26.261  1.00  0.00     0.131 A 
ATOM     73  C   UNL A   1      41.749  22.220  26.381  1.00  0.00     0.055 A 
ATOM     74  C   UNL A   1      43.280  23.651  25.203  1.00  0.00     0.041 A 
ATOM     75  F   UNL A   1      43.946  25.680  26.166  1.00  0.00    -0.206 F 
ATOM     76  C   UNL A   1      42.551  22.469  25.264  1.00  0.00     0.022 A 
BRANCH  73  77
ATOM     77  S   UNL A   1      40.868  20.641  26.529  1.00  0.00     0.124 S 
ATOM     78  O   UNL A   1      41.694  19.763  25.707  1.00  0.00    -0.237 OA
ATOM     79  O   UNL A   1      40.912  20.402  27.967  1.00  0.00    -0.237 OA
ATOM     80  O   UNL A   1      39.543  20.939  25.989  1.00  0.00    -0.744 OA
ENDBRANCH  73  77
ENDBRANCH  46  70
BRANCH  58  81
ATOM     81  C   UNL A   1      46.508  25.856  32.821  1.00  0.00     0.023 A 
ATOM     82  C   UNL A   1      47.787  26.252  32.393  1.00  0.00     0.031 A 
ATOM     83  C   UNL A   1      46.423  24.820  33.769  1.00  0.00     0.131 A 
ATOM     84  C   UNL A   1      48.923  25.579  32.866  1.00  0.00     0.055 A 
ATOM     85  C   UNL A   1      47.560  24.202  34.290  1.00  0.00     0.041 A 
ATOM     86  F   UNL A   1      45.228  24.393  34.210  1.00  0.00    -0.206 F 
ATOM     87  C   UNL A   1      48.819  24.571  33.828  1.00  0.00     0.022 A 
BRANCH  84  88
ATOM     88  S   UNL A   1      50.535  25.963  32.127  1.00  0.00     0.124 S 
ATOM     89  O   UNL A   1      50.187  26.145  30.722  1.00  0.00    -0.237 OA
ATOM     90  O   UNL A   1      50.929  27.169  32.848  1.00  0.00    -0.237 OA
ATOM     91  O   UNL A   1      51.337  24.777  32.419  1.00  0.00    -0.744 OA
ENDBRANCH  84  88
ENDBRANCH  58  81
ENDBRANCH  32  33
ENDBRANCH  24  27
ENDBRANCH  22  23
ENDBRANCH   1  22
TORSDOF 17
ENDMDL
