MODEL 1
REMARK VINA RESULT:     -10.9      0.000      0.000
REMARK SMILES C[C@H]([NH2+]C[C@@]1(C)CCCO1)C(=O)NCCCNC(=O)c1ccc(-c2c3nc(c(-c4cc(S(=O)(=O)[O-])ccc4F)c4ccc([nH]4)c(-c4cc(S(=O)(=O)[O-])ccc4F)c4nc(c(-c5cc(S(=O)(=O)[O-])ccc5F)c5ccc2[nH]5)C=C4)C=C3)cc1
REMARK SMILES IDX 15 1 14 2 13 3 11 4 12 5 2 7 1 8 3 9 4 12 5 13 6 14 7 15
REMARK SMILES IDX 10 16 8 17 9 18 16 19 17 20 18 21 19 23 20 24 21 25 82 26
REMARK SMILES IDX 22 27 81 28 23 29 24 30 25 31 75 32 26 33 80 34 74 35 76 36
REMARK SMILES IDX 27 37 79 38 73 39 72 40 28 42 60 43 40 44 59 45 41 46 44 47
REMARK SMILES IDX 58 48 77 49 42 50 43 51 57 53 78 54 45 55 29 56 30 57 38 58
REMARK SMILES IDX 31 59 37 60 39 61 36 62 32 63 33 64 34 65 35 66 61 67 62 68
REMARK SMILES IDX 70 69 63 70 69 71 71 72 68 73 64 74 65 75 66 76 67 77 46 78
REMARK SMILES IDX 47 79 55 80 48 81 54 82 56 83 53 84 49 85 50 86 51 87 52 88
REMARK H PARENT 13 6 3 10 3 11 17 22 76 41 44 52
REMARK Flexibility Score: inf
ROOT
ATOM      1  C   UNL A   1      35.840  23.427  25.716  1.00  0.00     0.042 C 
ENDROOT
BRANCH   1   2
ATOM      2  C   UNL A   1      35.525  22.142  26.470  1.00  0.00     0.118 C 
BRANCH   2   3
ATOM      3  N   UNL A   1      34.461  22.303  27.443  1.00  0.00    -0.351 N 
ATOM      4  C   UNL A   1      33.105  22.228  27.306  1.00  0.00     0.277 C 
ATOM      5  O   UNL A   1      32.422  22.360  28.327  1.00  0.00    -0.268 OA
ATOM      6  H   UNL A   1      34.769  22.501  28.357  1.00  0.00     0.163 HD
BRANCH   4   7
ATOM      7  C   UNL A   1      32.440  21.951  25.938  1.00  0.00     0.269 C 
ATOM      8  C   UNL A   1      31.076  22.634  25.828  1.00  0.00     0.086 C 
BRANCH   7   9
ATOM      9  N   UNL A   1      32.456  20.510  25.668  1.00  0.00    -0.334 N 
ATOM     10  H   UNL A   1      31.498  20.218  25.474  1.00  0.00     0.347 HD
ATOM     11  H   UNL A   1      32.863  20.077  26.497  1.00  0.00     0.347 HD
BRANCH   9  12
ATOM     12  C   UNL A   1      33.290  20.080  24.549  1.00  0.00     0.296 C 
BRANCH  12  13
ATOM     13  C   UNL A   1      33.010  18.596  24.147  1.00  0.00     0.114 C 
ATOM     14  C   UNL A   1      32.286  18.546  22.793  1.00  0.00     0.048 C 
ATOM     15  C   UNL A   1      34.282  17.747  24.146  1.00  0.00     0.043 C 
ATOM     16  O   UNL A   1      32.109  17.959  25.092  1.00  0.00    -0.369 OA
ATOM     17  C   UNL A   1      33.776  16.378  24.530  1.00  0.00     0.032 C 
ATOM     18  C   UNL A   1      32.686  16.718  25.522  1.00  0.00     0.161 C 
ENDBRANCH  12  13
ENDBRANCH   9  12
ENDBRANCH   7   9
ENDBRANCH   4   7
ENDBRANCH   2   3
ENDBRANCH   1   2
BRANCH   1  19
ATOM     19  C   UNL A   1      37.166  23.408  24.962  1.00  0.00     0.118 C 
BRANCH  19  20
ATOM     20  N   UNL A   1      38.108  22.442  25.508  1.00  0.00    -0.352 N 
ATOM     21  C   UNL A   1      39.281  22.626  26.193  1.00  0.00     0.251 C 
ATOM     22  H   UNL A   1      37.861  21.500  25.363  1.00  0.00     0.163 HD
ATOM     23  O   UNL A   1      40.013  21.648  26.379  1.00  0.00    -0.269 OA
BRANCH  21  24
ATOM     24  C   UNL A   1      39.692  23.958  26.689  1.00  0.00     0.039 A 
ATOM     25  C   UNL A   1      39.411  24.295  28.018  1.00  0.00     0.014 A 
ATOM     26  C   UNL A   1      40.295  24.903  25.854  1.00  0.00     0.014 A 
ATOM     27  C   UNL A   1      39.773  25.549  28.515  1.00  0.00     0.010 A 
ATOM     28  C   UNL A   1      40.732  26.122  26.373  1.00  0.00     0.010 A 
ATOM     29  C   UNL A   1      40.461  26.466  27.704  1.00  0.00    -0.014 A 
BRANCH  29  30
ATOM     30  C   UNL A   1      40.868  27.797  28.230  1.00  0.00     0.031 A 
ATOM     31  C   UNL A   1      42.328  28.154  28.340  1.00  0.00     0.074 A 
ATOM     32  C   UNL A   1      39.927  28.667  28.645  1.00  0.00     0.049 A 
ATOM     33  N   UNL A   1      42.883  29.246  28.801  1.00  0.00    -0.248 NA
ATOM     34  C   UNL A   1      43.290  27.133  27.899  1.00  0.00     0.031 C 
ATOM     35  C   UNL A   1      38.483  28.420  28.635  1.00  0.00     0.029 A 
ATOM     36  N   UNL A   1      40.040  29.936  29.155  1.00  0.00    -0.354 N 
ATOM     37  C   UNL A   1      44.257  29.038  28.720  1.00  0.00     0.074 A 
ATOM     38  C   UNL A   1      44.446  27.690  28.228  1.00  0.00     0.031 C 
ATOM     39  C   UNL A   1      37.847  29.513  29.086  1.00  0.00     0.029 A 
ATOM     40  C   UNL A   1      38.832  30.524  29.453  1.00  0.00     0.049 A 
ATOM     41  H   UNL A   1      40.906  30.385  29.294  1.00  0.00     0.167 HD
ATOM     42  C   UNL A   1      45.266  29.900  29.002  1.00  0.00     0.034 A 
ATOM     43  C   UNL A   1      38.551  31.739  29.965  1.00  0.00     0.034 A 
ATOM     44  C   UNL A   1      45.060  31.247  29.479  1.00  0.00     0.049 A 
ATOM     45  C   UNL A   1      39.688  32.682  30.263  1.00  0.00     0.074 A 
ATOM     46  C   UNL A   1      46.006  32.219  29.759  1.00  0.00     0.029 A 
ATOM     47  N   UNL A   1      43.821  31.814  29.750  1.00  0.00    -0.354 N 
ATOM     48  N   UNL A   1      40.981  32.488  30.134  1.00  0.00    -0.248 NA
ATOM     49  C   UNL A   1      39.324  34.017  30.754  1.00  0.00     0.031 C 
ATOM     50  C   UNL A   1      45.344  33.348  30.254  1.00  0.00     0.029 A 
ATOM     51  C   UNL A   1      43.979  33.113  30.211  1.00  0.00     0.049 A 
ATOM     52  H   UNL A   1      42.956  31.360  29.631  1.00  0.00     0.167 HD
ATOM     53  C   UNL A   1      41.581  33.691  30.496  1.00  0.00     0.074 A 
ATOM     54  C   UNL A   1      40.508  34.606  30.828  1.00  0.00     0.031 C 
ATOM     55  C   UNL A   1      42.900  34.012  30.548  1.00  0.00     0.034 A 
BRANCH  42  56
ATOM     56  C   UNL A   1      46.680  29.394  28.823  1.00  0.00     0.023 A 
ATOM     57  C   UNL A   1      47.228  29.167  27.547  1.00  0.00     0.031 A 
ATOM     58  C   UNL A   1      47.481  29.098  29.941  1.00  0.00     0.131 A 
ATOM     59  C   UNL A   1      48.497  28.584  27.420  1.00  0.00     0.055 A 
ATOM     60  C   UNL A   1      48.779  28.598  29.807  1.00  0.00     0.041 A 
ATOM     61  F   UNL A   1      47.010  29.274  31.186  1.00  0.00    -0.206 F 
ATOM     62  C   UNL A   1      49.288  28.322  28.541  1.00  0.00     0.022 A 
BRANCH  59  63
ATOM     63  S   UNL A   1      49.037  28.030  25.779  1.00  0.00     0.124 S 
ATOM     64  O   UNL A   1      47.888  28.394  24.953  1.00  0.00    -0.237 OA
ATOM     65  O   UNL A   1      50.251  28.811  25.566  1.00  0.00    -0.237 OA
ATOM     66  O   UNL A   1      49.241  26.593  25.952  1.00  0.00    -0.744 OA
ENDBRANCH  59  63
ENDBRANCH  42  56
BRANCH  43  67
ATOM     67  C   UNL A   1      37.138  32.143  30.219  1.00  0.00     0.023 A 
ATOM     68  C   UNL A   1      36.384  32.796  29.233  1.00  0.00     0.031 A 
ATOM     69  C   UNL A   1      36.537  31.919  31.471  1.00  0.00     0.131 A 
ATOM     70  C   UNL A   1      35.089  33.250  29.528  1.00  0.00     0.055 A 
ATOM     71  C   UNL A   1      35.230  32.326  31.742  1.00  0.00     0.041 A 
ATOM     72  F   UNL A   1      37.212  31.291  32.446  1.00  0.00    -0.206 F 
ATOM     73  C   UNL A   1      34.503  33.009  30.773  1.00  0.00     0.022 A 
BRANCH  70  74
ATOM     74  S   UNL A   1      34.210  34.240  28.287  1.00  0.00     0.124 S 
ATOM     75  O   UNL A   1      33.096  33.364  27.943  1.00  0.00    -0.237 OA
ATOM     76  O   UNL A   1      33.873  35.441  29.043  1.00  0.00    -0.237 OA
ATOM     77  O   UNL A   1      35.207  34.428  27.235  1.00  0.00    -0.744 OA
ENDBRANCH  70  74
ENDBRANCH  43  67
BRANCH  55  78
ATOM     78  C   UNL A   1      43.240  35.433  30.932  1.00  0.00     0.023 A 
ATOM     79  C   UNL A   1      43.412  36.442  29.968  1.00  0.00     0.031 A 
ATOM     80  C   UNL A   1      43.436  35.771  32.284  1.00  0.00     0.131 A 
ATOM     81  C   UNL A   1      43.844  37.718  30.360  1.00  0.00     0.055 A 
ATOM     82  C   UNL A   1      43.799  37.061  32.673  1.00  0.00     0.041 A 
ATOM     83  F   UNL A   1      43.286  34.850  33.249  1.00  0.00    -0.206 F 
ATOM     84  C   UNL A   1      44.024  38.039  31.708  1.00  0.00     0.022 A 
BRANCH  81  85
ATOM     85  S   UNL A   1      44.291  38.918  29.075  1.00  0.00     0.124 S 
ATOM     86  O   UNL A   1      43.105  39.767  29.026  1.00  0.00    -0.237 OA
ATOM     87  O   UNL A   1      45.493  39.534  29.629  1.00  0.00    -0.237 OA
ATOM     88  O   UNL A   1      44.510  38.089  27.892  1.00  0.00    -0.744 OA
ENDBRANCH  81  85
ENDBRANCH  55  78
ENDBRANCH  29  30
ENDBRANCH  21  24
ENDBRANCH  19  20
ENDBRANCH   1  19
TORSDOF 16
ENDMDL
MODEL 2
REMARK VINA RESULT:     -10.9      5.682     10.499
REMARK SMILES C[C@H]([NH2+]C[C@@]1(C)CCCO1)C(=O)NCCCNC(=O)c1ccc(-c2c3nc(c(-c4cc(S(=O)(=O)[O-])ccc4F)c4ccc([nH]4)c(-c4cc(S(=O)(=O)[O-])ccc4F)c4nc(c(-c5cc(S(=O)(=O)[O-])ccc5F)c5ccc2[nH]5)C=C4)C=C3)cc1
REMARK SMILES IDX 15 1 14 2 13 3 11 4 12 5 2 7 1 8 3 9 4 12 5 13 6 14 7 15
REMARK SMILES IDX 10 16 8 17 9 18 16 19 17 20 18 21 19 23 20 24 21 25 82 26
REMARK SMILES IDX 22 27 81 28 23 29 24 30 25 31 75 32 26 33 80 34 74 35 76 36
REMARK SMILES IDX 27 37 79 38 73 39 72 40 28 42 60 43 40 44 59 45 41 46 44 47
REMARK SMILES IDX 58 48 77 49 42 50 43 51 57 53 78 54 45 55 29 56 30 57 38 58
REMARK SMILES IDX 31 59 37 60 39 61 36 62 32 63 33 64 34 65 35 66 61 67 62 68
REMARK SMILES IDX 70 69 63 70 69 71 71 72 68 73 64 74 65 75 66 76 67 77 46 78
REMARK SMILES IDX 47 79 55 80 48 81 54 82 56 83 53 84 49 85 50 86 51 87 52 88
REMARK H PARENT 13 6 3 10 3 11 17 22 76 41 44 52
REMARK Flexibility Score: inf
ROOT
ATOM      1  C   UNL A   1      34.040  28.346  26.213  1.00  0.00     0.042 C 
ENDROOT
BRANCH   1   2
ATOM      2  C   UNL A   1      33.479  28.614  24.823  1.00  0.00     0.118 C 
BRANCH   2   3
ATOM      3  N   UNL A   1      33.290  27.405  24.044  1.00  0.00    -0.351 N 
ATOM      4  C   UNL A   1      32.157  26.716  23.723  1.00  0.00     0.277 C 
ATOM      5  O   UNL A   1      32.281  25.727  22.992  1.00  0.00    -0.268 OA
ATOM      6  H   UNL A   1      34.121  27.013  23.690  1.00  0.00     0.163 HD
BRANCH   4   7
ATOM      7  C   UNL A   1      30.763  27.170  24.213  1.00  0.00     0.269 C 
ATOM      8  C   UNL A   1      30.180  26.190  25.233  1.00  0.00     0.086 C 
BRANCH   7   9
ATOM      9  N   UNL A   1      29.911  27.472  23.059  1.00  0.00    -0.334 N 
ATOM     10  H   UNL A   1      28.939  27.369  23.353  1.00  0.00     0.347 HD
ATOM     11  H   UNL A   1      30.195  26.822  22.327  1.00  0.00     0.347 HD
BRANCH   9  12
ATOM     12  C   UNL A   1      30.065  28.806  22.486  1.00  0.00     0.296 C 
BRANCH  12  13
ATOM     13  C   UNL A   1      28.730  29.619  22.527  1.00  0.00     0.114 C 
ATOM     14  C   UNL A   1      27.583  28.721  23.011  1.00  0.00     0.048 C 
ATOM     15  C   UNL A   1      28.854  30.891  23.367  1.00  0.00     0.043 C 
ATOM     16  O   UNL A   1      28.344  30.058  21.197  1.00  0.00    -0.369 OA
ATOM     17  C   UNL A   1      27.897  31.840  22.688  1.00  0.00     0.032 C 
ATOM     18  C   UNL A   1      28.073  31.467  21.233  1.00  0.00     0.161 C 
ENDBRANCH  12  13
ENDBRANCH   9  12
ENDBRANCH   7   9
ENDBRANCH   4   7
ENDBRANCH   2   3
ENDBRANCH   1   2
BRANCH   1  19
ATOM     19  C   UNL A   1      33.212  28.934  27.352  1.00  0.00     0.118 C 
BRANCH  19  20
ATOM     20  N   UNL A   1      33.286  30.386  27.409  1.00  0.00    -0.352 N 
ATOM     21  C   UNL A   1      34.241  31.213  27.940  1.00  0.00     0.251 C 
ATOM     22  H   UNL A   1      32.524  30.852  26.995  1.00  0.00     0.163 HD
ATOM     23  O   UNL A   1      33.984  32.416  28.046  1.00  0.00    -0.269 OA
BRANCH  21  24
ATOM     24  C   UNL A   1      35.549  30.696  28.400  1.00  0.00     0.039 A 
ATOM     25  C   UNL A   1      35.575  29.792  29.469  1.00  0.00     0.014 A 
ATOM     26  C   UNL A   1      36.753  31.129  27.836  1.00  0.00     0.014 A 
ATOM     27  C   UNL A   1      36.794  29.295  29.936  1.00  0.00     0.010 A 
ATOM     28  C   UNL A   1      37.962  30.567  28.247  1.00  0.00     0.010 A 
ATOM     29  C   UNL A   1      37.998  29.658  29.313  1.00  0.00    -0.014 A 
BRANCH  29  30
ATOM     30  C   UNL A   1      39.300  29.118  29.790  1.00  0.00     0.031 A 
ATOM     31  C   UNL A   1      39.991  29.744  30.974  1.00  0.00     0.074 A 
ATOM     32  C   UNL A   1      39.877  28.090  29.137  1.00  0.00     0.049 A 
ATOM     33  N   UNL A   1      41.141  29.439  31.520  1.00  0.00    -0.248 NA
ATOM     34  C   UNL A   1      39.311  30.883  31.608  1.00  0.00     0.031 C 
ATOM     35  C   UNL A   1      39.331  27.430  27.949  1.00  0.00     0.029 A 
ATOM     36  N   UNL A   1      41.049  27.419  29.377  1.00  0.00    -0.354 N 
ATOM     37  C   UNL A   1      41.329  30.356  32.550  1.00  0.00     0.074 A 
ATOM     38  C   UNL A   1      40.205  31.268  32.506  1.00  0.00     0.031 C 
ATOM     39  C   UNL A   1      40.150  26.431  27.584  1.00  0.00     0.029 A 
ATOM     40  C   UNL A   1      41.297  26.400  28.485  1.00  0.00     0.049 A 
ATOM     41  H   UNL A   1      41.657  27.644  30.118  1.00  0.00     0.167 HD
ATOM     42  C   UNL A   1      42.330  30.417  33.464  1.00  0.00     0.034 A 
ATOM     43  C   UNL A   1      42.331  25.540  28.403  1.00  0.00     0.034 A 
ATOM     44  C   UNL A   1      43.438  29.491  33.503  1.00  0.00     0.049 A 
ATOM     45  C   UNL A   1      43.428  25.621  29.434  1.00  0.00     0.074 A 
ATOM     46  C   UNL A   1      44.485  29.434  34.407  1.00  0.00     0.029 A 
ATOM     47  N   UNL A   1      43.644  28.460  32.595  1.00  0.00    -0.354 N 
ATOM     48  N   UNL A   1      43.566  26.464  30.432  1.00  0.00    -0.248 NA
ATOM     49  C   UNL A   1      44.495  24.619  29.339  1.00  0.00     0.031 C 
ATOM     50  C   UNL A   1      45.353  28.410  34.011  1.00  0.00     0.029 A 
ATOM     51  C   UNL A   1      44.809  27.775  32.906  1.00  0.00     0.049 A 
ATOM     52  H   UNL A   1      43.049  28.246  31.841  1.00  0.00     0.167 HD
ATOM     53  C   UNL A   1      44.719  26.069  31.104  1.00  0.00     0.074 A 
ATOM     54  C   UNL A   1      45.223  24.902  30.408  1.00  0.00     0.031 C 
ATOM     55  C   UNL A   1      45.308  26.618  32.198  1.00  0.00     0.034 A 
BRANCH  42  56
ATOM     56  C   UNL A   1      42.277  31.539  34.477  1.00  0.00     0.023 A 
ATOM     57  C   UNL A   1      41.377  31.516  35.558  1.00  0.00     0.031 A 
ATOM     58  C   UNL A   1      43.108  32.665  34.341  1.00  0.00     0.131 A 
ATOM     59  C   UNL A   1      41.271  32.627  36.408  1.00  0.00     0.055 A 
ATOM     60  C   UNL A   1      43.058  33.731  35.242  1.00  0.00     0.041 A 
ATOM     61  F   UNL A   1      43.974  32.757  33.320  1.00  0.00    -0.206 F 
ATOM     62  C   UNL A   1      42.123  33.725  36.273  1.00  0.00     0.022 A 
BRANCH  59  63
ATOM     63  S   UNL A   1      39.899  32.683  37.594  1.00  0.00     0.124 S 
ATOM     64  O   UNL A   1      39.367  34.024  37.365  1.00  0.00    -0.237 OA
ATOM     65  O   UNL A   1      39.056  31.577  37.153  1.00  0.00    -0.237 OA
ATOM     66  O   UNL A   1      40.555  32.491  38.886  1.00  0.00    -0.744 OA
ENDBRANCH  59  63
ENDBRANCH  42  56
BRANCH  43  67
ATOM     67  C   UNL A   1      42.381  24.521  27.315  1.00  0.00     0.023 A 
ATOM     68  C   UNL A   1      41.583  23.368  27.368  1.00  0.00     0.031 A 
ATOM     69  C   UNL A   1      43.263  24.665  26.229  1.00  0.00     0.131 A 
ATOM     70  C   UNL A   1      41.717  22.378  26.381  1.00  0.00     0.055 A 
ATOM     71  C   UNL A   1      43.353  23.703  25.222  1.00  0.00     0.041 A 
ATOM     72  F   UNL A   1      44.042  25.753  26.127  1.00  0.00    -0.206 F 
ATOM     73  C   UNL A   1      42.588  22.544  25.302  1.00  0.00     0.022 A 
BRANCH  70  74
ATOM     74  S   UNL A   1      40.794  20.828  26.574  1.00  0.00     0.124 S 
ATOM     75  O   UNL A   1      39.493  21.185  26.020  1.00  0.00    -0.237 OA
ATOM     76  O   UNL A   1      41.597  19.900  25.782  1.00  0.00    -0.237 OA
ATOM     77  O   UNL A   1      40.819  20.595  28.016  1.00  0.00    -0.744 OA
ENDBRANCH  70  74
ENDBRANCH  43  67
BRANCH  55  78
ATOM     78  C   UNL A   1      46.536  25.921  32.732  1.00  0.00     0.023 A 
ATOM     79  C   UNL A   1      46.451  24.890  33.683  1.00  0.00     0.031 A 
ATOM     80  C   UNL A   1      47.816  26.326  32.311  1.00  0.00     0.131 A 
ATOM     81  C   UNL A   1      47.621  24.352  34.240  1.00  0.00     0.055 A 
ATOM     82  C   UNL A   1      48.977  25.739  32.818  1.00  0.00     0.041 A 
ATOM     83  F   UNL A   1      47.961  27.307  31.405  1.00  0.00    -0.206 F 
ATOM     84  C   UNL A   1      48.884  24.760  33.802  1.00  0.00     0.022 A 
BRANCH  81  85
ATOM     85  S   UNL A   1      47.473  23.203  35.636  1.00  0.00     0.124 S 
ATOM     86  O   UNL A   1      48.091  23.960  36.720  1.00  0.00    -0.237 OA
ATOM     87  O   UNL A   1      46.028  23.016  35.733  1.00  0.00    -0.237 OA
ATOM     88  O   UNL A   1      48.221  22.028  35.195  1.00  0.00    -0.744 OA
ENDBRANCH  81  85
ENDBRANCH  55  78
ENDBRANCH  29  30
ENDBRANCH  21  24
ENDBRANCH  19  20
ENDBRANCH   1  19
TORSDOF 16
ENDMDL
MODEL 3
REMARK VINA RESULT:     -10.8      3.406      6.135
REMARK SMILES C[C@H]([NH2+]C[C@@]1(C)CCCO1)C(=O)NCCCNC(=O)c1ccc(-c2c3nc(c(-c4cc(S(=O)(=O)[O-])ccc4F)c4ccc([nH]4)c(-c4cc(S(=O)(=O)[O-])ccc4F)c4nc(c(-c5cc(S(=O)(=O)[O-])ccc5F)c5ccc2[nH]5)C=C4)C=C3)cc1
REMARK SMILES IDX 15 1 14 2 13 3 11 4 12 5 2 7 1 8 3 9 4 12 5 13 6 14 7 15
REMARK SMILES IDX 10 16 8 17 9 18 16 19 17 20 18 21 19 23 20 24 21 25 82 26
REMARK SMILES IDX 22 27 81 28 23 29 24 30 25 31 75 32 26 33 80 34 74 35 76 36
REMARK SMILES IDX 27 37 79 38 73 39 72 40 28 42 60 43 40 44 59 45 41 46 44 47
REMARK SMILES IDX 58 48 77 49 42 50 43 51 57 53 78 54 45 55 29 56 30 57 38 58
REMARK SMILES IDX 31 59 37 60 39 61 36 62 32 63 33 64 34 65 35 66 61 67 62 68
REMARK SMILES IDX 70 69 63 70 69 71 71 72 68 73 64 74 65 75 66 76 67 77 46 78
REMARK SMILES IDX 47 79 55 80 48 81 54 82 56 83 53 84 49 85 50 86 51 87 52 88
REMARK H PARENT 13 6 3 10 3 11 17 22 76 41 44 52
REMARK Flexibility Score: inf
ROOT
ATOM      1  C   UNL A   1      42.133  21.329  26.126  1.00  0.00     0.042 C 
ENDROOT
BRANCH   1   2
ATOM      2  C   UNL A   1      43.048  20.110  26.131  1.00  0.00     0.118 C 
BRANCH   2   3
ATOM      3  N   UNL A   1      43.385  19.649  24.798  1.00  0.00    -0.351 N 
ATOM      4  C   UNL A   1      44.594  19.504  24.182  1.00  0.00     0.277 C 
ATOM      5  O   UNL A   1      44.596  19.035  23.038  1.00  0.00    -0.268 OA
ATOM      6  H   UNL A   1      42.611  19.400  24.243  1.00  0.00     0.163 HD
BRANCH   4   7
ATOM      7  C   UNL A   1      45.918  19.870  24.890  1.00  0.00     0.269 C 
ATOM      8  C   UNL A   1      46.451  18.704  25.724  1.00  0.00     0.086 C 
BRANCH   7   9
ATOM      9  N   UNL A   1      45.758  21.143  25.601  1.00  0.00    -0.334 N 
ATOM     10  H   UNL A   1      46.348  21.112  26.433  1.00  0.00     0.347 HD
ATOM     11  H   UNL A   1      44.762  21.224  25.801  1.00  0.00     0.347 HD
BRANCH   9  12
ATOM     12  C   UNL A   1      46.110  22.342  24.847  1.00  0.00     0.296 C 
BRANCH  12  13
ATOM     13  C   UNL A   1      45.911  23.643  25.691  1.00  0.00     0.114 C 
ATOM     14  C   UNL A   1      44.716  24.442  25.150  1.00  0.00     0.048 C 
ATOM     15  C   UNL A   1      45.771  23.348  27.185  1.00  0.00     0.043 C 
ATOM     16  O   UNL A   1      47.057  24.528  25.567  1.00  0.00    -0.369 OA
ATOM     17  C   UNL A   1      46.370  24.574  27.830  1.00  0.00     0.032 C 
ATOM     18  C   UNL A   1      47.498  24.904  26.879  1.00  0.00     0.161 C 
ENDBRANCH  12  13
ENDBRANCH   9  12
ENDBRANCH   7   9
ENDBRANCH   4   7
ENDBRANCH   2   3
ENDBRANCH   1   2
BRANCH   1  19
ATOM     19  C   UNL A   1      40.905  21.200  27.021  1.00  0.00     0.118 C 
BRANCH  19  20
ATOM     20  N   UNL A   1      39.661  21.447  26.307  1.00  0.00    -0.352 N 
ATOM     21  C   UNL A   1      38.884  22.573  26.227  1.00  0.00     0.251 C 
ATOM     22  H   UNL A   1      39.323  20.678  25.794  1.00  0.00     0.163 HD
ATOM     23  O   UNL A   1      37.762  22.478  25.719  1.00  0.00    -0.269 OA
BRANCH  21  24
ATOM     24  C   UNL A   1      39.349  23.877  26.749  1.00  0.00     0.039 A 
ATOM     25  C   UNL A   1      39.979  24.765  25.870  1.00  0.00     0.014 A 
ATOM     26  C   UNL A   1      39.227  24.217  28.100  1.00  0.00     0.014 A 
ATOM     27  C   UNL A   1      40.441  25.999  26.333  1.00  0.00     0.010 A 
ATOM     28  C   UNL A   1      39.612  25.483  28.542  1.00  0.00     0.010 A 
ATOM     29  C   UNL A   1      40.239  26.381  27.669  1.00  0.00    -0.014 A 
BRANCH  29  30
ATOM     30  C   UNL A   1      40.710  27.702  28.166  1.00  0.00     0.031 A 
ATOM     31  C   UNL A   1      42.177  28.045  28.134  1.00  0.00     0.074 A 
ATOM     32  C   UNL A   1      39.824  28.576  28.681  1.00  0.00     0.049 A 
ATOM     33  N   UNL A   1      42.786  29.126  28.550  1.00  0.00    -0.248 NA
ATOM     34  C   UNL A   1      43.081  27.021  27.589  1.00  0.00     0.031 C 
ATOM     35  C   UNL A   1      38.384  28.342  28.813  1.00  0.00     0.029 A 
ATOM     36  N   UNL A   1      40.000  29.838  29.191  1.00  0.00    -0.354 N 
ATOM     37  C   UNL A   1      44.143  28.907  28.330  1.00  0.00     0.074 A 
ATOM     38  C   UNL A   1      44.269  27.563  27.808  1.00  0.00     0.031 C 
ATOM     39  C   UNL A   1      37.806  29.435  29.336  1.00  0.00     0.029 A 
ATOM     40  C   UNL A   1      38.833  30.433  29.613  1.00  0.00     0.049 A 
ATOM     41  H   UNL A   1      40.879  30.278  29.248  1.00  0.00     0.167 HD
ATOM     42  C   UNL A   1      45.184  29.756  28.521  1.00  0.00     0.034 A 
ATOM     43  C   UNL A   1      38.617  31.645  30.164  1.00  0.00     0.034 A 
ATOM     44  C   UNL A   1      45.040  31.100  29.030  1.00  0.00     0.049 A 
ATOM     45  C   UNL A   1      39.787  32.574  30.358  1.00  0.00     0.074 A 
ATOM     46  C   UNL A   1      46.019  32.060  29.225  1.00  0.00     0.029 A 
ATOM     47  N   UNL A   1      43.840  31.675  29.429  1.00  0.00    -0.354 N 
ATOM     48  N   UNL A   1      41.059  32.370  30.100  1.00  0.00    -0.248 NA
ATOM     49  C   UNL A   1      39.487  33.906  30.897  1.00  0.00     0.031 C 
ATOM     50  C   UNL A   1      45.420  33.189  29.796  1.00  0.00     0.029 A 
ATOM     51  C   UNL A   1      44.056  32.966  29.886  1.00  0.00     0.049 A 
ATOM     52  H   UNL A   1      42.963  31.230  29.391  1.00  0.00     0.167 HD
ATOM     53  C   UNL A   1      41.704  33.563  30.413  1.00  0.00     0.074 A 
ATOM     54  C   UNL A   1      40.678  34.484  30.859  1.00  0.00     0.031 C 
ATOM     55  C   UNL A   1      43.025  33.872  30.338  1.00  0.00     0.034 A 
BRANCH  42  56
ATOM     56  C   UNL A   1      46.569  29.240  28.197  1.00  0.00     0.023 A 
ATOM     57  C   UNL A   1      47.352  28.573  29.158  1.00  0.00     0.031 A 
ATOM     58  C   UNL A   1      47.130  29.448  26.925  1.00  0.00     0.131 A 
ATOM     59  C   UNL A   1      48.675  28.215  28.859  1.00  0.00     0.055 A 
ATOM     60  C   UNL A   1      48.418  29.011  26.607  1.00  0.00     0.041 A 
ATOM     61  F   UNL A   1      46.442  30.095  25.971  1.00  0.00    -0.206 F 
ATOM     62  C   UNL A   1      49.206  28.406  27.582  1.00  0.00     0.022 A 
BRANCH  59  63
ATOM     63  S   UNL A   1      49.742  27.638  30.209  1.00  0.00     0.124 S 
ATOM     64  O   UNL A   1      51.071  27.815  29.630  1.00  0.00    -0.237 OA
ATOM     65  O   UNL A   1      49.391  28.545  31.297  1.00  0.00    -0.237 OA
ATOM     66  O   UNL A   1      49.332  26.248  30.400  1.00  0.00    -0.744 OA
ENDBRANCH  59  63
ENDBRANCH  42  56
BRANCH  43  67
ATOM     67  C   UNL A   1      37.240  32.058  30.562  1.00  0.00     0.023 A 
ATOM     68  C   UNL A   1      36.367  32.649  29.636  1.00  0.00     0.031 A 
ATOM     69  C   UNL A   1      36.795  31.908  31.887  1.00  0.00     0.131 A 
ATOM     70  C   UNL A   1      35.111  33.116  30.057  1.00  0.00     0.055 A 
ATOM     71  C   UNL A   1      35.525  32.326  32.289  1.00  0.00     0.041 A 
ATOM     72  F   UNL A   1      37.588  31.342  32.810  1.00  0.00    -0.206 F 
ATOM     73  C   UNL A   1      34.680  32.947  31.375  1.00  0.00     0.022 A 
BRANCH  70  74
ATOM     74  S   UNL A   1      34.080  34.026  28.873  1.00  0.00     0.124 S 
ATOM     75  O   UNL A   1      33.654  32.963  27.971  1.00  0.00    -0.237 OA
ATOM     76  O   UNL A   1      33.049  34.585  29.741  1.00  0.00    -0.237 OA
ATOM     77  O   UNL A   1      35.004  35.002  28.299  1.00  0.00    -0.744 OA
ENDBRANCH  70  74
ENDBRANCH  43  67
BRANCH  55  78
ATOM     78  C   UNL A   1      43.415  35.285  30.701  1.00  0.00     0.023 A 
ATOM     79  C   UNL A   1      43.599  35.686  32.035  1.00  0.00     0.031 A 
ATOM     80  C   UNL A   1      43.564  36.256  29.693  1.00  0.00     0.131 A 
ATOM     81  C   UNL A   1      43.844  37.034  32.334  1.00  0.00     0.055 A 
ATOM     82  C   UNL A   1      43.876  37.583  29.993  1.00  0.00     0.041 A 
ATOM     83  F   UNL A   1      43.400  35.933  28.401  1.00  0.00    -0.206 F 
ATOM     84  C   UNL A   1      44.000  37.983  31.320  1.00  0.00     0.022 A 
BRANCH  81  85
ATOM     85  S   UNL A   1      43.832  37.557  34.071  1.00  0.00     0.124 S 
ATOM     86  O   UNL A   1      42.771  38.559  34.079  1.00  0.00    -0.237 OA
ATOM     87  O   UNL A   1      43.535  36.310  34.769  1.00  0.00    -0.237 OA
ATOM     88  O   UNL A   1      45.180  38.079  34.282  1.00  0.00    -0.744 OA
ENDBRANCH  81  85
ENDBRANCH  55  78
ENDBRANCH  29  30
ENDBRANCH  21  24
ENDBRANCH  19  20
ENDBRANCH   1  19
TORSDOF 16
ENDMDL
