MODEL 1
REMARK VINA RESULT:     -14.8      0.000      0.000
REMARK SMILES Cc1c(NC(=O)c2cccc(-c3cc4ccccc4oc3=O)c2)cccc1C(=O)NCCCNC(=O)c1ccc(-c2c3nc(c(-c4cc(S(=O)(=O)[O-])ccc4F)c4ccc([nH]4)c(-c4cc(S(=O)(=O)[O-])ccc4F)c4nc(c(-c5cc(S(=O)(=O)[O-])ccc5F)c5ccc2[nH]5)C=C4)C=C3)cc1
REMARK SMILES IDX 32 1 31 2 30 3 28 4 29 5 27 7 1 8 2 9 3 10 24 11 26 12 25 13
REMARK SMILES IDX 4 14 5 15 6 17 7 18 8 19 23 20 9 21 11 22 10 23 12 24 13 25
REMARK SMILES IDX 21 26 14 27 20 28 22 29 15 30 19 31 16 32 18 33 17 34 33 35
REMARK SMILES IDX 34 36 35 37 36 39 37 40 38 41 99 42 39 43 98 44 40 45 41 46
REMARK SMILES IDX 42 47 92 48 43 49 97 50 91 51 93 52 44 53 96 54 90 55 89 56
REMARK SMILES IDX 45 58 77 59 57 60 76 61 58 62 61 63 75 64 94 65 59 66 60 67
REMARK SMILES IDX 74 69 95 70 62 71 46 72 47 73 55 74 48 75 54 76 56 77 53 78
REMARK SMILES IDX 49 79 50 80 51 81 52 82 78 83 79 84 87 85 80 86 86 87 88 88
REMARK SMILES IDX 85 89 81 90 82 91 83 92 84 93 63 94 64 95 72 96 65 97 71 98
REMARK SMILES IDX 73 99 70 100 66 101 67 102 68 103 69 104
REMARK H PARENT 30 6 4 16 34 38 93 57 61 68
REMARK Flexibility Score: inf
ROOT
ATOM      1  C   UNL A   1      33.384  31.460  27.625  1.00  0.00     0.042 C 
ENDROOT
BRANCH   1   2
ATOM      2  C   UNL A   1      32.454  30.543  26.834  1.00  0.00     0.118 C 
BRANCH   2   3
ATOM      3  N   UNL A   1      33.109  29.924  25.686  1.00  0.00    -0.352 N 
ATOM      4  C   UNL A   1      32.857  28.992  24.720  1.00  0.00     0.251 C 
ATOM      5  O   UNL A   1      33.711  29.031  23.817  1.00  0.00    -0.269 OA
ATOM      6  H   UNL A   1      34.014  30.294  25.572  1.00  0.00     0.163 HD
BRANCH   4   7
ATOM      7  C   UNL A   1      31.814  27.888  24.621  1.00  0.00     0.044 A 
ATOM      8  C   UNL A   1      31.518  27.192  27.051  1.00  0.00     0.047 C 
ATOM      9  C   UNL A   1      31.229  27.043  25.597  1.00  0.00    -0.015 A 
ATOM     10  C   UNL A   1      30.399  25.951  25.194  1.00  0.00     0.045 A 
ATOM     11  C   UNL A   1      30.094  25.741  23.851  1.00  0.00     0.026 A 
ATOM     12  C   UNL A   1      31.473  27.613  23.268  1.00  0.00     0.014 A 
ATOM     13  C   UNL A   1      30.635  26.568  22.885  1.00  0.00     0.003 A 
BRANCH  10  14
ATOM     14  N   UNL A   1      29.873  25.087  26.175  1.00  0.00    -0.322 N 
ATOM     15  C   UNL A   1      30.355  23.945  26.767  1.00  0.00     0.255 C 
ATOM     16  H   UNL A   1      28.984  25.357  26.502  1.00  0.00     0.170 HD
ATOM     17  O   UNL A   1      29.586  23.283  27.470  1.00  0.00    -0.269 OA
BRANCH  15  18
ATOM     18  C   UNL A   1      31.779  23.512  26.697  1.00  0.00     0.040 A 
ATOM     19  C   UNL A   1      32.235  22.636  27.692  1.00  0.00     0.014 A 
ATOM     20  C   UNL A   1      32.704  24.033  25.782  1.00  0.00     0.022 A 
ATOM     21  C   UNL A   1      33.571  22.244  27.733  1.00  0.00     0.001 A 
ATOM     22  C   UNL A   1      34.056  23.647  25.806  1.00  0.00    -0.010 A 
ATOM     23  C   UNL A   1      34.471  22.735  26.787  1.00  0.00     0.009 A 
BRANCH  22  24
ATOM     24  C   UNL A   1      35.115  24.266  24.957  1.00  0.00     0.068 A 
ATOM     25  C   UNL A   1      36.407  24.419  25.329  1.00  0.00     0.028 A 
ATOM     26  C   UNL A   1      35.090  23.749  23.539  1.00  0.00     0.344 A 
ATOM     27  C   UNL A   1      37.165  23.150  25.255  1.00  0.00     0.018 A 
ATOM     28  O   UNL A   1      35.692  22.488  23.429  1.00  0.00    -0.422 OA
ATOM     29  O   UNL A   1      34.518  24.314  22.640  1.00  0.00    -0.246 OA
ATOM     30  C   UNL A   1      38.258  22.879  26.068  1.00  0.00     0.012 A 
ATOM     31  C   UNL A   1      36.687  22.165  24.376  1.00  0.00     0.138 A 
ATOM     32  C   UNL A   1      38.797  21.591  26.060  1.00  0.00     0.001 A 
ATOM     33  C   UNL A   1      37.174  20.867  24.412  1.00  0.00     0.048 A 
ATOM     34  C   UNL A   1      38.226  20.581  25.275  1.00  0.00     0.004 A 
ENDBRANCH  22  24
ENDBRANCH  15  18
ENDBRANCH  10  14
ENDBRANCH   4   7
ENDBRANCH   2   3
ENDBRANCH   1   2
BRANCH   1  35
ATOM     35  C   UNL A   1      34.806  30.957  27.754  1.00  0.00     0.118 C 
BRANCH  35  36
ATOM     36  N   UNL A   1      35.665  31.642  28.719  1.00  0.00    -0.352 N 
ATOM     37  C   UNL A   1      36.702  31.092  29.472  1.00  0.00     0.251 C 
ATOM     38  H   UNL A   1      35.492  32.602  28.854  1.00  0.00     0.163 HD
ATOM     39  O   UNL A   1      37.368  31.759  30.255  1.00  0.00    -0.269 OA
BRANCH  37  40
ATOM     40  C   UNL A   1      37.107  29.688  29.184  1.00  0.00     0.039 A 
ATOM     41  C   UNL A   1      37.436  28.937  30.318  1.00  0.00     0.014 A 
ATOM     42  C   UNL A   1      37.689  29.411  27.955  1.00  0.00     0.014 A 
ATOM     43  C   UNL A   1      38.632  28.234  30.321  1.00  0.00     0.010 A 
ATOM     44  C   UNL A   1      38.936  28.824  27.987  1.00  0.00     0.010 A 
ATOM     45  C   UNL A   1      39.443  28.333  29.196  1.00  0.00    -0.014 A 
BRANCH  45  46
ATOM     46  C   UNL A   1      40.835  27.919  29.182  1.00  0.00     0.031 A 
ATOM     47  C   UNL A   1      41.105  26.568  28.676  1.00  0.00     0.074 A 
ATOM     48  C   UNL A   1      41.831  28.725  29.613  1.00  0.00     0.049 A 
ATOM     49  N   UNL A   1      42.093  25.835  29.039  1.00  0.00    -0.248 NA
ATOM     50  C   UNL A   1      40.184  25.894  27.769  1.00  0.00     0.031 C 
ATOM     51  C   UNL A   1      43.270  28.506  29.494  1.00  0.00     0.029 A 
ATOM     52  N   UNL A   1      41.725  29.837  30.445  1.00  0.00    -0.354 N 
ATOM     53  C   UNL A   1      42.102  24.726  28.225  1.00  0.00     0.074 A 
ATOM     54  C   UNL A   1      40.838  24.757  27.537  1.00  0.00     0.031 C 
ATOM     55  C   UNL A   1      43.906  29.275  30.393  1.00  0.00     0.029 A 
ATOM     56  C   UNL A   1      42.898  29.907  31.225  1.00  0.00     0.049 A 
ATOM     57  H   UNL A   1      40.965  30.462  30.484  1.00  0.00     0.167 HD
ATOM     58  C   UNL A   1      43.248  23.997  28.126  1.00  0.00     0.034 A 
ATOM     59  C   UNL A   1      42.816  29.790  32.585  1.00  0.00     0.034 A 
ATOM     60  C   UNL A   1      44.257  24.503  29.067  1.00  0.00     0.049 A 
ATOM     61  C   UNL A   1      43.385  28.476  33.107  1.00  0.00     0.074 A 
ATOM     62  C   UNL A   1      45.348  25.349  28.944  1.00  0.00     0.029 A 
ATOM     63  N   UNL A   1      43.993  24.429  30.427  1.00  0.00    -0.354 N 
ATOM     64  N   UNL A   1      43.926  27.541  32.370  1.00  0.00    -0.248 NA
ATOM     65  C   UNL A   1      43.293  28.087  34.511  1.00  0.00     0.031 C 
ATOM     66  C   UNL A   1      45.697  25.818  30.247  1.00  0.00     0.029 A 
ATOM     67  C   UNL A   1      44.856  25.218  31.168  1.00  0.00     0.049 A 
ATOM     68  H   UNL A   1      43.276  23.881  30.819  1.00  0.00     0.167 HD
ATOM     69  C   UNL A   1      44.185  26.430  33.138  1.00  0.00     0.074 A 
ATOM     70  C   UNL A   1      43.754  26.825  34.472  1.00  0.00     0.031 C 
ATOM     71  C   UNL A   1      44.692  25.264  32.619  1.00  0.00     0.034 A 
BRANCH  58  72
ATOM     72  C   UNL A   1      43.546  23.046  26.985  1.00  0.00     0.023 A 
ATOM     73  C   UNL A   1      42.997  21.751  27.035  1.00  0.00     0.031 A 
ATOM     74  C   UNL A   1      44.389  23.291  25.880  1.00  0.00     0.131 A 
ATOM     75  C   UNL A   1      43.360  20.760  26.102  1.00  0.00     0.055 A 
ATOM     76  C   UNL A   1      44.797  22.293  24.985  1.00  0.00     0.041 A 
ATOM     77  F   UNL A   1      44.814  24.517  25.561  1.00  0.00    -0.206 F 
ATOM     78  C   UNL A   1      44.289  21.014  25.098  1.00  0.00     0.022 A 
BRANCH  75  79
ATOM     79  S   UNL A   1      42.594  19.124  26.219  1.00  0.00     0.124 S 
ATOM     80  O   UNL A   1      43.656  18.253  25.727  1.00  0.00    -0.237 OA
ATOM     81  O   UNL A   1      42.285  19.031  27.641  1.00  0.00    -0.237 OA
ATOM     82  O   UNL A   1      41.429  19.234  25.341  1.00  0.00    -0.744 OA
ENDBRANCH  75  79
ENDBRANCH  58  72
BRANCH  59  83
ATOM     83  C   UNL A   1      41.595  30.480  33.114  1.00  0.00     0.023 A 
ATOM     84  C   UNL A   1      41.564  31.894  33.065  1.00  0.00     0.031 A 
ATOM     85  C   UNL A   1      40.371  29.797  33.155  1.00  0.00     0.131 A 
ATOM     86  C   UNL A   1      40.346  32.559  32.843  1.00  0.00     0.055 A 
ATOM     87  C   UNL A   1      39.165  30.470  32.955  1.00  0.00     0.041 A 
ATOM     88  F   UNL A   1      40.336  28.458  33.220  1.00  0.00    -0.206 F 
ATOM     89  C   UNL A   1      39.155  31.843  32.724  1.00  0.00     0.022 A 
BRANCH  86  90
ATOM     90  S   UNL A   1      40.329  34.336  32.471  1.00  0.00     0.124 S 
ATOM     91  O   UNL A   1      40.906  34.914  33.677  1.00  0.00    -0.237 OA
ATOM     92  O   UNL A   1      41.147  34.427  31.266  1.00  0.00    -0.237 OA
ATOM     93  O   UNL A   1      38.908  34.611  32.253  1.00  0.00    -0.744 OA
ENDBRANCH  86  90
ENDBRANCH  59  83
BRANCH  71  94
ATOM     94  C   UNL A   1      45.032  24.027  33.441  1.00  0.00     0.023 A 
ATOM     95  C   UNL A   1      46.346  23.704  33.807  1.00  0.00     0.031 A 
ATOM     96  C   UNL A   1      44.053  23.088  33.853  1.00  0.00     0.131 A 
ATOM     97  C   UNL A   1      46.627  22.626  34.666  1.00  0.00     0.055 A 
ATOM     98  C   UNL A   1      44.340  21.970  34.642  1.00  0.00     0.041 A 
ATOM     99  F   UNL A   1      42.761  23.201  33.518  1.00  0.00    -0.206 F 
ATOM    100  C   UNL A   1      45.631  21.751  35.084  1.00  0.00     0.022 A 
BRANCH  97 101
ATOM    101  S   UNL A   1      48.319  22.443  35.276  1.00  0.00     0.124 S 
ATOM    102  O   UNL A   1      48.778  23.826  35.356  1.00  0.00    -0.237 OA
ATOM    103  O   UNL A   1      48.100  21.773  36.555  1.00  0.00    -0.237 OA
ATOM    104  O   UNL A   1      48.969  21.629  34.250  1.00  0.00    -0.744 OA
ENDBRANCH  97 101
ENDBRANCH  71  94
ENDBRANCH  45  46
ENDBRANCH  37  40
ENDBRANCH  35  36
ENDBRANCH   1  35
TORSDOF 16
ENDMDL
MODEL 2
REMARK VINA RESULT:     -14.7      1.816      2.102
REMARK SMILES Cc1c(NC(=O)c2cccc(-c3cc4ccccc4oc3=O)c2)cccc1C(=O)NCCCNC(=O)c1ccc(-c2c3nc(c(-c4cc(S(=O)(=O)[O-])ccc4F)c4ccc([nH]4)c(-c4cc(S(=O)(=O)[O-])ccc4F)c4nc(c(-c5cc(S(=O)(=O)[O-])ccc5F)c5ccc2[nH]5)C=C4)C=C3)cc1
REMARK SMILES IDX 32 1 31 2 30 3 28 4 29 5 27 7 1 8 2 9 3 10 24 11 26 12 25 13
REMARK SMILES IDX 4 14 5 15 6 17 7 18 8 19 23 20 9 21 11 22 10 23 12 24 13 25
REMARK SMILES IDX 21 26 14 27 20 28 22 29 15 30 19 31 16 32 18 33 17 34 33 35
REMARK SMILES IDX 34 36 35 37 36 39 37 40 38 41 99 42 39 43 98 44 40 45 41 46
REMARK SMILES IDX 42 47 92 48 43 49 97 50 91 51 93 52 44 53 96 54 90 55 89 56
REMARK SMILES IDX 45 58 77 59 57 60 76 61 58 62 61 63 75 64 94 65 59 66 60 67
REMARK SMILES IDX 74 69 95 70 62 71 46 72 47 73 55 74 48 75 54 76 56 77 53 78
REMARK SMILES IDX 49 79 50 80 51 81 52 82 78 83 79 84 87 85 80 86 86 87 88 88
REMARK SMILES IDX 85 89 81 90 82 91 83 92 84 93 63 94 64 95 72 96 65 97 71 98
REMARK SMILES IDX 73 99 70 100 66 101 67 102 68 103 69 104
REMARK H PARENT 30 6 4 16 34 38 93 57 61 68
REMARK Flexibility Score: inf
ROOT
ATOM      1  C   UNL A   1      32.830  31.791  27.221  1.00  0.00     0.042 C 
ENDROOT
BRANCH   1   2
ATOM      2  C   UNL A   1      31.996  30.821  26.386  1.00  0.00     0.118 C 
BRANCH   2   3
ATOM      3  N   UNL A   1      32.790  30.092  25.402  1.00  0.00    -0.352 N 
ATOM      4  C   UNL A   1      32.679  29.027  24.555  1.00  0.00     0.251 C 
ATOM      5  O   UNL A   1      33.618  28.992  23.741  1.00  0.00    -0.269 OA
ATOM      6  H   UNL A   1      33.686  30.493  25.326  1.00  0.00     0.163 HD
BRANCH   4   7
ATOM      7  C   UNL A   1      31.698  27.864  24.510  1.00  0.00     0.044 A 
ATOM      8  C   UNL A   1      31.397  27.303  26.975  1.00  0.00     0.047 C 
ATOM      9  C   UNL A   1      31.142  27.049  25.528  1.00  0.00    -0.015 A 
ATOM     10  C   UNL A   1      30.379  25.892  25.183  1.00  0.00     0.045 A 
ATOM     11  C   UNL A   1      30.109  25.583  23.851  1.00  0.00     0.026 A 
ATOM     12  C   UNL A   1      31.396  27.488  23.172  1.00  0.00     0.014 A 
ATOM     13  C   UNL A   1      30.622  26.378  22.843  1.00  0.00     0.003 A 
BRANCH  10  14
ATOM     14  N   UNL A   1      29.882  25.062  26.208  1.00  0.00    -0.322 N 
ATOM     15  C   UNL A   1      30.375  23.932  26.814  1.00  0.00     0.255 C 
ATOM     16  H   UNL A   1      29.010  25.350  26.560  1.00  0.00     0.170 HD
ATOM     17  O   UNL A   1      29.628  23.299  27.565  1.00  0.00    -0.269 OA
BRANCH  15  18
ATOM     18  C   UNL A   1      31.792  23.481  26.702  1.00  0.00     0.040 A 
ATOM     19  C   UNL A   1      32.248  22.554  27.649  1.00  0.00     0.014 A 
ATOM     20  C   UNL A   1      32.710  24.030  25.798  1.00  0.00     0.022 A 
ATOM     21  C   UNL A   1      33.579  22.141  27.651  1.00  0.00     0.001 A 
ATOM     22  C   UNL A   1      34.056  23.623  25.783  1.00  0.00    -0.010 A 
ATOM     23  C   UNL A   1      34.472  22.661  26.715  1.00  0.00     0.009 A 
BRANCH  22  24
ATOM     24  C   UNL A   1      35.112  24.265  24.946  1.00  0.00     0.068 A 
ATOM     25  C   UNL A   1      36.396  24.444  25.334  1.00  0.00     0.028 A 
ATOM     26  C   UNL A   1      35.115  23.748  23.529  1.00  0.00     0.344 A 
ATOM     27  C   UNL A   1      37.182  23.192  25.268  1.00  0.00     0.018 A 
ATOM     28  O   UNL A   1      35.745  22.500  23.425  1.00  0.00    -0.422 OA
ATOM     29  O   UNL A   1      34.542  24.300  22.623  1.00  0.00    -0.246 OA
ATOM     30  C   UNL A   1      38.270  22.944  26.094  1.00  0.00     0.012 A 
ATOM     31  C   UNL A   1      36.735  22.197  24.384  1.00  0.00     0.138 A 
ATOM     32  C   UNL A   1      38.837  21.668  26.093  1.00  0.00     0.001 A 
ATOM     33  C   UNL A   1      37.249  20.910  24.426  1.00  0.00     0.048 A 
ATOM     34  C   UNL A   1      38.297  20.646  25.301  1.00  0.00     0.004 A 
ENDBRANCH  22  24
ENDBRANCH  15  18
ENDBRANCH  10  14
ENDBRANCH   4   7
ENDBRANCH   2   3
ENDBRANCH   1   2
BRANCH   1  35
ATOM     35  C   UNL A   1      33.942  31.143  28.017  1.00  0.00     0.118 C 
BRANCH  35  36
ATOM     36  N   UNL A   1      35.027  32.014  28.468  1.00  0.00    -0.352 N 
ATOM     37  C   UNL A   1      36.302  31.633  28.886  1.00  0.00     0.251 C 
ATOM     38  H   UNL A   1      34.836  32.980  28.479  1.00  0.00     0.163 HD
ATOM     39  O   UNL A   1      37.145  32.448  29.243  1.00  0.00    -0.269 OA
BRANCH  37  40
ATOM     40  C   UNL A   1      36.690  30.204  28.735  1.00  0.00     0.039 A 
ATOM     41  C   UNL A   1      37.029  29.566  29.932  1.00  0.00     0.014 A 
ATOM     42  C   UNL A   1      37.253  29.800  27.531  1.00  0.00     0.014 A 
ATOM     43  C   UNL A   1      38.219  28.855  29.990  1.00  0.00     0.010 A 
ATOM     44  C   UNL A   1      38.495  29.207  27.604  1.00  0.00     0.010 A 
ATOM     45  C   UNL A   1      39.015  28.834  28.850  1.00  0.00    -0.014 A 
BRANCH  45  46
ATOM     46  C   UNL A   1      40.404  28.407  28.858  1.00  0.00     0.031 A 
ATOM     47  C   UNL A   1      40.645  26.979  28.621  1.00  0.00     0.074 A 
ATOM     48  C   UNL A   1      41.421  29.270  29.076  1.00  0.00     0.049 A 
ATOM     49  N   UNL A   1      41.645  26.320  29.080  1.00  0.00    -0.248 NA
ATOM     50  C   UNL A   1      39.681  26.150  27.908  1.00  0.00     0.031 C 
ATOM     51  C   UNL A   1      42.853  29.012  28.941  1.00  0.00     0.029 A 
ATOM     52  N   UNL A   1      41.358  30.526  29.673  1.00  0.00    -0.354 N 
ATOM     53  C   UNL A   1      41.612  25.071  28.505  1.00  0.00     0.074 A 
ATOM     54  C   UNL A   1      40.319  24.981  27.880  1.00  0.00     0.031 C 
ATOM     55  C   UNL A   1      43.532  29.937  29.640  1.00  0.00     0.029 A 
ATOM     56  C   UNL A   1      42.565  30.736  30.371  1.00  0.00     0.049 A 
ATOM     57  H   UNL A   1      40.603  31.157  29.618  1.00  0.00     0.167 HD
ATOM     58  C   UNL A   1      42.749  24.322  28.505  1.00  0.00     0.034 A 
ATOM     59  C   UNL A   1      42.544  30.893  31.729  1.00  0.00     0.034 A 
ATOM     60  C   UNL A   1      43.802  24.992  29.280  1.00  0.00     0.049 A 
ATOM     61  C   UNL A   1      43.130  29.703  32.478  1.00  0.00     0.074 A 
ATOM     62  C   UNL A   1      44.890  25.781  28.943  1.00  0.00     0.029 A 
ATOM     63  N   UNL A   1      43.600  25.195  30.638  1.00  0.00    -0.354 N 
ATOM     64  N   UNL A   1      43.634  28.632  31.921  1.00  0.00    -0.248 NA
ATOM     65  C   UNL A   1      43.100  29.603  33.935  1.00  0.00     0.031 C 
ATOM     66  C   UNL A   1      45.300  26.497  30.110  1.00  0.00     0.029 A 
ATOM     67  C   UNL A   1      44.499  26.104  31.168  1.00  0.00     0.049 A 
ATOM     68  H   UNL A   1      42.898  24.745  31.163  1.00  0.00     0.167 HD
ATOM     69  C   UNL A   1      43.922  27.693  32.883  1.00  0.00     0.074 A 
ATOM     70  C   UNL A   1      43.554  28.353  34.129  1.00  0.00     0.031 C 
ATOM     71  C   UNL A   1      44.401  26.440  32.587  1.00  0.00     0.034 A 
BRANCH  58  72
ATOM     72  C   UNL A   1      42.992  23.158  27.565  1.00  0.00     0.023 A 
ATOM     73  C   UNL A   1      43.931  23.321  26.529  1.00  0.00     0.031 A 
ATOM     74  C   UNL A   1      42.319  21.917  27.567  1.00  0.00     0.131 A 
ATOM     75  C   UNL A   1      44.091  22.350  25.520  1.00  0.00     0.055 A 
ATOM     76  C   UNL A   1      42.434  20.976  26.535  1.00  0.00     0.041 A 
ATOM     77  F   UNL A   1      41.565  21.513  28.593  1.00  0.00    -0.206 F 
ATOM     78  C   UNL A   1      43.318  21.194  25.496  1.00  0.00     0.022 A 
BRANCH  75  79
ATOM     79  S   UNL A   1      45.334  22.622  24.233  1.00  0.00     0.124 S 
ATOM     80  O   UNL A   1      44.657  22.120  23.043  1.00  0.00    -0.237 OA
ATOM     81  O   UNL A   1      45.538  24.065  24.303  1.00  0.00    -0.237 OA
ATOM     82  O   UNL A   1      46.469  21.818  24.685  1.00  0.00    -0.744 OA
ENDBRANCH  75  79
ENDBRANCH  58  72
BRANCH  59  83
ATOM     83  C   UNL A   1      41.351  31.691  32.162  1.00  0.00     0.023 A 
ATOM     84  C   UNL A   1      40.313  31.009  32.839  1.00  0.00     0.031 A 
ATOM     85  C   UNL A   1      41.476  33.072  32.372  1.00  0.00     0.131 A 
ATOM     86  C   UNL A   1      39.586  31.666  33.847  1.00  0.00     0.055 A 
ATOM     87  C   UNL A   1      40.734  33.720  33.361  1.00  0.00     0.041 A 
ATOM     88  F   UNL A   1      42.430  33.776  31.746  1.00  0.00    -0.206 F 
ATOM     89  C   UNL A   1      39.840  33.003  34.152  1.00  0.00     0.022 A 
BRANCH  86  90
ATOM     90  S   UNL A   1      38.471  30.728  34.929  1.00  0.00     0.124 S 
ATOM     91  O   UNL A   1      39.380  30.210  35.943  1.00  0.00    -0.237 OA
ATOM     92  O   UNL A   1      37.522  31.741  35.381  1.00  0.00    -0.237 OA
ATOM     93  O   UNL A   1      37.898  29.731  34.023  1.00  0.00    -0.744 OA
ENDBRANCH  86  90
ENDBRANCH  59  83
BRANCH  71  94
ATOM     94  C   UNL A   1      44.772  25.388  33.624  1.00  0.00     0.023 A 
ATOM     95  C   UNL A   1      46.071  24.876  33.744  1.00  0.00     0.031 A 
ATOM     96  C   UNL A   1      43.822  24.815  34.507  1.00  0.00     0.131 A 
ATOM     97  C   UNL A   1      46.421  23.996  34.784  1.00  0.00     0.055 A 
ATOM     98  C   UNL A   1      44.153  23.879  35.493  1.00  0.00     0.041 A 
ATOM     99  F   UNL A   1      42.522  25.132  34.470  1.00  0.00    -0.206 F 
ATOM    100  C   UNL A   1      45.468  23.488  35.659  1.00  0.00     0.022 A 
BRANCH  97 101
ATOM    101  S   UNL A   1      48.169  23.588  35.002  1.00  0.00     0.124 S 
ATOM    102  O   UNL A   1      48.811  24.379  33.956  1.00  0.00    -0.237 OA
ATOM    103  O   UNL A   1      48.408  24.037  36.371  1.00  0.00    -0.237 OA
ATOM    104  O   UNL A   1      48.213  22.141  34.804  1.00  0.00    -0.744 OA
ENDBRANCH  97 101
ENDBRANCH  71  94
ENDBRANCH  45  46
ENDBRANCH  37  40
ENDBRANCH  35  36
ENDBRANCH   1  35
TORSDOF 16
ENDMDL
MODEL 3
REMARK VINA RESULT:     -14.4      4.080      9.956
REMARK SMILES Cc1c(NC(=O)c2cccc(-c3cc4ccccc4oc3=O)c2)cccc1C(=O)NCCCNC(=O)c1ccc(-c2c3nc(c(-c4cc(S(=O)(=O)[O-])ccc4F)c4ccc([nH]4)c(-c4cc(S(=O)(=O)[O-])ccc4F)c4nc(c(-c5cc(S(=O)(=O)[O-])ccc5F)c5ccc2[nH]5)C=C4)C=C3)cc1
REMARK SMILES IDX 32 1 31 2 30 3 28 4 29 5 27 7 1 8 2 9 3 10 24 11 26 12 25 13
REMARK SMILES IDX 4 14 5 15 6 17 7 18 8 19 23 20 9 21 11 22 10 23 12 24 13 25
REMARK SMILES IDX 21 26 14 27 20 28 22 29 15 30 19 31 16 32 18 33 17 34 33 35
REMARK SMILES IDX 34 36 35 37 36 39 37 40 38 41 99 42 39 43 98 44 40 45 41 46
REMARK SMILES IDX 42 47 92 48 43 49 97 50 91 51 93 52 44 53 96 54 90 55 89 56
REMARK SMILES IDX 45 58 77 59 57 60 76 61 58 62 61 63 75 64 94 65 59 66 60 67
REMARK SMILES IDX 74 69 95 70 62 71 46 72 47 73 55 74 48 75 54 76 56 77 53 78
REMARK SMILES IDX 49 79 50 80 51 81 52 82 78 83 79 84 87 85 80 86 86 87 88 88
REMARK SMILES IDX 85 89 81 90 82 91 83 92 84 93 63 94 64 95 72 96 65 97 71 98
REMARK SMILES IDX 73 99 70 100 66 101 67 102 68 103 69 104
REMARK H PARENT 30 6 4 16 34 38 93 57 61 68
REMARK Flexibility Score: inf
ROOT
ATOM      1  C   UNL A   1      38.771  21.703  25.642  1.00  0.00     0.042 C 
ENDROOT
BRANCH   1   2
ATOM      2  C   UNL A   1      37.467  22.367  25.203  1.00  0.00     0.118 C 
BRANCH   2   3
ATOM      3  N   UNL A   1      36.351  22.073  26.097  1.00  0.00    -0.352 N 
ATOM      4  C   UNL A   1      35.004  21.857  26.047  1.00  0.00     0.251 C 
ATOM      5  O   UNL A   1      34.576  21.399  27.119  1.00  0.00    -0.269 OA
ATOM      6  H   UNL A   1      36.670  22.011  27.026  1.00  0.00     0.163 HD
BRANCH   4   7
ATOM      7  C   UNL A   1      33.964  22.174  24.980  1.00  0.00     0.044 A 
ATOM      8  C   UNL A   1      35.382  23.135  23.097  1.00  0.00     0.047 C 
ATOM      9  C   UNL A   1      34.068  22.770  23.698  1.00  0.00    -0.015 A 
ATOM     10  C   UNL A   1      32.888  23.121  22.974  1.00  0.00     0.045 A 
ATOM     11  C   UNL A   1      31.623  22.822  23.477  1.00  0.00     0.026 A 
ATOM     12  C   UNL A   1      32.647  21.906  25.442  1.00  0.00     0.014 A 
ATOM     13  C   UNL A   1      31.500  22.219  24.715  1.00  0.00     0.003 A 
BRANCH  10  14
ATOM     14  N   UNL A   1      33.010  23.764  21.726  1.00  0.00    -0.322 N 
ATOM     15  C   UNL A   1      33.045  25.088  21.359  1.00  0.00     0.255 C 
ATOM     16  H   UNL A   1      33.087  23.142  20.968  1.00  0.00     0.170 HD
ATOM     17  O   UNL A   1      32.971  25.363  20.159  1.00  0.00    -0.269 OA
BRANCH  15  18
ATOM     18  C   UNL A   1      33.273  26.208  22.316  1.00  0.00     0.040 A 
ATOM     19  C   UNL A   1      33.775  27.408  21.794  1.00  0.00     0.014 A 
ATOM     20  C   UNL A   1      33.142  26.080  23.705  1.00  0.00     0.022 A 
ATOM     21  C   UNL A   1      34.080  28.475  22.637  1.00  0.00     0.001 A 
ATOM     22  C   UNL A   1      33.442  27.146  24.571  1.00  0.00    -0.010 A 
ATOM     23  C   UNL A   1      33.900  28.349  24.014  1.00  0.00     0.009 A 
BRANCH  22  24
ATOM     24  C   UNL A   1      33.460  27.033  26.059  1.00  0.00     0.068 A 
ATOM     25  C   UNL A   1      34.141  27.861  26.885  1.00  0.00     0.028 A 
ATOM     26  C   UNL A   1      32.081  26.820  26.635  1.00  0.00     0.344 A 
ATOM     27  C   UNL A   1      33.468  29.169  27.047  1.00  0.00     0.018 A 
ATOM     28  O   UNL A   1      31.349  28.014  26.702  1.00  0.00    -0.422 OA
ATOM     29  O   UNL A   1      31.636  25.731  26.898  1.00  0.00    -0.246 OA
ATOM     30  C   UNL A   1      34.159  30.339  27.329  1.00  0.00     0.012 A 
ATOM     31  C   UNL A   1      32.084  29.214  26.818  1.00  0.00     0.138 A 
ATOM     32  C   UNL A   1      33.471  31.553  27.283  1.00  0.00     0.001 A 
ATOM     33  C   UNL A   1      31.409  30.419  26.703  1.00  0.00     0.048 A 
ATOM     34  C   UNL A   1      32.118  31.596  26.923  1.00  0.00     0.004 A 
ENDBRANCH  22  24
ENDBRANCH  15  18
ENDBRANCH  10  14
ENDBRANCH   4   7
ENDBRANCH   2   3
ENDBRANCH   1   2
BRANCH   1  35
ATOM     35  C   UNL A   1      39.461  22.378  26.808  1.00  0.00     0.118 C 
BRANCH  35  36
ATOM     36  N   UNL A   1      40.852  22.783  26.609  1.00  0.00    -0.352 N 
ATOM     37  C   UNL A   1      41.335  24.071  26.378  1.00  0.00     0.251 C 
ATOM     38  H   UNL A   1      41.525  22.065  26.640  1.00  0.00     0.163 HD
ATOM     39  O   UNL A   1      42.529  24.305  26.228  1.00  0.00    -0.269 OA
BRANCH  37  40
ATOM     40  C   UNL A   1      40.379  25.206  26.484  1.00  0.00     0.039 A 
ATOM     41  C   UNL A   1      40.897  26.440  26.074  1.00  0.00     0.014 A 
ATOM     42  C   UNL A   1      39.383  25.141  27.450  1.00  0.00     0.014 A 
ATOM     43  C   UNL A   1      40.750  27.532  26.916  1.00  0.00     0.010 A 
ATOM     44  C   UNL A   1      39.338  26.180  28.354  1.00  0.00     0.010 A 
ATOM     45  C   UNL A   1      40.107  27.329  28.132  1.00  0.00    -0.014 A 
BRANCH  45  46
ATOM     46  C   UNL A   1      40.158  28.282  29.226  1.00  0.00     0.031 A 
ATOM     47  C   UNL A   1      39.205  29.397  29.162  1.00  0.00     0.074 A 
ATOM     48  C   UNL A   1      41.034  28.159  30.248  1.00  0.00     0.049 A 
ATOM     49  N   UNL A   1      39.402  30.558  29.671  1.00  0.00    -0.248 NA
ATOM     50  C   UNL A   1      37.965  29.298  28.401  1.00  0.00     0.031 C 
ATOM     51  C   UNL A   1      41.077  28.937  31.484  1.00  0.00     0.029 A 
ATOM     52  N   UNL A   1      42.213  27.417  30.274  1.00  0.00    -0.354 N 
ATOM     53  C   UNL A   1      38.225  31.261  29.555  1.00  0.00     0.074 A 
ATOM     54  C   UNL A   1      37.409  30.480  28.663  1.00  0.00     0.031 C 
ATOM     55  C   UNL A   1      42.301  28.828  32.028  1.00  0.00     0.029 A 
ATOM     56  C   UNL A   1      43.138  28.100  31.090  1.00  0.00     0.049 A 
ATOM     57  H   UNL A   1      42.372  26.567  29.803  1.00  0.00     0.167 HD
ATOM     58  C   UNL A   1      38.034  32.349  30.350  1.00  0.00     0.034 A 
ATOM     59  C   UNL A   1      44.302  28.569  30.549  1.00  0.00     0.034 A 
ATOM     60  C   UNL A   1      39.252  32.639  31.120  1.00  0.00     0.049 A 
ATOM     61  C   UNL A   1      44.340  30.088  30.438  1.00  0.00     0.074 A 
ATOM     62  C   UNL A   1      39.660  32.359  32.414  1.00  0.00     0.029 A 
ATOM     63  N   UNL A   1      40.404  32.993  30.433  1.00  0.00    -0.354 N 
ATOM     64  N   UNL A   1      43.391  30.899  30.828  1.00  0.00    -0.248 NA
ATOM     65  C   UNL A   1      45.434  30.798  29.781  1.00  0.00     0.031 C 
ATOM     66  C   UNL A   1      41.080  32.501  32.474  1.00  0.00     0.029 A 
ATOM     67  C   UNL A   1      41.530  32.919  31.234  1.00  0.00     0.049 A 
ATOM     68  H   UNL A   1      40.418  33.264  29.486  1.00  0.00     0.167 HD
ATOM     69  C   UNL A   1      43.680  32.184  30.435  1.00  0.00     0.074 A 
ATOM     70  C   UNL A   1      44.970  32.059  29.769  1.00  0.00     0.031 C 
ATOM     71  C   UNL A   1      42.829  33.241  30.647  1.00  0.00     0.034 A 
BRANCH  58  72
ATOM     72  C   UNL A   1      36.674  32.948  30.647  1.00  0.00     0.023 A 
ATOM     73  C   UNL A   1      35.998  33.618  29.610  1.00  0.00     0.031 A 
ATOM     74  C   UNL A   1      36.016  32.970  31.895  1.00  0.00     0.131 A 
ATOM     75  C   UNL A   1      34.812  34.339  29.849  1.00  0.00     0.055 A 
ATOM     76  C   UNL A   1      34.869  33.733  32.149  1.00  0.00     0.041 A 
ATOM     77  F   UNL A   1      36.402  32.208  32.923  1.00  0.00    -0.206 F 
ATOM     78  C   UNL A   1      34.263  34.433  31.124  1.00  0.00     0.022 A 
BRANCH  75  79
ATOM     79  S   UNL A   1      33.990  35.157  28.459  1.00  0.00     0.124 S 
ATOM     80  O   UNL A   1      34.164  36.567  28.787  1.00  0.00    -0.237 OA
ATOM     81  O   UNL A   1      34.748  34.658  27.317  1.00  0.00    -0.237 OA
ATOM     82  O   UNL A   1      32.614  34.668  28.545  1.00  0.00    -0.744 OA
ENDBRANCH  75  79
ENDBRANCH  58  72
BRANCH  59  83
ATOM     83  C   UNL A   1      44.854  27.609  29.538  1.00  0.00     0.023 A 
ATOM     84  C   UNL A   1      44.820  27.994  28.178  1.00  0.00     0.031 A 
ATOM     85  C   UNL A   1      45.809  26.659  29.929  1.00  0.00     0.131 A 
ATOM     86  C   UNL A   1      45.853  27.595  27.312  1.00  0.00     0.055 A 
ATOM     87  C   UNL A   1      46.819  26.253  29.055  1.00  0.00     0.041 A 
ATOM     88  F   UNL A   1      45.879  26.243  31.202  1.00  0.00    -0.206 F 
ATOM     89  C   UNL A   1      46.887  26.776  27.767  1.00  0.00     0.022 A 
BRANCH  86  90
ATOM     90  S   UNL A   1      45.991  28.324  25.655  1.00  0.00     0.124 S 
ATOM     91  O   UNL A   1      45.856  29.749  25.928  1.00  0.00    -0.237 OA
ATOM     92  O   UNL A   1      47.309  27.882  25.211  1.00  0.00    -0.237 OA
ATOM     93  O   UNL A   1      44.876  27.709  24.933  1.00  0.00    -0.744 OA
ENDBRANCH  86  90
ENDBRANCH  59  83
BRANCH  71  94
ATOM     94  C   UNL A   1      43.131  34.685  30.265  1.00  0.00     0.023 A 
ATOM     95  C   UNL A   1      43.078  35.138  28.940  1.00  0.00     0.031 A 
ATOM     96  C   UNL A   1      43.535  35.660  31.212  1.00  0.00     0.131 A 
ATOM     97  C   UNL A   1      43.241  36.499  28.621  1.00  0.00     0.055 A 
ATOM     98  C   UNL A   1      43.775  36.998  30.885  1.00  0.00     0.041 A 
ATOM     99  F   UNL A   1      43.715  35.373  32.507  1.00  0.00    -0.206 F 
ATOM    100  C   UNL A   1      43.595  37.435  29.586  1.00  0.00     0.022 A 
BRANCH  97 101
ATOM    101  S   UNL A   1      42.910  37.021  26.922  1.00  0.00     0.124 S 
ATOM    102  O   UNL A   1      41.641  37.731  27.051  1.00  0.00    -0.237 OA
ATOM    103  O   UNL A   1      44.075  37.854  26.637  1.00  0.00    -0.237 OA
ATOM    104  O   UNL A   1      42.848  35.763  26.181  1.00  0.00    -0.744 OA
ENDBRANCH  97 101
ENDBRANCH  71  94
ENDBRANCH  45  46
ENDBRANCH  37  40
ENDBRANCH  35  36
ENDBRANCH   1  35
TORSDOF 16
ENDMDL
