MODEL 1
REMARK VINA RESULT:     -12.5      0.000      0.000
REMARK SMILES O=C(NCCCNC(=O)[C@H]1CC[C@H]2CCCC[C@@H]2[N@H+]1[C@@H]1CCCSC1)c1ccc(-c2c3nc(c(-c4cc(S(=O)(=O)[O-])ccc4F)c4ccc([nH]4)c(-c4cc(S(=O)(=O)[O-])ccc4F)c4nc(c(-c5cc(S(=O)(=O)[O-])ccc5F)c5ccc2[nH]5)C=C4)C=C3)cc1
REMARK SMILES IDX 4 1 3 2 1 3 2 4 26 6 27 7 88 8 28 9 87 10 29 11 30 12 31 13
REMARK SMILES IDX 81 14 32 15 86 16 80 17 82 18 33 19 85 20 79 21 78 22 34 24
REMARK SMILES IDX 66 25 46 26 65 27 47 28 50 29 64 30 83 31 48 32 49 33 63 35
REMARK SMILES IDX 84 36 51 37 35 38 36 39 44 40 37 41 43 42 45 43 42 44 38 45
REMARK SMILES IDX 39 46 40 47 41 48 67 49 68 50 76 51 69 52 75 53 77 54 74 55
REMARK SMILES IDX 70 56 71 57 72 58 73 59 52 60 53 61 61 62 54 63 60 64 62 65
REMARK SMILES IDX 59 66 55 67 56 68 57 69 58 70 5 71 6 72 7 73 8 74 9 76 10 77
REMARK SMILES IDX 11 78 19 79 12 80 18 81 13 83 17 84 14 85 16 86 15 87 20 88
REMARK SMILES IDX 21 89 25 90 22 91 24 92 23 93
REMARK H PARENT 3 5 82 23 50 34 7 75 19 82
REMARK Flexibility Score: inf
ROOT
ATOM      1  C   UNL A   1      32.700  32.403  27.260  1.00  0.00     0.118 C 
ENDROOT
BRANCH   1   2
ATOM      2  N   UNL A   1      32.598  33.806  27.625  1.00  0.00    -0.352 N 
ATOM      3  O   UNL A   1      32.875  35.647  28.883  1.00  0.00    -0.269 OA
ATOM      4  C   UNL A   1      33.259  34.510  28.602  1.00  0.00     0.251 C 
ATOM      5  H   UNL A   1      31.958  34.332  27.093  1.00  0.00     0.163 HD
BRANCH   4   6
ATOM      6  C   UNL A   1      34.412  33.920  29.323  1.00  0.00     0.039 A 
ATOM      7  C   UNL A   1      34.230  32.929  30.289  1.00  0.00     0.014 A 
ATOM      8  C   UNL A   1      35.707  34.328  28.989  1.00  0.00     0.014 A 
ATOM      9  C   UNL A   1      35.317  32.455  31.018  1.00  0.00     0.010 A 
ATOM     10  C   UNL A   1      36.810  33.773  29.648  1.00  0.00     0.010 A 
ATOM     11  C   UNL A   1      36.624  32.844  30.683  1.00  0.00    -0.014 A 
BRANCH  11  12
ATOM     12  C   UNL A   1      37.774  32.196  31.371  1.00  0.00     0.031 A 
ATOM     13  C   UNL A   1      38.551  31.087  30.718  1.00  0.00     0.074 A 
ATOM     14  C   UNL A   1      38.122  32.638  32.597  1.00  0.00     0.049 A 
ATOM     15  N   UNL A   1      39.567  30.406  31.187  1.00  0.00    -0.248 NA
ATOM     16  C   UNL A   1      38.125  30.678  29.373  1.00  0.00     0.031 C 
ATOM     17  C   UNL A   1      37.438  33.707  33.330  1.00  0.00     0.029 A 
ATOM     18  N   UNL A   1      39.138  32.262  33.438  1.00  0.00    -0.354 N 
ATOM     19  C   UNL A   1      39.897  29.480  30.202  1.00  0.00     0.074 A 
ATOM     20  C   UNL A   1      38.943  29.664  29.126  1.00  0.00     0.031 C 
ATOM     21  C   UNL A   1      38.080  33.933  34.484  1.00  0.00     0.029 A 
ATOM     22  C   UNL A   1      39.168  32.974  34.616  1.00  0.00     0.049 A 
ATOM     23  H   UNL A   1      39.784  31.551  33.221  1.00  0.00     0.167 HD
ATOM     24  C   UNL A   1      40.905  28.571  30.196  1.00  0.00     0.034 A 
ATOM     25  C   UNL A   1      39.961  32.852  35.697  1.00  0.00     0.034 A 
ATOM     26  C   UNL A   1      41.843  28.407  31.284  1.00  0.00     0.049 A 
ATOM     27  C   UNL A   1      41.035  31.797  35.689  1.00  0.00     0.074 A 
ATOM     28  C   UNL A   1      42.920  27.538  31.369  1.00  0.00     0.029 A 
ATOM     29  N   UNL A   1      41.812  29.112  32.481  1.00  0.00    -0.354 N 
ATOM     30  N   UNL A   1      41.342  30.941  34.742  1.00  0.00    -0.248 NA
ATOM     31  C   UNL A   1      41.867  31.693  36.892  1.00  0.00     0.031 C 
ATOM     32  C   UNL A   1      43.486  27.662  32.642  1.00  0.00     0.029 A 
ATOM     33  C   UNL A   1      42.825  28.671  33.323  1.00  0.00     0.049 A 
ATOM     34  H   UNL A   1      41.167  29.821  32.701  1.00  0.00     0.167 HD
ATOM     35  C   UNL A   1      42.423  30.211  35.228  1.00  0.00     0.074 A 
ATOM     36  C   UNL A   1      42.724  30.745  36.541  1.00  0.00     0.031 C 
ATOM     37  C   UNL A   1      43.106  29.196  34.640  1.00  0.00     0.034 A 
BRANCH  24  38
ATOM     38  C   UNL A   1      41.013  27.652  29.000  1.00  0.00     0.023 A 
ATOM     39  C   UNL A   1      42.009  27.815  28.020  1.00  0.00     0.031 A 
ATOM     40  C   UNL A   1      40.096  26.598  28.831  1.00  0.00     0.131 A 
ATOM     41  C   UNL A   1      42.023  26.984  26.888  1.00  0.00     0.055 A 
ATOM     42  C   UNL A   1      40.165  25.725  27.744  1.00  0.00     0.041 A 
ATOM     43  F   UNL A   1      39.109  26.402  29.720  1.00  0.00    -0.206 F 
ATOM     44  C   UNL A   1      41.124  25.923  26.757  1.00  0.00     0.022 A 
BRANCH  41  45
ATOM     45  S   UNL A   1      43.144  27.394  25.521  1.00  0.00     0.124 S 
ATOM     46  O   UNL A   1      44.200  28.131  26.213  1.00  0.00    -0.237 OA
ATOM     47  O   UNL A   1      43.512  26.079  25.009  1.00  0.00    -0.237 OA
ATOM     48  O   UNL A   1      42.316  28.201  24.628  1.00  0.00    -0.744 OA
ENDBRANCH  41  45
ENDBRANCH  24  38
BRANCH  25  49
ATOM     49  C   UNL A   1      39.744  33.720  36.890  1.00  0.00     0.023 A 
ATOM     50  C   UNL A   1      39.093  33.234  38.035  1.00  0.00     0.031 A 
ATOM     51  C   UNL A   1      40.160  35.065  36.889  1.00  0.00     0.131 A 
ATOM     52  C   UNL A   1      38.839  34.098  39.112  1.00  0.00     0.055 A 
ATOM     53  C   UNL A   1      39.961  35.901  37.988  1.00  0.00     0.041 A 
ATOM     54  F   UNL A   1      40.788  35.581  35.820  1.00  0.00    -0.206 F 
ATOM     55  C   UNL A   1      39.284  35.422  39.103  1.00  0.00     0.022 A 
BRANCH  52  56
ATOM     56  S   UNL A   1      37.834  33.487  40.492  1.00  0.00     0.124 S 
ATOM     57  O   UNL A   1      37.482  34.727  41.175  1.00  0.00    -0.237 OA
ATOM     58  O   UNL A   1      36.746  32.806  39.798  1.00  0.00    -0.237 OA
ATOM     59  O   UNL A   1      38.752  32.612  41.220  1.00  0.00    -0.744 OA
ENDBRANCH  52  56
ENDBRANCH  25  49
BRANCH  37  60
ATOM     60  C   UNL A   1      44.277  28.630  35.407  1.00  0.00     0.023 A 
ATOM     61  C   UNL A   1      44.123  27.579  36.329  1.00  0.00     0.031 A 
ATOM     62  C   UNL A   1      45.564  29.168  35.229  1.00  0.00     0.131 A 
ATOM     63  C   UNL A   1      45.222  27.141  37.082  1.00  0.00     0.055 A 
ATOM     64  C   UNL A   1      46.668  28.683  35.932  1.00  0.00     0.041 A 
ATOM     65  F   UNL A   1      45.771  30.177  34.368  1.00  0.00    -0.206 F 
ATOM     66  C   UNL A   1      46.498  27.674  36.876  1.00  0.00     0.022 A 
BRANCH  63  67
ATOM     67  S   UNL A   1      44.946  25.939  38.412  1.00  0.00     0.124 S 
ATOM     68  O   UNL A   1      44.652  24.722  37.664  1.00  0.00    -0.237 OA
ATOM     69  O   UNL A   1      46.221  25.959  39.120  1.00  0.00    -0.237 OA
ATOM     70  O   UNL A   1      43.818  26.500  39.153  1.00  0.00    -0.744 OA
ENDBRANCH  63  67
ENDBRANCH  37  60
ENDBRANCH  11  12
ENDBRANCH   4   6
ENDBRANCH   1   2
BRANCH   1  71
ATOM     71  C   UNL A   1      31.423  31.875  26.623  1.00  0.00     0.042 C 
BRANCH  71  72
ATOM     72  C   UNL A   1      31.511  30.432  26.145  1.00  0.00     0.118 C 
BRANCH  72  73
ATOM     73  N   UNL A   1      32.425  30.296  25.022  1.00  0.00    -0.351 N 
ATOM     74  C   UNL A   1      32.898  29.160  24.420  1.00  0.00     0.278 C 
ATOM     75  H   UNL A   1      32.751  31.143  24.639  1.00  0.00     0.163 HD
ATOM     76  O   UNL A   1      33.735  29.298  23.524  1.00  0.00    -0.268 OA
BRANCH  74  77
ATOM     77  C   UNL A   1      32.313  27.782  24.800  1.00  0.00     0.274 C 
ATOM     78  C   UNL A   1      31.927  27.700  26.294  1.00  0.00     0.076 C 
ATOM     79  N   UNL A   1      31.255  27.299  23.881  1.00  0.00    -0.319 N 
ATOM     80  C   UNL A   1      31.092  26.456  26.635  1.00  0.00     0.016 C 
ATOM     81  C   UNL A   1      30.854  25.913  24.180  1.00  0.00     0.188 C 
ATOM     82  H   UNL A   1      31.716  27.286  22.972  1.00  0.00     0.349 HD
ATOM     83  C   UNL A   1      31.308  25.393  25.566  1.00  0.00     0.048 C 
ATOM     84  C   UNL A   1      31.429  24.949  23.128  1.00  0.00     0.065 C 
ATOM     85  C   UNL A   1      30.590  24.069  25.836  1.00  0.00     0.010 C 
ATOM     86  C   UNL A   1      30.884  23.532  23.346  1.00  0.00     0.006 C 
ATOM     87  C   UNL A   1      31.015  23.034  24.789  1.00  0.00     0.001 C 
BRANCH  79  88
ATOM     88  C   UNL A   1      30.130  28.230  23.574  1.00  0.00     0.194 C 
ATOM     89  C   UNL A   1      28.727  27.596  23.452  1.00  0.00     0.067 C 
ATOM     90  C   UNL A   1      30.445  29.049  22.288  1.00  0.00     0.134 C 
ATOM     91  C   UNL A   1      27.604  28.621  23.248  1.00  0.00     0.017 C 
ATOM     92  S   UNL A   1      29.296  30.439  22.077  1.00  0.00    -0.156 SA
ATOM     93  C   UNL A   1      27.763  29.480  22.002  1.00  0.00     0.070 C 
ENDBRANCH  79  88
ENDBRANCH  74  77
ENDBRANCH  72  73
ENDBRANCH  71  72
ENDBRANCH   1  71
TORSDOF 14
ENDMDL
MODEL 2
REMARK VINA RESULT:     -12.3      2.677      8.445
REMARK SMILES O=C(NCCCNC(=O)[C@H]1CC[C@H]2CCCC[C@@H]2[N@H+]1[C@@H]1CCCSC1)c1ccc(-c2c3nc(c(-c4cc(S(=O)(=O)[O-])ccc4F)c4ccc([nH]4)c(-c4cc(S(=O)(=O)[O-])ccc4F)c4nc(c(-c5cc(S(=O)(=O)[O-])ccc5F)c5ccc2[nH]5)C=C4)C=C3)cc1
REMARK SMILES IDX 4 1 3 2 1 3 2 4 26 6 27 7 88 8 28 9 87 10 29 11 30 12 31 13
REMARK SMILES IDX 81 14 32 15 86 16 80 17 82 18 33 19 85 20 79 21 78 22 34 24
REMARK SMILES IDX 66 25 46 26 65 27 47 28 50 29 64 30 83 31 48 32 49 33 63 35
REMARK SMILES IDX 84 36 51 37 35 38 36 39 44 40 37 41 43 42 45 43 42 44 38 45
REMARK SMILES IDX 39 46 40 47 41 48 67 49 68 50 76 51 69 52 75 53 77 54 74 55
REMARK SMILES IDX 70 56 71 57 72 58 73 59 52 60 53 61 61 62 54 63 60 64 62 65
REMARK SMILES IDX 59 66 55 67 56 68 57 69 58 70 5 71 6 72 7 73 8 74 9 76 10 77
REMARK SMILES IDX 11 78 19 79 12 80 18 81 13 83 17 84 14 85 16 86 15 87 20 88
REMARK SMILES IDX 21 89 25 90 22 91 24 92 23 93
REMARK H PARENT 3 5 82 23 50 34 7 75 19 82
REMARK Flexibility Score: inf
ROOT
ATOM      1  C   UNL A   1      32.285  29.766  26.224  1.00  0.00     0.118 C 
ENDROOT
BRANCH   1   2
ATOM      2  N   UNL A   1      32.174  31.203  26.419  1.00  0.00    -0.352 N 
ATOM      3  O   UNL A   1      32.501  33.193  27.409  1.00  0.00    -0.269 OA
ATOM      4  C   UNL A   1      32.894  32.037  27.239  1.00  0.00     0.251 C 
ATOM      5  H   UNL A   1      31.477  31.645  25.883  1.00  0.00     0.163 HD
BRANCH   4   6
ATOM      6  C   UNL A   1      34.120  31.564  27.925  1.00  0.00     0.039 A 
ATOM      7  C   UNL A   1      35.105  32.461  28.344  1.00  0.00     0.014 A 
ATOM      8  C   UNL A   1      34.265  30.202  28.203  1.00  0.00     0.014 A 
ATOM      9  C   UNL A   1      36.288  31.989  28.902  1.00  0.00     0.010 A 
ATOM     10  C   UNL A   1      35.409  29.738  28.862  1.00  0.00     0.010 A 
ATOM     11  C   UNL A   1      36.442  30.626  29.201  1.00  0.00    -0.014 A 
BRANCH  11  12
ATOM     12  C   UNL A   1      37.649  30.175  29.946  1.00  0.00     0.031 A 
ATOM     13  C   UNL A   1      37.870  30.562  31.382  1.00  0.00     0.074 A 
ATOM     14  C   UNL A   1      38.543  29.393  29.309  1.00  0.00     0.049 A 
ATOM     15  N   UNL A   1      38.875  30.268  32.170  1.00  0.00    -0.248 NA
ATOM     16  C   UNL A   1      36.839  31.397  32.014  1.00  0.00     0.031 C 
ATOM     17  C   UNL A   1      38.434  28.957  27.914  1.00  0.00     0.029 A 
ATOM     18  N   UNL A   1      39.707  28.811  29.744  1.00  0.00    -0.354 N 
ATOM     19  C   UNL A   1      38.606  30.890  33.385  1.00  0.00     0.074 A 
ATOM     20  C   UNL A   1      37.360  31.610  33.214  1.00  0.00     0.031 C 
ATOM     21  C   UNL A   1      39.457  28.142  27.624  1.00  0.00     0.029 A 
ATOM     22  C   UNL A   1      40.340  28.061  28.779  1.00  0.00     0.049 A 
ATOM     23  H   UNL A   1      40.056  28.920  30.658  1.00  0.00     0.167 HD
ATOM     24  C   UNL A   1      39.329  30.854  34.533  1.00  0.00     0.034 A 
ATOM     25  C   UNL A   1      41.516  27.404  28.807  1.00  0.00     0.034 A 
ATOM     26  C   UNL A   1      40.571  30.128  34.678  1.00  0.00     0.049 A 
ATOM     27  C   UNL A   1      42.326  27.428  30.075  1.00  0.00     0.074 A 
ATOM     28  C   UNL A   1      41.368  30.000  35.804  1.00  0.00     0.029 A 
ATOM     29  N   UNL A   1      41.207  29.420  33.664  1.00  0.00    -0.354 N 
ATOM     30  N   UNL A   1      42.048  28.008  31.220  1.00  0.00    -0.248 NA
ATOM     31  C   UNL A   1      43.604  26.708  30.055  1.00  0.00     0.031 C 
ATOM     32  C   UNL A   1      42.518  29.286  35.451  1.00  0.00     0.029 A 
ATOM     33  C   UNL A   1      42.402  28.887  34.130  1.00  0.00     0.049 A 
ATOM     34  H   UNL A   1      40.860  29.311  32.750  1.00  0.00     0.167 HD
ATOM     35  C   UNL A   1      43.109  27.702  32.066  1.00  0.00     0.074 A 
ATOM     36  C   UNL A   1      44.017  26.868  31.304  1.00  0.00     0.031 C 
ATOM     37  C   UNL A   1      43.312  28.073  33.356  1.00  0.00     0.034 A 
BRANCH  24  38
ATOM     38  C   UNL A   1      38.821  31.662  35.706  1.00  0.00     0.023 A 
ATOM     39  C   UNL A   1      38.202  31.059  36.817  1.00  0.00     0.031 A 
ATOM     40  C   UNL A   1      38.948  33.063  35.710  1.00  0.00     0.131 A 
ATOM     41  C   UNL A   1      37.678  31.856  37.848  1.00  0.00     0.055 A 
ATOM     42  C   UNL A   1      38.496  33.844  36.776  1.00  0.00     0.041 A 
ATOM     43  F   UNL A   1      39.510  33.701  34.671  1.00  0.00    -0.206 F 
ATOM     44  C   UNL A   1      37.845  33.242  37.848  1.00  0.00     0.022 A 
BRANCH  41  45
ATOM     45  S   UNL A   1      36.653  31.069  39.121  1.00  0.00     0.124 S 
ATOM     46  O   UNL A   1      36.348  29.780  38.503  1.00  0.00    -0.237 OA
ATOM     47  O   UNL A   1      37.549  31.031  40.271  1.00  0.00    -0.237 OA
ATOM     48  O   UNL A   1      35.511  31.972  39.251  1.00  0.00    -0.744 OA
ENDBRANCH  41  45
ENDBRANCH  24  38
BRANCH  25  49
ATOM     49  C   UNL A   1      42.015  26.707  27.587  1.00  0.00     0.023 A 
ATOM     50  C   UNL A   1      41.829  25.327  27.410  1.00  0.00     0.031 A 
ATOM     51  C   UNL A   1      42.716  27.411  26.590  1.00  0.00     0.131 A 
ATOM     52  C   UNL A   1      42.375  24.688  26.286  1.00  0.00     0.055 A 
ATOM     53  C   UNL A   1      43.202  26.781  25.443  1.00  0.00     0.041 A 
ATOM     54  F   UNL A   1      42.922  28.733  26.708  1.00  0.00    -0.206 F 
ATOM     55  C   UNL A   1      43.044  25.409  25.293  1.00  0.00     0.022 A 
BRANCH  52  56
ATOM     56  S   UNL A   1      42.276  22.880  26.184  1.00  0.00     0.124 S 
ATOM     57  O   UNL A   1      43.084  22.474  27.329  1.00  0.00    -0.237 OA
ATOM     58  O   UNL A   1      40.840  22.648  26.297  1.00  0.00    -0.237 OA
ATOM     59  O   UNL A   1      42.853  22.582  24.874  1.00  0.00    -0.744 OA
ENDBRANCH  52  56
ENDBRANCH  25  49
BRANCH  37  60
ATOM     60  C   UNL A   1      44.551  27.536  34.032  1.00  0.00     0.023 A 
ATOM     61  C   UNL A   1      44.556  26.296  34.696  1.00  0.00     0.031 A 
ATOM     62  C   UNL A   1      45.738  28.290  34.032  1.00  0.00     0.131 A 
ATOM     63  C   UNL A   1      45.704  25.876  35.384  1.00  0.00     0.055 A 
ATOM     64  C   UNL A   1      46.899  27.836  34.660  1.00  0.00     0.041 A 
ATOM     65  F   UNL A   1      45.790  29.484  33.420  1.00  0.00    -0.206 F 
ATOM     66  C   UNL A   1      46.881  26.629  35.354  1.00  0.00     0.022 A 
BRANCH  63  67
ATOM     67  S   UNL A   1      45.610  24.382  36.408  1.00  0.00     0.124 S 
ATOM     68  O   UNL A   1      44.210  23.999  36.258  1.00  0.00    -0.237 OA
ATOM     69  O   UNL A   1      46.584  23.503  35.768  1.00  0.00    -0.237 OA
ATOM     70  O   UNL A   1      45.985  24.854  37.739  1.00  0.00    -0.744 OA
ENDBRANCH  63  67
ENDBRANCH  37  60
ENDBRANCH  11  12
ENDBRANCH   4   6
ENDBRANCH   1   2
BRANCH   1  71
ATOM     71  C   UNL A   1      32.893  29.409  24.876  1.00  0.00     0.042 C 
BRANCH  71  72
ATOM     72  C   UNL A   1      33.446  27.993  24.794  1.00  0.00     0.118 C 
BRANCH  72  73
ATOM     73  N   UNL A   1      33.770  27.625  23.424  1.00  0.00    -0.351 N 
ATOM     74  C   UNL A   1      33.599  26.427  22.783  1.00  0.00     0.278 C 
ATOM     75  H   UNL A   1      34.171  28.341  22.880  1.00  0.00     0.163 HD
ATOM     76  O   UNL A   1      34.028  26.332  21.630  1.00  0.00    -0.268 OA
BRANCH  74  77
ATOM     77  C   UNL A   1      32.808  25.290  23.467  1.00  0.00     0.274 C 
ATOM     78  C   UNL A   1      32.287  24.246  22.455  1.00  0.00     0.076 C 
ATOM     79  N   UNL A   1      33.493  24.697  24.641  1.00  0.00    -0.319 N 
ATOM     80  C   UNL A   1      31.747  22.973  23.125  1.00  0.00     0.016 C 
ATOM     81  C   UNL A   1      32.629  23.746  25.362  1.00  0.00     0.188 C 
ATOM     82  H   UNL A   1      33.639  25.494  25.260  1.00  0.00     0.349 HD
ATOM     83  C   UNL A   1      31.382  23.277  24.572  1.00  0.00     0.048 C 
ATOM     84  C   UNL A   1      32.122  24.368  26.674  1.00  0.00     0.065 C 
ATOM     85  C   UNL A   1      30.753  22.104  25.327  1.00  0.00     0.010 C 
ATOM     86  C   UNL A   1      31.356  23.328  27.499  1.00  0.00     0.006 C 
ATOM     87  C   UNL A   1      30.280  22.578  26.705  1.00  0.00     0.001 C 
BRANCH  79  88
ATOM     88  C   UNL A   1      34.908  24.259  24.466  1.00  0.00     0.194 C 
ATOM     89  C   UNL A   1      35.153  23.111  23.461  1.00  0.00     0.067 C 
ATOM     90  C   UNL A   1      35.531  23.888  25.843  1.00  0.00     0.134 C 
ATOM     91  C   UNL A   1      36.636  22.788  23.245  1.00  0.00     0.017 C 
ATOM     92  S   UNL A   1      37.334  23.704  25.738  1.00  0.00    -0.156 SA
ATOM     93  C   UNL A   1      37.374  22.376  24.510  1.00  0.00     0.070 C 
ENDBRANCH  79  88
ENDBRANCH  74  77
ENDBRANCH  72  73
ENDBRANCH  71  72
ENDBRANCH   1  71
TORSDOF 14
ENDMDL
MODEL 3
REMARK VINA RESULT:     -12.3      3.981      9.098
REMARK SMILES O=C(NCCCNC(=O)[C@H]1CC[C@H]2CCCC[C@@H]2[N@H+]1[C@@H]1CCCSC1)c1ccc(-c2c3nc(c(-c4cc(S(=O)(=O)[O-])ccc4F)c4ccc([nH]4)c(-c4cc(S(=O)(=O)[O-])ccc4F)c4nc(c(-c5cc(S(=O)(=O)[O-])ccc5F)c5ccc2[nH]5)C=C4)C=C3)cc1
REMARK SMILES IDX 4 1 3 2 1 3 2 4 26 6 27 7 88 8 28 9 87 10 29 11 30 12 31 13
REMARK SMILES IDX 81 14 32 15 86 16 80 17 82 18 33 19 85 20 79 21 78 22 34 24
REMARK SMILES IDX 66 25 46 26 65 27 47 28 50 29 64 30 83 31 48 32 49 33 63 35
REMARK SMILES IDX 84 36 51 37 35 38 36 39 44 40 37 41 43 42 45 43 42 44 38 45
REMARK SMILES IDX 39 46 40 47 41 48 67 49 68 50 76 51 69 52 75 53 77 54 74 55
REMARK SMILES IDX 70 56 71 57 72 58 73 59 52 60 53 61 61 62 54 63 60 64 62 65
REMARK SMILES IDX 59 66 55 67 56 68 57 69 58 70 5 71 6 72 7 73 8 74 9 76 10 77
REMARK SMILES IDX 11 78 19 79 12 80 18 81 13 83 17 84 14 85 16 86 15 87 20 88
REMARK SMILES IDX 21 89 25 90 22 91 24 92 23 93
REMARK H PARENT 3 5 82 23 50 34 7 75 19 82
REMARK Flexibility Score: inf
ROOT
ATOM      1  C   UNL A   1      33.877  28.899  26.177  1.00  0.00     0.118 C 
ENDROOT
BRANCH   1   2
ATOM      2  N   UNL A   1      33.725  30.253  26.684  1.00  0.00    -0.352 N 
ATOM      3  O   UNL A   1      34.050  32.003  28.054  1.00  0.00    -0.269 OA
ATOM      4  C   UNL A   1      34.473  30.932  27.614  1.00  0.00     0.251 C 
ATOM      5  H   UNL A   1      32.971  30.760  26.304  1.00  0.00     0.163 HD
BRANCH   4   6
ATOM      6  C   UNL A   1      35.767  30.394  28.096  1.00  0.00     0.039 A 
ATOM      7  C   UNL A   1      36.942  30.570  27.363  1.00  0.00     0.014 A 
ATOM      8  C   UNL A   1      35.817  29.744  29.334  1.00  0.00     0.014 A 
ATOM      9  C   UNL A   1      38.127  29.977  27.788  1.00  0.00     0.010 A 
ATOM     10  C   UNL A   1      37.032  29.241  29.813  1.00  0.00     0.010 A 
ATOM     11  C   UNL A   1      38.196  29.336  29.035  1.00  0.00    -0.014 A 
BRANCH  11  12
ATOM     12  C   UNL A   1      39.514  28.857  29.535  1.00  0.00     0.031 A 
ATOM     13  C   UNL A   1      40.226  29.559  30.658  1.00  0.00     0.074 A 
ATOM     14  C   UNL A   1      40.056  27.760  28.968  1.00  0.00     0.049 A 
ATOM     15  N   UNL A   1      41.385  29.281  31.200  1.00  0.00    -0.248 NA
ATOM     16  C   UNL A   1      39.559  30.732  31.239  1.00  0.00     0.031 C 
ATOM     17  C   UNL A   1      39.456  26.999  27.869  1.00  0.00     0.029 A 
ATOM     18  N   UNL A   1      41.218  27.084  29.240  1.00  0.00    -0.354 N 
ATOM     19  C   UNL A   1      41.595  30.249  32.177  1.00  0.00     0.074 A 
ATOM     20  C   UNL A   1      40.457  31.145  32.122  1.00  0.00     0.031 C 
ATOM     21  C   UNL A   1      40.227  25.938  27.594  1.00  0.00     0.029 A 
ATOM     22  C   UNL A   1      41.415  25.985  28.435  1.00  0.00     0.049 A 
ATOM     23  H   UNL A   1      41.850  27.357  29.943  1.00  0.00     0.167 HD
ATOM     24  C   UNL A   1      42.636  30.371  33.039  1.00  0.00     0.034 A 
ATOM     25  C   UNL A   1      42.449  25.126  28.357  1.00  0.00     0.034 A 
ATOM     26  C   UNL A   1      43.761  29.464  33.073  1.00  0.00     0.049 A 
ATOM     27  C   UNL A   1      43.618  25.317  29.286  1.00  0.00     0.074 A 
ATOM     28  C   UNL A   1      44.853  29.477  33.925  1.00  0.00     0.029 A 
ATOM     29  N   UNL A   1      43.950  28.391  32.209  1.00  0.00    -0.354 N 
ATOM     30  N   UNL A   1      43.791  26.229  30.215  1.00  0.00    -0.248 NA
ATOM     31  C   UNL A   1      44.725  24.364  29.158  1.00  0.00     0.031 C 
ATOM     32  C   UNL A   1      45.736  28.467  33.527  1.00  0.00     0.029 A 
ATOM     33  C   UNL A   1      45.157  27.761  32.484  1.00  0.00     0.049 A 
ATOM     34  H   UNL A   1      43.320  28.117  31.505  1.00  0.00     0.167 HD
ATOM     35  C   UNL A   1      45.021  25.943  30.800  1.00  0.00     0.074 A 
ATOM     36  C   UNL A   1      45.531  24.762  30.132  1.00  0.00     0.031 C 
ATOM     37  C   UNL A   1      45.667  26.595  31.799  1.00  0.00     0.034 A 
BRANCH  24  38
ATOM     38  C   UNL A   1      42.630  31.553  33.983  1.00  0.00     0.023 A 
ATOM     39  C   UNL A   1      42.116  31.464  35.290  1.00  0.00     0.031 A 
ATOM     40  C   UNL A   1      43.138  32.796  33.564  1.00  0.00     0.131 A 
ATOM     41  C   UNL A   1      42.062  32.608  36.102  1.00  0.00     0.055 A 
ATOM     42  C   UNL A   1      43.155  33.911  34.405  1.00  0.00     0.041 A 
ATOM     43  F   UNL A   1      43.623  32.952  32.322  1.00  0.00    -0.206 F 
ATOM     44  C   UNL A   1      42.603  33.824  35.679  1.00  0.00     0.022 A 
BRANCH  41  45
ATOM     45  S   UNL A   1      41.150  32.521  37.669  1.00  0.00     0.124 S 
ATOM     46  O   UNL A   1      41.188  33.913  38.113  1.00  0.00    -0.237 OA
ATOM     47  O   UNL A   1      39.847  32.018  37.249  1.00  0.00    -0.237 OA
ATOM     48  O   UNL A   1      41.944  31.598  38.478  1.00  0.00    -0.744 OA
ENDBRANCH  41  45
ENDBRANCH  24  38
BRANCH  25  49
ATOM     49  C   UNL A   1      42.446  24.037  27.338  1.00  0.00     0.023 A 
ATOM     50  C   UNL A   1      41.848  22.794  27.604  1.00  0.00     0.031 A 
ATOM     51  C   UNL A   1      43.070  24.215  26.089  1.00  0.00     0.131 A 
ATOM     52  C   UNL A   1      41.926  21.766  26.652  1.00  0.00     0.055 A 
ATOM     53  C   UNL A   1      43.088  23.209  25.122  1.00  0.00     0.041 A 
ATOM     54  F   UNL A   1      43.656  25.383  25.783  1.00  0.00    -0.206 F 
ATOM     55  C   UNL A   1      42.526  21.971  25.407  1.00  0.00     0.022 A 
BRANCH  52  56
ATOM     56  S   UNL A   1      41.309  20.121  27.102  1.00  0.00     0.124 S 
ATOM     57  O   UNL A   1      42.514  19.308  26.983  1.00  0.00    -0.237 OA
ATOM     58  O   UNL A   1      40.815  20.343  28.457  1.00  0.00    -0.237 OA
ATOM     59  O   UNL A   1      40.277  19.860  26.099  1.00  0.00    -0.744 OA
ENDBRANCH  52  56
ENDBRANCH  25  49
BRANCH  37  60
ATOM     60  C   UNL A   1      46.982  26.009  32.256  1.00  0.00     0.023 A 
ATOM     61  C   UNL A   1      48.187  26.270  31.579  1.00  0.00     0.031 A 
ATOM     62  C   UNL A   1      47.025  25.155  33.373  1.00  0.00     0.131 A 
ATOM     63  C   UNL A   1      49.370  25.637  31.986  1.00  0.00     0.055 A 
ATOM     64  C   UNL A   1      48.217  24.582  33.816  1.00  0.00     0.041 A 
ATOM     65  F   UNL A   1      45.905  24.864  34.055  1.00  0.00    -0.206 F 
ATOM     66  C   UNL A   1      49.397  24.809  33.112  1.00  0.00     0.022 A 
BRANCH  63  67
ATOM     67  S   UNL A   1      50.857  25.824  30.964  1.00  0.00     0.124 S 
ATOM     68  O   UNL A   1      51.132  27.252  31.088  1.00  0.00    -0.237 OA
ATOM     69  O   UNL A   1      51.804  24.933  31.624  1.00  0.00    -0.237 OA
ATOM     70  O   UNL A   1      50.419  25.390  29.639  1.00  0.00    -0.744 OA
ENDBRANCH  63  67
ENDBRANCH  37  60
ENDBRANCH  11  12
ENDBRANCH   4   6
ENDBRANCH   1   2
BRANCH   1  71
ATOM     71  C   UNL A   1      32.610  28.073  26.339  1.00  0.00     0.042 C 
BRANCH  71  72
ATOM     72  C   UNL A   1      32.850  26.640  26.795  1.00  0.00     0.118 C 
BRANCH  72  73
ATOM     73  N   UNL A   1      31.643  25.836  26.688  1.00  0.00    -0.351 N 
ATOM     74  C   UNL A   1      31.501  24.530  26.302  1.00  0.00     0.278 C 
ATOM     75  H   UNL A   1      30.806  26.298  26.927  1.00  0.00     0.163 HD
ATOM     76  O   UNL A   1      30.354  24.084  26.213  1.00  0.00    -0.268 OA
BRANCH  74  77
ATOM     77  C   UNL A   1      32.750  23.646  26.090  1.00  0.00     0.274 C 
ATOM     78  C   UNL A   1      32.402  22.143  26.020  1.00  0.00     0.076 C 
ATOM     79  N   UNL A   1      33.639  24.107  24.996  1.00  0.00    -0.319 N 
ATOM     80  C   UNL A   1      33.572  21.274  25.534  1.00  0.00     0.016 C 
ATOM     81  C   UNL A   1      34.897  23.342  24.948  1.00  0.00     0.188 C 
ATOM     82  H   UNL A   1      33.879  25.059  25.268  1.00  0.00     0.349 HD
ATOM     83  C   UNL A   1      34.882  22.019  25.752  1.00  0.00     0.048 C 
ATOM     84  C   UNL A   1      36.061  24.187  25.494  1.00  0.00     0.065 C 
ATOM     85  C   UNL A   1      36.134  21.221  25.380  1.00  0.00     0.010 C 
ATOM     86  C   UNL A   1      37.393  23.454  25.298  1.00  0.00     0.006 C 
ATOM     87  C   UNL A   1      37.382  22.005  25.798  1.00  0.00     0.001 C 
BRANCH  79  88
ATOM     88  C   UNL A   1      33.014  24.381  23.669  1.00  0.00     0.194 C 
ATOM     89  C   UNL A   1      33.553  23.565  22.473  1.00  0.00     0.067 C 
ATOM     90  C   UNL A   1      33.092  25.900  23.341  1.00  0.00     0.134 C 
ATOM     91  C   UNL A   1      32.792  23.813  21.165  1.00  0.00     0.017 C 
ATOM     92  S   UNL A   1      32.035  26.339  21.930  1.00  0.00    -0.156 SA
ATOM     93  C   UNL A   1      32.809  25.261  20.700  1.00  0.00     0.070 C 
ENDBRANCH  79  88
ENDBRANCH  74  77
ENDBRANCH  72  73
ENDBRANCH  71  72
ENDBRANCH   1  71
TORSDOF 14
ENDMDL
