MODEL 1
REMARK VINA RESULT:     -12.7      0.000      0.000
REMARK SMILES CN(C)S(=O)(=O)c1ccc(-n2c(CCC(=O)NCCCNC(=O)c3ccc(-c4c5nc(c(-c6cc(S(=O)(=O)[O-])ccc6F)c6ccc([nH]6)c(-c6cc(S(=O)(=O)[O-])ccc6F)c6nc(c(-c7cc(S(=O)(=O)[O-])ccc7F)c7ccc4[nH]7)C=C6)C=C5)cc3)ccc2-c2ccc(F)cc2)cc1
REMARK SMILES IDX 18 1 17 2 15 3 16 4 14 6 13 7 12 8 11 9 89 10 87 11 88 12
REMARK SMILES IDX 10 13 7 14 8 15 98 16 9 17 97 18 4 19 5 20 6 21 2 22 1 23
REMARK SMILES IDX 3 24 90 25 91 26 96 27 92 28 95 29 93 30 94 31 19 32 20 33
REMARK SMILES IDX 21 34 22 35 23 37 24 38 25 39 86 40 26 41 85 42 27 43 28 44
REMARK SMILES IDX 29 45 79 46 30 47 84 48 78 49 80 50 31 51 83 52 77 53 76 54
REMARK SMILES IDX 32 56 64 57 44 58 63 59 45 60 48 61 62 62 81 63 46 64 47 65
REMARK SMILES IDX 61 67 82 68 49 69 33 70 34 71 42 72 35 73 41 74 43 75 40 76
REMARK SMILES IDX 36 77 37 78 38 79 39 80 65 81 66 82 74 83 67 84 73 85 75 86
REMARK SMILES IDX 72 87 68 88 69 89 70 90 71 91 50 92 51 93 59 94 52 95 58 96
REMARK SMILES IDX 60 97 57 98 53 99 54 100 55 101 56 102
REMARK H PARENT 17 5 21 36 80 55 48 66
REMARK Flexibility Score: inf
ROOT
ATOM      1  C   UNL A   1      35.526  22.544  23.989  1.00  0.00     0.117 C 
ENDROOT
BRANCH   1   2
ATOM      2  N   UNL A   1      34.822  22.923  22.744  1.00  0.00    -0.356 N 
ATOM      3  C   UNL A   1      33.504  23.105  22.404  1.00  0.00     0.220 C 
ATOM      4  O   UNL A   1      33.284  23.574  21.280  1.00  0.00    -0.275 OA
ATOM      5  H   UNL A   1      35.436  23.079  21.992  1.00  0.00     0.163 HD
BRANCH   3   6
ATOM      6  C   UNL A   1      32.309  22.685  23.268  1.00  0.00     0.106 C 
BRANCH   6   7
ATOM      7  C   UNL A   1      31.508  23.824  23.965  1.00  0.00     0.064 C 
BRANCH   7   8
ATOM      8  C   UNL A   1      32.386  24.817  24.691  1.00  0.00     0.024 A 
ATOM      9  N   UNL A   1      32.399  26.222  24.543  1.00  0.00    -0.314 N 
ATOM     10  C   UNL A   1      33.283  26.709  25.569  1.00  0.00     0.053 A 
ATOM     11  C   UNL A   1      33.361  24.462  25.609  1.00  0.00     0.024 A 
ATOM     12  C   UNL A   1      33.928  25.626  26.139  1.00  0.00     0.029 A 
BRANCH   9  13
ATOM     13  C   UNL A   1      31.437  27.023  23.760  1.00  0.00     0.046 A 
ATOM     14  C   UNL A   1      29.542  28.923  22.785  1.00  0.00     0.082 A 
ATOM     15  C   UNL A   1      30.823  28.835  22.217  1.00  0.00     0.024 A 
ATOM     16  C   UNL A   1      29.212  28.094  23.831  1.00  0.00     0.024 A 
ATOM     17  C   UNL A   1      31.775  27.898  22.714  1.00  0.00     0.028 A 
ATOM     18  C   UNL A   1      30.140  27.154  24.259  1.00  0.00     0.028 A 
BRANCH  14  19
ATOM     19  S   UNL A   1      28.297  30.041  22.175  1.00  0.00     0.242 S 
ATOM     20  O   UNL A   1      27.103  29.815  22.923  1.00  0.00    -0.207 OA
ATOM     21  O   UNL A   1      28.349  29.925  20.716  1.00  0.00    -0.207 OA
BRANCH  19  22
ATOM     22  N   UNL A   1      28.889  31.620  22.582  1.00  0.00    -0.204 NA
ATOM     23  C   UNL A   1      28.214  32.688  21.791  1.00  0.00     0.124 C 
ATOM     24  C   UNL A   1      28.857  31.957  24.026  1.00  0.00     0.124 C 
ENDBRANCH  19  22
ENDBRANCH  14  19
ENDBRANCH   9  13
BRANCH  10  25
ATOM     25  C   UNL A   1      33.066  27.956  26.313  1.00  0.00    -0.001 A 
ATOM     26  C   UNL A   1      31.871  28.567  26.694  1.00  0.00     0.013 A 
ATOM     27  C   UNL A   1      34.195  28.720  26.394  1.00  0.00     0.013 A 
ATOM     28  C   UNL A   1      31.884  29.914  27.125  1.00  0.00     0.040 A 
ATOM     29  C   UNL A   1      34.247  29.927  26.995  1.00  0.00     0.040 A 
ATOM     30  C   UNL A   1      33.089  30.585  27.279  1.00  0.00     0.123 A 
ATOM     31  F   UNL A   1      33.125  31.883  27.596  1.00  0.00    -0.207 F 
ENDBRANCH  10  25
ENDBRANCH   7   8
ENDBRANCH   6   7
ENDBRANCH   3   6
ENDBRANCH   1   2
BRANCH   1  32
ATOM     32  C   UNL A   1      36.823  23.354  24.307  1.00  0.00     0.042 C 
BRANCH  32  33
ATOM     33  C   UNL A   1      37.161  24.076  25.666  1.00  0.00     0.118 C 
BRANCH  33  34
ATOM     34  N   UNL A   1      38.300  23.456  26.416  1.00  0.00    -0.352 N 
ATOM     35  C   UNL A   1      39.333  23.837  27.282  1.00  0.00     0.251 C 
ATOM     36  H   UNL A   1      38.331  22.485  26.250  1.00  0.00     0.163 HD
ATOM     37  O   UNL A   1      39.950  22.901  27.805  1.00  0.00    -0.269 OA
BRANCH  35  38
ATOM     38  C   UNL A   1      39.775  25.233  27.648  1.00  0.00     0.039 A 
ATOM     39  C   UNL A   1      40.144  26.190  26.693  1.00  0.00     0.014 A 
ATOM     40  C   UNL A   1      39.569  25.749  28.908  1.00  0.00     0.014 A 
ATOM     41  C   UNL A   1      40.289  27.556  27.053  1.00  0.00     0.010 A 
ATOM     42  C   UNL A   1      39.928  27.005  29.358  1.00  0.00     0.010 A 
ATOM     43  C   UNL A   1      40.168  27.958  28.395  1.00  0.00    -0.014 A 
BRANCH  43  44
ATOM     44  C   UNL A   1      40.214  29.364  28.864  1.00  0.00     0.031 A 
ATOM     45  C   UNL A   1      38.790  29.964  29.192  1.00  0.00     0.074 A 
ATOM     46  C   UNL A   1      41.498  29.838  29.006  1.00  0.00     0.049 A 
ATOM     47  N   UNL A   1      38.330  31.175  29.061  1.00  0.00    -0.248 NA
ATOM     48  C   UNL A   1      37.687  29.073  29.673  1.00  0.00     0.031 C 
ATOM     49  C   UNL A   1      42.730  29.023  28.791  1.00  0.00     0.029 A 
ATOM     50  N   UNL A   1      42.066  31.037  29.378  1.00  0.00    -0.354 N 
ATOM     51  C   UNL A   1      37.035  31.244  29.667  1.00  0.00     0.074 A 
ATOM     52  C   UNL A   1      36.643  29.887  29.877  1.00  0.00     0.031 C 
ATOM     53  C   UNL A   1      43.853  29.770  28.903  1.00  0.00     0.029 A 
ATOM     54  C   UNL A   1      43.488  31.133  29.221  1.00  0.00     0.049 A 
ATOM     55  H   UNL A   1      41.527  31.782  29.730  1.00  0.00     0.167 HD
ATOM     56  C   UNL A   1      36.476  32.414  30.134  1.00  0.00     0.034 A 
ATOM     57  C   UNL A   1      44.289  32.248  29.287  1.00  0.00     0.034 A 
ATOM     58  C   UNL A   1      37.422  33.460  29.934  1.00  0.00     0.049 A 
ATOM     59  C   UNL A   1      43.373  33.285  29.773  1.00  0.00     0.074 A 
ATOM     60  C   UNL A   1      37.927  34.061  28.814  1.00  0.00     0.029 A 
ATOM     61  N   UNL A   1      38.243  33.731  31.007  1.00  0.00    -0.354 N 
ATOM     62  N   UNL A   1      42.942  33.377  30.992  1.00  0.00    -0.248 NA
ATOM     63  C   UNL A   1      42.796  34.221  28.799  1.00  0.00     0.031 C 
ATOM     64  C   UNL A   1      39.299  34.113  29.123  1.00  0.00     0.029 A 
ATOM     65  C   UNL A   1      39.496  33.900  30.496  1.00  0.00     0.049 A 
ATOM     66  H   UNL A   1      37.978  33.788  31.954  1.00  0.00     0.167 HD
ATOM     67  C   UNL A   1      41.814  34.138  30.845  1.00  0.00     0.074 A 
ATOM     68  C   UNL A   1      41.978  34.885  29.612  1.00  0.00     0.031 C 
ATOM     69  C   UNL A   1      40.637  33.692  31.357  1.00  0.00     0.034 A 
BRANCH  56  70
ATOM     70  C   UNL A   1      35.320  32.798  31.055  1.00  0.00     0.023 A 
ATOM     71  C   UNL A   1      34.517  33.894  30.613  1.00  0.00     0.031 A 
ATOM     72  C   UNL A   1      35.173  32.447  32.398  1.00  0.00     0.131 A 
ATOM     73  C   UNL A   1      33.810  34.710  31.507  1.00  0.00     0.055 A 
ATOM     74  C   UNL A   1      34.383  33.214  33.280  1.00  0.00     0.041 A 
ATOM     75  F   UNL A   1      35.832  31.410  32.929  1.00  0.00    -0.206 F 
ATOM     76  C   UNL A   1      33.742  34.377  32.851  1.00  0.00     0.022 A 
BRANCH  73  77
ATOM     77  S   UNL A   1      33.198  36.316  30.903  1.00  0.00     0.124 S 
ATOM     78  O   UNL A   1      33.614  37.220  31.968  1.00  0.00    -0.237 OA
ATOM     79  O   UNL A   1      33.904  36.457  29.633  1.00  0.00    -0.237 OA
ATOM     80  O   UNL A   1      31.756  36.108  30.790  1.00  0.00    -0.744 OA
ENDBRANCH  73  77
ENDBRANCH  56  70
BRANCH  57  81
ATOM     81  C   UNL A   1      45.695  32.735  28.935  1.00  0.00     0.023 A 
ATOM     82  C   UNL A   1      46.785  32.949  29.801  1.00  0.00     0.031 A 
ATOM     83  C   UNL A   1      46.011  32.924  27.548  1.00  0.00     0.131 A 
ATOM     84  C   UNL A   1      48.086  33.217  29.265  1.00  0.00     0.055 A 
ATOM     85  C   UNL A   1      47.295  33.074  27.029  1.00  0.00     0.041 A 
ATOM     86  F   UNL A   1      45.070  32.971  26.595  1.00  0.00    -0.206 F 
ATOM     87  C   UNL A   1      48.350  33.202  27.893  1.00  0.00     0.022 A 
BRANCH  84  88
ATOM     88  S   UNL A   1      49.513  33.594  30.334  1.00  0.00     0.124 S 
ATOM     89  O   UNL A   1      48.922  33.524  31.666  1.00  0.00    -0.237 OA
ATOM     90  O   UNL A   1      50.464  32.542  29.994  1.00  0.00    -0.237 OA
ATOM     91  O   UNL A   1      49.910  34.938  29.907  1.00  0.00    -0.744 OA
ENDBRANCH  84  88
ENDBRANCH  57  81
BRANCH  69  92
ATOM     92  C   UNL A   1      40.751  32.709  32.530  1.00  0.00     0.023 A 
ATOM     93  C   UNL A   1      40.662  31.319  32.298  1.00  0.00     0.031 A 
ATOM     94  C   UNL A   1      40.837  33.092  33.883  1.00  0.00     0.131 A 
ATOM     95  C   UNL A   1      40.621  30.395  33.363  1.00  0.00     0.055 A 
ATOM     96  C   UNL A   1      40.809  32.175  34.947  1.00  0.00     0.041 A 
ATOM     97  F   UNL A   1      40.934  34.376  34.228  1.00  0.00    -0.206 F 
ATOM     98  C   UNL A   1      40.695  30.817  34.691  1.00  0.00     0.022 A 
BRANCH  95  99
ATOM     99  S   UNL A   1      40.466  28.623  32.997  1.00  0.00     0.124 S 
ATOM    100  O   UNL A   1      39.100  28.512  32.502  1.00  0.00    -0.237 OA
ATOM    101  O   UNL A   1      41.522  28.411  32.012  1.00  0.00    -0.237 OA
ATOM    102  O   UNL A   1      40.703  27.980  34.290  1.00  0.00    -0.744 OA
ENDBRANCH  95  99
ENDBRANCH  69  92
ENDBRANCH  43  44
ENDBRANCH  35  38
ENDBRANCH  33  34
ENDBRANCH  32  33
ENDBRANCH   1  32
TORSDOF 19
ENDMDL
MODEL 2
REMARK VINA RESULT:     -11.8      3.767      8.690
REMARK SMILES CN(C)S(=O)(=O)c1ccc(-n2c(CCC(=O)NCCCNC(=O)c3ccc(-c4c5nc(c(-c6cc(S(=O)(=O)[O-])ccc6F)c6ccc([nH]6)c(-c6cc(S(=O)(=O)[O-])ccc6F)c6nc(c(-c7cc(S(=O)(=O)[O-])ccc7F)c7ccc4[nH]7)C=C6)C=C5)cc3)ccc2-c2ccc(F)cc2)cc1
REMARK SMILES IDX 18 1 17 2 15 3 16 4 14 6 13 7 12 8 11 9 89 10 87 11 88 12
REMARK SMILES IDX 10 13 7 14 8 15 98 16 9 17 97 18 4 19 5 20 6 21 2 22 1 23
REMARK SMILES IDX 3 24 90 25 91 26 96 27 92 28 95 29 93 30 94 31 19 32 20 33
REMARK SMILES IDX 21 34 22 35 23 37 24 38 25 39 86 40 26 41 85 42 27 43 28 44
REMARK SMILES IDX 29 45 79 46 30 47 84 48 78 49 80 50 31 51 83 52 77 53 76 54
REMARK SMILES IDX 32 56 64 57 44 58 63 59 45 60 48 61 62 62 81 63 46 64 47 65
REMARK SMILES IDX 61 67 82 68 49 69 33 70 34 71 42 72 35 73 41 74 43 75 40 76
REMARK SMILES IDX 36 77 37 78 38 79 39 80 65 81 66 82 74 83 67 84 73 85 75 86
REMARK SMILES IDX 72 87 68 88 69 89 70 90 71 91 50 92 51 93 59 94 52 95 58 96
REMARK SMILES IDX 60 97 57 98 53 99 54 100 55 101 56 102
REMARK H PARENT 17 5 21 36 80 55 48 66
REMARK Flexibility Score: inf
ROOT
ATOM      1  C   UNL A   1      35.111  22.021  24.042  1.00  0.00     0.117 C 
ENDROOT
BRANCH   1   2
ATOM      2  N   UNL A   1      34.639  22.815  22.887  1.00  0.00    -0.356 N 
ATOM      3  C   UNL A   1      33.405  23.218  22.439  1.00  0.00     0.220 C 
ATOM      4  O   UNL A   1      33.395  24.015  21.492  1.00  0.00    -0.275 OA
ATOM      5  H   UNL A   1      35.374  23.124  22.311  1.00  0.00     0.163 HD
BRANCH   3   6
ATOM      6  C   UNL A   1      32.066  22.682  22.959  1.00  0.00     0.106 C 
BRANCH   6   7
ATOM      7  C   UNL A   1      31.342  23.530  24.046  1.00  0.00     0.064 C 
BRANCH   7   8
ATOM      8  C   UNL A   1      32.257  24.500  24.758  1.00  0.00     0.024 A 
ATOM      9  N   UNL A   1      32.298  25.905  24.615  1.00  0.00    -0.314 N 
ATOM     10  C   UNL A   1      33.213  26.368  25.624  1.00  0.00     0.053 A 
ATOM     11  C   UNL A   1      33.242  24.120  25.654  1.00  0.00     0.024 A 
ATOM     12  C   UNL A   1      33.845  25.268  26.176  1.00  0.00     0.029 A 
BRANCH   9  13
ATOM     13  C   UNL A   1      31.338  26.731  23.855  1.00  0.00     0.046 A 
ATOM     14  C   UNL A   1      29.383  28.608  22.957  1.00  0.00     0.082 A 
ATOM     15  C   UNL A   1      30.704  28.672  22.488  1.00  0.00     0.024 A 
ATOM     16  C   UNL A   1      29.040  27.639  23.870  1.00  0.00     0.024 A 
ATOM     17  C   UNL A   1      31.685  27.745  22.948  1.00  0.00     0.028 A 
ATOM     18  C   UNL A   1      30.002  26.716  24.260  1.00  0.00     0.028 A 
BRANCH  14  19
ATOM     19  S   UNL A   1      28.106  29.708  22.382  1.00  0.00     0.242 S 
ATOM     20  O   UNL A   1      26.854  29.207  22.851  1.00  0.00    -0.207 OA
ATOM     21  O   UNL A   1      28.388  29.925  20.962  1.00  0.00    -0.207 OA
BRANCH  19  22
ATOM     22  N   UNL A   1      28.418  31.206  23.199  1.00  0.00    -0.204 NA
ATOM     23  C   UNL A   1      29.606  31.115  24.094  1.00  0.00     0.124 C 
ATOM     24  C   UNL A   1      28.530  32.397  22.322  1.00  0.00     0.124 C 
ENDBRANCH  19  22
ENDBRANCH  14  19
ENDBRANCH   9  13
BRANCH  10  25
ATOM     25  C   UNL A   1      33.039  27.615  26.377  1.00  0.00    -0.001 A 
ATOM     26  C   UNL A   1      31.883  28.166  26.931  1.00  0.00     0.013 A 
ATOM     27  C   UNL A   1      34.121  28.444  26.273  1.00  0.00     0.013 A 
ATOM     28  C   UNL A   1      31.882  29.520  27.339  1.00  0.00     0.040 A 
ATOM     29  C   UNL A   1      34.193  29.665  26.845  1.00  0.00     0.040 A 
ATOM     30  C   UNL A   1      33.055  30.262  27.296  1.00  0.00     0.123 A 
ATOM     31  F   UNL A   1      33.061  31.566  27.588  1.00  0.00    -0.207 F 
ENDBRANCH  10  25
ENDBRANCH   7   8
ENDBRANCH   6   7
ENDBRANCH   3   6
ENDBRANCH   1   2
BRANCH   1  32
ATOM     32  C   UNL A   1      36.660  21.867  24.170  1.00  0.00     0.042 C 
BRANCH  32  33
ATOM     33  C   UNL A   1      37.491  21.883  25.509  1.00  0.00     0.118 C 
BRANCH  33  34
ATOM     34  N   UNL A   1      38.631  20.913  25.528  1.00  0.00    -0.352 N 
ATOM     35  C   UNL A   1      39.940  20.824  26.020  1.00  0.00     0.251 C 
ATOM     36  H   UNL A   1      38.387  20.087  25.051  1.00  0.00     0.163 HD
ATOM     37  O   UNL A   1      40.458  19.703  25.932  1.00  0.00    -0.269 OA
BRANCH  35  38
ATOM     38  C   UNL A   1      40.782  21.915  26.634  1.00  0.00     0.039 A 
ATOM     39  C   UNL A   1      41.333  22.965  25.887  1.00  0.00     0.014 A 
ATOM     40  C   UNL A   1      40.822  22.115  27.996  1.00  0.00     0.014 A 
ATOM     41  C   UNL A   1      41.881  24.105  26.532  1.00  0.00     0.010 A 
ATOM     42  C   UNL A   1      41.551  23.075  28.671  1.00  0.00     0.010 A 
ATOM     43  C   UNL A   1      41.977  24.156  27.934  1.00  0.00    -0.014 A 
BRANCH  43  44
ATOM     44  C   UNL A   1      42.450  25.330  28.707  1.00  0.00     0.031 A 
ATOM     45  C   UNL A   1      43.918  25.161  29.268  1.00  0.00     0.074 A 
ATOM     46  C   UNL A   1      41.549  26.369  28.707  1.00  0.00     0.049 A 
ATOM     47  N   UNL A   1      44.460  25.597  30.369  1.00  0.00    -0.248 NA
ATOM     48  C   UNL A   1      44.917  24.326  28.531  1.00  0.00     0.031 C 
ATOM     49  C   UNL A   1      40.260  26.371  27.955  1.00  0.00     0.029 A 
ATOM     50  N   UNL A   1      41.499  27.625  29.273  1.00  0.00    -0.354 N 
ATOM     51  C   UNL A   1      45.865  25.332  30.327  1.00  0.00     0.074 A 
ATOM     52  C   UNL A   1      46.045  24.413  29.249  1.00  0.00     0.031 C 
ATOM     53  C   UNL A   1      39.528  27.479  28.216  1.00  0.00     0.029 A 
ATOM     54  C   UNL A   1      40.255  28.324  29.138  1.00  0.00     0.049 A 
ATOM     55  H   UNL A   1      42.272  28.017  29.740  1.00  0.00     0.167 HD
ATOM     56  C   UNL A   1      46.795  26.045  31.052  1.00  0.00     0.034 A 
ATOM     57  C   UNL A   1      39.834  29.466  29.776  1.00  0.00     0.034 A 
ATOM     58  C   UNL A   1      46.103  27.063  31.769  1.00  0.00     0.049 A 
ATOM     59  C   UNL A   1      41.046  29.925  30.464  1.00  0.00     0.074 A 
ATOM     60  C   UNL A   1      45.209  27.032  32.805  1.00  0.00     0.029 A 
ATOM     61  N   UNL A   1      46.035  28.289  31.144  1.00  0.00    -0.354 N 
ATOM     62  N   UNL A   1      42.061  30.482  29.880  1.00  0.00    -0.248 NA
ATOM     63  C   UNL A   1      41.190  29.631  31.896  1.00  0.00     0.031 C 
ATOM     64  C   UNL A   1      44.242  27.954  32.363  1.00  0.00     0.029 A 
ATOM     65  C   UNL A   1      44.759  28.737  31.319  1.00  0.00     0.049 A 
ATOM     66  H   UNL A   1      46.763  28.748  30.666  1.00  0.00     0.167 HD
ATOM     67  C   UNL A   1      43.063  30.285  30.791  1.00  0.00     0.074 A 
ATOM     68  C   UNL A   1      42.421  30.102  32.079  1.00  0.00     0.031 C 
ATOM     69  C   UNL A   1      44.225  29.705  30.389  1.00  0.00     0.034 A 
BRANCH  56  70
ATOM     70  C   UNL A   1      48.310  26.233  31.029  1.00  0.00     0.023 A 
ATOM     71  C   UNL A   1      48.879  26.502  29.746  1.00  0.00     0.031 A 
ATOM     72  C   UNL A   1      49.214  25.838  32.017  1.00  0.00     0.131 A 
ATOM     73  C   UNL A   1      50.205  26.171  29.433  1.00  0.00     0.055 A 
ATOM     74  C   UNL A   1      50.572  25.596  31.723  1.00  0.00     0.041 A 
ATOM     75  F   UNL A   1      48.820  25.600  33.274  1.00  0.00    -0.206 F 
ATOM     76  C   UNL A   1      51.062  25.711  30.421  1.00  0.00     0.022 A 
BRANCH  73  77
ATOM     77  S   UNL A   1      50.689  26.138  27.678  1.00  0.00     0.124 S 
ATOM     78  O   UNL A   1      52.113  26.443  27.749  1.00  0.00    -0.237 OA
ATOM     79  O   UNL A   1      50.348  24.772  27.290  1.00  0.00    -0.237 OA
ATOM     80  O   UNL A   1      49.858  27.178  27.076  1.00  0.00    -0.744 OA
ENDBRANCH  73  77
ENDBRANCH  56  70
BRANCH  57  81
ATOM     81  C   UNL A   1      38.575  30.285  30.061  1.00  0.00     0.023 A 
ATOM     82  C   UNL A   1      38.171  31.497  29.471  1.00  0.00     0.031 A 
ATOM     83  C   UNL A   1      37.613  29.737  30.977  1.00  0.00     0.131 A 
ATOM     84  C   UNL A   1      36.859  32.017  29.722  1.00  0.00     0.055 A 
ATOM     85  C   UNL A   1      36.304  30.186  31.131  1.00  0.00     0.041 A 
ATOM     86  F   UNL A   1      37.897  28.710  31.789  1.00  0.00    -0.206 F 
ATOM     87  C   UNL A   1      35.911  31.326  30.482  1.00  0.00     0.022 A 
BRANCH  84  88
ATOM     88  S   UNL A   1      36.314  33.625  29.061  1.00  0.00     0.124 S 
ATOM     89  O   UNL A   1      37.524  34.430  29.185  1.00  0.00    -0.237 OA
ATOM     90  O   UNL A   1      35.893  33.296  27.704  1.00  0.00    -0.237 OA
ATOM     91  O   UNL A   1      35.225  34.010  29.963  1.00  0.00    -0.744 OA
ENDBRANCH  84  88
ENDBRANCH  57  81
BRANCH  69  92
ATOM     92  C   UNL A   1      44.560  29.849  28.899  1.00  0.00     0.023 A 
ATOM     93  C   UNL A   1      44.749  28.699  28.103  1.00  0.00     0.031 A 
ATOM     94  C   UNL A   1      44.806  31.078  28.254  1.00  0.00     0.131 A 
ATOM     95  C   UNL A   1      45.196  28.791  26.768  1.00  0.00     0.055 A 
ATOM     96  C   UNL A   1      45.239  31.176  26.921  1.00  0.00     0.041 A 
ATOM     97  F   UNL A   1      44.654  32.234  28.900  1.00  0.00    -0.206 F 
ATOM     98  C   UNL A   1      45.442  30.027  26.171  1.00  0.00     0.022 A 
BRANCH  95  99
ATOM     99  S   UNL A   1      45.457  27.269  25.811  1.00  0.00     0.124 S 
ATOM    100  O   UNL A   1      44.181  26.579  25.945  1.00  0.00    -0.237 OA
ATOM    101  O   UNL A   1      45.769  27.783  24.481  1.00  0.00    -0.237 OA
ATOM    102  O   UNL A   1      46.579  26.621  26.491  1.00  0.00    -0.744 OA
ENDBRANCH  95  99
ENDBRANCH  69  92
ENDBRANCH  43  44
ENDBRANCH  35  38
ENDBRANCH  33  34
ENDBRANCH  32  33
ENDBRANCH   1  32
TORSDOF 19
ENDMDL
MODEL 3
REMARK VINA RESULT:     -10.9      4.155      9.719
REMARK SMILES CN(C)S(=O)(=O)c1ccc(-n2c(CCC(=O)NCCCNC(=O)c3ccc(-c4c5nc(c(-c6cc(S(=O)(=O)[O-])ccc6F)c6ccc([nH]6)c(-c6cc(S(=O)(=O)[O-])ccc6F)c6nc(c(-c7cc(S(=O)(=O)[O-])ccc7F)c7ccc4[nH]7)C=C6)C=C5)cc3)ccc2-c2ccc(F)cc2)cc1
REMARK SMILES IDX 18 1 17 2 15 3 16 4 14 6 13 7 12 8 11 9 89 10 87 11 88 12
REMARK SMILES IDX 10 13 7 14 8 15 98 16 9 17 97 18 4 19 5 20 6 21 2 22 1 23
REMARK SMILES IDX 3 24 90 25 91 26 96 27 92 28 95 29 93 30 94 31 19 32 20 33
REMARK SMILES IDX 21 34 22 35 23 37 24 38 25 39 86 40 26 41 85 42 27 43 28 44
REMARK SMILES IDX 29 45 79 46 30 47 84 48 78 49 80 50 31 51 83 52 77 53 76 54
REMARK SMILES IDX 32 56 64 57 44 58 63 59 45 60 48 61 62 62 81 63 46 64 47 65
REMARK SMILES IDX 61 67 82 68 49 69 33 70 34 71 42 72 35 73 41 74 43 75 40 76
REMARK SMILES IDX 36 77 37 78 38 79 39 80 65 81 66 82 74 83 67 84 73 85 75 86
REMARK SMILES IDX 72 87 68 88 69 89 70 90 71 91 50 92 51 93 59 94 52 95 58 96
REMARK SMILES IDX 60 97 57 98 53 99 54 100 55 101 56 102
REMARK H PARENT 17 5 21 36 80 55 48 66
REMARK Flexibility Score: inf
ROOT
ATOM      1  C   UNL A   1      33.008  37.456  31.315  1.00  0.00     0.117 C 
ENDROOT
BRANCH   1   2
ATOM      2  N   UNL A   1      33.596  37.159  29.991  1.00  0.00    -0.356 N 
ATOM      3  C   UNL A   1      33.785  36.012  29.260  1.00  0.00     0.220 C 
ATOM      4  O   UNL A   1      34.188  36.157  28.099  1.00  0.00    -0.275 OA
ATOM      5  H   UNL A   1      33.924  37.964  29.531  1.00  0.00     0.163 HD
BRANCH   3   6
ATOM      6  C   UNL A   1      33.626  34.588  29.806  1.00  0.00     0.106 C 
BRANCH   6   7
ATOM      7  C   UNL A   1      34.635  33.519  29.294  1.00  0.00     0.064 C 
BRANCH   7   8
ATOM      8  C   UNL A   1      34.036  32.563  28.288  1.00  0.00     0.024 A 
ATOM      9  N   UNL A   1      34.624  31.392  27.759  1.00  0.00    -0.314 N 
ATOM     10  C   UNL A   1      33.591  30.760  26.983  1.00  0.00     0.053 A 
ATOM     11  C   UNL A   1      32.794  32.736  27.699  1.00  0.00     0.024 A 
ATOM     12  C   UNL A   1      32.525  31.635  26.881  1.00  0.00     0.029 A 
BRANCH   9  13
ATOM     13  C   UNL A   1      35.888  30.774  28.208  1.00  0.00     0.046 A 
ATOM     14  C   UNL A   1      37.972  29.048  29.120  1.00  0.00     0.082 A 
ATOM     15  C   UNL A   1      38.027  29.620  27.839  1.00  0.00     0.024 A 
ATOM     16  C   UNL A   1      36.892  29.314  29.929  1.00  0.00     0.024 A 
ATOM     17  C   UNL A   1      36.979  30.470  27.376  1.00  0.00     0.028 A 
ATOM     18  C   UNL A   1      35.913  30.187  29.474  1.00  0.00     0.028 A 
BRANCH  14  19
ATOM     19  S   UNL A   1      39.273  28.020  29.767  1.00  0.00     0.242 S 
ATOM     20  O   UNL A   1      38.664  26.931  30.463  1.00  0.00    -0.207 OA
ATOM     21  O   UNL A   1      40.215  28.938  30.408  1.00  0.00    -0.207 OA
BRANCH  19  22
ATOM     22  N   UNL A   1      40.063  27.376  28.363  1.00  0.00    -0.204 NA
ATOM     23  C   UNL A   1      41.535  27.254  28.559  1.00  0.00     0.124 C 
ATOM     24  C   UNL A   1      39.508  26.099  27.851  1.00  0.00     0.124 C 
ENDBRANCH  19  22
ENDBRANCH  14  19
ENDBRANCH   9  13
BRANCH  10  25
ATOM     25  C   UNL A   1      33.406  29.306  26.897  1.00  0.00    -0.001 A 
ATOM     26  C   UNL A   1      34.226  28.338  26.316  1.00  0.00     0.013 A 
ATOM     27  C   UNL A   1      32.130  28.923  27.201  1.00  0.00     0.013 A 
ATOM     28  C   UNL A   1      33.709  27.044  26.069  1.00  0.00     0.040 A 
ATOM     29  C   UNL A   1      31.697  27.645  27.162  1.00  0.00     0.040 A 
ATOM     30  C   UNL A   1      32.436  26.707  26.507  1.00  0.00     0.123 A 
ATOM     31  F   UNL A   1      31.890  25.525  26.206  1.00  0.00    -0.207 F 
ENDBRANCH  10  25
ENDBRANCH   7   8
ENDBRANCH   6   7
ENDBRANCH   3   6
ENDBRANCH   1   2
BRANCH   1  32
ATOM     32  C   UNL A   1      34.027  37.608  32.489  1.00  0.00     0.042 C 
BRANCH  32  33
ATOM     33  C   UNL A   1      34.326  36.538  33.608  1.00  0.00     0.118 C 
BRANCH  33  34
ATOM     34  N   UNL A   1      33.674  35.212  33.370  1.00  0.00    -0.352 N 
ATOM     35  C   UNL A   1      34.020  33.856  33.301  1.00  0.00     0.251 C 
ATOM     36  H   UNL A   1      32.708  35.327  33.217  1.00  0.00     0.163 HD
ATOM     37  O   UNL A   1      33.064  33.073  33.251  1.00  0.00    -0.269 OA
BRANCH  35  38
ATOM     38  C   UNL A   1      35.401  33.246  33.282  1.00  0.00     0.039 A 
ATOM     39  C   UNL A   1      35.678  32.007  32.688  1.00  0.00     0.014 A 
ATOM     40  C   UNL A   1      36.521  33.988  33.582  1.00  0.00     0.014 A 
ATOM     41  C   UNL A   1      37.018  31.600  32.452  1.00  0.00     0.010 A 
ATOM     42  C   UNL A   1      37.829  33.542  33.599  1.00  0.00     0.010 A 
ATOM     43  C   UNL A   1      38.094  32.384  32.904  1.00  0.00    -0.014 A 
BRANCH  43  44
ATOM     44  C   UNL A   1      39.523  32.095  32.635  1.00  0.00     0.031 A 
ATOM     45  C   UNL A   1      40.095  32.870  31.382  1.00  0.00     0.074 A 
ATOM     46  C   UNL A   1      40.090  31.277  33.584  1.00  0.00     0.049 A 
ATOM     47  N   UNL A   1      40.993  32.520  30.507  1.00  0.00    -0.248 NA
ATOM     48  C   UNL A   1      39.540  34.207  31.003  1.00  0.00     0.031 C 
ATOM     49  C   UNL A   1      39.388  30.780  34.804  1.00  0.00     0.029 A 
ATOM     50  N   UNL A   1      41.334  30.714  33.778  1.00  0.00    -0.354 N 
ATOM     51  C   UNL A   1      41.289  33.646  29.675  1.00  0.00     0.074 A 
ATOM     52  C   UNL A   1      40.250  34.591  29.934  1.00  0.00     0.031 C 
ATOM     53  C   UNL A   1      40.154  29.915  35.508  1.00  0.00     0.029 A 
ATOM     54  C   UNL A   1      41.433  29.766  34.849  1.00  0.00     0.049 A 
ATOM     55  H   UNL A   1      42.106  30.949  33.215  1.00  0.00     0.167 HD
ATOM     56  C   UNL A   1      42.476  33.794  28.990  1.00  0.00     0.034 A 
ATOM     57  C   UNL A   1      42.453  28.892  35.135  1.00  0.00     0.034 A 
ATOM     58  C   UNL A   1      43.303  32.678  29.305  1.00  0.00     0.049 A 
ATOM     59  C   UNL A   1      43.514  29.309  34.212  1.00  0.00     0.074 A 
ATOM     60  C   UNL A   1      43.219  31.343  29.019  1.00  0.00     0.029 A 
ATOM     61  N   UNL A   1      44.184  32.868  30.348  1.00  0.00    -0.354 N 
ATOM     62  N   UNL A   1      44.234  30.379  34.350  1.00  0.00    -0.248 NA
ATOM     63  C   UNL A   1      43.708  28.541  32.975  1.00  0.00     0.031 C 
ATOM     64  C   UNL A   1      43.536  30.773  30.267  1.00  0.00     0.029 A 
ATOM     65  C   UNL A   1      44.135  31.731  31.100  1.00  0.00     0.049 A 
ATOM     66  H   UNL A   1      44.736  33.665  30.518  1.00  0.00     0.167 HD
ATOM     67  C   UNL A   1      44.699  30.582  33.079  1.00  0.00     0.074 A 
ATOM     68  C   UNL A   1      44.647  29.295  32.410  1.00  0.00     0.031 C 
ATOM     69  C   UNL A   1      44.524  31.794  32.490  1.00  0.00     0.034 A 
BRANCH  56  70
ATOM     70  C   UNL A   1      43.218  34.932  28.294  1.00  0.00     0.023 A 
ATOM     71  C   UNL A   1      44.287  34.537  27.434  1.00  0.00     0.031 A 
ATOM     72  C   UNL A   1      43.205  36.280  28.657  1.00  0.00     0.131 A 
ATOM     73  C   UNL A   1      45.376  35.377  27.161  1.00  0.00     0.055 A 
ATOM     74  C   UNL A   1      44.255  37.152  28.302  1.00  0.00     0.041 A 
ATOM     75  F   UNL A   1      42.232  36.791  29.423  1.00  0.00    -0.206 F 
ATOM     76  C   UNL A   1      45.369  36.692  27.598  1.00  0.00     0.022 A 
BRANCH  73  77
ATOM     77  S   UNL A   1      46.873  34.634  26.437  1.00  0.00     0.124 S 
ATOM     78  O   UNL A   1      46.941  33.351  27.126  1.00  0.00    -0.237 OA
ATOM     79  O   UNL A   1      46.533  34.579  25.017  1.00  0.00    -0.237 OA
ATOM     80  O   UNL A   1      47.926  35.586  26.784  1.00  0.00    -0.744 OA
ENDBRANCH  73  77
ENDBRANCH  56  70
BRANCH  57  81
ATOM     81  C   UNL A   1      42.768  27.648  35.967  1.00  0.00     0.023 A 
ATOM     82  C   UNL A   1      43.677  27.521  37.034  1.00  0.00     0.031 A 
ATOM     83  C   UNL A   1      41.996  26.463  35.719  1.00  0.00     0.131 A 
ATOM     84  C   UNL A   1      43.693  26.327  37.826  1.00  0.00     0.055 A 
ATOM     85  C   UNL A   1      41.938  25.351  36.556  1.00  0.00     0.041 A 
ATOM     86  F   UNL A   1      41.236  26.316  34.626  1.00  0.00    -0.206 F 
ATOM     87  C   UNL A   1      42.779  25.287  37.635  1.00  0.00     0.022 A 
BRANCH  84  88
ATOM     88  S   UNL A   1      44.908  26.068  39.160  1.00  0.00     0.124 S 
ATOM     89  O   UNL A   1      44.256  26.712  40.294  1.00  0.00    -0.237 OA
ATOM     90  O   UNL A   1      45.023  24.615  39.221  1.00  0.00    -0.237 OA
ATOM     91  O   UNL A   1      46.104  26.755  38.667  1.00  0.00    -0.744 OA
ENDBRANCH  84  88
ENDBRANCH  57  81
BRANCH  69  92
ATOM     92  C   UNL A   1      44.367  32.983  33.447  1.00  0.00     0.023 A 
ATOM     93  C   UNL A   1      43.081  33.387  33.867  1.00  0.00     0.031 A 
ATOM     94  C   UNL A   1      45.429  33.802  33.879  1.00  0.00     0.131 A 
ATOM     95  C   UNL A   1      42.889  34.557  34.631  1.00  0.00     0.055 A 
ATOM     96  C   UNL A   1      45.244  34.962  34.650  1.00  0.00     0.041 A 
ATOM     97  F   UNL A   1      46.691  33.518  33.554  1.00  0.00    -0.206 F 
ATOM     98  C   UNL A   1      43.966  35.349  35.027  1.00  0.00     0.022 A 
BRANCH  95  99
ATOM     99  S   UNL A   1      41.204  35.042  35.105  1.00  0.00     0.124 S 
ATOM    100  O   UNL A   1      40.574  35.322  33.821  1.00  0.00    -0.237 OA
ATOM    101  O   UNL A   1      40.721  33.857  35.808  1.00  0.00    -0.237 OA
ATOM    102  O   UNL A   1      41.407  36.214  35.957  1.00  0.00    -0.744 OA
ENDBRANCH  95  99
ENDBRANCH  69  92
ENDBRANCH  43  44
ENDBRANCH  35  38
ENDBRANCH  33  34
ENDBRANCH  32  33
ENDBRANCH   1  32
TORSDOF 19
ENDMDL
