MODEL 1
REMARK VINA RESULT:     -11.8      0.000      0.000
REMARK SMILES COC(=O)[C@H]1CCN(S(=O)(=O)N2CCC[C@H](C(=O)NCCCNC(=O)c3ccc(-c4c5nc(c(-c6cc(S(=O)(=O)[O-])ccc6F)c6ccc([nH]6)c(-c6cc(S(=O)(=O)[O-])ccc6F)c6nc(c(-c7cc(S(=O)(=O)[O-])ccc7F)c7ccc4[nH]7)C=C6)C=C5)cc3)C2)C1
REMARK SMILES IDX 20 1 19 2 17 3 18 4 16 6 12 7 13 8 89 9 14 10 15 11 9 12
REMARK SMILES IDX 10 13 11 14 8 15 5 16 6 17 90 18 7 19 3 20 4 21 2 22 1 23
REMARK SMILES IDX 21 24 22 25 23 26 24 27 25 29 26 30 27 31 88 32 28 33 87 34
REMARK SMILES IDX 29 35 30 36 31 37 81 38 32 39 86 40 80 41 82 42 33 43 85 44
REMARK SMILES IDX 79 45 78 46 34 48 66 49 46 50 65 51 47 52 50 53 64 54 83 55
REMARK SMILES IDX 48 56 49 57 63 59 84 60 51 61 35 62 36 63 44 64 37 65 43 66
REMARK SMILES IDX 45 67 42 68 38 69 39 70 40 71 41 72 67 73 68 74 76 75 69 76
REMARK SMILES IDX 75 77 77 78 74 79 70 80 71 81 72 82 73 83 52 84 53 85 61 86
REMARK SMILES IDX 54 87 60 88 62 89 59 90 55 91 56 92 57 93 58 94
REMARK H PARENT 19 5 23 28 82 47 50 58
REMARK Flexibility Score: inf
ROOT
ATOM      1  C   UNL A   1      31.300  30.927  25.775  1.00  0.00     0.117 C 
ENDROOT
BRANCH   1   2
ATOM      2  N   UNL A   1      32.535  30.200  25.970  1.00  0.00    -0.356 N 
ATOM      3  C   UNL A   1      33.058  29.120  25.346  1.00  0.00     0.224 C 
ATOM      4  O   UNL A   1      34.181  28.763  25.727  1.00  0.00    -0.275 OA
ATOM      5  H   UNL A   1      33.100  30.558  26.692  1.00  0.00     0.163 HD
BRANCH   3   6
ATOM      6  C   UNL A   1      32.373  28.329  24.231  1.00  0.00     0.094 C 
ATOM      7  N   UNL A   1      33.424  26.115  23.766  1.00  0.00    -0.188 NA
ATOM      8  C   UNL A   1      33.657  26.410  22.345  1.00  0.00     0.103 C 
ATOM      9  C   UNL A   1      32.319  26.823  24.430  1.00  0.00     0.117 C 
ATOM     10  C   UNL A   1      33.764  27.915  22.105  1.00  0.00     0.018 C 
ATOM     11  C   UNL A   1      32.689  28.743  22.796  1.00  0.00     0.016 C 
BRANCH   7  12
ATOM     12  S   UNL A   1      33.981  24.668  24.394  1.00  0.00     0.282 S 
ATOM     13  O   UNL A   1      34.905  24.940  25.468  1.00  0.00    -0.195 OA
ATOM     14  O   UNL A   1      34.364  23.819  23.288  1.00  0.00    -0.195 OA
BRANCH  12  15
ATOM     15  N   UNL A   1      32.585  23.989  25.071  1.00  0.00    -0.188 NA
ATOM     16  C   UNL A   1      32.280  21.635  25.591  1.00  0.00     0.116 C 
ATOM     17  C   UNL A   1      32.969  22.350  26.743  1.00  0.00     0.033 C 
ATOM     18  C   UNL A   1      32.242  22.658  24.456  1.00  0.00     0.118 C 
ATOM     19  C   UNL A   1      32.547  23.785  26.533  1.00  0.00     0.104 C 
BRANCH  16  20
ATOM     20  C   UNL A   1      32.945  20.361  25.131  1.00  0.00     0.310 C 
ATOM     21  O   UNL A   1      34.136  20.295  24.857  1.00  0.00    -0.252 OA
BRANCH  20  22
ATOM     22  O   UNL A   1      32.083  19.313  25.101  1.00  0.00    -0.469 OA
ATOM     23  C   UNL A   1      32.679  18.034  25.314  1.00  0.00     0.282 C 
ENDBRANCH  20  22
ENDBRANCH  16  20
ENDBRANCH  12  15
ENDBRANCH   7  12
ENDBRANCH   3   6
ENDBRANCH   1   2
BRANCH   1  24
ATOM     24  C   UNL A   1      31.219  32.173  26.638  1.00  0.00     0.042 C 
BRANCH  24  25
ATOM     25  C   UNL A   1      32.558  32.561  27.234  1.00  0.00     0.118 C 
BRANCH  25  26
ATOM     26  N   UNL A   1      32.605  33.969  27.608  1.00  0.00    -0.352 N 
ATOM     27  C   UNL A   1      33.389  34.615  28.532  1.00  0.00     0.251 C 
ATOM     28  H   UNL A   1      31.976  34.548  27.120  1.00  0.00     0.163 HD
ATOM     29  O   UNL A   1      33.119  35.770  28.849  1.00  0.00    -0.269 OA
BRANCH  27  30
ATOM     30  C   UNL A   1      34.533  33.917  29.155  1.00  0.00     0.039 A 
ATOM     31  C   UNL A   1      35.832  34.309  28.822  1.00  0.00     0.014 A 
ATOM     32  C   UNL A   1      34.328  32.877  30.063  1.00  0.00     0.014 A 
ATOM     33  C   UNL A   1      36.918  33.698  29.451  1.00  0.00     0.010 A 
ATOM     34  C   UNL A   1      35.400  32.360  30.778  1.00  0.00     0.010 A 
ATOM     35  C   UNL A   1      36.710  32.748  30.465  1.00  0.00    -0.014 A 
BRANCH  35  36
ATOM     36  C   UNL A   1      37.847  32.120  31.186  1.00  0.00     0.031 A 
ATOM     37  C   UNL A   1      38.600  30.984  30.544  1.00  0.00     0.074 A 
ATOM     38  C   UNL A   1      38.158  32.532  32.431  1.00  0.00     0.049 A 
ATOM     39  N   UNL A   1      39.566  30.250  31.035  1.00  0.00    -0.248 NA
ATOM     40  C   UNL A   1      38.188  30.595  29.183  1.00  0.00     0.031 C 
ATOM     41  C   UNL A   1      37.465  33.592  33.169  1.00  0.00     0.029 A 
ATOM     42  N   UNL A   1      39.131  32.109  33.302  1.00  0.00    -0.354 N 
ATOM     43  C   UNL A   1      39.860  29.308  30.054  1.00  0.00     0.074 A 
ATOM     44  C   UNL A   1      38.927  29.518  28.971  1.00  0.00     0.031 C 
ATOM     45  C   UNL A   1      38.057  33.759  34.362  1.00  0.00     0.029 A 
ATOM     46  C   UNL A   1      39.130  32.781  34.503  1.00  0.00     0.049 A 
ATOM     47  H   UNL A   1      39.770  31.392  33.087  1.00  0.00     0.167 HD
ATOM     48  C   UNL A   1      40.839  28.370  30.050  1.00  0.00     0.034 A 
ATOM     49  C   UNL A   1      39.898  32.615  35.600  1.00  0.00     0.034 A 
ATOM     50  C   UNL A   1      41.776  28.196  31.131  1.00  0.00     0.049 A 
ATOM     51  C   UNL A   1      40.969  31.553  35.574  1.00  0.00     0.074 A 
ATOM     52  C   UNL A   1      42.849  27.327  31.205  1.00  0.00     0.029 A 
ATOM     53  N   UNL A   1      41.749  28.899  32.329  1.00  0.00    -0.354 N 
ATOM     54  N   UNL A   1      41.274  30.711  34.612  1.00  0.00    -0.248 NA
ATOM     55  C   UNL A   1      41.806  31.425  36.773  1.00  0.00     0.031 C 
ATOM     56  C   UNL A   1      43.416  27.441  32.478  1.00  0.00     0.029 A 
ATOM     57  C   UNL A   1      42.762  28.452  33.163  1.00  0.00     0.049 A 
ATOM     58  H   UNL A   1      41.104  29.609  32.553  1.00  0.00     0.167 HD
ATOM     59  C   UNL A   1      42.362  29.979  35.082  1.00  0.00     0.074 A 
ATOM     60  C   UNL A   1      42.670  30.494  36.400  1.00  0.00     0.031 C 
ATOM     61  C   UNL A   1      43.049  28.975  34.478  1.00  0.00     0.034 A 
BRANCH  48  62
ATOM     62  C   UNL A   1      40.929  27.450  28.856  1.00  0.00     0.023 A 
ATOM     63  C   UNL A   1      41.907  27.616  27.860  1.00  0.00     0.031 A 
ATOM     64  C   UNL A   1      40.021  26.385  28.715  1.00  0.00     0.131 A 
ATOM     65  C   UNL A   1      41.916  26.770  26.740  1.00  0.00     0.055 A 
ATOM     66  C   UNL A   1      40.087  25.497  27.640  1.00  0.00     0.041 A 
ATOM     67  F   UNL A   1      39.048  26.192  29.620  1.00  0.00    -0.206 F 
ATOM     68  C   UNL A   1      41.032  25.694  26.637  1.00  0.00     0.022 A 
BRANCH  65  69
ATOM     69  S   UNL A   1      43.017  27.173  25.356  1.00  0.00     0.124 S 
ATOM     70  O   UNL A   1      43.102  25.890  24.663  1.00  0.00    -0.237 OA
ATOM     71  O   UNL A   1      42.281  28.225  24.663  1.00  0.00    -0.237 OA
ATOM     72  O   UNL A   1      44.251  27.602  26.012  1.00  0.00    -0.744 OA
ENDBRANCH  65  69
ENDBRANCH  48  62
BRANCH  49  73
ATOM     73  C   UNL A   1      39.676  33.448  36.819  1.00  0.00     0.023 A 
ATOM     74  C   UNL A   1      39.024  32.925  37.948  1.00  0.00     0.031 A 
ATOM     75  C   UNL A   1      40.055  34.803  36.851  1.00  0.00     0.131 A 
ATOM     76  C   UNL A   1      38.713  33.764  39.029  1.00  0.00     0.055 A 
ATOM     77  C   UNL A   1      39.806  35.616  37.958  1.00  0.00     0.041 A 
ATOM     78  F   UNL A   1      40.681  35.358  35.802  1.00  0.00    -0.206 F 
ATOM     79  C   UNL A   1      39.114  35.101  39.050  1.00  0.00     0.022 A 
BRANCH  76  80
ATOM     80  S   UNL A   1      37.663  33.113  40.359  1.00  0.00     0.124 S 
ATOM     81  O   UNL A   1      37.589  34.256  41.263  1.00  0.00    -0.237 OA
ATOM     82  O   UNL A   1      36.438  32.781  39.641  1.00  0.00    -0.237 OA
ATOM     83  O   UNL A   1      38.421  31.969  40.859  1.00  0.00    -0.744 OA
ENDBRANCH  76  80
ENDBRANCH  49  73
BRANCH  61  84
ATOM     84  C   UNL A   1      44.233  28.407  35.222  1.00  0.00     0.023 A 
ATOM     85  C   UNL A   1      44.087  27.413  36.203  1.00  0.00     0.031 A 
ATOM     86  C   UNL A   1      45.530  28.876  34.943  1.00  0.00     0.131 A 
ATOM     87  C   UNL A   1      45.209  26.963  36.914  1.00  0.00     0.055 A 
ATOM     88  C   UNL A   1      46.652  28.372  35.602  1.00  0.00     0.041 A 
ATOM     89  F   UNL A   1      45.730  29.829  34.018  1.00  0.00    -0.206 F 
ATOM     90  C   UNL A   1      46.493  27.420  36.606  1.00  0.00     0.022 A 
BRANCH  87  91
ATOM     91  S   UNL A   1      44.956  25.852  38.324  1.00  0.00     0.124 S 
ATOM     92  O   UNL A   1      43.812  26.464  38.991  1.00  0.00    -0.237 OA
ATOM     93  O   UNL A   1      44.704  24.570  37.672  1.00  0.00    -0.237 OA
ATOM     94  O   UNL A   1      46.220  25.935  39.057  1.00  0.00    -0.744 OA
ENDBRANCH  87  91
ENDBRANCH  61  84
ENDBRANCH  35  36
ENDBRANCH  27  30
ENDBRANCH  25  26
ENDBRANCH  24  25
ENDBRANCH   1  24
TORSDOF 17
ENDMDL
MODEL 2
REMARK VINA RESULT:     -11.7      3.130      8.326
REMARK SMILES COC(=O)[C@H]1CCN(S(=O)(=O)N2CCC[C@H](C(=O)NCCCNC(=O)c3ccc(-c4c5nc(c(-c6cc(S(=O)(=O)[O-])ccc6F)c6ccc([nH]6)c(-c6cc(S(=O)(=O)[O-])ccc6F)c6nc(c(-c7cc(S(=O)(=O)[O-])ccc7F)c7ccc4[nH]7)C=C6)C=C5)cc3)C2)C1
REMARK SMILES IDX 20 1 19 2 17 3 18 4 16 6 12 7 13 8 89 9 14 10 15 11 9 12
REMARK SMILES IDX 10 13 11 14 8 15 5 16 6 17 90 18 7 19 3 20 4 21 2 22 1 23
REMARK SMILES IDX 21 24 22 25 23 26 24 27 25 29 26 30 27 31 88 32 28 33 87 34
REMARK SMILES IDX 29 35 30 36 31 37 81 38 32 39 86 40 80 41 82 42 33 43 85 44
REMARK SMILES IDX 79 45 78 46 34 48 66 49 46 50 65 51 47 52 50 53 64 54 83 55
REMARK SMILES IDX 48 56 49 57 63 59 84 60 51 61 35 62 36 63 44 64 37 65 43 66
REMARK SMILES IDX 45 67 42 68 38 69 39 70 40 71 41 72 67 73 68 74 76 75 69 76
REMARK SMILES IDX 75 77 77 78 74 79 70 80 71 81 72 82 73 83 52 84 53 85 61 86
REMARK SMILES IDX 54 87 60 88 62 89 59 90 55 91 56 92 57 93 58 94
REMARK H PARENT 19 5 23 28 82 47 50 58
REMARK Flexibility Score: inf
ROOT
ATOM      1  C   UNL A   1      31.483  28.069  26.636  1.00  0.00     0.117 C 
ENDROOT
BRANCH   1   2
ATOM      2  N   UNL A   1      31.110  26.687  26.836  1.00  0.00    -0.356 N 
ATOM      3  C   UNL A   1      30.832  25.689  25.966  1.00  0.00     0.224 C 
ATOM      4  O   UNL A   1      30.588  24.583  26.467  1.00  0.00    -0.275 OA
ATOM      5  H   UNL A   1      31.046  26.422  27.781  1.00  0.00     0.163 HD
BRANCH   3   6
ATOM      6  C   UNL A   1      30.798  25.831  24.443  1.00  0.00     0.094 C 
ATOM      7  N   UNL A   1      32.554  24.509  23.262  1.00  0.00    -0.188 NA
ATOM      8  C   UNL A   1      33.118  25.681  22.577  1.00  0.00     0.103 C 
ATOM      9  C   UNL A   1      31.139  24.575  23.657  1.00  0.00     0.117 C 
ATOM     10  C   UNL A   1      32.839  26.964  23.358  1.00  0.00     0.018 C 
ATOM     11  C   UNL A   1      31.407  27.102  23.855  1.00  0.00     0.016 C 
BRANCH   7  12
ATOM     12  S   UNL A   1      33.293  23.022  23.065  1.00  0.00     0.282 S 
ATOM     13  O   UNL A   1      34.627  23.218  22.552  1.00  0.00    -0.195 OA
ATOM     14  O   UNL A   1      32.362  22.147  22.387  1.00  0.00    -0.195 OA
BRANCH  12  15
ATOM     15  N   UNL A   1      33.428  22.455  24.655  1.00  0.00    -0.188 NA
ATOM     16  C   UNL A   1      33.185  20.137  25.342  1.00  0.00     0.116 C 
ATOM     17  C   UNL A   1      34.613  20.415  24.901  1.00  0.00     0.033 C 
ATOM     18  C   UNL A   1      32.403  21.396  24.971  1.00  0.00     0.118 C 
ATOM     19  C   UNL A   1      34.728  21.908  25.093  1.00  0.00     0.104 C 
BRANCH  16  20
ATOM     20  C   UNL A   1      32.544  18.918  24.726  1.00  0.00     0.310 C 
ATOM     21  O   UNL A   1      32.096  17.994  25.394  1.00  0.00    -0.252 OA
BRANCH  20  22
ATOM     22  O   UNL A   1      32.492  18.992  23.373  1.00  0.00    -0.469 OA
ATOM     23  C   UNL A   1      32.795  17.777  22.688  1.00  0.00     0.282 C 
ENDBRANCH  20  22
ENDBRANCH  16  20
ENDBRANCH  12  15
ENDBRANCH   7  12
ENDBRANCH   3   6
ENDBRANCH   1   2
BRANCH   1  24
ATOM     24  C   UNL A   1      32.813  28.409  27.281  1.00  0.00     0.042 C 
BRANCH  24  25
ATOM     25  C   UNL A   1      33.599  29.441  26.497  1.00  0.00     0.118 C 
BRANCH  25  26
ATOM     26  N   UNL A   1      33.528  30.764  27.105  1.00  0.00    -0.352 N 
ATOM     27  C   UNL A   1      34.332  31.347  28.054  1.00  0.00     0.251 C 
ATOM     28  H   UNL A   1      32.788  31.328  26.785  1.00  0.00     0.163 HD
ATOM     29  O   UNL A   1      33.971  32.391  28.590  1.00  0.00    -0.269 OA
BRANCH  27  30
ATOM     30  C   UNL A   1      35.609  30.711  28.440  1.00  0.00     0.039 A 
ATOM     31  C   UNL A   1      36.787  31.108  27.801  1.00  0.00     0.014 A 
ATOM     32  C   UNL A   1      35.648  29.725  29.427  1.00  0.00     0.014 A 
ATOM     33  C   UNL A   1      38.005  30.557  28.201  1.00  0.00     0.010 A 
ATOM     34  C   UNL A   1      36.870  29.275  29.909  1.00  0.00     0.010 A 
ATOM     35  C   UNL A   1      38.062  29.668  29.287  1.00  0.00    -0.014 A 
BRANCH  35  36
ATOM     36  C   UNL A   1      39.352  29.108  29.766  1.00  0.00     0.031 A 
ATOM     37  C   UNL A   1      40.074  29.773  30.909  1.00  0.00     0.074 A 
ATOM     38  C   UNL A   1      39.894  28.047  29.136  1.00  0.00     0.049 A 
ATOM     39  N   UNL A   1      41.244  29.491  31.423  1.00  0.00    -0.248 NA
ATOM     40  C   UNL A   1      39.412  30.931  31.534  1.00  0.00     0.031 C 
ATOM     41  C   UNL A   1      39.305  27.353  27.988  1.00  0.00     0.029 A 
ATOM     42  N   UNL A   1      41.063  27.366  29.366  1.00  0.00    -0.354 N 
ATOM     43  C   UNL A   1      41.461  30.444  32.413  1.00  0.00     0.074 A 
ATOM     44  C   UNL A   1      40.337  31.352  32.381  1.00  0.00     0.031 C 
ATOM     45  C   UNL A   1      40.096  26.327  27.638  1.00  0.00     0.029 A 
ATOM     46  C   UNL A   1      41.277  26.323  28.494  1.00  0.00     0.049 A 
ATOM     47  H   UNL A   1      41.690  27.601  30.088  1.00  0.00     0.167 HD
ATOM     48  C   UNL A   1      42.494  30.537  33.286  1.00  0.00     0.034 A 
ATOM     49  C   UNL A   1      42.317  25.471  28.386  1.00  0.00     0.034 A 
ATOM     50  C   UNL A   1      43.593  29.604  33.316  1.00  0.00     0.049 A 
ATOM     51  C   UNL A   1      43.462  25.606  29.359  1.00  0.00     0.074 A 
ATOM     52  C   UNL A   1      44.657  29.560  34.199  1.00  0.00     0.029 A 
ATOM     53  N   UNL A   1      43.773  28.558  32.421  1.00  0.00    -0.354 N 
ATOM     54  N   UNL A   1      43.622  26.477  30.330  1.00  0.00    -0.248 NA
ATOM     55  C   UNL A   1      44.559  24.639  29.232  1.00  0.00     0.031 C 
ATOM     56  C   UNL A   1      45.523  28.544  33.787  1.00  0.00     0.029 A 
ATOM     57  C   UNL A   1      44.953  27.888  32.708  1.00  0.00     0.049 A 
ATOM     58  H   UNL A   1      43.155  28.326  31.691  1.00  0.00     0.167 HD
ATOM     59  C   UNL A   1      44.822  26.137  30.950  1.00  0.00     0.074 A 
ATOM     60  C   UNL A   1      45.331  24.973  30.256  1.00  0.00     0.031 C 
ATOM     61  C   UNL A   1      45.447  26.731  31.999  1.00  0.00     0.034 A 
BRANCH  48  62
ATOM     62  C   UNL A   1      42.497  31.694  34.256  1.00  0.00     0.023 A 
ATOM     63  C   UNL A   1      41.894  31.604  35.523  1.00  0.00     0.031 A 
ATOM     64  C   UNL A   1      43.117  32.907  33.907  1.00  0.00     0.131 A 
ATOM     65  C   UNL A   1      41.872  32.724  36.369  1.00  0.00     0.055 A 
ATOM     66  C   UNL A   1      43.163  33.990  34.786  1.00  0.00     0.041 A 
ATOM     67  F   UNL A   1      43.686  33.061  32.701  1.00  0.00    -0.206 F 
ATOM     68  C   UNL A   1      42.528  33.907  36.022  1.00  0.00     0.022 A 
BRANCH  65  69
ATOM     69  S   UNL A   1      40.864  32.655  37.875  1.00  0.00     0.124 S 
ATOM     70  O   UNL A   1      41.742  31.922  38.784  1.00  0.00    -0.237 OA
ATOM     71  O   UNL A   1      40.660  34.066  38.184  1.00  0.00    -0.237 OA
ATOM     72  O   UNL A   1      39.668  31.929  37.454  1.00  0.00    -0.744 OA
ENDBRANCH  65  69
ENDBRANCH  48  62
BRANCH  49  73
ATOM     73  C   UNL A   1      42.346  24.434  27.312  1.00  0.00     0.023 A 
ATOM     74  C   UNL A   1      41.546  23.281  27.392  1.00  0.00     0.031 A 
ATOM     75  C   UNL A   1      43.223  24.547  26.217  1.00  0.00     0.131 A 
ATOM     76  C   UNL A   1      41.688  22.263  26.437  1.00  0.00     0.055 A 
ATOM     77  C   UNL A   1      43.308  23.562  25.231  1.00  0.00     0.041 A 
ATOM     78  F   UNL A   1      44.011  25.626  26.087  1.00  0.00    -0.206 F 
ATOM     79  C   UNL A   1      42.550  22.402  25.348  1.00  0.00     0.022 A 
BRANCH  76  80
ATOM     80  S   UNL A   1      40.817  20.694  26.707  1.00  0.00     0.124 S 
ATOM     81  O   UNL A   1      39.489  20.999  26.186  1.00  0.00    -0.237 OA
ATOM     82  O   UNL A   1      41.618  19.763  25.920  1.00  0.00    -0.237 OA
ATOM     83  O   UNL A   1      40.893  20.509  28.155  1.00  0.00    -0.744 OA
ENDBRANCH  76  80
ENDBRANCH  49  73
BRANCH  61  84
ATOM     84  C   UNL A   1      46.723  26.092  32.490  1.00  0.00     0.023 A 
ATOM     85  C   UNL A   1      46.718  25.045  33.427  1.00  0.00     0.031 A 
ATOM     86  C   UNL A   1      47.966  26.545  32.013  1.00  0.00     0.131 A 
ATOM     87  C   UNL A   1      47.931  24.527  33.903  1.00  0.00     0.055 A 
ATOM     88  C   UNL A   1      49.168  25.977  32.435  1.00  0.00     0.041 A 
ATOM     89  F   UNL A   1      48.033  27.546  31.120  1.00  0.00    -0.206 F 
ATOM     90  C   UNL A   1      49.156  24.971  33.398  1.00  0.00     0.022 A 
BRANCH  87  91
ATOM     91  S   UNL A   1      47.891  23.341  35.274  1.00  0.00     0.124 S 
ATOM     92  O   UNL A   1      46.477  22.989  35.329  1.00  0.00    -0.237 OA
ATOM     93  O   UNL A   1      48.793  22.293  34.807  1.00  0.00    -0.237 OA
ATOM     94  O   UNL A   1      48.382  24.118  36.413  1.00  0.00    -0.744 OA
ENDBRANCH  87  91
ENDBRANCH  61  84
ENDBRANCH  35  36
ENDBRANCH  27  30
ENDBRANCH  25  26
ENDBRANCH  24  25
ENDBRANCH   1  24
TORSDOF 17
ENDMDL
MODEL 3
REMARK VINA RESULT:     -11.6      1.683      2.073
REMARK SMILES COC(=O)[C@H]1CCN(S(=O)(=O)N2CCC[C@H](C(=O)NCCCNC(=O)c3ccc(-c4c5nc(c(-c6cc(S(=O)(=O)[O-])ccc6F)c6ccc([nH]6)c(-c6cc(S(=O)(=O)[O-])ccc6F)c6nc(c(-c7cc(S(=O)(=O)[O-])ccc7F)c7ccc4[nH]7)C=C6)C=C5)cc3)C2)C1
REMARK SMILES IDX 20 1 19 2 17 3 18 4 16 6 12 7 13 8 89 9 14 10 15 11 9 12
REMARK SMILES IDX 10 13 11 14 8 15 5 16 6 17 90 18 7 19 3 20 4 21 2 22 1 23
REMARK SMILES IDX 21 24 22 25 23 26 24 27 25 29 26 30 27 31 88 32 28 33 87 34
REMARK SMILES IDX 29 35 30 36 31 37 81 38 32 39 86 40 80 41 82 42 33 43 85 44
REMARK SMILES IDX 79 45 78 46 34 48 66 49 46 50 65 51 47 52 50 53 64 54 83 55
REMARK SMILES IDX 48 56 49 57 63 59 84 60 51 61 35 62 36 63 44 64 37 65 43 66
REMARK SMILES IDX 45 67 42 68 38 69 39 70 40 71 41 72 67 73 68 74 76 75 69 76
REMARK SMILES IDX 75 77 77 78 74 79 70 80 71 81 72 82 73 83 52 84 53 85 61 86
REMARK SMILES IDX 54 87 60 88 62 89 59 90 55 91 56 92 57 93 58 94
REMARK H PARENT 19 5 23 28 82 47 50 58
REMARK Flexibility Score: inf
ROOT
ATOM      1  C   UNL A   1      32.224  30.244  27.012  1.00  0.00     0.117 C 
ENDROOT
BRANCH   1   2
ATOM      2  N   UNL A   1      33.019  29.765  25.904  1.00  0.00    -0.356 N 
ATOM      3  C   UNL A   1      32.698  29.055  24.798  1.00  0.00     0.224 C 
ATOM      4  O   UNL A   1      33.622  28.842  24.001  1.00  0.00    -0.275 OA
ATOM      5  H   UNL A   1      33.973  29.999  25.965  1.00  0.00     0.163 HD
BRANCH   3   6
ATOM      6  C   UNL A   1      31.306  28.509  24.475  1.00  0.00     0.094 C 
ATOM      7  N   UNL A   1      31.125  26.027  24.653  1.00  0.00    -0.188 NA
ATOM      8  C   UNL A   1      30.655  25.861  23.270  1.00  0.00     0.103 C 
ATOM      9  C   UNL A   1      30.858  27.317  25.306  1.00  0.00     0.117 C 
ATOM     10  C   UNL A   1      31.122  27.016  22.387  1.00  0.00     0.018 C 
ATOM     11  C   UNL A   1      30.934  28.397  22.999  1.00  0.00     0.016 C 
BRANCH   7  12
ATOM     12  S   UNL A   1      31.398  24.665  25.584  1.00  0.00     0.282 S 
ATOM     13  O   UNL A   1      31.091  23.488  24.808  1.00  0.00    -0.195 OA
ATOM     14  O   UNL A   1      30.785  24.878  26.877  1.00  0.00    -0.195 OA
BRANCH  12  15
ATOM     15  N   UNL A   1      33.074  24.703  25.825  1.00  0.00    -0.188 NA
ATOM     16  C   UNL A   1      34.637  22.997  25.082  1.00  0.00     0.116 C 
ATOM     17  C   UNL A   1      34.376  24.001  23.971  1.00  0.00     0.033 C 
ATOM     18  C   UNL A   1      33.630  23.348  26.177  1.00  0.00     0.118 C 
ATOM     19  C   UNL A   1      33.924  25.222  24.735  1.00  0.00     0.104 C 
BRANCH  16  20
ATOM     20  C   UNL A   1      34.503  21.547  24.687  1.00  0.00     0.310 C 
ATOM     21  O   UNL A   1      35.340  20.701  24.975  1.00  0.00    -0.252 OA
BRANCH  20  22
ATOM     22  O   UNL A   1      33.346  21.299  24.024  1.00  0.00    -0.469 OA
ATOM     23  C   UNL A   1      32.647  20.128  24.445  1.00  0.00     0.282 C 
ENDBRANCH  20  22
ENDBRANCH  16  20
ENDBRANCH  12  15
ENDBRANCH   7  12
ENDBRANCH   3   6
ENDBRANCH   1   2
BRANCH   1  24
ATOM     24  C   UNL A   1      31.876  31.715  26.883  1.00  0.00     0.042 C 
BRANCH  24  25
ATOM     25  C   UNL A   1      33.083  32.618  27.039  1.00  0.00     0.118 C 
BRANCH  25  26
ATOM     26  N   UNL A   1      32.724  33.924  27.577  1.00  0.00    -0.352 N 
ATOM     27  C   UNL A   1      33.148  34.559  28.719  1.00  0.00     0.251 C 
ATOM     28  H   UNL A   1      32.078  34.432  27.036  1.00  0.00     0.163 HD
ATOM     29  O   UNL A   1      32.558  35.565  29.103  1.00  0.00    -0.269 OA
BRANCH  27  30
ATOM     30  C   UNL A   1      34.289  34.022  29.489  1.00  0.00     0.039 A 
ATOM     31  C   UNL A   1      34.044  33.130  30.536  1.00  0.00     0.014 A 
ATOM     32  C   UNL A   1      35.599  34.397  29.183  1.00  0.00     0.014 A 
ATOM     33  C   UNL A   1      35.118  32.570  31.229  1.00  0.00     0.010 A 
ATOM     34  C   UNL A   1      36.665  33.744  29.787  1.00  0.00     0.010 A 
ATOM     35  C   UNL A   1      36.438  32.839  30.833  1.00  0.00    -0.014 A 
BRANCH  35  36
ATOM     36  C   UNL A   1      37.598  32.216  31.520  1.00  0.00     0.031 A 
ATOM     37  C   UNL A   1      38.349  31.096  30.849  1.00  0.00     0.074 A 
ATOM     38  C   UNL A   1      37.933  32.618  32.763  1.00  0.00     0.049 A 
ATOM     39  N   UNL A   1      39.334  30.369  31.309  1.00  0.00    -0.248 NA
ATOM     40  C   UNL A   1      37.912  30.718  29.493  1.00  0.00     0.031 C 
ATOM     41  C   UNL A   1      37.245  33.661  33.528  1.00  0.00     0.029 A 
ATOM     42  N   UNL A   1      38.930  32.196  33.606  1.00  0.00    -0.354 N 
ATOM     43  C   UNL A   1      39.618  29.441  30.311  1.00  0.00     0.074 A 
ATOM     44  C   UNL A   1      38.658  29.652  29.252  1.00  0.00     0.031 C 
ATOM     45  C   UNL A   1      37.862  33.821  34.709  1.00  0.00     0.029 A 
ATOM     46  C   UNL A   1      38.949  32.855  34.815  1.00  0.00     0.049 A 
ATOM     47  H   UNL A   1      39.572  31.489  33.369  1.00  0.00     0.167 HD
ATOM     48  C   UNL A   1      40.606  28.515  30.274  1.00  0.00     0.034 A 
ATOM     49  C   UNL A   1      39.742  32.686  35.892  1.00  0.00     0.034 A 
ATOM     50  C   UNL A   1      41.570  28.340  31.332  1.00  0.00     0.049 A 
ATOM     51  C   UNL A   1      40.825  31.636  35.830  1.00  0.00     0.074 A 
ATOM     52  C   UNL A   1      42.653  27.481  31.372  1.00  0.00     0.029 A 
ATOM     53  N   UNL A   1      41.561  29.028  32.538  1.00  0.00    -0.354 N 
ATOM     54  N   UNL A   1      41.118  30.808  34.852  1.00  0.00    -0.248 NA
ATOM     55  C   UNL A   1      41.690  31.505  37.009  1.00  0.00     0.031 C 
ATOM     56  C   UNL A   1      43.248  27.588  32.632  1.00  0.00     0.029 A 
ATOM     57  C   UNL A   1      42.598  28.584  33.344  1.00  0.00     0.049 A 
ATOM     58  H   UNL A   1      40.914  29.728  32.784  1.00  0.00     0.167 HD
ATOM     59  C   UNL A   1      42.225  30.084  35.288  1.00  0.00     0.074 A 
ATOM     60  C   UNL A   1      42.556  30.588  36.605  1.00  0.00     0.031 C 
ATOM     61  C   UNL A   1      42.909  29.095  34.658  1.00  0.00     0.034 A 
BRANCH  48  62
ATOM     62  C   UNL A   1      40.680  27.608  29.068  1.00  0.00     0.023 A 
ATOM     63  C   UNL A   1      41.616  27.812  28.040  1.00  0.00     0.031 A 
ATOM     64  C   UNL A   1      39.798  26.520  28.948  1.00  0.00     0.131 A 
ATOM     65  C   UNL A   1      41.610  26.978  26.911  1.00  0.00     0.055 A 
ATOM     66  C   UNL A   1      39.851  25.645  27.862  1.00  0.00     0.041 A 
ATOM     67  F   UNL A   1      38.864  26.290  29.885  1.00  0.00    -0.206 F 
ATOM     68  C   UNL A   1      40.753  25.878  26.828  1.00  0.00     0.022 A 
BRANCH  65  69
ATOM     69  S   UNL A   1      42.648  27.427  25.493  1.00  0.00     0.124 S 
ATOM     70  O   UNL A   1      41.922  28.569  24.945  1.00  0.00    -0.237 OA
ATOM     71  O   UNL A   1      43.930  27.726  26.122  1.00  0.00    -0.237 OA
ATOM     72  O   UNL A   1      42.627  26.226  24.659  1.00  0.00    -0.744 OA
ENDBRANCH  65  69
ENDBRANCH  48  62
BRANCH  49  73
ATOM     73  C   UNL A   1      39.538  33.502  37.126  1.00  0.00     0.023 A 
ATOM     74  C   UNL A   1      40.288  34.666  37.360  1.00  0.00     0.031 A 
ATOM     75  C   UNL A   1      38.634  33.093  38.124  1.00  0.00     0.131 A 
ATOM     76  C   UNL A   1      40.169  35.342  38.585  1.00  0.00     0.055 A 
ATOM     77  C   UNL A   1      38.469  33.809  39.311  1.00  0.00     0.041 A 
ATOM     78  F   UNL A   1      37.890  31.989  37.956  1.00  0.00    -0.206 F 
ATOM     79  C   UNL A   1      39.253  34.932  39.554  1.00  0.00     0.022 A 
BRANCH  76  80
ATOM     80  S   UNL A   1      41.323  36.695  38.944  1.00  0.00     0.124 S 
ATOM     81  O   UNL A   1      42.119  36.126  40.025  1.00  0.00    -0.237 OA
ATOM     82  O   UNL A   1      42.003  36.860  37.664  1.00  0.00    -0.237 OA
ATOM     83  O   UNL A   1      40.444  37.798  39.328  1.00  0.00    -0.744 OA
ENDBRANCH  76  80
ENDBRANCH  49  73
BRANCH  61  84
ATOM     84  C   UNL A   1      44.116  28.533  35.369  1.00  0.00     0.023 A 
ATOM     85  C   UNL A   1      44.006  27.513  36.328  1.00  0.00     0.031 A 
ATOM     86  C   UNL A   1      45.399  29.033  35.080  1.00  0.00     0.131 A 
ATOM     87  C   UNL A   1      45.147  27.068  37.010  1.00  0.00     0.055 A 
ATOM     88  C   UNL A   1      46.541  28.535  35.707  1.00  0.00     0.041 A 
ATOM     89  F   UNL A   1      45.565  30.010  34.174  1.00  0.00    -0.206 F 
ATOM     90  C   UNL A   1      46.417  27.557  36.691  1.00  0.00     0.022 A 
BRANCH  87  91
ATOM     91  S   UNL A   1      44.940  25.920  38.397  1.00  0.00     0.124 S 
ATOM     92  O   UNL A   1      44.036  26.662  39.271  1.00  0.00    -0.237 OA
ATOM     93  O   UNL A   1      44.374  24.742  37.747  1.00  0.00    -0.237 OA
ATOM     94  O   UNL A   1      46.299  25.752  38.909  1.00  0.00    -0.744 OA
ENDBRANCH  87  91
ENDBRANCH  61  84
ENDBRANCH  35  36
ENDBRANCH  27  30
ENDBRANCH  25  26
ENDBRANCH  24  25
ENDBRANCH   1  24
TORSDOF 17
ENDMDL
