MODEL 1
REMARK VINA RESULT:     -13.3      0.000      0.000
REMARK SMILES COc1ccccc1C(=O)N1[C@@H](C(=O)NCCCNC(=O)c2ccc(-c3c4nc(c(-c5cc(S(=O)(=O)[O-])ccc5F)c5ccc([nH]5)c(-c5cc(S(=O)(=O)[O-])ccc5F)c5nc(c(-c6cc(S(=O)(=O)[O-])ccc6F)c6ccc3[nH]6)C=C5)C=C4)cc2)COC12CC[NH+](Cc1ccccc1)CC2
REMARK SMILES IDX 17 1 16 2 15 3 13 4 14 5 12 7 11 8 87 9 85 10 86 11 88 12
REMARK SMILES IDX 99 13 89 14 98 15 90 16 9 18 10 19 8 20 3 21 4 22 5 23 7 24
REMARK SMILES IDX 6 25 2 26 1 27 91 28 92 29 93 30 97 31 94 32 96 33 95 34
REMARK SMILES IDX 18 35 19 36 20 37 21 39 22 40 23 41 84 42 24 43 83 44 25 45
REMARK SMILES IDX 26 46 27 47 77 48 28 49 82 50 76 51 78 52 29 53 81 54 75 55
REMARK SMILES IDX 74 56 30 58 62 59 42 60 61 61 43 62 46 63 60 64 79 65 44 66
REMARK SMILES IDX 45 67 59 69 80 70 47 71 31 72 32 73 40 74 33 75 39 76 41 77
REMARK SMILES IDX 38 78 34 79 35 80 36 81 37 82 63 83 64 84 72 85 65 86 71 87
REMARK SMILES IDX 73 88 70 89 66 90 67 91 68 92 69 93 48 94 49 95 57 96 50 97
REMARK SMILES IDX 56 98 58 99 55 100 51 101 52 102 53 103 54 104
REMARK H PARENT 15 6 90 17 19 38 78 57 46 68
REMARK Flexibility Score: inf
ROOT
ATOM      1  C   UNL A   1      32.082  30.360  25.401  1.00  0.00     0.042 C 
ENDROOT
BRANCH   1   2
ATOM      2  C   UNL A   1      32.423  28.893  25.254  1.00  0.00     0.117 C 
BRANCH   2   3
ATOM      3  N   UNL A   1      31.786  28.018  26.203  1.00  0.00    -0.354 N 
ATOM      4  C   UNL A   1      31.986  26.680  26.396  1.00  0.00     0.245 C 
ATOM      5  O   UNL A   1      31.444  26.182  27.388  1.00  0.00    -0.273 OA
ATOM      6  H   UNL A   1      31.118  28.440  26.792  1.00  0.00     0.163 HD
BRANCH   4   7
ATOM      7  C   UNL A   1      32.729  25.789  25.371  1.00  0.00     0.203 C 
ATOM      8  N   UNL A   1      32.050  24.575  24.921  1.00  0.00    -0.295 N 
ATOM      9  C   UNL A   1      32.896  23.400  25.211  1.00  0.00     0.155 C 
ATOM     10  C   UNL A   1      34.035  25.296  25.953  1.00  0.00     0.198 C 
ATOM     11  O   UNL A   1      33.822  23.896  26.222  1.00  0.00    -0.352 OA
ATOM     12  C   UNL A   1      32.167  22.162  25.752  1.00  0.00     0.120 C 
ATOM     13  C   UNL A   1      33.787  22.976  24.032  1.00  0.00     0.120 C 
ATOM     14  C   UNL A   1      33.126  21.033  26.110  1.00  0.00     0.267 C 
ATOM     15  C   UNL A   1      34.702  21.801  24.437  1.00  0.00     0.267 C 
ATOM     16  N   UNL A   1      34.011  20.653  25.015  1.00  0.00    -0.331 N 
ATOM     17  H   UNL A   1      34.763  20.110  25.442  1.00  0.00     0.348 HD
BRANCH   8  18
ATOM     18  C   UNL A   1      31.046  24.727  23.968  1.00  0.00     0.260 C 
ATOM     19  O   UNL A   1      30.619  23.751  23.343  1.00  0.00    -0.269 OA
BRANCH  18  20
ATOM     20  C   UNL A   1      30.499  26.047  23.548  1.00  0.00     0.082 A 
ATOM     21  C   UNL A   1      31.049  26.837  22.533  1.00  0.00     0.131 A 
ATOM     22  C   UNL A   1      30.462  28.053  22.151  1.00  0.00     0.047 A 
ATOM     23  C   UNL A   1      29.212  28.405  22.647  1.00  0.00     0.004 A 
ATOM     24  C   UNL A   1      29.217  26.398  24.004  1.00  0.00     0.018 A 
ATOM     25  C   UNL A   1      28.568  27.552  23.539  1.00  0.00     0.001 A 
BRANCH  21  26
ATOM     26  O   UNL A   1      32.099  26.413  21.762  1.00  0.00    -0.496 OA
ATOM     27  C   UNL A   1      33.267  27.151  22.149  1.00  0.00     0.278 C 
ENDBRANCH  21  26
ENDBRANCH  18  20
ENDBRANCH   8  18
BRANCH  16  28
ATOM     28  C   UNL A   1      33.512  19.619  24.103  1.00  0.00     0.299 C 
BRANCH  28  29
ATOM     29  C   UNL A   1      33.557  18.186  24.582  1.00  0.00     0.006 A 
ATOM     30  C   UNL A   1      32.465  17.609  25.236  1.00  0.00     0.009 A 
ATOM     31  C   UNL A   1      34.695  17.397  24.349  1.00  0.00     0.009 A 
ATOM     32  C   UNL A   1      32.494  16.261  25.594  1.00  0.00     0.001 A 
ATOM     33  C   UNL A   1      34.695  16.034  24.643  1.00  0.00     0.001 A 
ATOM     34  C   UNL A   1      33.588  15.464  25.261  1.00  0.00     0.000 A 
ENDBRANCH  28  29
ENDBRANCH  16  28
ENDBRANCH   4   7
ENDBRANCH   2   3
ENDBRANCH   1   2
BRANCH   1  35
ATOM     35  C   UNL A   1      32.171  30.785  26.856  1.00  0.00     0.118 C 
BRANCH  35  36
ATOM     36  N   UNL A   1      32.270  32.238  27.032  1.00  0.00    -0.352 N 
ATOM     37  C   UNL A   1      33.307  32.990  27.529  1.00  0.00     0.251 C 
ATOM     38  H   UNL A   1      31.477  32.749  26.752  1.00  0.00     0.163 HD
ATOM     39  O   UNL A   1      33.172  34.201  27.680  1.00  0.00    -0.269 OA
BRANCH  37  40
ATOM     40  C   UNL A   1      34.553  32.311  27.933  1.00  0.00     0.039 A 
ATOM     41  C   UNL A   1      35.743  33.039  27.985  1.00  0.00     0.014 A 
ATOM     42  C   UNL A   1      34.516  30.984  28.362  1.00  0.00     0.014 A 
ATOM     43  C   UNL A   1      36.873  32.460  28.563  1.00  0.00     0.010 A 
ATOM     44  C   UNL A   1      35.593  30.467  29.063  1.00  0.00     0.010 A 
ATOM     45  C   UNL A   1      36.790  31.192  29.161  1.00  0.00    -0.014 A 
BRANCH  45  46
ATOM     46  C   UNL A   1      37.942  30.577  29.868  1.00  0.00     0.031 A 
ATOM     47  C   UNL A   1      38.205  30.943  31.306  1.00  0.00     0.074 A 
ATOM     48  C   UNL A   1      38.797  29.778  29.198  1.00  0.00     0.049 A 
ATOM     49  N   UNL A   1      39.224  30.644  32.067  1.00  0.00    -0.248 NA
ATOM     50  C   UNL A   1      37.212  31.817  31.955  1.00  0.00     0.031 C 
ATOM     51  C   UNL A   1      38.688  29.412  27.783  1.00  0.00     0.029 A 
ATOM     52  N   UNL A   1      39.933  29.134  29.616  1.00  0.00    -0.354 N 
ATOM     53  C   UNL A   1      39.015  31.325  33.261  1.00  0.00     0.074 A 
ATOM     54  C   UNL A   1      37.820  32.120  33.089  1.00  0.00     0.031 C 
ATOM     55  C   UNL A   1      39.689  28.575  27.465  1.00  0.00     0.029 A 
ATOM     56  C   UNL A   1      40.539  28.384  28.635  1.00  0.00     0.049 A 
ATOM     57  H   UNL A   1      40.283  29.201  30.535  1.00  0.00     0.167 HD
ATOM     58  C   UNL A   1      39.731  31.264  34.411  1.00  0.00     0.034 A 
ATOM     59  C   UNL A   1      41.656  27.631  28.676  1.00  0.00     0.034 A 
ATOM     60  C   UNL A   1      40.888  30.421  34.576  1.00  0.00     0.049 A 
ATOM     61  C   UNL A   1      42.413  27.541  29.976  1.00  0.00     0.074 A 
ATOM     62  C   UNL A   1      41.652  30.215  35.710  1.00  0.00     0.029 A 
ATOM     63  N   UNL A   1      41.443  29.635  33.573  1.00  0.00    -0.354 N 
ATOM     64  N   UNL A   1      42.173  28.148  31.117  1.00  0.00    -0.248 NA
ATOM     65  C   UNL A   1      43.581  26.652  30.001  1.00  0.00     0.031 C 
ATOM     66  C   UNL A   1      42.698  29.347  35.380  1.00  0.00     0.029 A 
ATOM     67  C   UNL A   1      42.548  28.955  34.059  1.00  0.00     0.049 A 
ATOM     68  H   UNL A   1      41.100  29.569  32.653  1.00  0.00     0.167 HD
ATOM     69  C   UNL A   1      43.144  27.690  32.003  1.00  0.00     0.074 A 
ATOM     70  C   UNL A   1      43.959  26.743  31.268  1.00  0.00     0.031 C 
ATOM     71  C   UNL A   1      43.346  28.018  33.305  1.00  0.00     0.034 A 
BRANCH  58  72
ATOM     72  C   UNL A   1      39.277  32.137  35.559  1.00  0.00     0.023 A 
ATOM     73  C   UNL A   1      39.676  33.481  35.667  1.00  0.00     0.031 A 
ATOM     74  C   UNL A   1      38.479  31.606  36.588  1.00  0.00     0.131 A 
ATOM     75  C   UNL A   1      39.364  34.217  36.820  1.00  0.00     0.055 A 
ATOM     76  C   UNL A   1      38.091  32.373  37.688  1.00  0.00     0.041 A 
ATOM     77  F   UNL A   1      38.082  30.325  36.553  1.00  0.00    -0.206 F 
ATOM     78  C   UNL A   1      38.550  33.681  37.819  1.00  0.00     0.022 A 
BRANCH  75  79
ATOM     79  S   UNL A   1      40.176  35.820  37.068  1.00  0.00     0.124 S 
ATOM     80  O   UNL A   1      39.693  36.190  38.397  1.00  0.00    -0.237 OA
ATOM     81  O   UNL A   1      41.589  35.476  36.975  1.00  0.00    -0.237 OA
ATOM     82  O   UNL A   1      39.658  36.639  35.974  1.00  0.00    -0.744 OA
ENDBRANCH  75  79
ENDBRANCH  58  72
BRANCH  59  83
ATOM     83  C   UNL A   1      42.121  26.893  27.467  1.00  0.00     0.023 A 
ATOM     84  C   UNL A   1      41.900  25.512  27.335  1.00  0.00     0.031 A 
ATOM     85  C   UNL A   1      42.825  27.548  26.440  1.00  0.00     0.131 A 
ATOM     86  C   UNL A   1      42.420  24.821  26.229  1.00  0.00     0.055 A 
ATOM     87  C   UNL A   1      43.295  26.864  25.316  1.00  0.00     0.041 A 
ATOM     88  F   UNL A   1      43.056  28.868  26.510  1.00  0.00    -0.206 F 
ATOM     89  C   UNL A   1      43.105  25.490  25.213  1.00  0.00     0.022 A 
BRANCH  86  90
ATOM     90  S   UNL A   1      42.256  23.014  26.179  1.00  0.00     0.124 S 
ATOM     91  O   UNL A   1      42.765  22.707  24.848  1.00  0.00    -0.237 OA
ATOM     92  O   UNL A   1      43.098  22.604  27.299  1.00  0.00    -0.237 OA
ATOM     93  O   UNL A   1      40.823  22.798  26.367  1.00  0.00    -0.744 OA
ENDBRANCH  86  90
ENDBRANCH  59  83
BRANCH  71  94
ATOM     94  C   UNL A   1      44.464  27.303  34.021  1.00  0.00     0.023 A 
ATOM     95  C   UNL A   1      44.266  26.059  34.642  1.00  0.00     0.031 A 
ATOM     96  C   UNL A   1      45.741  27.887  34.094  1.00  0.00     0.131 A 
ATOM     97  C   UNL A   1      45.315  25.464  35.360  1.00  0.00     0.055 A 
ATOM     98  C   UNL A   1      46.797  27.261  34.756  1.00  0.00     0.041 A 
ATOM     99  F   UNL A   1      45.983  29.075  33.518  1.00  0.00    -0.206 F 
ATOM    100  C   UNL A   1      46.583  26.049  35.407  1.00  0.00     0.022 A 
BRANCH  97 101
ATOM    101  S   UNL A   1      44.969  23.963  36.317  1.00  0.00     0.124 S 
ATOM    102  O   UNL A   1      43.714  23.508  35.726  1.00  0.00    -0.237 OA
ATOM    103  O   UNL A   1      46.140  23.138  36.037  1.00  0.00    -0.237 OA
ATOM    104  O   UNL A   1      44.868  24.449  37.692  1.00  0.00    -0.744 OA
ENDBRANCH  97 101
ENDBRANCH  71  94
ENDBRANCH  45  46
ENDBRANCH  37  40
ENDBRANCH  35  36
ENDBRANCH   1  35
TORSDOF 18
ENDMDL
MODEL 2
REMARK VINA RESULT:     -12.9      4.657     10.300
REMARK SMILES COc1ccccc1C(=O)N1[C@@H](C(=O)NCCCNC(=O)c2ccc(-c3c4nc(c(-c5cc(S(=O)(=O)[O-])ccc5F)c5ccc([nH]5)c(-c5cc(S(=O)(=O)[O-])ccc5F)c5nc(c(-c6cc(S(=O)(=O)[O-])ccc6F)c6ccc3[nH]6)C=C5)C=C4)cc2)COC12CC[NH+](Cc1ccccc1)CC2
REMARK SMILES IDX 17 1 16 2 15 3 13 4 14 5 12 7 11 8 87 9 85 10 86 11 88 12
REMARK SMILES IDX 99 13 89 14 98 15 90 16 9 18 10 19 8 20 3 21 4 22 5 23 7 24
REMARK SMILES IDX 6 25 2 26 1 27 91 28 92 29 93 30 97 31 94 32 96 33 95 34
REMARK SMILES IDX 18 35 19 36 20 37 21 39 22 40 23 41 84 42 24 43 83 44 25 45
REMARK SMILES IDX 26 46 27 47 77 48 28 49 82 50 76 51 78 52 29 53 81 54 75 55
REMARK SMILES IDX 74 56 30 58 62 59 42 60 61 61 43 62 46 63 60 64 79 65 44 66
REMARK SMILES IDX 45 67 59 69 80 70 47 71 31 72 32 73 40 74 33 75 39 76 41 77
REMARK SMILES IDX 38 78 34 79 35 80 36 81 37 82 63 83 64 84 72 85 65 86 71 87
REMARK SMILES IDX 73 88 70 89 66 90 67 91 68 92 69 93 48 94 49 95 57 96 50 97
REMARK SMILES IDX 56 98 58 99 55 100 51 101 52 102 53 103 54 104
REMARK H PARENT 15 6 90 17 19 38 78 57 46 68
REMARK Flexibility Score: inf
ROOT
ATOM      1  C   UNL A   1      36.366  21.240  24.714  1.00  0.00     0.042 C 
ENDROOT
BRANCH   1   2
ATOM      2  C   UNL A   1      35.056  21.051  25.446  1.00  0.00     0.117 C 
BRANCH   2   3
ATOM      3  N   UNL A   1      34.956  21.737  26.709  1.00  0.00    -0.354 N 
ATOM      4  C   UNL A   1      34.003  22.623  27.124  1.00  0.00     0.245 C 
ATOM      5  O   UNL A   1      34.038  22.948  28.315  1.00  0.00    -0.273 OA
ATOM      6  H   UNL A   1      35.670  21.540  27.359  1.00  0.00     0.163 HD
BRANCH   4   7
ATOM      7  C   UNL A   1      33.010  23.302  26.149  1.00  0.00     0.203 C 
ATOM      8  N   UNL A   1      33.434  24.553  25.524  1.00  0.00    -0.295 N 
ATOM      9  C   UNL A   1      32.460  25.618  25.842  1.00  0.00     0.155 C 
ATOM     10  C   UNL A   1      31.727  23.656  26.869  1.00  0.00     0.198 C 
ATOM     11  O   UNL A   1      31.755  25.090  27.004  1.00  0.00    -0.352 OA
ATOM     12  C   UNL A   1      33.054  26.991  26.187  1.00  0.00     0.120 C 
ATOM     13  C   UNL A   1      31.375  25.801  24.769  1.00  0.00     0.120 C 
ATOM     14  C   UNL A   1      31.986  28.001  26.590  1.00  0.00     0.267 C 
ATOM     15  C   UNL A   1      30.349  26.866  25.210  1.00  0.00     0.267 C 
ATOM     16  N   UNL A   1      30.923  28.149  25.603  1.00  0.00    -0.331 N 
ATOM     17  H   UNL A   1      30.157  28.616  26.089  1.00  0.00     0.348 HD
BRANCH   8  18
ATOM     18  C   UNL A   1      34.321  24.458  24.455  1.00  0.00     0.260 C 
ATOM     19  O   UNL A   1      35.538  24.391  24.652  1.00  0.00    -0.269 OA
BRANCH  18  20
ATOM     20  C   UNL A   1      33.906  24.544  23.027  1.00  0.00     0.082 A 
ATOM     21  C   UNL A   1      33.497  23.446  22.262  1.00  0.00     0.131 A 
ATOM     22  C   UNL A   1      33.073  23.596  20.933  1.00  0.00     0.047 A 
ATOM     23  C   UNL A   1      32.872  24.868  20.410  1.00  0.00     0.004 A 
ATOM     24  C   UNL A   1      33.653  25.820  22.496  1.00  0.00     0.018 A 
ATOM     25  C   UNL A   1      33.117  25.981  21.209  1.00  0.00     0.001 A 
BRANCH  21  26
ATOM     26  O   UNL A   1      33.353  22.193  22.797  1.00  0.00    -0.496 OA
ATOM     27  C   UNL A   1      31.953  21.885  22.845  1.00  0.00     0.278 C 
ENDBRANCH  21  26
ENDBRANCH  18  20
ENDBRANCH   8  18
BRANCH  16  28
ATOM     28  C   UNL A   1      31.140  29.155  24.559  1.00  0.00     0.299 C 
BRANCH  28  29
ATOM     29  C   UNL A   1      29.916  29.749  23.900  1.00  0.00     0.006 A 
ATOM     30  C   UNL A   1      29.524  31.065  24.158  1.00  0.00     0.009 A 
ATOM     31  C   UNL A   1      29.164  28.990  22.987  1.00  0.00     0.009 A 
ATOM     32  C   UNL A   1      28.442  31.622  23.474  1.00  0.00     0.001 A 
ATOM     33  C   UNL A   1      28.129  29.569  22.254  1.00  0.00     0.001 A 
ATOM     34  C   UNL A   1      27.773  30.891  22.494  1.00  0.00     0.000 A 
ENDBRANCH  28  29
ENDBRANCH  16  28
ENDBRANCH   4   7
ENDBRANCH   2   3
ENDBRANCH   1   2
BRANCH   1  35
ATOM     35  C   UNL A   1      37.417  21.824  25.642  1.00  0.00     0.118 C 
BRANCH  35  36
ATOM     36  N   UNL A   1      38.563  20.935  25.856  1.00  0.00    -0.352 N 
ATOM     37  C   UNL A   1      39.784  21.204  26.427  1.00  0.00     0.251 C 
ATOM     38  H   UNL A   1      38.439  20.009  25.545  1.00  0.00     0.163 HD
ATOM     39  O   UNL A   1      40.659  20.342  26.443  1.00  0.00    -0.269 OA
BRANCH  37  40
ATOM     40  C   UNL A   1      40.042  22.554  26.961  1.00  0.00     0.039 A 
ATOM     41  C   UNL A   1      40.971  22.717  27.989  1.00  0.00     0.014 A 
ATOM     42  C   UNL A   1      39.441  23.664  26.368  1.00  0.00     0.014 A 
ATOM     43  C   UNL A   1      41.371  24.004  28.350  1.00  0.00     0.010 A 
ATOM     44  C   UNL A   1      39.944  24.928  26.627  1.00  0.00     0.010 A 
ATOM     45  C   UNL A   1      40.905  25.116  27.631  1.00  0.00    -0.014 A 
BRANCH  45  46
ATOM     46  C   UNL A   1      41.375  26.496  27.922  1.00  0.00     0.031 A 
ATOM     47  C   UNL A   1      42.774  26.896  27.529  1.00  0.00     0.074 A 
ATOM     48  C   UNL A   1      40.590  27.344  28.616  1.00  0.00     0.049 A 
ATOM     49  N   UNL A   1      43.436  27.987  27.811  1.00  0.00    -0.248 NA
ATOM     50  C   UNL A   1      43.553  25.904  26.768  1.00  0.00     0.031 C 
ATOM     51  C   UNL A   1      39.245  27.044  29.115  1.00  0.00     0.029 A 
ATOM     52  N   UNL A   1      40.812  28.632  29.030  1.00  0.00    -0.354 N 
ATOM     53  C   UNL A   1      44.715  27.792  27.300  1.00  0.00     0.074 A 
ATOM     54  C   UNL A   1      44.758  26.448  26.773  1.00  0.00     0.031 C 
ATOM     55  C   UNL A   1      38.748  28.130  29.727  1.00  0.00     0.029 A 
ATOM     56  C   UNL A   1      39.753  29.187  29.711  1.00  0.00     0.049 A 
ATOM     57  H   UNL A   1      41.652  29.116  28.856  1.00  0.00     0.167 HD
ATOM     58  C   UNL A   1      45.748  28.669  27.241  1.00  0.00     0.034 A 
ATOM     59  C   UNL A   1      39.613  30.409  30.261  1.00  0.00     0.034 A 
ATOM     60  C   UNL A   1      45.663  30.023  27.724  1.00  0.00     0.049 A 
ATOM     61  C   UNL A   1      40.757  31.384  30.146  1.00  0.00     0.074 A 
ATOM     62  C   UNL A   1      46.612  31.027  27.654  1.00  0.00     0.029 A 
ATOM     63  N   UNL A   1      44.554  30.566  28.363  1.00  0.00    -0.354 N 
ATOM     64  N   UNL A   1      41.944  31.205  29.610  1.00  0.00    -0.248 NA
ATOM     65  C   UNL A   1      40.537  32.728  30.692  1.00  0.00     0.031 C 
ATOM     66  C   UNL A   1      46.097  32.159  28.296  1.00  0.00     0.029 A 
ATOM     67  C   UNL A   1      44.801  31.886  28.705  1.00  0.00     0.049 A 
ATOM     68  H   UNL A   1      43.715  30.085  28.544  1.00  0.00     0.167 HD
ATOM     69  C   UNL A   1      42.602  32.427  29.730  1.00  0.00     0.074 A 
ATOM     70  C   UNL A   1      41.670  33.335  30.370  1.00  0.00     0.031 C 
ATOM     71  C   UNL A   1      43.858  32.770  29.346  1.00  0.00     0.034 A 
BRANCH  58  72
ATOM     72  C   UNL A   1      47.044  28.174  26.640  1.00  0.00     0.023 A 
ATOM     73  C   UNL A   1      47.275  28.205  25.253  1.00  0.00     0.031 A 
ATOM     74  C   UNL A   1      48.042  27.613  27.457  1.00  0.00     0.131 A 
ATOM     75  C   UNL A   1      48.420  27.599  24.716  1.00  0.00     0.055 A 
ATOM     76  C   UNL A   1      49.225  27.097  26.924  1.00  0.00     0.041 A 
ATOM     77  F   UNL A   1      47.873  27.535  28.786  1.00  0.00    -0.206 F 
ATOM     78  C   UNL A   1      49.411  27.069  25.545  1.00  0.00     0.022 A 
BRANCH  75  79
ATOM     79  S   UNL A   1      48.513  27.365  22.920  1.00  0.00     0.124 S 
ATOM     80  O   UNL A   1      47.426  28.224  22.457  1.00  0.00    -0.237 OA
ATOM     81  O   UNL A   1      49.862  27.820  22.611  1.00  0.00    -0.237 OA
ATOM     82  O   UNL A   1      48.280  25.932  22.749  1.00  0.00    -0.744 OA
ENDBRANCH  75  79
ENDBRANCH  58  72
BRANCH  59  83
ATOM     83  C   UNL A   1      38.349  30.790  30.954  1.00  0.00     0.023 A 
ATOM     84  C   UNL A   1      37.324  31.461  30.267  1.00  0.00     0.031 A 
ATOM     85  C   UNL A   1      38.160  30.523  32.322  1.00  0.00     0.131 A 
ATOM     86  C   UNL A   1      36.179  31.887  30.958  1.00  0.00     0.055 A 
ATOM     87  C   UNL A   1      36.995  30.904  32.993  1.00  0.00     0.041 A 
ATOM     88  F   UNL A   1      39.102  29.877  33.025  1.00  0.00    -0.206 F 
ATOM     89  C   UNL A   1      36.002  31.602  32.313  1.00  0.00     0.022 A 
BRANCH  86  90
ATOM     90  S   UNL A   1      34.955  32.895  30.074  1.00  0.00     0.124 S 
ATOM     91  O   UNL A   1      35.789  33.954  29.519  1.00  0.00    -0.237 OA
ATOM     92  O   UNL A   1      34.411  31.937  29.116  1.00  0.00    -0.237 OA
ATOM     93  O   UNL A   1      34.034  33.313  31.128  1.00  0.00    -0.744 OA
ENDBRANCH  86  90
ENDBRANCH  59  83
BRANCH  71  94
ATOM     94  C   UNL A   1      44.269  34.204  29.567  1.00  0.00     0.023 A 
ATOM     95  C   UNL A   1      44.169  35.166  28.548  1.00  0.00     0.031 A 
ATOM     96  C   UNL A   1      44.782  34.606  30.813  1.00  0.00     0.131 A 
ATOM     97  C   UNL A   1      44.632  36.471  28.774  1.00  0.00     0.055 A 
ATOM     98  C   UNL A   1      45.182  35.921  31.051  1.00  0.00     0.041 A 
ATOM     99  F   UNL A   1      44.899  33.726  31.820  1.00  0.00    -0.206 F 
ATOM    100  C   UNL A   1      45.121  36.858  30.024  1.00  0.00     0.022 A 
BRANCH  97 101
ATOM    101  S   UNL A   1      44.676  37.630  27.381  1.00  0.00     0.124 S 
ATOM    102  O   UNL A   1      43.312  37.541  26.868  1.00  0.00    -0.237 OA
ATOM    103  O   UNL A   1      45.031  38.887  28.031  1.00  0.00    -0.237 OA
ATOM    104  O   UNL A   1      45.706  37.073  26.505  1.00  0.00    -0.744 OA
ENDBRANCH  97 101
ENDBRANCH  71  94
ENDBRANCH  45  46
ENDBRANCH  37  40
ENDBRANCH  35  36
ENDBRANCH   1  35
TORSDOF 18
ENDMDL
MODEL 3
REMARK VINA RESULT:     -12.9      4.511     10.521
REMARK SMILES COc1ccccc1C(=O)N1[C@@H](C(=O)NCCCNC(=O)c2ccc(-c3c4nc(c(-c5cc(S(=O)(=O)[O-])ccc5F)c5ccc([nH]5)c(-c5cc(S(=O)(=O)[O-])ccc5F)c5nc(c(-c6cc(S(=O)(=O)[O-])ccc6F)c6ccc3[nH]6)C=C5)C=C4)cc2)COC12CC[NH+](Cc1ccccc1)CC2
REMARK SMILES IDX 17 1 16 2 15 3 13 4 14 5 12 7 11 8 87 9 85 10 86 11 88 12
REMARK SMILES IDX 99 13 89 14 98 15 90 16 9 18 10 19 8 20 3 21 4 22 5 23 7 24
REMARK SMILES IDX 6 25 2 26 1 27 91 28 92 29 93 30 97 31 94 32 96 33 95 34
REMARK SMILES IDX 18 35 19 36 20 37 21 39 22 40 23 41 84 42 24 43 83 44 25 45
REMARK SMILES IDX 26 46 27 47 77 48 28 49 82 50 76 51 78 52 29 53 81 54 75 55
REMARK SMILES IDX 74 56 30 58 62 59 42 60 61 61 43 62 46 63 60 64 79 65 44 66
REMARK SMILES IDX 45 67 59 69 80 70 47 71 31 72 32 73 40 74 33 75 39 76 41 77
REMARK SMILES IDX 38 78 34 79 35 80 36 81 37 82 63 83 64 84 72 85 65 86 71 87
REMARK SMILES IDX 73 88 70 89 66 90 67 91 68 92 69 93 48 94 49 95 57 96 50 97
REMARK SMILES IDX 56 98 58 99 55 100 51 101 52 102 53 103 54 104
REMARK H PARENT 15 6 90 17 19 38 78 57 46 68
REMARK Flexibility Score: inf
ROOT
ATOM      1  C   UNL A   1      36.634  22.076  26.086  1.00  0.00     0.042 C 
ENDROOT
BRANCH   1   2
ATOM      2  C   UNL A   1      35.474  21.703  25.189  1.00  0.00     0.117 C 
BRANCH   2   3
ATOM      3  N   UNL A   1      35.490  22.308  23.883  1.00  0.00    -0.354 N 
ATOM      4  C   UNL A   1      34.903  23.473  23.477  1.00  0.00     0.245 C 
ATOM      5  O   UNL A   1      35.200  23.872  22.346  1.00  0.00    -0.273 OA
ATOM      6  H   UNL A   1      35.990  21.817  23.190  1.00  0.00     0.163 HD
BRANCH   4   7
ATOM      7  C   UNL A   1      33.818  24.198  24.310  1.00  0.00     0.203 C 
ATOM      8  N   UNL A   1      32.560  24.518  23.639  1.00  0.00    -0.295 N 
ATOM      9  C   UNL A   1      32.318  25.974  23.712  1.00  0.00     0.155 C 
ATOM     10  C   UNL A   1      34.336  25.534  24.797  1.00  0.00     0.198 C 
ATOM     11  O   UNL A   1      33.637  26.517  24.008  1.00  0.00    -0.352 OA
ATOM     12  C   UNL A   1      31.771  26.630  22.436  1.00  0.00     0.120 C 
ATOM     13  C   UNL A   1      31.440  26.393  24.902  1.00  0.00     0.120 C 
ATOM     14  C   UNL A   1      31.639  28.143  22.572  1.00  0.00     0.267 C 
ATOM     15  C   UNL A   1      31.304  27.929  24.963  1.00  0.00     0.267 C 
ATOM     16  N   UNL A   1      30.849  28.556  23.725  1.00  0.00    -0.331 N 
ATOM     17  H   UNL A   1      31.060  29.545  23.866  1.00  0.00     0.348 HD
BRANCH   8  18
ATOM     18  C   UNL A   1      31.648  23.479  23.472  1.00  0.00     0.260 C 
ATOM     19  O   UNL A   1      30.470  23.715  23.188  1.00  0.00    -0.269 OA
BRANCH  18  20
ATOM     20  C   UNL A   1      31.972  22.048  23.728  1.00  0.00     0.082 A 
ATOM     21  C   UNL A   1      31.907  21.441  24.986  1.00  0.00     0.131 A 
ATOM     22  C   UNL A   1      32.181  20.076  25.157  1.00  0.00     0.047 A 
ATOM     23  C   UNL A   1      32.340  19.257  24.046  1.00  0.00     0.004 A 
ATOM     24  C   UNL A   1      32.091  21.196  22.616  1.00  0.00     0.018 A 
ATOM     25  C   UNL A   1      32.248  19.810  22.772  1.00  0.00     0.001 A 
BRANCH  21  26
ATOM     26  O   UNL A   1      31.440  22.099  26.093  1.00  0.00    -0.496 OA
ATOM     27  C   UNL A   1      32.534  22.274  27.006  1.00  0.00     0.278 C 
ENDBRANCH  21  26
ENDBRANCH  18  20
ENDBRANCH   8  18
BRANCH  16  28
ATOM     28  C   UNL A   1      29.405  28.690  23.512  1.00  0.00     0.299 C 
BRANCH  28  29
ATOM     29  C   UNL A   1      28.904  29.990  22.927  1.00  0.00     0.006 A 
ATOM     30  C   UNL A   1      28.978  31.184  23.650  1.00  0.00     0.009 A 
ATOM     31  C   UNL A   1      28.381  30.025  21.623  1.00  0.00     0.009 A 
ATOM     32  C   UNL A   1      28.591  32.387  23.060  1.00  0.00     0.001 A 
ATOM     33  C   UNL A   1      28.061  31.237  21.011  1.00  0.00     0.001 A 
ATOM     34  C   UNL A   1      28.174  32.421  21.730  1.00  0.00     0.000 A 
ENDBRANCH  28  29
ENDBRANCH  16  28
ENDBRANCH   4   7
ENDBRANCH   2   3
ENDBRANCH   1   2
BRANCH   1  35
ATOM     35  C   UNL A   1      37.932  22.102  25.296  1.00  0.00     0.118 C 
BRANCH  35  36
ATOM     36  N   UNL A   1      38.934  21.155  25.795  1.00  0.00    -0.352 N 
ATOM     37  C   UNL A   1      40.016  21.377  26.612  1.00  0.00     0.251 C 
ATOM     38  H   UNL A   1      38.813  20.223  25.501  1.00  0.00     0.163 HD
ATOM     39  O   UNL A   1      40.801  20.464  26.856  1.00  0.00    -0.269 OA
BRANCH  37  40
ATOM     40  C   UNL A   1      40.250  22.736  27.137  1.00  0.00     0.039 A 
ATOM     41  C   UNL A   1      41.171  22.922  28.168  1.00  0.00     0.014 A 
ATOM     42  C   UNL A   1      39.635  23.831  26.531  1.00  0.00     0.014 A 
ATOM     43  C   UNL A   1      41.548  24.219  28.521  1.00  0.00     0.010 A 
ATOM     44  C   UNL A   1      40.116  25.105  26.782  1.00  0.00     0.010 A 
ATOM     45  C   UNL A   1      41.069  25.317  27.790  1.00  0.00    -0.014 A 
BRANCH  45  46
ATOM     46  C   UNL A   1      41.515  26.706  28.072  1.00  0.00     0.031 A 
ATOM     47  C   UNL A   1      42.917  27.118  27.704  1.00  0.00     0.074 A 
ATOM     48  C   UNL A   1      40.705  27.554  28.737  1.00  0.00     0.049 A 
ATOM     49  N   UNL A   1      43.560  28.221  27.985  1.00  0.00    -0.248 NA
ATOM     50  C   UNL A   1      43.725  26.127  26.974  1.00  0.00     0.031 C 
ATOM     51  C   UNL A   1      39.353  27.243  29.210  1.00  0.00     0.029 A 
ATOM     52  N   UNL A   1      40.902  28.850  29.138  1.00  0.00    -0.354 N 
ATOM     53  C   UNL A   1      44.852  28.036  27.505  1.00  0.00     0.074 A 
ATOM     54  C   UNL A   1      44.923  26.685  26.997  1.00  0.00     0.031 C 
ATOM     55  C   UNL A   1      38.829  28.332  29.797  1.00  0.00     0.029 A 
ATOM     56  C   UNL A   1      39.821  29.400  29.788  1.00  0.00     0.049 A 
ATOM     57  H   UNL A   1      41.739  29.342  28.975  1.00  0.00     0.167 HD
ATOM     58  C   UNL A   1      45.875  28.925  27.456  1.00  0.00     0.034 A 
ATOM     59  C   UNL A   1      39.654  30.628  30.318  1.00  0.00     0.034 A 
ATOM     60  C   UNL A   1      45.762  30.285  27.919  1.00  0.00     0.049 A 
ATOM     61  C   UNL A   1      40.788  31.616  30.214  1.00  0.00     0.074 A 
ATOM     62  C   UNL A   1      46.700  31.299  27.856  1.00  0.00     0.029 A 
ATOM     63  N   UNL A   1      44.633  30.822  28.526  1.00  0.00    -0.354 N 
ATOM     64  N   UNL A   1      41.989  31.445  29.707  1.00  0.00    -0.248 NA
ATOM     65  C   UNL A   1      40.540  32.964  30.736  1.00  0.00     0.031 C 
ATOM     66  C   UNL A   1      46.158  32.433  28.471  1.00  0.00     0.029 A 
ATOM     67  C   UNL A   1      44.856  32.149  28.855  1.00  0.00     0.049 A 
ATOM     68  H   UNL A   1      43.796  30.332  28.695  1.00  0.00     0.167 HD
ATOM     69  C   UNL A   1      42.629  32.676  29.824  1.00  0.00     0.074 A 
ATOM     70  C   UNL A   1      41.672  33.581  30.431  1.00  0.00     0.031 C 
ATOM     71  C   UNL A   1      43.888  33.030  29.463  1.00  0.00     0.034 A 
BRANCH  58  72
ATOM     72  C   UNL A   1      47.190  28.438  26.890  1.00  0.00     0.023 A 
ATOM     73  C   UNL A   1      47.357  28.192  25.516  1.00  0.00     0.031 A 
ATOM     74  C   UNL A   1      48.276  28.164  27.741  1.00  0.00     0.131 A 
ATOM     75  C   UNL A   1      48.537  27.597  25.046  1.00  0.00     0.055 A 
ATOM     76  C   UNL A   1      49.484  27.661  27.254  1.00  0.00     0.041 A 
ATOM     77  F   UNL A   1      48.173  28.359  29.065  1.00  0.00    -0.206 F 
ATOM     78  C   UNL A   1      49.613  27.355  25.902  1.00  0.00     0.022 A 
BRANCH  75  79
ATOM     79  S   UNL A   1      48.578  26.991  23.337  1.00  0.00     0.124 S 
ATOM     80  O   UNL A   1      48.021  25.649  23.488  1.00  0.00    -0.237 OA
ATOM     81  O   UNL A   1      47.738  27.957  22.639  1.00  0.00    -0.237 OA
ATOM     82  O   UNL A   1      49.997  27.033  22.992  1.00  0.00    -0.744 OA
ENDBRANCH  75  79
ENDBRANCH  58  72
BRANCH  59  83
ATOM     83  C   UNL A   1      38.371  31.003  30.978  1.00  0.00     0.023 A 
ATOM     84  C   UNL A   1      37.346  31.636  30.255  1.00  0.00     0.031 A 
ATOM     85  C   UNL A   1      38.161  30.768  32.349  1.00  0.00     0.131 A 
ATOM     86  C   UNL A   1      36.180  32.057  30.914  1.00  0.00     0.055 A 
ATOM     87  C   UNL A   1      36.977  31.142  32.989  1.00  0.00     0.041 A 
ATOM     88  F   UNL A   1      39.103  30.158  33.085  1.00  0.00    -0.206 F 
ATOM     89  C   UNL A   1      35.984  31.804  32.273  1.00  0.00     0.022 A 
BRANCH  86  90
ATOM     90  S   UNL A   1      34.955  33.018  29.982  1.00  0.00     0.124 S 
ATOM     91  O   UNL A   1      35.790  34.034  29.354  1.00  0.00    -0.237 OA
ATOM     92  O   UNL A   1      34.394  32.007  29.091  1.00  0.00    -0.237 OA
ATOM     93  O   UNL A   1      34.047  33.507  31.018  1.00  0.00    -0.744 OA
ENDBRANCH  86  90
ENDBRANCH  59  83
BRANCH  71  94
ATOM     94  C   UNL A   1      44.277  34.472  29.673  1.00  0.00     0.023 A 
ATOM     95  C   UNL A   1      44.078  35.442  28.677  1.00  0.00     0.031 A 
ATOM     96  C   UNL A   1      44.868  34.873  30.884  1.00  0.00     0.131 A 
ATOM     97  C   UNL A   1      44.522  36.757  28.887  1.00  0.00     0.055 A 
ATOM     98  C   UNL A   1      45.250  36.195  31.110  1.00  0.00     0.041 A 
ATOM     99  F   UNL A   1      45.081  33.985  31.867  1.00  0.00    -0.206 F 
ATOM    100  C   UNL A   1      45.091  37.143  30.104  1.00  0.00     0.022 A 
BRANCH  97 101
ATOM    101  S   UNL A   1      44.434  37.932  27.510  1.00  0.00     0.124 S 
ATOM    102  O   UNL A   1      45.662  37.636  26.778  1.00  0.00    -0.237 OA
ATOM    103  O   UNL A   1      43.191  37.548  26.849  1.00  0.00    -0.237 OA
ATOM    104  O   UNL A   1      44.406  39.235  28.173  1.00  0.00    -0.744 OA
ENDBRANCH  97 101
ENDBRANCH  71  94
ENDBRANCH  45  46
ENDBRANCH  37  40
ENDBRANCH  35  36
ENDBRANCH   1  35
TORSDOF 18
ENDMDL
