MODEL 1
REMARK VINA RESULT:     -11.0      0.000      0.000
REMARK SMILES O=C(C[C@@H]1C[N@@H+](CCSc2ccccc2F)CCO1)NCCCNC(=O)c1ccc(-c2c3nc(c(-c4cc(S(=O)(=O)[O-])ccc4F)c4ccc([nH]4)c(-c4cc(S(=O)(=O)[O-])ccc4F)c4nc(c(-c5cc(S(=O)(=O)[O-])ccc5F)c5ccc2[nH]5)C=C4)C=C3)cc1
REMARK SMILES IDX 21 1 20 2 1 3 2 4 3 6 4 7 5 8 19 9 6 10 18 11 17 12 7 14
REMARK SMILES IDX 8 15 9 16 10 17 11 18 15 19 12 20 14 21 16 22 13 23 22 24
REMARK SMILES IDX 23 25 24 26 25 27 26 29 27 30 28 31 89 32 29 33 88 34 30 35
REMARK SMILES IDX 31 36 32 37 82 38 33 39 87 40 81 41 83 42 34 43 86 44 80 45
REMARK SMILES IDX 79 46 35 48 67 49 47 50 66 51 48 52 51 53 65 54 84 55 49 56
REMARK SMILES IDX 50 57 64 59 85 60 52 61 36 62 37 63 45 64 38 65 44 66 46 67
REMARK SMILES IDX 43 68 39 69 40 70 41 71 42 72 68 73 69 74 77 75 70 76 76 77
REMARK SMILES IDX 78 78 75 79 71 80 72 81 73 82 74 83 53 84 54 85 62 86 55 87
REMARK SMILES IDX 61 88 63 89 60 90 56 91 57 92 58 93 59 94
REMARK H PARENT 20 5 6 13 24 28 83 47 51 58
REMARK Flexibility Score: inf
ROOT
ATOM      1  C   UNL A   1      30.682  28.542  24.532  1.00  0.00     0.117 C 
ENDROOT
BRANCH   1   2
ATOM      2  N   UNL A   1      30.849  27.101  24.470  1.00  0.00    -0.356 N 
ATOM      3  O   UNL A   1      31.011  26.658  26.729  1.00  0.00    -0.275 OA
ATOM      4  C   UNL A   1      30.855  26.264  25.577  1.00  0.00     0.222 C 
ATOM      5  H   UNL A   1      30.964  26.690  23.584  1.00  0.00     0.163 HD
BRANCH   4   6
ATOM      6  C   UNL A   1      30.578  24.783  25.264  1.00  0.00     0.138 C 
BRANCH   6   7
ATOM      7  C   UNL A   1      31.818  24.240  24.553  1.00  0.00     0.182 C 
ATOM      8  C   UNL A   1      33.225  24.585  25.117  1.00  0.00     0.295 C 
ATOM      9  O   UNL A   1      31.653  24.832  23.250  1.00  0.00    -0.366 OA
ATOM     10  N   UNL A   1      34.348  24.348  24.158  1.00  0.00    -0.330 N 
ATOM     11  C   UNL A   1      32.675  24.399  22.386  1.00  0.00     0.222 C 
ATOM     12  C   UNL A   1      33.995  24.972  22.890  1.00  0.00     0.291 C 
ATOM     13  H   UNL A   1      35.155  24.779  24.607  1.00  0.00     0.348 HD
BRANCH  10  14
ATOM     14  C   UNL A   1      34.885  22.979  23.978  1.00  0.00     0.273 C 
BRANCH  14  15
ATOM     15  C   UNL A   1      35.073  21.879  25.120  1.00  0.00     0.136 C 
BRANCH  15  16
ATOM     16  S   UNL A   1      33.728  20.676  25.706  1.00  0.00    -0.117 SA
BRANCH  16  17
ATOM     17  C   UNL A   1      33.681  19.262  24.568  1.00  0.00     0.043 A 
ATOM     18  C   UNL A   1      34.586  18.191  24.631  1.00  0.00     0.018 A 
ATOM     19  C   UNL A   1      32.713  19.221  23.541  1.00  0.00     0.136 A 
ATOM     20  C   UNL A   1      34.434  17.072  23.782  1.00  0.00     0.001 A 
ATOM     21  C   UNL A   1      32.516  18.084  22.747  1.00  0.00     0.040 A 
ATOM     22  F   UNL A   1      31.856  20.240  23.375  1.00  0.00    -0.206 F 
ATOM     23  C   UNL A   1      33.371  16.996  22.879  1.00  0.00     0.003 A 
ENDBRANCH  16  17
ENDBRANCH  15  16
ENDBRANCH  14  15
ENDBRANCH  10  14
ENDBRANCH   6   7
ENDBRANCH   4   6
ENDBRANCH   1   2
BRANCH   1  24
ATOM     24  C   UNL A   1      31.990  29.327  24.458  1.00  0.00     0.042 C 
BRANCH  24  25
ATOM     25  C   UNL A   1      32.646  29.668  25.799  1.00  0.00     0.118 C 
BRANCH  25  26
ATOM     26  N   UNL A   1      32.429  31.044  26.229  1.00  0.00    -0.352 N 
ATOM     27  C   UNL A   1      33.112  31.836  27.131  1.00  0.00     0.251 C 
ATOM     28  H   UNL A   1      31.661  31.487  25.800  1.00  0.00     0.163 HD
ATOM     29  O   UNL A   1      32.671  32.954  27.371  1.00  0.00    -0.269 OA
BRANCH  27  30
ATOM     30  C   UNL A   1      34.344  31.367  27.824  1.00  0.00     0.039 A 
ATOM     31  C   UNL A   1      35.430  32.245  27.929  1.00  0.00     0.014 A 
ATOM     32  C   UNL A   1      34.472  30.069  28.324  1.00  0.00     0.014 A 
ATOM     33  C   UNL A   1      36.600  31.851  28.593  1.00  0.00     0.010 A 
ATOM     34  C   UNL A   1      35.613  29.701  29.047  1.00  0.00     0.010 A 
ATOM     35  C   UNL A   1      36.691  30.587  29.196  1.00  0.00    -0.014 A 
BRANCH  35  36
ATOM     36  C   UNL A   1      37.894  30.191  29.986  1.00  0.00     0.031 A 
ATOM     37  C   UNL A   1      38.899  29.218  29.422  1.00  0.00     0.074 A 
ATOM     38  C   UNL A   1      38.071  30.678  31.231  1.00  0.00     0.049 A 
ATOM     39  N   UNL A   1      39.972  28.721  29.984  1.00  0.00    -0.248 NA
ATOM     40  C   UNL A   1      38.658  28.724  28.057  1.00  0.00     0.031 C 
ATOM     41  C   UNL A   1      37.165  31.609  31.908  1.00  0.00     0.029 A 
ATOM     42  N   UNL A   1      39.071  30.466  32.153  1.00  0.00    -0.354 N 
ATOM     43  C   UNL A   1      40.531  27.857  29.048  1.00  0.00     0.074 A 
ATOM     44  C   UNL A   1      39.648  27.856  27.901  1.00  0.00     0.031 C 
ATOM     45  C   UNL A   1      37.668  31.916  33.114  1.00  0.00     0.029 A 
ATOM     46  C   UNL A   1      38.904  31.169  33.326  1.00  0.00     0.049 A 
ATOM     47  H   UNL A   1      39.833  29.866  31.989  1.00  0.00     0.167 HD
ATOM     48  C   UNL A   1      41.684  27.149  29.125  1.00  0.00     0.034 A 
ATOM     49  C   UNL A   1      39.650  31.205  34.449  1.00  0.00     0.034 A 
ATOM     50  C   UNL A   1      42.573  27.171  30.260  1.00  0.00     0.049 A 
ATOM     51  C   UNL A   1      40.902  30.371  34.531  1.00  0.00     0.074 A 
ATOM     52  C   UNL A   1      43.791  26.529  30.405  1.00  0.00     0.029 A 
ATOM     53  N   UNL A   1      42.343  27.861  31.440  1.00  0.00    -0.354 N 
ATOM     54  N   UNL A   1      41.420  29.576  33.626  1.00  0.00    -0.248 NA
ATOM     55  C   UNL A   1      41.666  30.430  35.786  1.00  0.00     0.031 C 
ATOM     56  C   UNL A   1      44.263  26.773  31.697  1.00  0.00     0.029 A 
ATOM     57  C   UNL A   1      43.378  27.630  32.332  1.00  0.00     0.049 A 
ATOM     58  H   UNL A   1      41.561  28.432  31.619  1.00  0.00     0.167 HD
ATOM     59  C   UNL A   1      42.581  29.058  34.193  1.00  0.00     0.074 A 
ATOM     60  C   UNL A   1      42.691  29.630  35.517  1.00  0.00     0.031 C 
ATOM     61  C   UNL A   1      43.475  28.192  33.656  1.00  0.00     0.034 A 
BRANCH  48  62
ATOM     62  C   UNL A   1      42.059  26.277  27.954  1.00  0.00     0.023 A 
ATOM     63  C   UNL A   1      41.707  24.917  27.909  1.00  0.00     0.031 A 
ATOM     64  C   UNL A   1      42.731  26.823  26.847  1.00  0.00     0.131 A 
ATOM     65  C   UNL A   1      42.062  24.140  26.797  1.00  0.00     0.055 A 
ATOM     66  C   UNL A   1      43.025  26.061  25.715  1.00  0.00     0.041 A 
ATOM     67  F   UNL A   1      43.103  28.114  26.843  1.00  0.00    -0.206 F 
ATOM     68  C   UNL A   1      42.696  24.709  25.689  1.00  0.00     0.022 A 
BRANCH  65  69
ATOM     69  S   UNL A   1      41.749  22.356  26.848  1.00  0.00     0.124 S 
ATOM     70  O   UNL A   1      42.804  21.899  27.749  1.00  0.00    -0.237 OA
ATOM     71  O   UNL A   1      40.389  22.287  27.371  1.00  0.00    -0.237 OA
ATOM     72  O   UNL A   1      41.904  21.940  25.456  1.00  0.00    -0.744 OA
ENDBRANCH  65  69
ENDBRANCH  48  62
BRANCH  49  73
ATOM     73  C   UNL A   1      39.224  32.057  35.596  1.00  0.00     0.023 A 
ATOM     74  C   UNL A   1      39.723  33.360  35.755  1.00  0.00     0.031 A 
ATOM     75  C   UNL A   1      38.302  31.580  36.545  1.00  0.00     0.131 A 
ATOM     76  C   UNL A   1      39.305  34.137  36.847  1.00  0.00     0.055 A 
ATOM     77  C   UNL A   1      37.861  32.372  37.607  1.00  0.00     0.041 A 
ATOM     78  F   UNL A   1      37.794  30.342  36.435  1.00  0.00    -0.206 F 
ATOM     79  C   UNL A   1      38.367  33.659  37.765  1.00  0.00     0.022 A 
BRANCH  76  80
ATOM     80  S   UNL A   1      40.029  35.787  37.071  1.00  0.00     0.124 S 
ATOM     81  O   UNL A   1      41.444  35.470  37.230  1.00  0.00    -0.237 OA
ATOM     82  O   UNL A   1      39.655  36.455  35.828  1.00  0.00    -0.237 OA
ATOM     83  O   UNL A   1      39.362  36.290  38.270  1.00  0.00    -0.744 OA
ENDBRANCH  76  80
ENDBRANCH  49  73
BRANCH  61  84
ATOM     84  C   UNL A   1      44.675  27.813  34.482  1.00  0.00     0.023 A 
ATOM     85  C   UNL A   1      44.682  26.657  35.280  1.00  0.00     0.031 A 
ATOM     86  C   UNL A   1      45.857  28.570  34.398  1.00  0.00     0.131 A 
ATOM     87  C   UNL A   1      45.848  26.294  35.969  1.00  0.00     0.055 A 
ATOM     88  C   UNL A   1      47.027  28.181  35.052  1.00  0.00     0.041 A 
ATOM     89  F   UNL A   1      45.902  29.681  33.644  1.00  0.00    -0.206 F 
ATOM     90  C   UNL A   1      47.026  27.037  35.844  1.00  0.00     0.022 A 
BRANCH  87  91
ATOM     91  S   UNL A   1      45.810  24.833  37.044  1.00  0.00     0.124 S 
ATOM     92  O   UNL A   1      45.830  25.435  38.372  1.00  0.00    -0.237 OA
ATOM     93  O   UNL A   1      44.560  24.186  36.656  1.00  0.00    -0.237 OA
ATOM     94  O   UNL A   1      47.021  24.104  36.674  1.00  0.00    -0.744 OA
ENDBRANCH  87  91
ENDBRANCH  61  84
ENDBRANCH  35  36
ENDBRANCH  27  30
ENDBRANCH  25  26
ENDBRANCH  24  25
ENDBRANCH   1  24
TORSDOF 18
ENDMDL
MODEL 2
REMARK VINA RESULT:     -10.9      5.682      9.224
REMARK SMILES O=C(C[C@@H]1C[N@@H+](CCSc2ccccc2F)CCO1)NCCCNC(=O)c1ccc(-c2c3nc(c(-c4cc(S(=O)(=O)[O-])ccc4F)c4ccc([nH]4)c(-c4cc(S(=O)(=O)[O-])ccc4F)c4nc(c(-c5cc(S(=O)(=O)[O-])ccc5F)c5ccc2[nH]5)C=C4)C=C3)cc1
REMARK SMILES IDX 21 1 20 2 1 3 2 4 3 6 4 7 5 8 19 9 6 10 18 11 17 12 7 14
REMARK SMILES IDX 8 15 9 16 10 17 11 18 15 19 12 20 14 21 16 22 13 23 22 24
REMARK SMILES IDX 23 25 24 26 25 27 26 29 27 30 28 31 89 32 29 33 88 34 30 35
REMARK SMILES IDX 31 36 32 37 82 38 33 39 87 40 81 41 83 42 34 43 86 44 80 45
REMARK SMILES IDX 79 46 35 48 67 49 47 50 66 51 48 52 51 53 65 54 84 55 49 56
REMARK SMILES IDX 50 57 64 59 85 60 52 61 36 62 37 63 45 64 38 65 44 66 46 67
REMARK SMILES IDX 43 68 39 69 40 70 41 71 42 72 68 73 69 74 77 75 70 76 76 77
REMARK SMILES IDX 78 78 75 79 71 80 72 81 73 82 74 83 53 84 54 85 62 86 55 87
REMARK SMILES IDX 61 88 63 89 60 90 56 91 57 92 58 93 59 94
REMARK H PARENT 20 5 6 13 24 28 83 47 51 58
REMARK Flexibility Score: inf
ROOT
ATOM      1  C   UNL A   1      37.073  21.070  24.729  1.00  0.00     0.117 C 
ENDROOT
BRANCH   1   2
ATOM      2  N   UNL A   1      36.300  21.529  25.870  1.00  0.00    -0.356 N 
ATOM      3  O   UNL A   1      36.552  23.805  25.586  1.00  0.00    -0.275 OA
ATOM      4  C   UNL A   1      35.985  22.857  26.121  1.00  0.00     0.222 C 
ATOM      5  H   UNL A   1      35.978  20.853  26.508  1.00  0.00     0.163 HD
BRANCH   4   6
ATOM      6  C   UNL A   1      34.803  23.065  27.084  1.00  0.00     0.138 C 
BRANCH   6   7
ATOM      7  C   UNL A   1      33.574  23.354  26.222  1.00  0.00     0.182 C 
ATOM      8  C   UNL A   1      32.241  23.753  26.915  1.00  0.00     0.295 C 
ATOM      9  O   UNL A   1      33.420  22.087  25.554  1.00  0.00    -0.366 OA
ATOM     10  N   UNL A   1      31.032  23.631  26.043  1.00  0.00    -0.330 N 
ATOM     11  C   UNL A   1      32.358  22.148  24.633  1.00  0.00     0.222 C 
ATOM     12  C   UNL A   1      31.060  22.315  25.418  1.00  0.00     0.291 C 
ATOM     13  H   UNL A   1      30.248  23.754  26.683  1.00  0.00     0.348 HD
BRANCH  10  14
ATOM     14  C   UNL A   1      30.713  24.705  25.075  1.00  0.00     0.273 C 
BRANCH  14  15
ATOM     15  C   UNL A   1      30.427  26.238  25.421  1.00  0.00     0.136 C 
BRANCH  15  16
ATOM     16  S   UNL A   1      31.144  27.720  24.479  1.00  0.00    -0.117 SA
BRANCH  16  17
ATOM     17  C   UNL A   1      32.310  28.586  25.566  1.00  0.00     0.043 A 
ATOM     18  C   UNL A   1      31.962  29.710  26.331  1.00  0.00     0.018 A 
ATOM     19  C   UNL A   1      33.650  28.147  25.650  1.00  0.00     0.136 A 
ATOM     20  C   UNL A   1      32.887  30.279  27.235  1.00  0.00     0.001 A 
ATOM     21  C   UNL A   1      34.545  28.662  26.595  1.00  0.00     0.040 A 
ATOM     22  F   UNL A   1      34.076  27.120  24.899  1.00  0.00    -0.206 F 
ATOM     23  C   UNL A   1      34.158  29.723  27.405  1.00  0.00     0.003 A 
ENDBRANCH  16  17
ENDBRANCH  15  16
ENDBRANCH  14  15
ENDBRANCH  10  14
ENDBRANCH   6   7
ENDBRANCH   4   6
ENDBRANCH   1   2
BRANCH   1  24
ATOM     24  C   UNL A   1      38.040  19.932  25.047  1.00  0.00     0.042 C 
BRANCH  24  25
ATOM     25  C   UNL A   1      39.150  20.253  26.053  1.00  0.00     0.118 C 
BRANCH  25  26
ATOM     26  N   UNL A   1      40.301  19.363  25.965  1.00  0.00    -0.352 N 
ATOM     27  C   UNL A   1      41.656  19.613  26.060  1.00  0.00     0.251 C 
ATOM     28  H   UNL A   1      40.073  18.418  25.811  1.00  0.00     0.163 HD
ATOM     29  O   UNL A   1      42.432  18.684  25.871  1.00  0.00    -0.269 OA
BRANCH  27  30
ATOM     30  C   UNL A   1      42.192  20.969  26.364  1.00  0.00     0.039 A 
ATOM     31  C   UNL A   1      42.407  21.858  25.303  1.00  0.00     0.014 A 
ATOM     32  C   UNL A   1      42.536  21.364  27.658  1.00  0.00     0.014 A 
ATOM     33  C   UNL A   1      42.890  23.152  25.547  1.00  0.00     0.010 A 
ATOM     34  C   UNL A   1      42.951  22.678  27.909  1.00  0.00     0.010 A 
ATOM     35  C   UNL A   1      43.129  23.591  26.858  1.00  0.00    -0.014 A 
BRANCH  35  36
ATOM     36  C   UNL A   1      43.553  24.995  27.139  1.00  0.00     0.031 A 
ATOM     37  C   UNL A   1      44.970  25.439  26.875  1.00  0.00     0.074 A 
ATOM     38  C   UNL A   1      42.672  25.870  27.667  1.00  0.00     0.049 A 
ATOM     39  N   UNL A   1      45.528  26.601  27.107  1.00  0.00    -0.248 NA
ATOM     40  C   UNL A   1      45.884  24.445  26.294  1.00  0.00     0.031 C 
ATOM     41  C   UNL A   1      41.276  25.568  27.992  1.00  0.00     0.029 A 
ATOM     42  N   UNL A   1      42.811  27.193  28.020  1.00  0.00    -0.354 N 
ATOM     43  C   UNL A   1      46.853  26.477  26.705  1.00  0.00     0.074 A 
ATOM     44  C   UNL A   1      47.031  25.110  26.265  1.00  0.00     0.031 C 
ATOM     45  C   UNL A   1      40.681  26.678  28.458  1.00  0.00     0.029 A 
ATOM     46  C   UNL A   1      41.658  27.760  28.517  1.00  0.00     0.049 A 
ATOM     47  H   UNL A   1      43.657  27.687  27.928  1.00  0.00     0.167 HD
ATOM     48  C   UNL A   1      47.827  27.420  26.682  1.00  0.00     0.034 A 
ATOM     49  C   UNL A   1      41.412  29.004  28.977  1.00  0.00     0.034 A 
ATOM     50  C   UNL A   1      47.640  28.788  27.098  1.00  0.00     0.049 A 
ATOM     51  C   UNL A   1      42.522  30.021  28.988  1.00  0.00     0.074 A 
ATOM     52  C   UNL A   1      48.553  29.828  27.057  1.00  0.00     0.029 A 
ATOM     53  N   UNL A   1      46.470  29.305  27.634  1.00  0.00    -0.354 N 
ATOM     54  N   UNL A   1      43.763  29.887  28.585  1.00  0.00    -0.248 NA
ATOM     55  C   UNL A   1      42.205  31.355  29.520  1.00  0.00     0.031 C 
ATOM     56  C   UNL A   1      47.960  30.953  27.633  1.00  0.00     0.029 A 
ATOM     57  C   UNL A   1      46.652  30.640  27.963  1.00  0.00     0.049 A 
ATOM     58  H   UNL A   1      45.635  28.801  27.762  1.00  0.00     0.167 HD
ATOM     59  C   UNL A   1      44.368  31.122  28.796  1.00  0.00     0.074 A 
ATOM     60  C   UNL A   1      43.359  31.992  29.359  1.00  0.00     0.031 C 
ATOM     61  C   UNL A   1      45.645  31.498  28.537  1.00  0.00     0.034 A 
BRANCH  48  62
ATOM     62  C   UNL A   1      49.194  27.013  26.195  1.00  0.00     0.023 A 
ATOM     63  C   UNL A   1      49.662  27.388  24.924  1.00  0.00     0.031 A 
ATOM     64  C   UNL A   1      50.059  26.286  27.031  1.00  0.00     0.131 A 
ATOM     65  C   UNL A   1      50.945  27.001  24.511  1.00  0.00     0.055 A 
ATOM     66  C   UNL A   1      51.359  25.959  26.639  1.00  0.00     0.041 A 
ATOM     67  F   UNL A   1      49.658  25.891  28.250  1.00  0.00    -0.206 F 
ATOM     68  C   UNL A   1      51.805  26.312  25.369  1.00  0.00     0.022 A 
BRANCH  65  69
ATOM     69  S   UNL A   1      51.449  27.348  22.805  1.00  0.00     0.124 S 
ATOM     70  O   UNL A   1      50.245  26.983  22.064  1.00  0.00    -0.237 OA
ATOM     71  O   UNL A   1      51.764  28.771  22.850  1.00  0.00    -0.237 OA
ATOM     72  O   UNL A   1      52.593  26.462  22.598  1.00  0.00    -0.744 OA
ENDBRANCH  65  69
ENDBRANCH  48  62
BRANCH  49  73
ATOM     73  C   UNL A   1      40.052  29.354  29.480  1.00  0.00     0.023 A 
ATOM     74  C   UNL A   1      39.771  29.373  30.855  1.00  0.00     0.031 A 
ATOM     75  C   UNL A   1      39.017  29.686  28.587  1.00  0.00     0.131 A 
ATOM     76  C   UNL A   1      38.479  29.703  31.298  1.00  0.00     0.055 A 
ATOM     77  C   UNL A   1      37.746  30.052  29.035  1.00  0.00     0.041 A 
ATOM     78  F   UNL A   1      39.237  29.686  27.262  1.00  0.00    -0.206 F 
ATOM     79  C   UNL A   1      37.470  30.057  30.399  1.00  0.00     0.022 A 
BRANCH  76  80
ATOM     80  S   UNL A   1      38.124  29.639  33.076  1.00  0.00     0.124 S 
ATOM     81  O   UNL A   1      37.221  28.496  33.156  1.00  0.00    -0.237 OA
ATOM     82  O   UNL A   1      39.455  29.450  33.646  1.00  0.00    -0.237 OA
ATOM     83  O   UNL A   1      37.513  30.938  33.348  1.00  0.00    -0.744 OA
ENDBRANCH  76  80
ENDBRANCH  49  73
BRANCH  61  84
ATOM     84  C   UNL A   1      46.037  32.921  28.834  1.00  0.00     0.023 A 
ATOM     85  C   UNL A   1      45.847  33.946  27.894  1.00  0.00     0.031 A 
ATOM     86  C   UNL A   1      46.521  33.267  30.109  1.00  0.00     0.131 A 
ATOM     87  C   UNL A   1      46.148  35.272  28.240  1.00  0.00     0.055 A 
ATOM     88  C   UNL A   1      46.778  34.592  30.461  1.00  0.00     0.041 A 
ATOM     89  F   UNL A   1      46.714  32.322  31.044  1.00  0.00    -0.206 F 
ATOM     90  C   UNL A   1      46.592  35.603  29.524  1.00  0.00     0.022 A 
BRANCH  87  91
ATOM     91  S   UNL A   1      45.955  36.569  26.986  1.00  0.00     0.124 S 
ATOM     92  O   UNL A   1      44.504  36.649  26.856  1.00  0.00    -0.237 OA
ATOM     93  O   UNL A   1      46.602  37.716  27.615  1.00  0.00    -0.237 OA
ATOM     94  O   UNL A   1      46.654  36.029  25.823  1.00  0.00    -0.744 OA
ENDBRANCH  87  91
ENDBRANCH  61  84
ENDBRANCH  35  36
ENDBRANCH  27  30
ENDBRANCH  25  26
ENDBRANCH  24  25
ENDBRANCH   1  24
TORSDOF 18
ENDMDL
MODEL 3
REMARK VINA RESULT:     -10.9      1.668      7.647
REMARK SMILES O=C(C[C@@H]1C[N@@H+](CCSc2ccccc2F)CCO1)NCCCNC(=O)c1ccc(-c2c3nc(c(-c4cc(S(=O)(=O)[O-])ccc4F)c4ccc([nH]4)c(-c4cc(S(=O)(=O)[O-])ccc4F)c4nc(c(-c5cc(S(=O)(=O)[O-])ccc5F)c5ccc2[nH]5)C=C4)C=C3)cc1
REMARK SMILES IDX 21 1 20 2 1 3 2 4 3 6 4 7 5 8 19 9 6 10 18 11 17 12 7 14
REMARK SMILES IDX 8 15 9 16 10 17 11 18 15 19 12 20 14 21 16 22 13 23 22 24
REMARK SMILES IDX 23 25 24 26 25 27 26 29 27 30 28 31 89 32 29 33 88 34 30 35
REMARK SMILES IDX 31 36 32 37 82 38 33 39 87 40 81 41 83 42 34 43 86 44 80 45
REMARK SMILES IDX 79 46 35 48 67 49 47 50 66 51 48 52 51 53 65 54 84 55 49 56
REMARK SMILES IDX 50 57 64 59 85 60 52 61 36 62 37 63 45 64 38 65 44 66 46 67
REMARK SMILES IDX 43 68 39 69 40 70 41 71 42 72 68 73 69 74 77 75 70 76 76 77
REMARK SMILES IDX 78 78 75 79 71 80 72 81 73 82 74 83 53 84 54 85 62 86 55 87
REMARK SMILES IDX 61 88 63 89 60 90 56 91 57 92 58 93 59 94
REMARK H PARENT 20 5 6 13 24 28 83 47 51 58
REMARK Flexibility Score: inf
ROOT
ATOM      1  C   UNL A   1      30.660  28.437  24.462  1.00  0.00     0.117 C 
ENDROOT
BRANCH   1   2
ATOM      2  N   UNL A   1      30.671  26.995  24.638  1.00  0.00    -0.356 N 
ATOM      3  O   UNL A   1      31.168  26.910  26.889  1.00  0.00    -0.275 OA
ATOM      4  C   UNL A   1      30.781  26.356  25.865  1.00  0.00     0.222 C 
ATOM      5  H   UNL A   1      30.593  26.434  23.834  1.00  0.00     0.163 HD
BRANCH   4   6
ATOM      6  C   UNL A   1      30.310  24.892  25.870  1.00  0.00     0.138 C 
BRANCH   6   7
ATOM      7  C   UNL A   1      31.504  24.039  25.441  1.00  0.00     0.182 C 
ATOM      8  C   UNL A   1      32.816  24.100  26.272  1.00  0.00     0.295 C 
ATOM      9  O   UNL A   1      31.736  24.561  24.118  1.00  0.00    -0.366 OA
ATOM     10  N   UNL A   1      34.017  23.554  25.569  1.00  0.00    -0.330 N 
ATOM     11  C   UNL A   1      32.777  23.854  23.491  1.00  0.00     0.222 C 
ATOM     12  C   UNL A   1      34.071  24.152  24.241  1.00  0.00     0.291 C 
ATOM     13  H   UNL A   1      34.800  23.826  26.163  1.00  0.00     0.348 HD
BRANCH  10  14
ATOM     14  C   UNL A   1      34.247  22.091  25.534  1.00  0.00     0.273 C 
BRANCH  14  15
ATOM     15  C   UNL A   1      33.146  20.955  25.745  1.00  0.00     0.136 C 
BRANCH  15  16
ATOM     16  S   UNL A   1      32.526  19.774  24.396  1.00  0.00    -0.117 SA
BRANCH  16  17
ATOM     17  C   UNL A   1      33.045  18.087  24.822  1.00  0.00     0.043 A 
ATOM     18  C   UNL A   1      32.168  17.115  25.329  1.00  0.00     0.018 A 
ATOM     19  C   UNL A   1      34.397  17.710  24.670  1.00  0.00     0.136 A 
ATOM     20  C   UNL A   1      32.611  15.791  25.546  1.00  0.00     0.001 A 
ATOM     21  C   UNL A   1      34.822  16.383  24.814  1.00  0.00     0.040 A 
ATOM     22  F   UNL A   1      35.308  18.602  24.253  1.00  0.00    -0.206 F 
ATOM     23  C   UNL A   1      33.920  15.414  25.239  1.00  0.00     0.003 A 
ENDBRANCH  16  17
ENDBRANCH  15  16
ENDBRANCH  14  15
ENDBRANCH  10  14
ENDBRANCH   6   7
ENDBRANCH   4   6
ENDBRANCH   1   2
BRANCH   1  24
ATOM     24  C   UNL A   1      32.012  29.028  24.066  1.00  0.00     0.042 C 
BRANCH  24  25
ATOM     25  C   UNL A   1      32.923  29.456  25.222  1.00  0.00     0.118 C 
BRANCH  25  26
ATOM     26  N   UNL A   1      32.521  30.706  25.856  1.00  0.00    -0.352 N 
ATOM     27  C   UNL A   1      33.055  31.398  26.926  1.00  0.00     0.251 C 
ATOM     28  H   UNL A   1      31.731  31.132  25.451  1.00  0.00     0.163 HD
ATOM     29  O   UNL A   1      32.473  32.403  27.315  1.00  0.00    -0.269 OA
BRANCH  27  30
ATOM     30  C   UNL A   1      34.293  30.949  27.622  1.00  0.00     0.039 A 
ATOM     31  C   UNL A   1      35.283  31.898  27.906  1.00  0.00     0.014 A 
ATOM     32  C   UNL A   1      34.522  29.612  27.951  1.00  0.00     0.014 A 
ATOM     33  C   UNL A   1      36.454  31.522  28.579  1.00  0.00     0.010 A 
ATOM     34  C   UNL A   1      35.659  29.250  28.685  1.00  0.00     0.010 A 
ATOM     35  C   UNL A   1      36.638  30.200  29.014  1.00  0.00    -0.014 A 
BRANCH  35  36
ATOM     36  C   UNL A   1      37.837  29.808  29.813  1.00  0.00     0.031 A 
ATOM     37  C   UNL A   1      38.018  30.308  31.224  1.00  0.00     0.074 A 
ATOM     38  C   UNL A   1      38.787  29.026  29.260  1.00  0.00     0.049 A 
ATOM     39  N   UNL A   1      39.019  30.114  32.046  1.00  0.00    -0.248 NA
ATOM     40  C   UNL A   1      36.948  31.152  31.777  1.00  0.00     0.031 C 
ATOM     41  C   UNL A   1      38.749  28.490  27.897  1.00  0.00     0.029 A 
ATOM     42  N   UNL A   1      39.968  28.540  29.770  1.00  0.00    -0.354 N 
ATOM     43  C   UNL A   1      38.702  30.811  33.207  1.00  0.00     0.074 A 
ATOM     44  C   UNL A   1      37.441  31.478  32.964  1.00  0.00     0.031 C 
ATOM     45  C   UNL A   1      39.831  27.722  27.695  1.00  0.00     0.029 A 
ATOM     46  C   UNL A   1      40.670  27.747  28.888  1.00  0.00     0.049 A 
ATOM     47  H   UNL A   1      40.284  28.740  30.680  1.00  0.00     0.167 HD
ATOM     48  C   UNL A   1      39.385  30.871  34.377  1.00  0.00     0.034 A 
ATOM     49  C   UNL A   1      41.857  27.118  29.016  1.00  0.00     0.034 A 
ATOM     50  C   UNL A   1      40.629  30.185  34.624  1.00  0.00     0.049 A 
ATOM     51  C   UNL A   1      42.622  27.240  30.308  1.00  0.00     0.074 A 
ATOM     52  C   UNL A   1      41.365  30.143  35.796  1.00  0.00     0.029 A 
ATOM     53  N   UNL A   1      41.324  29.431  33.690  1.00  0.00    -0.354 N 
ATOM     54  N   UNL A   1      42.293  27.889  31.399  1.00  0.00    -0.248 NA
ATOM     55  C   UNL A   1      43.920  26.552  30.386  1.00  0.00     0.031 C 
ATOM     56  C   UNL A   1      42.537  29.424  35.551  1.00  0.00     0.029 A 
ATOM     57  C   UNL A   1      42.498  28.952  34.249  1.00  0.00     0.049 A 
ATOM     58  H   UNL A   1      41.027  29.261  32.767  1.00  0.00     0.167 HD
ATOM     59  C   UNL A   1      43.332  27.671  32.299  1.00  0.00     0.074 A 
ATOM     60  C   UNL A   1      44.298  26.829  31.628  1.00  0.00     0.031 C 
ATOM     61  C   UNL A   1      43.463  28.124  33.570  1.00  0.00     0.034 A 
BRANCH  48  62
ATOM     62  C   UNL A   1      38.812  31.712  35.488  1.00  0.00     0.023 A 
ATOM     63  C   UNL A   1      38.223  31.127  36.622  1.00  0.00     0.031 A 
ATOM     64  C   UNL A   1      38.901  33.114  35.438  1.00  0.00     0.131 A 
ATOM     65  C   UNL A   1      37.711  31.942  37.642  1.00  0.00     0.055 A 
ATOM     66  C   UNL A   1      38.449  33.918  36.485  1.00  0.00     0.041 A 
ATOM     67  F   UNL A   1      39.443  33.726  34.372  1.00  0.00    -0.206 F 
ATOM     68  C   UNL A   1      37.843  33.332  37.593  1.00  0.00     0.022 A 
BRANCH  65  69
ATOM     69  S   UNL A   1      36.803  31.163  39.003  1.00  0.00     0.124 S 
ATOM     70  O   UNL A   1      37.753  31.298  40.105  1.00  0.00    -0.237 OA
ATOM     71  O   UNL A   1      35.601  31.982  39.093  1.00  0.00    -0.237 OA
ATOM     72  O   UNL A   1      36.592  29.794  38.535  1.00  0.00    -0.744 OA
ENDBRANCH  65  69
ENDBRANCH  48  62
BRANCH  49  73
ATOM     73  C   UNL A   1      42.402  26.322  27.878  1.00  0.00     0.023 A 
ATOM     74  C   UNL A   1      42.192  24.937  27.798  1.00  0.00     0.031 A 
ATOM     75  C   UNL A   1      43.132  26.943  26.849  1.00  0.00     0.131 A 
ATOM     76  C   UNL A   1      42.720  24.214  26.716  1.00  0.00     0.055 A 
ATOM     77  C   UNL A   1      43.621  26.226  25.755  1.00  0.00     0.041 A 
ATOM     78  F   UNL A   1      43.356  28.267  26.879  1.00  0.00    -0.206 F 
ATOM     79  C   UNL A   1      43.419  24.850  25.687  1.00  0.00     0.022 A 
BRANCH  76  80
ATOM     80  S   UNL A   1      42.502  22.412  26.681  1.00  0.00     0.124 S 
ATOM     81  O   UNL A   1      41.337  22.271  25.816  1.00  0.00    -0.237 OA
ATOM     82  O   UNL A   1      43.775  21.962  26.125  1.00  0.00    -0.237 OA
ATOM     83  O   UNL A   1      42.284  22.070  28.085  1.00  0.00    -0.744 OA
ENDBRANCH  76  80
ENDBRANCH  49  73
BRANCH  61  84
ATOM     84  C   UNL A   1      44.686  27.710  34.345  1.00  0.00     0.023 A 
ATOM     85  C   UNL A   1      44.712  26.523  35.095  1.00  0.00     0.031 A 
ATOM     86  C   UNL A   1      45.868  28.467  34.255  1.00  0.00     0.131 A 
ATOM     87  C   UNL A   1      45.897  26.131  35.735  1.00  0.00     0.055 A 
ATOM     88  C   UNL A   1      47.055  28.050  34.858  1.00  0.00     0.041 A 
ATOM     89  F   UNL A   1      45.895  29.607  33.544  1.00  0.00    -0.206 F 
ATOM     90  C   UNL A   1      47.073  26.876  35.604  1.00  0.00     0.022 A 
BRANCH  87  91
ATOM     91  S   UNL A   1      45.886  24.628  36.752  1.00  0.00     0.124 S 
ATOM     92  O   UNL A   1      47.048  24.837  37.610  1.00  0.00    -0.237 OA
ATOM     93  O   UNL A   1      44.586  24.701  37.411  1.00  0.00    -0.237 OA
ATOM     94  O   UNL A   1      46.021  23.551  35.774  1.00  0.00    -0.744 OA
ENDBRANCH  87  91
ENDBRANCH  61  84
ENDBRANCH  35  36
ENDBRANCH  27  30
ENDBRANCH  25  26
ENDBRANCH  24  25
ENDBRANCH   1  24
TORSDOF 18
ENDMDL
