MODEL 1
REMARK VINA RESULT:     -11.2      0.000      0.000
REMARK SMILES CC(C)[C@H]([NH2+]Cc1ccc(N(C)C)cc1)C(=O)NCCCNC(=O)c1ccc(-c2c3nc(c(-c4cc(S(=O)(=O)[O-])ccc4F)c4ccc([nH]4)c(-c4cc(S(=O)(=O)[O-])ccc4F)c4nc(c(-c5cc(S(=O)(=O)[O-])ccc5F)c5ccc2[nH]5)C=C4)C=C3)cc1
REMARK SMILES IDX 19 1 18 2 16 3 17 4 4 6 2 7 1 8 3 9 5 10 6 13 7 14 8 15
REMARK SMILES IDX 15 16 9 17 14 18 10 19 11 20 12 21 13 22 20 23 21 24 22 25
REMARK SMILES IDX 23 26 24 28 25 29 26 30 87 31 27 32 86 33 28 34 29 35 30 36
REMARK SMILES IDX 80 37 31 38 85 39 79 40 81 41 32 42 84 43 78 44 77 45 33 47
REMARK SMILES IDX 65 48 45 49 64 50 46 51 49 52 63 53 82 54 47 55 48 56 62 58
REMARK SMILES IDX 83 59 50 60 34 61 35 62 43 63 36 64 42 65 44 66 41 67 37 68
REMARK SMILES IDX 38 69 39 70 40 71 66 72 67 73 75 74 68 75 74 76 76 77 73 78
REMARK SMILES IDX 69 79 70 80 71 81 72 82 51 83 52 84 60 85 53 86 59 87 61 88
REMARK SMILES IDX 58 89 54 90 55 91 56 92 57 93
REMARK H PARENT 18 5 5 11 5 12 22 27 81 46 49 57
REMARK Flexibility Score: inf
ROOT
ATOM      1  C   UNL A   1      32.396  27.034  26.303  1.00  0.00     0.118 C 
ENDROOT
BRANCH   1   2
ATOM      2  N   UNL A   1      31.387  26.086  26.750  1.00  0.00    -0.351 N 
ATOM      3  C   UNL A   1      30.748  25.102  26.048  1.00  0.00     0.278 C 
ATOM      4  O   UNL A   1      29.904  24.420  26.638  1.00  0.00    -0.268 OA
ATOM      5  H   UNL A   1      31.128  26.163  27.697  1.00  0.00     0.163 HD
BRANCH   3   6
ATOM      6  C   UNL A   1      31.081  24.834  24.559  1.00  0.00     0.275 C 
BRANCH   6   7
ATOM      7  C   UNL A   1      32.603  24.500  24.428  1.00  0.00     0.051 C 
ATOM      8  C   UNL A   1      32.843  22.998  24.616  1.00  0.00     0.014 C 
ATOM      9  C   UNL A   1      33.251  24.959  23.117  1.00  0.00     0.014 C 
ENDBRANCH   6   7
BRANCH   6  10
ATOM     10  N   UNL A   1      30.662  25.969  23.711  1.00  0.00    -0.332 N 
ATOM     11  H   UNL A   1      30.813  25.708  22.737  1.00  0.00     0.347 HD
ATOM     12  H   UNL A   1      31.221  26.768  24.006  1.00  0.00     0.347 HD
BRANCH  10  13
ATOM     13  C   UNL A   1      29.258  26.367  23.864  1.00  0.00     0.297 C 
BRANCH  13  14
ATOM     14  C   UNL A   1      29.041  27.756  23.300  1.00  0.00     0.006 A 
ATOM     15  C   UNL A   1      30.108  28.524  22.820  1.00  0.00     0.012 A 
ATOM     16  C   UNL A   1      27.776  28.341  23.296  1.00  0.00     0.012 A 
ATOM     17  C   UNL A   1      29.912  29.822  22.329  1.00  0.00     0.026 A 
ATOM     18  C   UNL A   1      27.592  29.643  22.799  1.00  0.00     0.026 A 
ATOM     19  C   UNL A   1      28.650  30.426  22.298  1.00  0.00     0.036 A 
BRANCH  19  20
ATOM     20  N   UNL A   1      28.453  31.713  21.821  1.00  0.00    -0.378 N 
ATOM     21  C   UNL A   1      28.723  32.911  22.612  1.00  0.00     0.143 C 
ATOM     22  C   UNL A   1      28.044  31.942  20.441  1.00  0.00     0.143 C 
ENDBRANCH  19  20
ENDBRANCH  13  14
ENDBRANCH  10  13
ENDBRANCH   6  10
ENDBRANCH   3   6
ENDBRANCH   1   2
BRANCH   1  23
ATOM     23  C   UNL A   1      31.852  28.444  26.146  1.00  0.00     0.042 C 
BRANCH  23  24
ATOM     24  C   UNL A   1      32.861  29.448  25.619  1.00  0.00     0.118 C 
BRANCH  24  25
ATOM     25  N   UNL A   1      32.563  30.809  26.035  1.00  0.00    -0.352 N 
ATOM     26  C   UNL A   1      33.130  31.578  27.021  1.00  0.00     0.251 C 
ATOM     27  H   UNL A   1      31.842  31.250  25.530  1.00  0.00     0.163 HD
ATOM     28  O   UNL A   1      32.575  32.627  27.352  1.00  0.00    -0.269 OA
BRANCH  26  29
ATOM     29  C   UNL A   1      34.372  31.147  27.699  1.00  0.00     0.039 A 
ATOM     30  C   UNL A   1      35.395  32.080  27.898  1.00  0.00     0.014 A 
ATOM     31  C   UNL A   1      34.548  29.828  28.122  1.00  0.00     0.014 A 
ATOM     32  C   UNL A   1      36.558  31.702  28.575  1.00  0.00     0.010 A 
ATOM     33  C   UNL A   1      35.655  29.483  28.892  1.00  0.00     0.010 A 
ATOM     34  C   UNL A   1      36.683  30.410  29.111  1.00  0.00    -0.014 A 
BRANCH  34  35
ATOM     35  C   UNL A   1      37.893  29.996  29.869  1.00  0.00     0.031 A 
ATOM     36  C   UNL A   1      38.151  30.561  31.241  1.00  0.00     0.074 A 
ATOM     37  C   UNL A   1      38.784  29.155  29.309  1.00  0.00     0.049 A 
ATOM     38  N   UNL A   1      39.173  30.377  32.039  1.00  0.00    -0.248 NA
ATOM     39  C   UNL A   1      37.138  31.485  31.770  1.00  0.00     0.031 C 
ATOM     40  C   UNL A   1      38.665  28.564  27.974  1.00  0.00     0.029 A 
ATOM     41  N   UNL A   1      39.964  28.649  29.791  1.00  0.00    -0.354 N 
ATOM     42  C   UNL A   1      38.929  31.169  33.156  1.00  0.00     0.074 A 
ATOM     43  C   UNL A   1      37.710  31.900  32.889  1.00  0.00     0.031 C 
ATOM     44  C   UNL A   1      39.703  27.740  27.765  1.00  0.00     0.029 A 
ATOM     45  C   UNL A   1      40.591  27.785  28.923  1.00  0.00     0.049 A 
ATOM     46  H   UNL A   1      40.329  28.881  30.675  1.00  0.00     0.167 HD
ATOM     47  C   UNL A   1      39.635  31.254  34.312  1.00  0.00     0.034 A 
ATOM     48  C   UNL A   1      41.751  27.110  29.044  1.00  0.00     0.034 A 
ATOM     49  C   UNL A   1      40.852  30.519  34.560  1.00  0.00     0.049 A 
ATOM     50  C   UNL A   1      42.556  27.265  30.310  1.00  0.00     0.074 A 
ATOM     51  C   UNL A   1      41.634  30.500  35.701  1.00  0.00     0.029 A 
ATOM     52  N   UNL A   1      41.474  29.679  33.642  1.00  0.00    -0.354 N 
ATOM     53  N   UNL A   1      42.294  27.987  31.375  1.00  0.00    -0.248 NA
ATOM     54  C   UNL A   1      43.809  26.506  30.390  1.00  0.00     0.031 C 
ATOM     55  C   UNL A   1      42.763  29.714  35.448  1.00  0.00     0.029 A 
ATOM     56  C   UNL A   1      42.645  29.166  34.180  1.00  0.00     0.049 A 
ATOM     57  H   UNL A   1      41.132  29.476  32.741  1.00  0.00     0.167 HD
ATOM     58  C   UNL A   1      43.332  27.737  32.268  1.00  0.00     0.074 A 
ATOM     59  C   UNL A   1      44.218  26.793  31.617  1.00  0.00     0.031 C 
ATOM     60  C   UNL A   1      43.530  28.235  33.516  1.00  0.00     0.034 A 
BRANCH  47  61
ATOM     61  C   UNL A   1      39.109  32.199  35.371  1.00  0.00     0.023 A 
ATOM     62  C   UNL A   1      39.512  33.548  35.416  1.00  0.00     0.031 A 
ATOM     63  C   UNL A   1      38.257  31.738  36.389  1.00  0.00     0.131 A 
ATOM     64  C   UNL A   1      39.160  34.349  36.512  1.00  0.00     0.055 A 
ATOM     65  C   UNL A   1      37.824  32.573  37.421  1.00  0.00     0.041 A 
ATOM     66  F   UNL A   1      37.852  30.459  36.416  1.00  0.00    -0.206 F 
ATOM     67  C   UNL A   1      38.294  33.880  37.502  1.00  0.00     0.022 A 
BRANCH  64  68
ATOM     68  S   UNL A   1      40.012  35.937  36.728  1.00  0.00     0.124 S 
ATOM     69  O   UNL A   1      41.400  35.506  36.884  1.00  0.00    -0.237 OA
ATOM     70  O   UNL A   1      39.696  36.635  35.488  1.00  0.00    -0.237 OA
ATOM     71  O   UNL A   1      39.402  36.493  37.932  1.00  0.00    -0.744 OA
ENDBRANCH  64  68
ENDBRANCH  47  61
BRANCH  48  72
ATOM     72  C   UNL A   1      42.216  26.212  27.949  1.00  0.00     0.023 A 
ATOM     73  C   UNL A   1      41.744  24.893  27.856  1.00  0.00     0.031 A 
ATOM     74  C   UNL A   1      43.155  26.645  26.996  1.00  0.00     0.131 A 
ATOM     75  C   UNL A   1      42.239  24.041  26.857  1.00  0.00     0.055 A 
ATOM     76  C   UNL A   1      43.605  25.809  25.972  1.00  0.00     0.041 A 
ATOM     77  F   UNL A   1      43.635  27.899  27.035  1.00  0.00    -0.206 F 
ATOM     78  C   UNL A   1      43.155  24.495  25.906  1.00  0.00     0.022 A 
BRANCH  75  79
ATOM     79  S   UNL A   1      41.722  22.303  26.863  1.00  0.00     0.124 S 
ATOM     80  O   UNL A   1      42.619  21.730  27.860  1.00  0.00    -0.237 OA
ATOM     81  O   UNL A   1      40.318  22.406  27.246  1.00  0.00    -0.237 OA
ATOM     82  O   UNL A   1      41.959  21.873  25.487  1.00  0.00    -0.744 OA
ENDBRANCH  75  79
ENDBRANCH  48  72
BRANCH  60  83
ATOM     83  C   UNL A   1      44.731  27.723  34.278  1.00  0.00     0.023 A 
ATOM     84  C   UNL A   1      44.658  26.594  35.113  1.00  0.00     0.031 A 
ATOM     85  C   UNL A   1      45.966  28.389  34.177  1.00  0.00     0.131 A 
ATOM     86  C   UNL A   1      45.781  26.201  35.859  1.00  0.00     0.055 A 
ATOM     87  C   UNL A   1      47.098  27.953  34.869  1.00  0.00     0.041 A 
ATOM     88  F   UNL A   1      46.095  29.477  33.401  1.00  0.00    -0.206 F 
ATOM     89  C   UNL A   1      47.004  26.862  35.726  1.00  0.00     0.022 A 
BRANCH  86  90
ATOM     90  S   UNL A   1      45.592  24.879  37.087  1.00  0.00     0.124 S 
ATOM     91  O   UNL A   1      44.363  25.272  37.769  1.00  0.00    -0.237 OA
ATOM     92  O   UNL A   1      45.504  23.686  36.251  1.00  0.00    -0.237 OA
ATOM     93  O   UNL A   1      46.808  24.983  37.893  1.00  0.00    -0.744 OA
ENDBRANCH  86  90
ENDBRANCH  60  83
ENDBRANCH  34  35
ENDBRANCH  26  29
ENDBRANCH  24  25
ENDBRANCH  23  24
ENDBRANCH   1  23
TORSDOF 18
ENDMDL
MODEL 2
REMARK VINA RESULT:     -11.1      2.607      4.550
REMARK SMILES CC(C)[C@H]([NH2+]Cc1ccc(N(C)C)cc1)C(=O)NCCCNC(=O)c1ccc(-c2c3nc(c(-c4cc(S(=O)(=O)[O-])ccc4F)c4ccc([nH]4)c(-c4cc(S(=O)(=O)[O-])ccc4F)c4nc(c(-c5cc(S(=O)(=O)[O-])ccc5F)c5ccc2[nH]5)C=C4)C=C3)cc1
REMARK SMILES IDX 19 1 18 2 16 3 17 4 4 6 2 7 1 8 3 9 5 10 6 13 7 14 8 15
REMARK SMILES IDX 15 16 9 17 14 18 10 19 11 20 12 21 13 22 20 23 21 24 22 25
REMARK SMILES IDX 23 26 24 28 25 29 26 30 87 31 27 32 86 33 28 34 29 35 30 36
REMARK SMILES IDX 80 37 31 38 85 39 79 40 81 41 32 42 84 43 78 44 77 45 33 47
REMARK SMILES IDX 65 48 45 49 64 50 46 51 49 52 63 53 82 54 47 55 48 56 62 58
REMARK SMILES IDX 83 59 50 60 34 61 35 62 43 63 36 64 42 65 44 66 41 67 37 68
REMARK SMILES IDX 38 69 39 70 40 71 66 72 67 73 75 74 68 75 74 76 76 77 73 78
REMARK SMILES IDX 69 79 70 80 71 81 72 82 51 83 52 84 60 85 53 86 59 87 61 88
REMARK SMILES IDX 58 89 54 90 55 91 56 92 57 93
REMARK H PARENT 18 5 5 11 5 12 22 27 81 46 49 57
REMARK Flexibility Score: inf
ROOT
ATOM      1  C   UNL A   1      31.844  27.998  27.167  1.00  0.00     0.118 C 
ENDROOT
BRANCH   1   2
ATOM      2  N   UNL A   1      31.041  26.881  26.695  1.00  0.00    -0.351 N 
ATOM      3  C   UNL A   1      30.691  26.540  25.418  1.00  0.00     0.278 C 
ATOM      4  O   UNL A   1      29.979  25.546  25.255  1.00  0.00    -0.268 OA
ATOM      5  H   UNL A   1      30.700  26.281  27.398  1.00  0.00     0.163 HD
BRANCH   3   6
ATOM      6  C   UNL A   1      31.187  27.365  24.204  1.00  0.00     0.275 C 
BRANCH   6   7
ATOM      7  C   UNL A   1      30.136  28.477  23.878  1.00  0.00     0.051 C 
ATOM      8  C   UNL A   1      30.657  29.852  24.306  1.00  0.00     0.014 C 
ATOM      9  C   UNL A   1      29.696  28.533  22.410  1.00  0.00     0.014 C 
ENDBRANCH   6   7
BRANCH   6  10
ATOM     10  N   UNL A   1      31.479  26.488  23.052  1.00  0.00    -0.332 N 
ATOM     11  H   UNL A   1      30.917  26.805  22.262  1.00  0.00     0.347 HD
ATOM     12  H   UNL A   1      31.254  25.539  23.351  1.00  0.00     0.347 HD
BRANCH  10  13
ATOM     13  C   UNL A   1      32.885  26.467  22.633  1.00  0.00     0.297 C 
BRANCH  13  14
ATOM     14  C   UNL A   1      33.580  25.238  23.183  1.00  0.00     0.006 A 
ATOM     15  C   UNL A   1      34.359  25.297  24.343  1.00  0.00     0.012 A 
ATOM     16  C   UNL A   1      33.516  24.017  22.514  1.00  0.00     0.012 A 
ATOM     17  C   UNL A   1      35.029  24.168  24.833  1.00  0.00     0.026 A 
ATOM     18  C   UNL A   1      34.190  22.890  23.016  1.00  0.00     0.026 A 
ATOM     19  C   UNL A   1      34.967  22.926  24.190  1.00  0.00     0.036 A 
BRANCH  19  20
ATOM     20  N   UNL A   1      35.635  21.808  24.666  1.00  0.00    -0.378 N 
ATOM     21  C   UNL A   1      34.964  20.554  24.997  1.00  0.00     0.143 C 
ATOM     22  C   UNL A   1      37.089  21.798  24.772  1.00  0.00     0.143 C 
ENDBRANCH  19  20
ENDBRANCH  13  14
ENDBRANCH  10  13
ENDBRANCH   6  10
ENDBRANCH   3   6
ENDBRANCH   1   2
BRANCH   1  23
ATOM     23  C   UNL A   1      33.329  27.810  26.903  1.00  0.00     0.042 C 
BRANCH  23  24
ATOM     24  C   UNL A   1      33.929  28.833  25.955  1.00  0.00     0.118 C 
BRANCH  24  25
ATOM     25  N   UNL A   1      33.706  30.201  26.396  1.00  0.00    -0.352 N 
ATOM     26  C   UNL A   1      34.347  30.935  27.362  1.00  0.00     0.251 C 
ATOM     27  H   UNL A   1      32.982  30.675  25.928  1.00  0.00     0.163 HD
ATOM     28  O   UNL A   1      33.852  32.003  27.727  1.00  0.00    -0.269 OA
BRANCH  26  29
ATOM     29  C   UNL A   1      35.600  30.447  27.979  1.00  0.00     0.039 A 
ATOM     30  C   UNL A   1      35.540  29.809  29.222  1.00  0.00     0.014 A 
ATOM     31  C   UNL A   1      36.836  30.628  27.355  1.00  0.00     0.014 A 
ATOM     32  C   UNL A   1      36.707  29.303  29.801  1.00  0.00     0.010 A 
ATOM     33  C   UNL A   1      37.977  30.028  27.878  1.00  0.00     0.010 A 
ATOM     34  C   UNL A   1      37.932  29.375  29.116  1.00  0.00    -0.014 A 
BRANCH  34  35
ATOM     35  C   UNL A   1      39.179  28.808  29.693  1.00  0.00     0.031 A 
ATOM     36  C   UNL A   1      39.722  29.347  30.990  1.00  0.00     0.074 A 
ATOM     37  C   UNL A   1      39.851  27.847  29.028  1.00  0.00     0.049 A 
ATOM     38  N   UNL A   1      40.822  29.033  31.627  1.00  0.00    -0.248 NA
ATOM     39  C   UNL A   1      38.936  30.406  31.639  1.00  0.00     0.031 C 
ATOM     40  C   UNL A   1      39.448  27.265  27.747  1.00  0.00     0.029 A 
ATOM     41  N   UNL A   1      41.015  27.190  29.339  1.00  0.00    -0.354 N 
ATOM     42  C   UNL A   1      40.863  29.862  32.743  1.00  0.00     0.074 A 
ATOM     43  C   UNL A   1      39.725  30.750  32.643  1.00  0.00     0.031 C 
ATOM     44  C   UNL A   1      40.321  26.305  27.407  1.00  0.00     0.029 A 
ATOM     45  C   UNL A   1      41.378  26.240  28.413  1.00  0.00     0.049 A 
ATOM     46  H   UNL A   1      41.541  27.379  30.150  1.00  0.00     0.167 HD
ATOM     47  C   UNL A   1      41.746  29.862  33.774  1.00  0.00     0.034 A 
ATOM     48  C   UNL A   1      42.442  25.414  28.376  1.00  0.00     0.034 A 
ATOM     49  C   UNL A   1      42.878  28.970  33.854  1.00  0.00     0.049 A 
ATOM     50  C   UNL A   1      43.448  25.471  29.497  1.00  0.00     0.074 A 
ATOM     51  C   UNL A   1      43.819  28.857  34.863  1.00  0.00     0.029 A 
ATOM     52  N   UNL A   1      43.232  28.044  32.879  1.00  0.00    -0.354 N 
ATOM     53  N   UNL A   1      43.454  26.233  30.567  1.00  0.00    -0.248 NA
ATOM     54  C   UNL A   1      44.586  24.549  29.408  1.00  0.00     0.031 C 
ATOM     55  C   UNL A   1      44.780  27.921  34.464  1.00  0.00     0.029 A 
ATOM     56  C   UNL A   1      44.394  27.381  33.247  1.00  0.00     0.049 A 
ATOM     57  H   UNL A   1      42.729  27.880  32.048  1.00  0.00     0.167 HD
ATOM     58  C   UNL A   1      44.577  25.853  31.297  1.00  0.00     0.074 A 
ATOM     59  C   UNL A   1      45.216  24.790  30.548  1.00  0.00     0.031 C 
ATOM     60  C   UNL A   1      45.032  26.332  32.484  1.00  0.00     0.034 A 
BRANCH  47  61
ATOM     61  C   UNL A   1      41.523  30.881  34.870  1.00  0.00     0.023 A 
ATOM     62  C   UNL A   1      40.375  30.846  35.684  1.00  0.00     0.031 A 
ATOM     63  C   UNL A   1      42.425  31.942  35.061  1.00  0.00     0.131 A 
ATOM     64  C   UNL A   1      40.103  31.905  36.561  1.00  0.00     0.055 A 
ATOM     65  C   UNL A   1      42.200  32.939  36.012  1.00  0.00     0.041 A 
ATOM     66  F   UNL A   1      43.530  32.046  34.305  1.00  0.00    -0.206 F 
ATOM     67  C   UNL A   1      41.021  32.939  36.753  1.00  0.00     0.022 A 
BRANCH  64  68
ATOM     68  S   UNL A   1      38.444  32.017  37.290  1.00  0.00     0.124 S 
ATOM     69  O   UNL A   1      38.756  32.357  38.677  1.00  0.00    -0.237 OA
ATOM     70  O   UNL A   1      37.822  33.071  36.498  1.00  0.00    -0.237 OA
ATOM     71  O   UNL A   1      37.892  30.679  37.095  1.00  0.00    -0.744 OA
ENDBRANCH  64  68
ENDBRANCH  47  61
BRANCH  48  72
ATOM     72  C   UNL A   1      42.606  24.450  27.251  1.00  0.00     0.023 A 
ATOM     73  C   UNL A   1      42.027  23.173  27.313  1.00  0.00     0.031 A 
ATOM     74  C   UNL A   1      43.362  24.777  26.111  1.00  0.00     0.131 A 
ATOM     75  C   UNL A   1      42.244  22.254  26.275  1.00  0.00     0.055 A 
ATOM     76  C   UNL A   1      43.531  23.878  25.056  1.00  0.00     0.041 A 
ATOM     77  F   UNL A   1      43.932  25.988  25.997  1.00  0.00    -0.206 F 
ATOM     78  C   UNL A   1      42.980  22.604  25.140  1.00  0.00     0.022 A 
BRANCH  75  79
ATOM     79  S   UNL A   1      41.610  20.565  26.462  1.00  0.00     0.124 S 
ATOM     80  O   UNL A   1      40.181  20.759  26.247  1.00  0.00    -0.237 OA
ATOM     81  O   UNL A   1      42.328  19.855  25.408  1.00  0.00    -0.237 OA
ATOM     82  O   UNL A   1      41.996  20.207  27.825  1.00  0.00    -0.744 OA
ENDBRANCH  75  79
ENDBRANCH  48  72
BRANCH  60  83
ATOM     83  C   UNL A   1      46.258  25.668  33.069  1.00  0.00     0.023 A 
ATOM     84  C   UNL A   1      47.559  26.032  32.681  1.00  0.00     0.031 A 
ATOM     85  C   UNL A   1      46.117  24.643  34.022  1.00  0.00     0.131 A 
ATOM     86  C   UNL A   1      48.664  25.335  33.196  1.00  0.00     0.055 A 
ATOM     87  C   UNL A   1      47.221  24.000  34.583  1.00  0.00     0.041 A 
ATOM     88  F   UNL A   1      44.899  24.249  34.427  1.00  0.00    -0.206 F 
ATOM     89  C   UNL A   1      48.503  24.335  34.159  1.00  0.00     0.022 A 
BRANCH  86  90
ATOM     90  S   UNL A   1      50.309  25.680  32.512  1.00  0.00     0.124 S 
ATOM     91  O   UNL A   1      51.185  25.219  33.584  1.00  0.00    -0.237 OA
ATOM     92  O   UNL A   1      50.315  24.876  31.294  1.00  0.00    -0.237 OA
ATOM     93  O   UNL A   1      50.296  27.126  32.301  1.00  0.00    -0.744 OA
ENDBRANCH  86  90
ENDBRANCH  60  83
ENDBRANCH  34  35
ENDBRANCH  26  29
ENDBRANCH  24  25
ENDBRANCH  23  24
ENDBRANCH   1  23
TORSDOF 18
ENDMDL
MODEL 3
REMARK VINA RESULT:     -11.1      2.488      4.456
REMARK SMILES CC(C)[C@H]([NH2+]Cc1ccc(N(C)C)cc1)C(=O)NCCCNC(=O)c1ccc(-c2c3nc(c(-c4cc(S(=O)(=O)[O-])ccc4F)c4ccc([nH]4)c(-c4cc(S(=O)(=O)[O-])ccc4F)c4nc(c(-c5cc(S(=O)(=O)[O-])ccc5F)c5ccc2[nH]5)C=C4)C=C3)cc1
REMARK SMILES IDX 19 1 18 2 16 3 17 4 4 6 2 7 1 8 3 9 5 10 6 13 7 14 8 15
REMARK SMILES IDX 15 16 9 17 14 18 10 19 11 20 12 21 13 22 20 23 21 24 22 25
REMARK SMILES IDX 23 26 24 28 25 29 26 30 87 31 27 32 86 33 28 34 29 35 30 36
REMARK SMILES IDX 80 37 31 38 85 39 79 40 81 41 32 42 84 43 78 44 77 45 33 47
REMARK SMILES IDX 65 48 45 49 64 50 46 51 49 52 63 53 82 54 47 55 48 56 62 58
REMARK SMILES IDX 83 59 50 60 34 61 35 62 43 63 36 64 42 65 44 66 41 67 37 68
REMARK SMILES IDX 38 69 39 70 40 71 66 72 67 73 75 74 68 75 74 76 76 77 73 78
REMARK SMILES IDX 69 79 70 80 71 81 72 82 51 83 52 84 60 85 53 86 59 87 61 88
REMARK SMILES IDX 58 89 54 90 55 91 56 92 57 93
REMARK H PARENT 18 5 5 11 5 12 22 27 81 46 49 57
REMARK Flexibility Score: inf
ROOT
ATOM      1  C   UNL A   1      32.404  27.347  26.741  1.00  0.00     0.118 C 
ENDROOT
BRANCH   1   2
ATOM      2  N   UNL A   1      31.278  26.471  27.027  1.00  0.00    -0.351 N 
ATOM      3  C   UNL A   1      30.459  25.799  26.162  1.00  0.00     0.278 C 
ATOM      4  O   UNL A   1      29.545  25.118  26.635  1.00  0.00    -0.268 OA
ATOM      5  H   UNL A   1      31.076  26.343  27.982  1.00  0.00     0.163 HD
BRANCH   3   6
ATOM      6  C   UNL A   1      30.680  25.871  24.630  1.00  0.00     0.275 C 
BRANCH   6   7
ATOM      7  C   UNL A   1      29.828  27.046  24.046  1.00  0.00     0.051 C 
ATOM      8  C   UNL A   1      30.476  27.599  22.772  1.00  0.00     0.014 C 
ATOM      9  C   UNL A   1      28.363  26.697  23.761  1.00  0.00     0.014 C 
ENDBRANCH   6   7
BRANCH   6  10
ATOM     10  N   UNL A   1      30.388  24.571  23.992  1.00  0.00    -0.332 N 
ATOM     11  H   UNL A   1      29.540  24.675  23.434  1.00  0.00     0.347 HD
ATOM     12  H   UNL A   1      30.291  23.896  24.750  1.00  0.00     0.347 HD
BRANCH  10  13
ATOM     13  C   UNL A   1      31.450  24.061  23.117  1.00  0.00     0.297 C 
BRANCH  13  14
ATOM     14  C   UNL A   1      31.749  22.611  23.442  1.00  0.00     0.006 A 
ATOM     15  C   UNL A   1      31.811  22.157  24.764  1.00  0.00     0.012 A 
ATOM     16  C   UNL A   1      32.033  21.693  22.434  1.00  0.00     0.012 A 
ATOM     17  C   UNL A   1      32.120  20.825  25.067  1.00  0.00     0.026 A 
ATOM     18  C   UNL A   1      32.339  20.358  22.749  1.00  0.00     0.026 A 
ATOM     19  C   UNL A   1      32.392  19.878  24.072  1.00  0.00     0.036 A 
BRANCH  19  20
ATOM     20  N   UNL A   1      32.707  18.560  24.366  1.00  0.00    -0.378 N 
ATOM     21  C   UNL A   1      32.635  18.000  25.713  1.00  0.00     0.143 C 
ATOM     22  C   UNL A   1      33.044  17.620  23.305  1.00  0.00     0.143 C 
ENDBRANCH  19  20
ENDBRANCH  13  14
ENDBRANCH  10  13
ENDBRANCH   6  10
ENDBRANCH   3   6
ENDBRANCH   1   2
BRANCH   1  23
ATOM     23  C   UNL A   1      31.999  28.806  26.611  1.00  0.00     0.042 C 
BRANCH  23  24
ATOM     24  C   UNL A   1      33.102  29.718  26.107  1.00  0.00     0.118 C 
BRANCH  24  25
ATOM     25  N   UNL A   1      32.940  31.091  26.556  1.00  0.00    -0.352 N 
ATOM     26  C   UNL A   1      33.656  31.812  27.478  1.00  0.00     0.251 C 
ATOM     27  H   UNL A   1      32.199  31.583  26.132  1.00  0.00     0.163 HD
ATOM     28  O   UNL A   1      33.209  32.892  27.870  1.00  0.00    -0.269 OA
BRANCH  26  29
ATOM     29  C   UNL A   1      34.932  31.295  28.019  1.00  0.00     0.039 A 
ATOM     30  C   UNL A   1      36.057  32.126  28.015  1.00  0.00     0.014 A 
ATOM     31  C   UNL A   1      35.037  29.993  28.512  1.00  0.00     0.014 A 
ATOM     32  C   UNL A   1      37.260  31.670  28.561  1.00  0.00     0.010 A 
ATOM     33  C   UNL A   1      36.201  29.582  29.155  1.00  0.00     0.010 A 
ATOM     34  C   UNL A   1      37.333  30.407  29.170  1.00  0.00    -0.014 A 
BRANCH  34  35
ATOM     35  C   UNL A   1      38.590  29.916  29.793  1.00  0.00     0.031 A 
ATOM     36  C   UNL A   1      39.011  30.429  31.145  1.00  0.00     0.074 A 
ATOM     37  C   UNL A   1      39.378  29.049  29.126  1.00  0.00     0.049 A 
ATOM     38  N   UNL A   1      40.096  30.174  31.831  1.00  0.00    -0.248 NA
ATOM     39  C   UNL A   1      38.102  31.385  31.794  1.00  0.00     0.031 C 
ATOM     40  C   UNL A   1      39.098  28.502  27.797  1.00  0.00     0.029 A 
ATOM     41  N   UNL A   1      40.574  28.474  29.475  1.00  0.00    -0.354 N 
ATOM     42  C   UNL A   1      40.004  30.945  32.985  1.00  0.00     0.074 A 
ATOM     43  C   UNL A   1      38.802  31.741  32.859  1.00  0.00     0.031 C 
ATOM     44  C   UNL A   1      40.068  27.637  27.465  1.00  0.00     0.029 A 
ATOM     45  C   UNL A   1      41.068  27.607  28.529  1.00  0.00     0.049 A 
ATOM     46  H   UNL A   1      41.036  28.664  30.324  1.00  0.00     0.167 HD
ATOM     47  C   UNL A   1      40.824  30.964  34.066  1.00  0.00     0.034 A 
ATOM     48  C   UNL A   1      42.199  26.874  28.518  1.00  0.00     0.034 A 
ATOM     49  C   UNL A   1      42.022  30.166  34.173  1.00  0.00     0.049 A 
ATOM     50  C   UNL A   1      43.132  26.956  29.700  1.00  0.00     0.074 A 
ATOM     51  C   UNL A   1      42.912  30.078  35.230  1.00  0.00     0.029 A 
ATOM     52  N   UNL A   1      42.508  29.323  33.179  1.00  0.00    -0.354 N 
ATOM     53  N   UNL A   1      43.013  27.659  30.802  1.00  0.00    -0.248 NA
ATOM     54  C   UNL A   1      44.348  26.137  29.635  1.00  0.00     0.031 C 
ATOM     55  C   UNL A   1      43.970  29.247  34.846  1.00  0.00     0.029 A 
ATOM     56  C   UNL A   1      43.700  28.741  33.585  1.00  0.00     0.049 A 
ATOM     57  H   UNL A   1      42.069  29.162  32.312  1.00  0.00     0.167 HD
ATOM     58  C   UNL A   1      44.121  27.336  31.580  1.00  0.00     0.074 A 
ATOM     59  C   UNL A   1      44.890  26.369  30.822  1.00  0.00     0.031 C 
ATOM     60  C   UNL A   1      44.467  27.788  32.813  1.00  0.00     0.034 A 
BRANCH  47  61
ATOM     61  C   UNL A   1      40.454  31.904  35.194  1.00  0.00     0.023 A 
ATOM     62  C   UNL A   1      39.548  31.521  36.201  1.00  0.00     0.031 A 
ATOM     63  C   UNL A   1      40.951  33.218  35.228  1.00  0.00     0.131 A 
ATOM     64  C   UNL A   1      39.081  32.470  37.122  1.00  0.00     0.055 A 
ATOM     65  C   UNL A   1      40.562  34.128  36.213  1.00  0.00     0.041 A 
ATOM     66  F   UNL A   1      41.803  33.653  34.286  1.00  0.00    -0.206 F 
ATOM     67  C   UNL A   1      39.602  33.765  37.155  1.00  0.00     0.022 A 
BRANCH  64  68
ATOM     68  S   UNL A   1      37.639  32.046  38.140  1.00  0.00     0.124 S 
ATOM     69  O   UNL A   1      36.672  33.055  37.713  1.00  0.00    -0.237 OA
ATOM     70  O   UNL A   1      37.355  30.676  37.729  1.00  0.00    -0.237 OA
ATOM     71  O   UNL A   1      38.126  32.201  39.508  1.00  0.00    -0.744 OA
ENDBRANCH  64  68
ENDBRANCH  47  61
BRANCH  48  72
ATOM     72  C   UNL A   1      42.508  25.986  27.361  1.00  0.00     0.023 A 
ATOM     73  C   UNL A   1      42.065  24.654  27.343  1.00  0.00     0.031 A 
ATOM     74  C   UNL A   1      43.268  26.443  26.270  1.00  0.00     0.131 A 
ATOM     75  C   UNL A   1      42.418  23.813  26.277  1.00  0.00     0.055 A 
ATOM     76  C   UNL A   1      43.572  25.618  25.186  1.00  0.00     0.041 A 
ATOM     77  F   UNL A   1      43.711  27.711  26.233  1.00  0.00    -0.206 F 
ATOM     78  C   UNL A   1      43.156  24.290  25.192  1.00  0.00     0.022 A 
BRANCH  75  79
ATOM     79  S   UNL A   1      41.960  22.061  26.364  1.00  0.00     0.124 S 
ATOM     80  O   UNL A   1      42.704  21.503  25.240  1.00  0.00    -0.237 OA
ATOM     81  O   UNL A   1      42.432  21.690  27.694  1.00  0.00    -0.237 OA
ATOM     82  O   UNL A   1      40.507  22.081  26.205  1.00  0.00    -0.744 OA
ENDBRANCH  75  79
ENDBRANCH  48  72
BRANCH  60  83
ATOM     83  C   UNL A   1      45.710  27.199  33.439  1.00  0.00     0.023 A 
ATOM     84  C   UNL A   1      46.976  27.790  33.283  1.00  0.00     0.031 A 
ATOM     85  C   UNL A   1      45.624  26.014  34.194  1.00  0.00     0.131 A 
ATOM     86  C   UNL A   1      48.112  27.163  33.820  1.00  0.00     0.055 A 
ATOM     87  C   UNL A   1      46.748  25.433  34.784  1.00  0.00     0.041 A 
ATOM     88  F   UNL A   1      44.443  25.401  34.373  1.00  0.00    -0.206 F 
ATOM     89  C   UNL A   1      48.002  26.000  34.586  1.00  0.00     0.022 A 
BRANCH  86  90
ATOM     90  S   UNL A   1      49.749  27.832  33.414  1.00  0.00     0.124 S 
ATOM     91  O   UNL A   1      50.042  28.649  34.588  1.00  0.00    -0.237 OA
ATOM     92  O   UNL A   1      50.552  26.623  33.263  1.00  0.00    -0.237 OA
ATOM     93  O   UNL A   1      49.518  28.581  32.180  1.00  0.00    -0.744 OA
ENDBRANCH  86  90
ENDBRANCH  60  83
ENDBRANCH  34  35
ENDBRANCH  26  29
ENDBRANCH  24  25
ENDBRANCH  23  24
ENDBRANCH   1  23
TORSDOF 18
ENDMDL
