MODEL 1
REMARK VINA RESULT:     -12.2      0.000      0.000
REMARK SMILES C[C@@H]1[C@H](C(=O)NCCCNC(=O)c2ccc(-c3c4nc(c(-c5cc(S(=O)(=O)[O-])ccc5F)c5ccc([nH]5)c(-c5cc(S(=O)(=O)[O-])ccc5F)c5nc(c(-c6cc(S(=O)(=O)[O-])ccc6F)c6ccc3[nH]6)C=C5)C=C4)cc2)CC[N@@H+]1Cc1ccc2c(c1)CCN2C
REMARK SMILES IDX 8 1 7 2 6 3 4 4 5 5 3 7 1 8 2 9 78 10 76 11 77 12 79 14
REMARK SMILES IDX 80 15 81 16 85 17 82 18 84 19 83 20 86 21 88 22 87 23 89 24
REMARK SMILES IDX 9 25 10 26 11 27 12 29 13 30 14 31 75 32 15 33 74 34 16 35
REMARK SMILES IDX 17 36 18 37 68 38 19 39 73 40 67 41 69 42 20 43 72 44 66 45
REMARK SMILES IDX 65 46 21 48 53 49 33 50 52 51 34 52 37 53 51 54 70 55 35 56
REMARK SMILES IDX 36 57 50 59 71 60 38 61 22 62 23 63 31 64 24 65 30 66 32 67
REMARK SMILES IDX 29 68 25 69 26 70 27 71 28 72 54 73 55 74 63 75 56 76 62 77
REMARK SMILES IDX 64 78 61 79 57 80 58 81 59 82 60 83 39 84 40 85 48 86 41 87
REMARK SMILES IDX 47 88 49 89 46 90 42 91 43 92 44 93 45 94
REMARK H PARENT 6 6 78 13 10 28 69 47 37 58
REMARK Flexibility Score: inf
ROOT
ATOM      1  C   UNL A   1      31.345  31.955  26.824  1.00  0.00     0.042 C 
ENDROOT
BRANCH   1   2
ATOM      2  C   UNL A   1      31.375  30.885  25.736  1.00  0.00     0.117 C 
BRANCH   2   3
ATOM      3  N   UNL A   1      32.296  29.813  26.063  1.00  0.00    -0.356 N 
ATOM      4  C   UNL A   1      32.473  28.579  25.539  1.00  0.00     0.229 C 
ATOM      5  O   UNL A   1      33.306  27.863  26.111  1.00  0.00    -0.275 OA
ATOM      6  H   UNL A   1      32.906  30.023  26.807  1.00  0.00     0.163 HD
BRANCH   4   7
ATOM      7  C   UNL A   1      31.773  28.050  24.296  1.00  0.00     0.142 C 
ATOM      8  C   UNL A   1      33.941  28.361  22.827  1.00  0.00     0.076 C 
ATOM      9  C   UNL A   1      32.471  28.005  22.922  1.00  0.00     0.193 C 
ATOM     10  N   UNL A   1      32.003  26.761  22.285  1.00  0.00    -0.328 N 
ATOM     11  C   UNL A   1      31.067  26.708  24.440  1.00  0.00     0.081 C 
ATOM     12  C   UNL A   1      30.810  26.322  22.992  1.00  0.00     0.263 C 
ATOM     13  H   UNL A   1      31.787  27.017  21.322  1.00  0.00     0.348 HD
BRANCH  10  14
ATOM     14  C   UNL A   1      32.925  25.747  21.775  1.00  0.00     0.299 C 
BRANCH  14  15
ATOM     15  C   UNL A   1      33.401  24.626  22.686  1.00  0.00     0.007 A 
ATOM     16  C   UNL A   1      32.921  23.306  22.504  1.00  0.00     0.012 A 
ATOM     17  C   UNL A   1      34.237  24.874  23.785  1.00  0.00     0.015 A 
ATOM     18  C   UNL A   1      33.304  22.254  23.355  1.00  0.00     0.026 A 
ATOM     19  C   UNL A   1      34.610  23.825  24.610  1.00  0.00    -0.022 A 
ATOM     20  C   UNL A   1      34.157  22.522  24.407  1.00  0.00     0.040 A 
ATOM     21  C   UNL A   1      35.578  23.836  25.746  1.00  0.00     0.059 C 
ATOM     22  N   UNL A   1      34.654  21.635  25.367  1.00  0.00    -0.374 N 
ATOM     23  C   UNL A   1      35.231  22.493  26.410  1.00  0.00     0.121 C 
ATOM     24  C   UNL A   1      35.369  20.456  24.912  1.00  0.00     0.143 C 
ENDBRANCH  14  15
ENDBRANCH  10  14
ENDBRANCH   4   7
ENDBRANCH   2   3
ENDBRANCH   1   2
BRANCH   1  25
ATOM     25  C   UNL A   1      32.702  32.544  27.174  1.00  0.00     0.118 C 
BRANCH  25  26
ATOM     26  N   UNL A   1      32.614  33.936  27.580  1.00  0.00    -0.352 N 
ATOM     27  C   UNL A   1      33.258  34.628  28.579  1.00  0.00     0.251 C 
ATOM     28  H   UNL A   1      31.985  34.477  27.049  1.00  0.00     0.163 HD
ATOM     29  O   UNL A   1      32.824  35.736  28.888  1.00  0.00    -0.269 OA
BRANCH  27  30
ATOM     30  C   UNL A   1      34.427  34.062  29.307  1.00  0.00     0.039 A 
ATOM     31  C   UNL A   1      34.192  33.147  30.339  1.00  0.00     0.014 A 
ATOM     32  C   UNL A   1      35.739  34.455  29.040  1.00  0.00     0.014 A 
ATOM     33  C   UNL A   1      35.264  32.590  31.050  1.00  0.00     0.010 A 
ATOM     34  C   UNL A   1      36.811  33.821  29.673  1.00  0.00     0.010 A 
ATOM     35  C   UNL A   1      36.589  32.891  30.698  1.00  0.00    -0.014 A 
BRANCH  35  36
ATOM     36  C   UNL A   1      37.749  32.278  31.410  1.00  0.00     0.031 A 
ATOM     37  C   UNL A   1      38.524  31.153  30.769  1.00  0.00     0.074 A 
ATOM     38  C   UNL A   1      38.072  32.688  32.653  1.00  0.00     0.049 A 
ATOM     39  N   UNL A   1      39.494  30.424  31.263  1.00  0.00    -0.248 NA
ATOM     40  C   UNL A   1      38.133  30.778  29.401  1.00  0.00     0.031 C 
ATOM     41  C   UNL A   1      37.384  33.740  33.403  1.00  0.00     0.029 A 
ATOM     42  N   UNL A   1      39.059  32.264  33.512  1.00  0.00    -0.354 N 
ATOM     43  C   UNL A   1      39.809  29.490  30.279  1.00  0.00     0.074 A 
ATOM     44  C   UNL A   1      38.882  29.708  29.188  1.00  0.00     0.031 C 
ATOM     45  C   UNL A   1      37.986  33.899  34.593  1.00  0.00     0.029 A 
ATOM     46  C   UNL A   1      39.069  32.929  34.716  1.00  0.00     0.049 A 
ATOM     47  H   UNL A   1      39.698  31.550  33.285  1.00  0.00     0.167 HD
ATOM     48  C   UNL A   1      40.794  28.556  30.271  1.00  0.00     0.034 A 
ATOM     49  C   UNL A   1      39.851  32.768  35.804  1.00  0.00     0.034 A 
ATOM     50  C   UNL A   1      41.730  28.367  31.353  1.00  0.00     0.049 A 
ATOM     51  C   UNL A   1      40.930  31.715  35.779  1.00  0.00     0.074 A 
ATOM     52  C   UNL A   1      42.798  27.490  31.426  1.00  0.00     0.029 A 
ATOM     53  N   UNL A   1      41.710  29.065  32.554  1.00  0.00    -0.354 N 
ATOM     54  N   UNL A   1      41.236  30.866  34.826  1.00  0.00    -0.248 NA
ATOM     55  C   UNL A   1      41.774  31.605  36.977  1.00  0.00     0.031 C 
ATOM     56  C   UNL A   1      43.385  27.614  32.691  1.00  0.00     0.029 A 
ATOM     57  C   UNL A   1      42.730  28.620  33.381  1.00  0.00     0.049 A 
ATOM     58  H   UNL A   1      41.065  29.773  32.784  1.00  0.00     0.167 HD
ATOM     59  C   UNL A   1      42.329  30.144  35.297  1.00  0.00     0.074 A 
ATOM     60  C   UNL A   1      42.636  30.668  36.613  1.00  0.00     0.031 C 
ATOM     61  C   UNL A   1      43.021  29.144  34.695  1.00  0.00     0.034 A 
BRANCH  48  62
ATOM     62  C   UNL A   1      40.890  27.657  29.060  1.00  0.00     0.023 A 
ATOM     63  C   UNL A   1      41.883  27.840  28.081  1.00  0.00     0.031 A 
ATOM     64  C   UNL A   1      39.960  26.620  28.865  1.00  0.00     0.131 A 
ATOM     65  C   UNL A   1      41.872  27.058  26.915  1.00  0.00     0.055 A 
ATOM     66  C   UNL A   1      40.007  25.789  27.743  1.00  0.00     0.041 A 
ATOM     67  F   UNL A   1      38.979  26.405  29.754  1.00  0.00    -0.206 F 
ATOM     68  C   UNL A   1      40.957  26.016  26.751  1.00  0.00     0.022 A 
BRANCH  65  69
ATOM     69  S   UNL A   1      42.973  27.526  25.551  1.00  0.00     0.124 S 
ATOM     70  O   UNL A   1      43.276  26.225  24.959  1.00  0.00    -0.237 OA
ATOM     71  O   UNL A   1      42.133  28.411  24.755  1.00  0.00    -0.237 OA
ATOM     72  O   UNL A   1      44.098  28.171  26.227  1.00  0.00    -0.744 OA
ENDBRANCH  65  69
ENDBRANCH  48  62
BRANCH  49  73
ATOM     73  C   UNL A   1      39.646  33.616  37.013  1.00  0.00     0.023 A 
ATOM     74  C   UNL A   1      38.953  33.123  38.131  1.00  0.00     0.031 A 
ATOM     75  C   UNL A   1      40.102  34.945  37.055  1.00  0.00     0.131 A 
ATOM     76  C   UNL A   1      38.696  33.966  39.223  1.00  0.00     0.055 A 
ATOM     77  C   UNL A   1      39.888  35.765  38.165  1.00  0.00     0.041 A 
ATOM     78  F   UNL A   1      40.774  35.466  36.015  1.00  0.00    -0.206 F 
ATOM     79  C   UNL A   1      39.169  35.280  39.253  1.00  0.00     0.022 A 
BRANCH  76  80
ATOM     80  S   UNL A   1      37.654  33.345  40.573  1.00  0.00     0.124 S 
ATOM     81  O   UNL A   1      37.485  34.540  41.392  1.00  0.00    -0.237 OA
ATOM     82  O   UNL A   1      36.469  32.887  39.853  1.00  0.00    -0.237 OA
ATOM     83  O   UNL A   1      38.466  32.287  41.169  1.00  0.00    -0.744 OA
ENDBRANCH  76  80
ENDBRANCH  49  73
BRANCH  61  84
ATOM     84  C   UNL A   1      44.210  28.587  35.439  1.00  0.00     0.023 A 
ATOM     85  C   UNL A   1      44.077  27.549  36.379  1.00  0.00     0.031 A 
ATOM     86  C   UNL A   1      45.494  29.113  35.212  1.00  0.00     0.131 A 
ATOM     87  C   UNL A   1      45.199  27.108  37.096  1.00  0.00     0.055 A 
ATOM     88  C   UNL A   1      46.616  28.630  35.886  1.00  0.00     0.041 A 
ATOM     89  F   UNL A   1      45.678  30.106  34.327  1.00  0.00    -0.206 F 
ATOM     90  C   UNL A   1      46.470  27.631  36.844  1.00  0.00     0.022 A 
BRANCH  87  91
ATOM     91  S   UNL A   1      44.963  25.901  38.429  1.00  0.00     0.124 S 
ATOM     92  O   UNL A   1      46.330  25.689  38.893  1.00  0.00    -0.237 OA
ATOM     93  O   UNL A   1      44.083  26.618  39.347  1.00  0.00    -0.237 OA
ATOM     94  O   UNL A   1      44.354  24.757  37.753  1.00  0.00    -0.744 OA
ENDBRANCH  87  91
ENDBRANCH  61  84
ENDBRANCH  35  36
ENDBRANCH  27  30
ENDBRANCH  25  26
ENDBRANCH   1  25
TORSDOF 15
ENDMDL
MODEL 2
REMARK VINA RESULT:     -12.1      2.417      3.633
REMARK SMILES C[C@@H]1[C@H](C(=O)NCCCNC(=O)c2ccc(-c3c4nc(c(-c5cc(S(=O)(=O)[O-])ccc5F)c5ccc([nH]5)c(-c5cc(S(=O)(=O)[O-])ccc5F)c5nc(c(-c6cc(S(=O)(=O)[O-])ccc6F)c6ccc3[nH]6)C=C5)C=C4)cc2)CC[N@@H+]1Cc1ccc2c(c1)CCN2C
REMARK SMILES IDX 8 1 7 2 6 3 4 4 5 5 3 7 1 8 2 9 78 10 76 11 77 12 79 14
REMARK SMILES IDX 80 15 81 16 85 17 82 18 84 19 83 20 86 21 88 22 87 23 89 24
REMARK SMILES IDX 9 25 10 26 11 27 12 29 13 30 14 31 75 32 15 33 74 34 16 35
REMARK SMILES IDX 17 36 18 37 68 38 19 39 73 40 67 41 69 42 20 43 72 44 66 45
REMARK SMILES IDX 65 46 21 48 53 49 33 50 52 51 34 52 37 53 51 54 70 55 35 56
REMARK SMILES IDX 36 57 50 59 71 60 38 61 22 62 23 63 31 64 24 65 30 66 32 67
REMARK SMILES IDX 29 68 25 69 26 70 27 71 28 72 54 73 55 74 63 75 56 76 62 77
REMARK SMILES IDX 64 78 61 79 57 80 58 81 59 82 60 83 39 84 40 85 48 86 41 87
REMARK SMILES IDX 47 88 49 89 46 90 42 91 43 92 44 93 45 94
REMARK H PARENT 6 6 78 13 10 28 69 47 37 58
REMARK Flexibility Score: inf
ROOT
ATOM      1  C   UNL A   1      33.426  28.947  23.241  1.00  0.00     0.042 C 
ENDROOT
BRANCH   1   2
ATOM      2  C   UNL A   1      32.181  28.257  22.691  1.00  0.00     0.117 C 
BRANCH   2   3
ATOM      3  N   UNL A   1      32.517  27.241  21.713  1.00  0.00    -0.356 N 
ATOM      4  C   UNL A   1      33.024  25.993  21.840  1.00  0.00     0.229 C 
ATOM      5  O   UNL A   1      33.279  25.402  20.782  1.00  0.00    -0.275 OA
ATOM      6  H   UNL A   1      32.346  27.510  20.781  1.00  0.00     0.163 HD
BRANCH   4   7
ATOM      7  C   UNL A   1      33.246  25.272  23.161  1.00  0.00     0.142 C 
ATOM      8  C   UNL A   1      30.653  25.103  23.613  1.00  0.00     0.076 C 
ATOM      9  C   UNL A   1      32.076  24.888  24.089  1.00  0.00     0.193 C 
ATOM     10  N   UNL A   1      32.439  23.579  24.658  1.00  0.00    -0.328 N 
ATOM     11  C   UNL A   1      34.151  24.047  23.117  1.00  0.00     0.081 C 
ATOM     12  C   UNL A   1      33.868  23.389  24.458  1.00  0.00     0.263 C 
ATOM     13  H   UNL A   1      32.212  23.644  25.650  1.00  0.00     0.348 HD
BRANCH  10  14
ATOM     14  C   UNL A   1      31.561  22.413  24.566  1.00  0.00     0.299 C 
BRANCH  14  15
ATOM     15  C   UNL A   1      32.153  21.012  24.592  1.00  0.00     0.007 A 
ATOM     16  C   UNL A   1      32.814  20.537  25.751  1.00  0.00     0.012 A 
ATOM     17  C   UNL A   1      32.157  20.192  23.453  1.00  0.00     0.015 A 
ATOM     18  C   UNL A   1      33.412  19.265  25.795  1.00  0.00     0.026 A 
ATOM     19  C   UNL A   1      32.745  18.939  23.515  1.00  0.00    -0.022 A 
ATOM     20  C   UNL A   1      33.368  18.467  24.670  1.00  0.00     0.040 A 
ATOM     21  C   UNL A   1      32.755  17.866  22.479  1.00  0.00     0.059 C 
ATOM     22  N   UNL A   1      33.899  17.185  24.496  1.00  0.00    -0.374 N 
ATOM     23  C   UNL A   1      33.854  16.952  23.047  1.00  0.00     0.121 C 
ATOM     24  C   UNL A   1      33.492  16.140  25.418  1.00  0.00     0.143 C 
ENDBRANCH  14  15
ENDBRANCH  10  14
ENDBRANCH   4   7
ENDBRANCH   2   3
ENDBRANCH   1   2
BRANCH   1  25
ATOM     25  C   UNL A   1      33.514  28.982  24.759  1.00  0.00     0.118 C 
BRANCH  25  26
ATOM     26  N   UNL A   1      32.811  30.119  25.328  1.00  0.00    -0.352 N 
ATOM     27  C   UNL A   1      32.985  30.786  26.517  1.00  0.00     0.251 C 
ATOM     28  H   UNL A   1      32.085  30.474  24.764  1.00  0.00     0.163 HD
ATOM     29  O   UNL A   1      32.099  31.554  26.886  1.00  0.00    -0.269 OA
BRANCH  27  30
ATOM     30  C   UNL A   1      34.185  30.576  27.373  1.00  0.00     0.039 A 
ATOM     31  C   UNL A   1      34.357  29.333  27.992  1.00  0.00     0.014 A 
ATOM     32  C   UNL A   1      35.110  31.590  27.631  1.00  0.00     0.014 A 
ATOM     33  C   UNL A   1      35.472  29.094  28.805  1.00  0.00     0.010 A 
ATOM     34  C   UNL A   1      36.275  31.320  28.351  1.00  0.00     0.010 A 
ATOM     35  C   UNL A   1      36.466  30.072  28.963  1.00  0.00    -0.014 A 
BRANCH  35  36
ATOM     36  C   UNL A   1      37.685  29.828  29.788  1.00  0.00     0.031 A 
ATOM     37  C   UNL A   1      38.791  28.944  29.265  1.00  0.00     0.074 A 
ATOM     38  C   UNL A   1      37.777  30.348  31.029  1.00  0.00     0.049 A 
ATOM     39  N   UNL A   1      39.878  28.528  29.865  1.00  0.00    -0.248 NA
ATOM     40  C   UNL A   1      38.635  28.434  27.894  1.00  0.00     0.031 C 
ATOM     41  C   UNL A   1      36.766  31.190  31.671  1.00  0.00     0.029 A 
ATOM     42  N   UNL A   1      38.766  30.241  31.977  1.00  0.00    -0.354 N 
ATOM     43  C   UNL A   1      40.520  27.690  28.957  1.00  0.00     0.074 A 
ATOM     44  C   UNL A   1      39.665  27.609  27.791  1.00  0.00     0.031 C 
ATOM     45  C   UNL A   1      37.198  31.545  32.892  1.00  0.00     0.029 A 
ATOM     46  C   UNL A   1      38.492  30.918  33.144  1.00  0.00     0.049 A 
ATOM     47  H   UNL A   1      39.593  29.727  31.836  1.00  0.00     0.167 HD
ATOM     48  C   UNL A   1      41.720  27.067  29.070  1.00  0.00     0.034 A 
ATOM     49  C   UNL A   1      39.193  31.014  34.292  1.00  0.00     0.034 A 
ATOM     50  C   UNL A   1      42.578  27.179  30.225  1.00  0.00     0.049 A 
ATOM     51  C   UNL A   1      40.518  30.303  34.401  1.00  0.00     0.074 A 
ATOM     52  C   UNL A   1      43.836  26.635  30.422  1.00  0.00     0.029 A 
ATOM     53  N   UNL A   1      42.265  27.879  31.384  1.00  0.00    -0.354 N 
ATOM     54  N   UNL A   1      41.124  29.544  33.518  1.00  0.00    -0.248 NA
ATOM     55  C   UNL A   1      41.255  30.468  35.661  1.00  0.00     0.031 C 
ATOM     56  C   UNL A   1      44.257  26.955  31.718  1.00  0.00     0.029 A 
ATOM     57  C   UNL A   1      43.295  27.760  32.305  1.00  0.00     0.049 A 
ATOM     58  H   UNL A   1      41.434  28.386  31.529  1.00  0.00     0.167 HD
ATOM     59  C   UNL A   1      42.330  29.169  34.105  1.00  0.00     0.074 A 
ATOM     60  C   UNL A   1      42.370  29.796  35.410  1.00  0.00     0.031 C 
ATOM     61  C   UNL A   1      43.318  28.383  33.607  1.00  0.00     0.034 A 
BRANCH  48  62
ATOM     62  C   UNL A   1      42.162  26.194  27.917  1.00  0.00     0.023 A 
ATOM     63  C   UNL A   1      41.667  24.888  27.748  1.00  0.00     0.031 A 
ATOM     64  C   UNL A   1      43.110  26.660  26.991  1.00  0.00     0.131 A 
ATOM     65  C   UNL A   1      42.183  24.068  26.733  1.00  0.00     0.055 A 
ATOM     66  C   UNL A   1      43.557  25.868  25.930  1.00  0.00     0.041 A 
ATOM     67  F   UNL A   1      43.634  27.890  27.107  1.00  0.00    -0.206 F 
ATOM     68  C   UNL A   1      43.106  24.557  25.806  1.00  0.00     0.022 A 
BRANCH  65  69
ATOM     69  S   UNL A   1      41.745  22.307  26.739  1.00  0.00     0.124 S 
ATOM     70  O   UNL A   1      42.299  21.862  25.463  1.00  0.00    -0.237 OA
ATOM     71  O   UNL A   1      42.418  21.817  27.934  1.00  0.00    -0.237 OA
ATOM     72  O   UNL A   1      40.284  22.319  26.804  1.00  0.00    -0.744 OA
ENDBRANCH  65  69
ENDBRANCH  48  62
BRANCH  49  73
ATOM     73  C   UNL A   1      38.662  31.807  35.438  1.00  0.00     0.023 A 
ATOM     74  C   UNL A   1      38.158  31.171  36.584  1.00  0.00     0.031 A 
ATOM     75  C   UNL A   1      38.611  33.211  35.388  1.00  0.00     0.131 A 
ATOM     76  C   UNL A   1      37.582  31.934  37.612  1.00  0.00     0.055 A 
ATOM     77  C   UNL A   1      38.084  33.969  36.436  1.00  0.00     0.041 A 
ATOM     78  F   UNL A   1      39.082  33.871  34.317  1.00  0.00    -0.206 F 
ATOM     79  C   UNL A   1      37.553  33.329  37.552  1.00  0.00     0.022 A 
BRANCH  76  80
ATOM     80  S   UNL A   1      36.792  31.068  38.996  1.00  0.00     0.124 S 
ATOM     81  O   UNL A   1      37.778  31.239  40.057  1.00  0.00    -0.237 OA
ATOM     82  O   UNL A   1      35.547  31.816  39.150  1.00  0.00    -0.237 OA
ATOM     83  O   UNL A   1      36.637  29.703  38.500  1.00  0.00    -0.744 OA
ENDBRANCH  76  80
ENDBRANCH  49  73
BRANCH  61  84
ATOM     84  C   UNL A   1      44.547  28.201  34.464  1.00  0.00     0.023 A 
ATOM     85  C   UNL A   1      44.662  27.141  35.382  1.00  0.00     0.031 A 
ATOM     86  C   UNL A   1      45.615  29.111  34.368  1.00  0.00     0.131 A 
ATOM     87  C   UNL A   1      45.794  27.050  36.206  1.00  0.00     0.055 A 
ATOM     88  C   UNL A   1      46.765  28.981  35.149  1.00  0.00     0.041 A 
ATOM     89  F   UNL A   1      45.558  30.142  33.510  1.00  0.00    -0.206 F 
ATOM     90  C   UNL A   1      46.853  27.953  36.084  1.00  0.00     0.022 A 
BRANCH  87  91
ATOM     91  S   UNL A   1      45.827  25.784  37.504  1.00  0.00     0.124 S 
ATOM     92  O   UNL A   1      44.412  25.461  37.649  1.00  0.00    -0.237 OA
ATOM     93  O   UNL A   1      46.660  24.745  36.906  1.00  0.00    -0.237 OA
ATOM     94  O   UNL A   1      46.425  26.477  38.644  1.00  0.00    -0.744 OA
ENDBRANCH  87  91
ENDBRANCH  61  84
ENDBRANCH  35  36
ENDBRANCH  27  30
ENDBRANCH  25  26
ENDBRANCH   1  25
TORSDOF 15
ENDMDL
MODEL 3
REMARK VINA RESULT:     -12.0      1.561      7.731
REMARK SMILES C[C@@H]1[C@H](C(=O)NCCCNC(=O)c2ccc(-c3c4nc(c(-c5cc(S(=O)(=O)[O-])ccc5F)c5ccc([nH]5)c(-c5cc(S(=O)(=O)[O-])ccc5F)c5nc(c(-c6cc(S(=O)(=O)[O-])ccc6F)c6ccc3[nH]6)C=C5)C=C4)cc2)CC[N@@H+]1Cc1ccc2c(c1)CCN2C
REMARK SMILES IDX 8 1 7 2 6 3 4 4 5 5 3 7 1 8 2 9 78 10 76 11 77 12 79 14
REMARK SMILES IDX 80 15 81 16 85 17 82 18 84 19 83 20 86 21 88 22 87 23 89 24
REMARK SMILES IDX 9 25 10 26 11 27 12 29 13 30 14 31 75 32 15 33 74 34 16 35
REMARK SMILES IDX 17 36 18 37 68 38 19 39 73 40 67 41 69 42 20 43 72 44 66 45
REMARK SMILES IDX 65 46 21 48 53 49 33 50 52 51 34 52 37 53 51 54 70 55 35 56
REMARK SMILES IDX 36 57 50 59 71 60 38 61 22 62 23 63 31 64 24 65 30 66 32 67
REMARK SMILES IDX 29 68 25 69 26 70 27 71 28 72 54 73 55 74 63 75 56 76 62 77
REMARK SMILES IDX 64 78 61 79 57 80 58 81 59 82 60 83 39 84 40 85 48 86 41 87
REMARK SMILES IDX 47 88 49 89 46 90 42 91 43 92 44 93 45 94
REMARK H PARENT 6 6 78 13 10 28 69 47 37 58
REMARK Flexibility Score: inf
ROOT
ATOM      1  C   UNL A   1      31.136  32.329  26.516  1.00  0.00     0.042 C 
ENDROOT
BRANCH   1   2
ATOM      2  C   UNL A   1      31.020  31.149  25.555  1.00  0.00     0.117 C 
BRANCH   2   3
ATOM      3  N   UNL A   1      31.753  29.992  26.032  1.00  0.00    -0.356 N 
ATOM      4  C   UNL A   1      31.927  28.753  25.518  1.00  0.00     0.229 C 
ATOM      5  O   UNL A   1      32.554  27.956  26.228  1.00  0.00    -0.275 OA
ATOM      6  H   UNL A   1      32.209  30.135  26.893  1.00  0.00     0.163 HD
BRANCH   4   7
ATOM      7  C   UNL A   1      31.460  28.307  24.140  1.00  0.00     0.142 C 
ATOM      8  C   UNL A   1      33.829  28.775  23.081  1.00  0.00     0.076 C 
ATOM      9  C   UNL A   1      32.376  28.382  22.903  1.00  0.00     0.193 C 
ATOM     10  N   UNL A   1      32.062  27.182  22.108  1.00  0.00    -0.328 N 
ATOM     11  C   UNL A   1      30.785  26.943  24.066  1.00  0.00     0.081 C 
ATOM     12  C   UNL A   1      30.784  26.664  22.572  1.00  0.00     0.263 C 
ATOM     13  H   UNL A   1      32.000  27.507  21.144  1.00  0.00     0.348 HD
BRANCH  10  14
ATOM     14  C   UNL A   1      33.089  26.229  21.688  1.00  0.00     0.299 C 
BRANCH  14  15
ATOM     15  C   UNL A   1      33.455  25.059  22.588  1.00  0.00     0.007 A 
ATOM     16  C   UNL A   1      33.076  23.741  22.235  1.00  0.00     0.012 A 
ATOM     17  C   UNL A   1      34.078  25.252  23.831  1.00  0.00     0.015 A 
ATOM     18  C   UNL A   1      33.357  22.641  23.065  1.00  0.00     0.026 A 
ATOM     19  C   UNL A   1      34.354  24.157  24.633  1.00  0.00    -0.022 A 
ATOM     20  C   UNL A   1      34.004  22.858  24.265  1.00  0.00     0.040 A 
ATOM     21  C   UNL A   1      35.112  24.114  25.918  1.00  0.00     0.059 C 
ATOM     22  N   UNL A   1      34.371  21.918  25.234  1.00  0.00    -0.374 N 
ATOM     23  C   UNL A   1      34.720  22.714  26.417  1.00  0.00     0.121 C 
ATOM     24  C   UNL A   1      35.208  20.803  24.829  1.00  0.00     0.143 C 
ENDBRANCH  14  15
ENDBRANCH  10  14
ENDBRANCH   4   7
ENDBRANCH   2   3
ENDBRANCH   1   2
BRANCH   1  25
ATOM     25  C   UNL A   1      32.543  32.593  27.028  1.00  0.00     0.118 C 
BRANCH  25  26
ATOM     26  N   UNL A   1      32.702  33.944  27.538  1.00  0.00    -0.352 N 
ATOM     27  C   UNL A   1      33.523  34.448  28.520  1.00  0.00     0.251 C 
ATOM     28  H   UNL A   1      32.123  34.614  27.107  1.00  0.00     0.163 HD
ATOM     29  O   UNL A   1      33.289  35.578  28.945  1.00  0.00    -0.269 OA
BRANCH  27  30
ATOM     30  C   UNL A   1      34.646  33.659  29.095  1.00  0.00     0.039 A 
ATOM     31  C   UNL A   1      35.953  34.117  28.901  1.00  0.00     0.014 A 
ATOM     32  C   UNL A   1      34.448  32.450  29.765  1.00  0.00     0.014 A 
ATOM     33  C   UNL A   1      37.040  33.404  29.426  1.00  0.00     0.010 A 
ATOM     34  C   UNL A   1      35.518  31.797  30.380  1.00  0.00     0.010 A 
ATOM     35  C   UNL A   1      36.832  32.256  30.207  1.00  0.00    -0.014 A 
BRANCH  35  36
ATOM     36  C   UNL A   1      37.968  31.503  30.814  1.00  0.00     0.031 A 
ATOM     37  C   UNL A   1      38.415  31.808  32.223  1.00  0.00     0.074 A 
ATOM     38  C   UNL A   1      38.638  30.586  30.085  1.00  0.00     0.049 A 
ATOM     39  N   UNL A   1      39.439  31.340  32.891  1.00  0.00    -0.248 NA
ATOM     40  C   UNL A   1      37.620  32.798  32.966  1.00  0.00     0.031 C 
ATOM     41  C   UNL A   1      38.334  30.219  28.701  1.00  0.00     0.029 A 
ATOM     42  N   UNL A   1      39.719  29.800  30.404  1.00  0.00    -0.354 N 
ATOM     43  C   UNL A   1      39.426  31.996  34.119  1.00  0.00     0.074 A 
ATOM     44  C   UNL A   1      38.329  32.940  34.074  1.00  0.00     0.031 C 
ATOM     45  C   UNL A   1      39.188  29.262  28.301  1.00  0.00     0.029 A 
ATOM     46  C   UNL A   1      40.132  28.981  29.378  1.00  0.00     0.049 A 
ATOM     47  H   UNL A   1      40.158  29.821  31.285  1.00  0.00     0.167 HD
ATOM     48  C   UNL A   1      40.235  31.812  35.194  1.00  0.00     0.034 A 
ATOM     49  C   UNL A   1      41.160  28.111  29.305  1.00  0.00     0.034 A 
ATOM     50  C   UNL A   1      41.307  30.848  35.237  1.00  0.00     0.049 A 
ATOM     51  C   UNL A   1      42.054  27.933  30.506  1.00  0.00     0.074 A 
ATOM     52  C   UNL A   1      42.150  30.542  36.292  1.00  0.00     0.029 A 
ATOM     53  N   UNL A   1      41.688  30.033  34.179  1.00  0.00    -0.354 N 
ATOM     54  N   UNL A   1      42.004  28.537  31.671  1.00  0.00    -0.248 NA
ATOM     55  C   UNL A   1      43.138  26.950  30.383  1.00  0.00     0.031 C 
ATOM     56  C   UNL A   1      43.077  29.589  35.854  1.00  0.00     0.029 A 
ATOM     57  C   UNL A   1      42.768  29.245  34.548  1.00  0.00     0.049 A 
ATOM     58  H   UNL A   1      41.255  30.018  33.294  1.00  0.00     0.167 HD
ATOM     59  C   UNL A   1      43.030  27.980  32.430  1.00  0.00     0.074 A 
ATOM     60  C   UNL A   1      43.672  26.985  31.595  1.00  0.00     0.031 C 
ATOM     61  C   UNL A   1      43.405  28.262  33.704  1.00  0.00     0.034 A 
BRANCH  48  62
ATOM     62  C   UNL A   1      39.996  32.691  36.401  1.00  0.00     0.023 A 
ATOM     63  C   UNL A   1      39.135  32.298  37.442  1.00  0.00     0.031 A 
ATOM     64  C   UNL A   1      40.614  33.949  36.502  1.00  0.00     0.131 A 
ATOM     65  C   UNL A   1      38.850  33.187  38.490  1.00  0.00     0.055 A 
ATOM     66  C   UNL A   1      40.394  34.794  37.592  1.00  0.00     0.041 A 
ATOM     67  F   UNL A   1      41.432  34.389  35.534  1.00  0.00    -0.206 F 
ATOM     68  C   UNL A   1      39.493  34.422  38.587  1.00  0.00     0.022 A 
BRANCH  65  69
ATOM     69  S   UNL A   1      37.512  32.765  39.641  1.00  0.00     0.124 S 
ATOM     70  O   UNL A   1      37.971  31.482  40.168  1.00  0.00    -0.237 OA
ATOM     71  O   UNL A   1      37.533  33.884  40.574  1.00  0.00    -0.237 OA
ATOM     72  O   UNL A   1      36.332  32.690  38.780  1.00  0.00    -0.744 OA
ENDBRANCH  65  69
ENDBRANCH  48  62
BRANCH  49  73
ATOM     73  C   UNL A   1      41.412  27.343  28.052  1.00  0.00     0.023 A 
ATOM     74  C   UNL A   1      41.089  25.979  27.964  1.00  0.00     0.031 A 
ATOM     75  C   UNL A   1      42.019  27.949  26.938  1.00  0.00     0.131 A 
ATOM     76  C   UNL A   1      41.416  25.256  26.806  1.00  0.00     0.055 A 
ATOM     77  C   UNL A   1      42.296  27.237  25.769  1.00  0.00     0.041 A 
ATOM     78  F   UNL A   1      42.346  29.252  26.967  1.00  0.00    -0.206 F 
ATOM     79  C   UNL A   1      42.006  25.878  25.704  1.00  0.00     0.022 A 
BRANCH  76  80
ATOM     80  S   UNL A   1      41.137  23.463  26.796  1.00  0.00     0.124 S 
ATOM     81  O   UNL A   1      41.517  23.095  28.155  1.00  0.00    -0.237 OA
ATOM     82  O   UNL A   1      39.713  23.381  26.483  1.00  0.00    -0.237 OA
ATOM     83  O   UNL A   1      42.031  22.986  25.744  1.00  0.00    -0.744 OA
ENDBRANCH  76  80
ENDBRANCH  49  73
BRANCH  61  84
ATOM     84  C   UNL A   1      44.532  27.444  34.285  1.00  0.00     0.023 A 
ATOM     85  C   UNL A   1      44.296  26.242  34.976  1.00  0.00     0.031 A 
ATOM     86  C   UNL A   1      45.862  27.882  34.154  1.00  0.00     0.131 A 
ATOM     87  C   UNL A   1      45.369  25.549  35.558  1.00  0.00     0.055 A 
ATOM     88  C   UNL A   1      46.930  27.157  34.684  1.00  0.00     0.041 A 
ATOM     89  F   UNL A   1      46.144  29.023  33.505  1.00  0.00    -0.206 F 
ATOM     90  C   UNL A   1      46.685  25.991  35.402  1.00  0.00     0.022 A 
BRANCH  87  91
ATOM     91  S   UNL A   1      45.013  24.107  36.598  1.00  0.00     0.124 S 
ATOM     92  O   UNL A   1      44.355  24.717  37.749  1.00  0.00    -0.237 OA
ATOM     93  O   UNL A   1      44.161  23.299  35.731  1.00  0.00    -0.237 OA
ATOM     94  O   UNL A   1      46.334  23.543  36.867  1.00  0.00    -0.744 OA
ENDBRANCH  87  91
ENDBRANCH  61  84
ENDBRANCH  35  36
ENDBRANCH  27  30
ENDBRANCH  25  26
ENDBRANCH   1  25
TORSDOF 15
ENDMDL
