MODEL 1
REMARK VINA RESULT:     -10.6      0.000      0.000
REMARK SMILES CC[C@H](C)[C@@H](NC(=S)Nc1ccccc1)C(=O)NCCCNC(=O)c1ccc(-c2c3nc(c(-c4cc(S(=O)(=O)[O-])ccc4F)c4ccc([nH]4)c(-c4cc(S(=O)(=O)[O-])ccc4F)c4nc(c(-c5cc(S(=O)(=O)[O-])ccc5F)c5ccc2[nH]5)C=C4)C=C3)cc1
REMARK SMILES IDX 19 1 18 2 16 3 17 4 5 6 3 7 4 8 2 9 1 10 6 11 7 13 8 14 9 15
REMARK SMILES IDX 10 17 11 18 15 19 12 20 14 21 13 22 20 23 21 24 22 25 23 26
REMARK SMILES IDX 24 28 25 29 26 30 87 31 27 32 86 33 28 34 29 35 30 36 80 37
REMARK SMILES IDX 31 38 85 39 79 40 81 41 32 42 84 43 78 44 77 45 33 47 65 48
REMARK SMILES IDX 45 49 64 50 46 51 49 52 63 53 82 54 47 55 48 56 62 58 83 59
REMARK SMILES IDX 50 60 34 61 35 62 43 63 36 64 42 65 44 66 41 67 37 68 38 69
REMARK SMILES IDX 39 70 40 71 66 72 67 73 75 74 68 75 74 76 76 77 73 78 69 79
REMARK SMILES IDX 70 80 71 81 72 82 51 83 52 84 60 85 53 86 59 87 61 88 58 89
REMARK SMILES IDX 54 90 55 91 56 92 57 93
REMARK H PARENT 18 5 6 12 9 16 22 27 81 46 49 57
REMARK Flexibility Score: inf
ROOT
ATOM      1  C   UNL A   1      31.645  28.449  26.675  1.00  0.00     0.117 C 
ENDROOT
BRANCH   1   2
ATOM      2  N   UNL A   1      30.924  27.222  26.937  1.00  0.00    -0.354 N 
ATOM      3  C   UNL A   1      30.734  26.133  26.151  1.00  0.00     0.242 C 
ATOM      4  O   UNL A   1      29.890  25.314  26.532  1.00  0.00    -0.273 OA
ATOM      5  H   UNL A   1      30.505  27.169  27.826  1.00  0.00     0.163 HD
BRANCH   3   6
ATOM      6  C   UNL A   1      31.388  26.007  24.755  1.00  0.00     0.173 C 
BRANCH   6   7
ATOM      7  C   UNL A   1      31.520  24.466  24.449  1.00  0.00     0.018 C 
ATOM      8  C   UNL A   1      31.041  24.081  23.044  1.00  0.00     0.010 C 
BRANCH   7   9
ATOM      9  C   UNL A   1      32.987  24.015  24.705  1.00  0.00     0.002 C 
ATOM     10  C   UNL A   1      34.085  24.969  24.261  1.00  0.00     0.004 C 
ENDBRANCH   7   9
ENDBRANCH   6   7
BRANCH   6  11
ATOM     11  N   UNL A   1      30.707  26.758  23.676  1.00  0.00    -0.350 N 
ATOM     12  H   UNL A   1      29.834  26.371  23.438  1.00  0.00     0.163 HD
BRANCH  11  13
ATOM     13  C   UNL A   1      31.007  27.848  22.945  1.00  0.00     0.171 C 
ATOM     14  S   UNL A   1      32.636  28.207  22.775  1.00  0.00    -0.041 S 
BRANCH  13  15
ATOM     15  N   UNL A   1      30.131  28.535  22.192  1.00  0.00    -0.333 N 
ATOM     16  H   UNL A   1      29.929  28.106  21.329  1.00  0.00     0.169 HD
BRANCH  15  17
ATOM     17  C   UNL A   1      29.450  29.739  22.394  1.00  0.00     0.040 A 
ATOM     18  C   UNL A   1      29.555  30.341  23.653  1.00  0.00     0.026 A 
ATOM     19  C   UNL A   1      28.668  30.331  21.404  1.00  0.00     0.026 A 
ATOM     20  C   UNL A   1      28.986  31.595  23.875  1.00  0.00     0.002 A 
ATOM     21  C   UNL A   1      28.080  31.575  21.636  1.00  0.00     0.002 A 
ATOM     22  C   UNL A   1      28.260  32.218  22.861  1.00  0.00     0.000 A 
ENDBRANCH  15  17
ENDBRANCH  13  15
ENDBRANCH  11  13
ENDBRANCH   6  11
ENDBRANCH   3   6
ENDBRANCH   1   2
BRANCH   1  23
ATOM     23  C   UNL A   1      33.148  28.230  26.762  1.00  0.00     0.042 C 
BRANCH  23  24
ATOM     24  C   UNL A   1      33.970  29.342  26.133  1.00  0.00     0.118 C 
BRANCH  24  25
ATOM     25  N   UNL A   1      33.719  30.648  26.721  1.00  0.00    -0.352 N 
ATOM     26  C   UNL A   1      34.467  31.266  27.696  1.00  0.00     0.251 C 
ATOM     27  H   UNL A   1      32.934  31.141  26.387  1.00  0.00     0.163 HD
ATOM     28  O   UNL A   1      34.097  32.320  28.199  1.00  0.00    -0.269 OA
BRANCH  26  29
ATOM     29  C   UNL A   1      35.703  30.595  28.143  1.00  0.00     0.039 A 
ATOM     30  C   UNL A   1      36.923  30.981  27.589  1.00  0.00     0.014 A 
ATOM     31  C   UNL A   1      35.647  29.662  29.182  1.00  0.00     0.014 A 
ATOM     32  C   UNL A   1      38.105  30.453  28.110  1.00  0.00     0.010 A 
ATOM     33  C   UNL A   1      36.828  29.191  29.743  1.00  0.00     0.010 A 
ATOM     34  C   UNL A   1      38.067  29.571  29.201  1.00  0.00    -0.014 A 
BRANCH  34  35
ATOM     35  C   UNL A   1      39.312  28.980  29.751  1.00  0.00     0.031 A 
ATOM     36  C   UNL A   1      39.902  29.551  31.010  1.00  0.00     0.074 A 
ATOM     37  C   UNL A   1      39.931  27.977  29.097  1.00  0.00     0.049 A 
ATOM     38  N   UNL A   1      41.009  29.232  31.630  1.00  0.00    -0.248 NA
ATOM     39  C   UNL A   1      39.165  30.663  31.631  1.00  0.00     0.031 C 
ATOM     40  C   UNL A   1      39.479  27.380  27.839  1.00  0.00     0.029 A 
ATOM     41  N   UNL A   1      41.077  27.288  29.399  1.00  0.00    -0.354 N 
ATOM     42  C   UNL A   1      41.111  30.117  32.698  1.00  0.00     0.074 A 
ATOM     43  C   UNL A   1      39.990  31.027  32.598  1.00  0.00     0.031 C 
ATOM     44  C   UNL A   1      40.326  26.397  27.490  1.00  0.00     0.029 A 
ATOM     45  C   UNL A   1      41.395  26.312  28.482  1.00  0.00     0.049 A 
ATOM     46  H   UNL A   1      41.623  27.473  30.198  1.00  0.00     0.167 HD
ATOM     47  C   UNL A   1      42.038  30.150  33.687  1.00  0.00     0.034 A 
ATOM     48  C   UNL A   1      42.428  25.449  28.453  1.00  0.00     0.034 A 
ATOM     49  C   UNL A   1      43.132  29.215  33.783  1.00  0.00     0.049 A 
ATOM     50  C   UNL A   1      43.426  25.475  29.583  1.00  0.00     0.074 A 
ATOM     51  C   UNL A   1      44.106  29.119  34.760  1.00  0.00     0.029 A 
ATOM     52  N   UNL A   1      43.391  28.206  32.863  1.00  0.00    -0.354 N 
ATOM     53  N   UNL A   1      43.484  26.285  30.615  1.00  0.00    -0.248 NA
ATOM     54  C   UNL A   1      44.483  24.456  29.556  1.00  0.00     0.031 C 
ATOM     55  C   UNL A   1      44.979  28.082  34.408  1.00  0.00     0.029 A 
ATOM     56  C   UNL A   1      44.515  27.490  33.245  1.00  0.00     0.049 A 
ATOM     57  H   UNL A   1      42.854  28.026  32.057  1.00  0.00     0.167 HD
ATOM     58  C   UNL A   1      44.562  25.847  31.380  1.00  0.00     0.074 A 
ATOM     59  C   UNL A   1      45.117  24.698  30.694  1.00  0.00     0.031 C 
ATOM     60  C   UNL A   1      45.046  26.344  32.547  1.00  0.00     0.034 A 
BRANCH  47  61
ATOM     61  C   UNL A   1      41.907  31.247  34.716  1.00  0.00     0.023 A 
ATOM     62  C   UNL A   1      40.863  31.253  35.657  1.00  0.00     0.031 A 
ATOM     63  C   UNL A   1      42.798  32.333  34.719  1.00  0.00     0.131 A 
ATOM     64  C   UNL A   1      40.677  32.364  36.494  1.00  0.00     0.055 A 
ATOM     65  C   UNL A   1      42.662  33.396  35.616  1.00  0.00     0.041 A 
ATOM     66  F   UNL A   1      43.804  32.396  33.832  1.00  0.00    -0.206 F 
ATOM     67  C   UNL A   1      41.585  33.425  36.497  1.00  0.00     0.022 A 
BRANCH  64  68
ATOM     68  S   UNL A   1      39.144  32.475  37.456  1.00  0.00     0.124 S 
ATOM     69  O   UNL A   1      39.657  32.477  38.825  1.00  0.00    -0.237 OA
ATOM     70  O   UNL A   1      38.567  33.729  36.988  1.00  0.00    -0.237 OA
ATOM     71  O   UNL A   1      38.412  31.268  37.075  1.00  0.00    -0.744 OA
ENDBRANCH  64  68
ENDBRANCH  47  61
BRANCH  48  72
ATOM     72  C   UNL A   1      42.567  24.472  27.336  1.00  0.00     0.023 A 
ATOM     73  C   UNL A   1      41.925  23.224  27.384  1.00  0.00     0.031 A 
ATOM     74  C   UNL A   1      43.377  24.756  26.222  1.00  0.00     0.131 A 
ATOM     75  C   UNL A   1      42.140  22.286  26.363  1.00  0.00     0.055 A 
ATOM     76  C   UNL A   1      43.552  23.837  25.186  1.00  0.00     0.041 A 
ATOM     77  F   UNL A   1      44.003  25.939  26.122  1.00  0.00    -0.206 F 
ATOM     78  C   UNL A   1      42.942  22.587  25.259  1.00  0.00     0.022 A 
BRANCH  75  79
ATOM     79  S   UNL A   1      41.414  20.633  26.535  1.00  0.00     0.124 S 
ATOM     80  O   UNL A   1      41.864  20.247  27.867  1.00  0.00    -0.237 OA
ATOM     81  O   UNL A   1      39.989  20.914  26.395  1.00  0.00    -0.237 OA
ATOM     82  O   UNL A   1      42.011  19.883  25.431  1.00  0.00    -0.744 OA
ENDBRANCH  75  79
ENDBRANCH  48  72
BRANCH  60  83
ATOM     83  C   UNL A   1      46.196  25.601  33.178  1.00  0.00     0.023 A 
ATOM     84  C   UNL A   1      45.992  24.562  34.101  1.00  0.00     0.031 A 
ATOM     85  C   UNL A   1      47.519  25.955  32.856  1.00  0.00     0.131 A 
ATOM     86  C   UNL A   1      47.094  23.950  34.716  1.00  0.00     0.055 A 
ATOM     87  C   UNL A   1      48.612  25.305  33.430  1.00  0.00     0.041 A 
ATOM     88  F   UNL A   1      47.769  26.941  31.979  1.00  0.00    -0.206 F 
ATOM     89  C   UNL A   1      48.403  24.306  34.376  1.00  0.00     0.022 A 
BRANCH  86  90
ATOM     90  S   UNL A   1      46.795  22.746  36.038  1.00  0.00     0.124 S 
ATOM     91  O   UNL A   1      45.381  22.437  35.855  1.00  0.00    -0.237 OA
ATOM     92  O   UNL A   1      47.729  21.676  35.702  1.00  0.00    -0.237 OA
ATOM     93  O   UNL A   1      47.114  23.487  37.257  1.00  0.00    -0.744 OA
ENDBRANCH  86  90
ENDBRANCH  60  83
ENDBRANCH  34  35
ENDBRANCH  26  29
ENDBRANCH  24  25
ENDBRANCH  23  24
ENDBRANCH   1  23
TORSDOF 19
ENDMDL
MODEL 2
REMARK VINA RESULT:     -10.4      2.149      3.598
REMARK SMILES CC[C@H](C)[C@@H](NC(=S)Nc1ccccc1)C(=O)NCCCNC(=O)c1ccc(-c2c3nc(c(-c4cc(S(=O)(=O)[O-])ccc4F)c4ccc([nH]4)c(-c4cc(S(=O)(=O)[O-])ccc4F)c4nc(c(-c5cc(S(=O)(=O)[O-])ccc5F)c5ccc2[nH]5)C=C4)C=C3)cc1
REMARK SMILES IDX 19 1 18 2 16 3 17 4 5 6 3 7 4 8 2 9 1 10 6 11 7 13 8 14 9 15
REMARK SMILES IDX 10 17 11 18 15 19 12 20 14 21 13 22 20 23 21 24 22 25 23 26
REMARK SMILES IDX 24 28 25 29 26 30 87 31 27 32 86 33 28 34 29 35 30 36 80 37
REMARK SMILES IDX 31 38 85 39 79 40 81 41 32 42 84 43 78 44 77 45 33 47 65 48
REMARK SMILES IDX 45 49 64 50 46 51 49 52 63 53 82 54 47 55 48 56 62 58 83 59
REMARK SMILES IDX 50 60 34 61 35 62 43 63 36 64 42 65 44 66 41 67 37 68 38 69
REMARK SMILES IDX 39 70 40 71 66 72 67 73 75 74 68 75 74 76 76 77 73 78 69 79
REMARK SMILES IDX 70 80 71 81 72 82 51 83 52 84 60 85 53 86 59 87 61 88 58 89
REMARK SMILES IDX 54 90 55 91 56 92 57 93
REMARK H PARENT 18 5 6 12 9 16 22 27 81 46 49 57
REMARK Flexibility Score: inf
ROOT
ATOM      1  C   UNL A   1      32.733  27.048  26.353  1.00  0.00     0.117 C 
ENDROOT
BRANCH   1   2
ATOM      2  N   UNL A   1      31.523  26.312  26.648  1.00  0.00    -0.354 N 
ATOM      3  C   UNL A   1      31.193  25.024  26.379  1.00  0.00     0.242 C 
ATOM      4  O   UNL A   1      30.010  24.708  26.541  1.00  0.00    -0.273 OA
ATOM      5  H   UNL A   1      30.829  26.826  27.121  1.00  0.00     0.163 HD
BRANCH   3   6
ATOM      6  C   UNL A   1      32.191  24.045  25.716  1.00  0.00     0.173 C 
BRANCH   6   7
ATOM      7  C   UNL A   1      31.847  22.604  26.256  1.00  0.00     0.018 C 
ATOM      8  C   UNL A   1      31.810  21.535  25.157  1.00  0.00     0.010 C 
BRANCH   7   9
ATOM      9  C   UNL A   1      32.839  22.232  27.395  1.00  0.00     0.002 C 
ATOM     10  C   UNL A   1      34.116  23.051  27.486  1.00  0.00     0.004 C 
ENDBRANCH   7   9
ENDBRANCH   6   7
BRANCH   6  11
ATOM     11  N   UNL A   1      32.246  24.115  24.238  1.00  0.00    -0.350 N 
ATOM     12  H   UNL A   1      31.358  24.034  23.822  1.00  0.00     0.163 HD
BRANCH  11  13
ATOM     13  C   UNL A   1      33.232  24.262  23.333  1.00  0.00     0.171 C 
ATOM     14  S   UNL A   1      33.311  25.742  22.549  1.00  0.00    -0.041 S 
BRANCH  13  15
ATOM     15  N   UNL A   1      34.254  23.407  23.162  1.00  0.00    -0.333 N 
ATOM     16  H   UNL A   1      34.324  23.050  22.247  1.00  0.00     0.169 HD
BRANCH  15  17
ATOM     17  C   UNL A   1      35.239  22.924  24.030  1.00  0.00     0.040 A 
ATOM     18  C   UNL A   1      35.213  21.563  24.351  1.00  0.00     0.026 A 
ATOM     19  C   UNL A   1      36.212  23.751  24.589  1.00  0.00     0.026 A 
ATOM     20  C   UNL A   1      36.232  21.009  25.124  1.00  0.00     0.002 A 
ATOM     21  C   UNL A   1      37.219  23.199  25.382  1.00  0.00     0.002 A 
ATOM     22  C   UNL A   1      37.243  21.826  25.628  1.00  0.00     0.000 A 
ENDBRANCH  15  17
ENDBRANCH  13  15
ENDBRANCH  11  13
ENDBRANCH   6  11
ENDBRANCH   3   6
ENDBRANCH   1   2
BRANCH   1  23
ATOM     23  C   UNL A   1      32.720  28.415  27.022  1.00  0.00     0.042 C 
BRANCH  23  24
ATOM     24  C   UNL A   1      33.731  29.391  26.446  1.00  0.00     0.118 C 
BRANCH  24  25
ATOM     25  N   UNL A   1      33.385  30.784  26.677  1.00  0.00    -0.352 N 
ATOM     26  C   UNL A   1      34.014  31.655  27.536  1.00  0.00     0.251 C 
ATOM     27  H   UNL A   1      32.622  31.141  26.166  1.00  0.00     0.163 HD
ATOM     28  O   UNL A   1      33.566  32.777  27.734  1.00  0.00    -0.269 OA
BRANCH  26  29
ATOM     29  C   UNL A   1      35.220  31.176  28.238  1.00  0.00     0.039 A 
ATOM     30  C   UNL A   1      35.143  30.013  29.003  1.00  0.00     0.014 A 
ATOM     31  C   UNL A   1      36.441  31.830  28.044  1.00  0.00     0.014 A 
ATOM     32  C   UNL A   1      36.311  29.477  29.549  1.00  0.00     0.010 A 
ATOM     33  C   UNL A   1      37.609  31.257  28.531  1.00  0.00     0.010 A 
ATOM     34  C   UNL A   1      37.552  30.084  29.301  1.00  0.00    -0.014 A 
BRANCH  34  35
ATOM     35  C   UNL A   1      38.800  29.545  29.896  1.00  0.00     0.031 A 
ATOM     36  C   UNL A   1      39.244  30.040  31.244  1.00  0.00     0.074 A 
ATOM     37  C   UNL A   1      39.550  28.661  29.209  1.00  0.00     0.049 A 
ATOM     38  N   UNL A   1      40.325  29.752  31.921  1.00  0.00    -0.248 NA
ATOM     39  C   UNL A   1      38.369  31.026  31.899  1.00  0.00     0.031 C 
ATOM     40  C   UNL A   1      39.245  28.151  27.870  1.00  0.00     0.029 A 
ATOM     41  N   UNL A   1      40.726  28.040  29.541  1.00  0.00    -0.354 N 
ATOM     42  C   UNL A   1      40.272  30.537  33.068  1.00  0.00     0.074 A 
ATOM     43  C   UNL A   1      39.087  31.361  32.958  1.00  0.00     0.031 C 
ATOM     44  C   UNL A   1      40.198  27.276  27.507  1.00  0.00     0.029 A 
ATOM     45  C   UNL A   1      41.194  27.184  28.570  1.00  0.00     0.049 A 
ATOM     46  H   UNL A   1      41.193  28.192  30.394  1.00  0.00     0.167 HD
ATOM     47  C   UNL A   1      41.117  30.551  34.128  1.00  0.00     0.034 A 
ATOM     48  C   UNL A   1      42.298  26.412  28.549  1.00  0.00     0.034 A 
ATOM     49  C   UNL A   1      42.278  29.701  34.230  1.00  0.00     0.049 A 
ATOM     50  C   UNL A   1      43.203  26.410  29.755  1.00  0.00     0.074 A 
ATOM     51  C   UNL A   1      43.182  29.591  35.271  1.00  0.00     0.029 A 
ATOM     52  N   UNL A   1      42.691  28.808  33.249  1.00  0.00    -0.354 N 
ATOM     53  N   UNL A   1      43.115  27.121  30.856  1.00  0.00    -0.248 NA
ATOM     54  C   UNL A   1      44.344  25.486  29.724  1.00  0.00     0.031 C 
ATOM     55  C   UNL A   1      44.165  28.665  34.901  1.00  0.00     0.029 A 
ATOM     56  C   UNL A   1      43.841  28.151  33.656  1.00  0.00     0.049 A 
ATOM     57  H   UNL A   1      42.232  28.662  32.389  1.00  0.00     0.167 HD
ATOM     58  C   UNL A   1      44.167  26.700  31.664  1.00  0.00     0.074 A 
ATOM     59  C   UNL A   1      44.869  25.669  30.926  1.00  0.00     0.031 C 
ATOM     60  C   UNL A   1      44.520  27.122  32.905  1.00  0.00     0.034 A 
BRANCH  47  61
ATOM     61  C   UNL A   1      40.816  31.532  35.236  1.00  0.00     0.023 A 
ATOM     62  C   UNL A   1      39.712  31.362  36.090  1.00  0.00     0.031 A 
ATOM     63  C   UNL A   1      41.604  32.683  35.403  1.00  0.00     0.131 A 
ATOM     64  C   UNL A   1      39.368  32.370  37.003  1.00  0.00     0.055 A 
ATOM     65  C   UNL A   1      41.310  33.642  36.376  1.00  0.00     0.041 A 
ATOM     66  F   UNL A   1      42.659  32.913  34.606  1.00  0.00    -0.206 F 
ATOM     67  C   UNL A   1      40.175  33.498  37.170  1.00  0.00     0.022 A 
BRANCH  64  68
ATOM     68  S   UNL A   1      37.768  32.263  37.849  1.00  0.00     0.124 S 
ATOM     69  O   UNL A   1      36.943  33.147  37.028  1.00  0.00    -0.237 OA
ATOM     70  O   UNL A   1      37.460  30.840  37.763  1.00  0.00    -0.237 OA
ATOM     71  O   UNL A   1      38.056  32.761  39.192  1.00  0.00    -0.744 OA
ENDBRANCH  64  68
ENDBRANCH  47  61
BRANCH  48  72
ATOM     72  C   UNL A   1      42.603  25.560  27.366  1.00  0.00     0.023 A 
ATOM     73  C   UNL A   1      42.179  24.222  27.311  1.00  0.00     0.031 A 
ATOM     74  C   UNL A   1      43.358  26.058  26.289  1.00  0.00     0.131 A 
ATOM     75  C   UNL A   1      42.552  23.413  26.226  1.00  0.00     0.055 A 
ATOM     76  C   UNL A   1      43.689  25.262  25.191  1.00  0.00     0.041 A 
ATOM     77  F   UNL A   1      43.777  27.333  26.288  1.00  0.00    -0.206 F 
ATOM     78  C   UNL A   1      43.297  23.926  25.162  1.00  0.00     0.022 A 
BRANCH  75  79
ATOM     79  S   UNL A   1      42.112  21.654  26.264  1.00  0.00     0.124 S 
ATOM     80  O   UNL A   1      40.703  21.690  25.893  1.00  0.00    -0.237 OA
ATOM     81  O   UNL A   1      43.023  21.094  25.270  1.00  0.00    -0.237 OA
ATOM     82  O   UNL A   1      42.386  21.264  27.646  1.00  0.00    -0.744 OA
ENDBRANCH  75  79
ENDBRANCH  48  72
BRANCH  60  83
ATOM     83  C   UNL A   1      45.681  26.416  33.560  1.00  0.00     0.023 A 
ATOM     84  C   UNL A   1      45.518  25.207  34.255  1.00  0.00     0.031 A 
ATOM     85  C   UNL A   1      46.968  26.979  33.495  1.00  0.00     0.131 A 
ATOM     86  C   UNL A   1      46.615  24.626  34.910  1.00  0.00     0.055 A 
ATOM     87  C   UNL A   1      48.066  26.368  34.102  1.00  0.00     0.041 A 
ATOM     88  F   UNL A   1      47.178  28.133  32.842  1.00  0.00    -0.206 F 
ATOM     89  C   UNL A   1      47.890  25.192  34.825  1.00  0.00     0.022 A 
BRANCH  86  90
ATOM     90  S   UNL A   1      46.334  23.170  35.952  1.00  0.00     0.124 S 
ATOM     91  O   UNL A   1      47.138  22.154  35.281  1.00  0.00    -0.237 OA
ATOM     92  O   UNL A   1      46.829  23.617  37.251  1.00  0.00    -0.237 OA
ATOM     93  O   UNL A   1      44.889  22.966  35.876  1.00  0.00    -0.744 OA
ENDBRANCH  86  90
ENDBRANCH  60  83
ENDBRANCH  34  35
ENDBRANCH  26  29
ENDBRANCH  24  25
ENDBRANCH  23  24
ENDBRANCH   1  23
TORSDOF 19
ENDMDL
MODEL 3
REMARK VINA RESULT:     -10.4      4.711      9.530
REMARK SMILES CC[C@H](C)[C@@H](NC(=S)Nc1ccccc1)C(=O)NCCCNC(=O)c1ccc(-c2c3nc(c(-c4cc(S(=O)(=O)[O-])ccc4F)c4ccc([nH]4)c(-c4cc(S(=O)(=O)[O-])ccc4F)c4nc(c(-c5cc(S(=O)(=O)[O-])ccc5F)c5ccc2[nH]5)C=C4)C=C3)cc1
REMARK SMILES IDX 19 1 18 2 16 3 17 4 5 6 3 7 4 8 2 9 1 10 6 11 7 13 8 14 9 15
REMARK SMILES IDX 10 17 11 18 15 19 12 20 14 21 13 22 20 23 21 24 22 25 23 26
REMARK SMILES IDX 24 28 25 29 26 30 87 31 27 32 86 33 28 34 29 35 30 36 80 37
REMARK SMILES IDX 31 38 85 39 79 40 81 41 32 42 84 43 78 44 77 45 33 47 65 48
REMARK SMILES IDX 45 49 64 50 46 51 49 52 63 53 82 54 47 55 48 56 62 58 83 59
REMARK SMILES IDX 50 60 34 61 35 62 43 63 36 64 42 65 44 66 41 67 37 68 38 69
REMARK SMILES IDX 39 70 40 71 66 72 67 73 75 74 68 75 74 76 76 77 73 78 69 79
REMARK SMILES IDX 70 80 71 81 72 82 51 83 52 84 60 85 53 86 59 87 61 88 58 89
REMARK SMILES IDX 54 90 55 91 56 92 57 93
REMARK H PARENT 18 5 6 12 9 16 22 27 81 46 49 57
REMARK Flexibility Score: inf
ROOT
ATOM      1  C   UNL A   1      34.287  24.467  25.504  1.00  0.00     0.117 C 
ENDROOT
BRANCH   1   2
ATOM      2  N   UNL A   1      34.218  25.569  24.570  1.00  0.00    -0.354 N 
ATOM      3  C   UNL A   1      33.445  26.684  24.586  1.00  0.00     0.242 C 
ATOM      4  O   UNL A   1      33.422  27.359  23.551  1.00  0.00    -0.273 OA
ATOM      5  H   UNL A   1      34.828  25.500  23.801  1.00  0.00     0.163 HD
BRANCH   3   6
ATOM      6  C   UNL A   1      32.487  26.999  25.759  1.00  0.00     0.173 C 
BRANCH   6   7
ATOM      7  C   UNL A   1      32.813  28.467  26.235  1.00  0.00     0.018 C 
ATOM      8  C   UNL A   1      31.801  29.017  27.247  1.00  0.00     0.010 C 
BRANCH   7   9
ATOM      9  C   UNL A   1      34.268  28.518  26.784  1.00  0.00     0.002 C 
ATOM     10  C   UNL A   1      34.698  29.808  27.465  1.00  0.00     0.004 C 
ENDBRANCH   7   9
ENDBRANCH   6   7
BRANCH   6  11
ATOM     11  N   UNL A   1      31.052  26.788  25.467  1.00  0.00    -0.350 N 
ATOM     12  H   UNL A   1      30.463  27.241  26.113  1.00  0.00     0.163 HD
BRANCH  11  13
ATOM     13  C   UNL A   1      30.366  26.117  24.522  1.00  0.00     0.171 C 
ATOM     14  S   UNL A   1      30.662  24.471  24.410  1.00  0.00    -0.041 S 
BRANCH  13  15
ATOM     15  N   UNL A   1      29.338  26.619  23.815  1.00  0.00    -0.333 N 
ATOM     16  H   UNL A   1      28.587  25.991  23.707  1.00  0.00     0.169 HD
BRANCH  15  17
ATOM     17  C   UNL A   1      29.126  27.859  23.205  1.00  0.00     0.040 A 
ATOM     18  C   UNL A   1      30.232  28.503  22.641  1.00  0.00     0.026 A 
ATOM     19  C   UNL A   1      27.873  28.467  23.164  1.00  0.00     0.026 A 
ATOM     20  C   UNL A   1      30.060  29.688  21.926  1.00  0.00     0.002 A 
ATOM     21  C   UNL A   1      27.705  29.665  22.467  1.00  0.00     0.002 A 
ATOM     22  C   UNL A   1      28.793  30.261  21.828  1.00  0.00     0.000 A 
ENDBRANCH  15  17
ENDBRANCH  13  15
ENDBRANCH  11  13
ENDBRANCH   6  11
ENDBRANCH   3   6
ENDBRANCH   1   2
BRANCH   1  23
ATOM     23  C   UNL A   1      35.443  23.537  25.169  1.00  0.00     0.042 C 
BRANCH  23  24
ATOM     24  C   UNL A   1      36.708  23.816  25.965  1.00  0.00     0.118 C 
BRANCH  24  25
ATOM     25  N   UNL A   1      37.632  22.694  25.994  1.00  0.00    -0.352 N 
ATOM     26  C   UNL A   1      38.960  22.734  26.348  1.00  0.00     0.251 C 
ATOM     27  H   UNL A   1      37.270  21.816  25.732  1.00  0.00     0.163 HD
ATOM     28  O   UNL A   1      39.673  21.745  26.227  1.00  0.00    -0.269 OA
BRANCH  26  29
ATOM     29  C   UNL A   1      39.502  24.015  26.839  1.00  0.00     0.039 A 
ATOM     30  C   UNL A   1      40.063  24.909  25.926  1.00  0.00     0.014 A 
ATOM     31  C   UNL A   1      39.353  24.361  28.185  1.00  0.00     0.014 A 
ATOM     32  C   UNL A   1      40.445  26.178  26.362  1.00  0.00     0.010 A 
ATOM     33  C   UNL A   1      39.670  25.648  28.601  1.00  0.00     0.010 A 
ATOM     34  C   UNL A   1      40.233  26.563  27.696  1.00  0.00    -0.014 A 
BRANCH  34  35
ATOM     35  C   UNL A   1      40.657  27.899  28.183  1.00  0.00     0.031 A 
ATOM     36  C   UNL A   1      42.118  28.254  28.172  1.00  0.00     0.074 A 
ATOM     37  C   UNL A   1      39.746  28.759  28.677  1.00  0.00     0.049 A 
ATOM     38  N   UNL A   1      42.715  29.335  28.604  1.00  0.00    -0.248 NA
ATOM     39  C   UNL A   1      43.035  27.234  27.639  1.00  0.00     0.031 C 
ATOM     40  C   UNL A   1      38.309  28.501  28.788  1.00  0.00     0.029 A 
ATOM     41  N   UNL A   1      39.896  30.024  29.185  1.00  0.00    -0.354 N 
ATOM     42  C   UNL A   1      44.075  29.115  28.417  1.00  0.00     0.074 A 
ATOM     43  C   UNL A   1      44.216  27.771  27.896  1.00  0.00     0.031 C 
ATOM     44  C   UNL A   1      37.707  29.584  29.307  1.00  0.00     0.029 A 
ATOM     45  C   UNL A   1      38.715  30.601  29.592  1.00  0.00     0.049 A 
ATOM     46  H   UNL A   1      40.767  30.478  29.253  1.00  0.00     0.167 HD
ATOM     47  C   UNL A   1      45.110  29.964  28.632  1.00  0.00     0.034 A 
ATOM     48  C   UNL A   1      38.478  31.815  30.128  1.00  0.00     0.034 A 
ATOM     49  C   UNL A   1      44.946  31.309  29.125  1.00  0.00     0.049 A 
ATOM     50  C   UNL A   1      39.637  32.759  30.321  1.00  0.00     0.074 A 
ATOM     51  C   UNL A   1      45.910  32.276  29.340  1.00  0.00     0.029 A 
ATOM     52  N   UNL A   1      43.727  31.877  29.476  1.00  0.00    -0.354 N 
ATOM     53  N   UNL A   1      40.915  32.558  30.093  1.00  0.00    -0.248 NA
ATOM     54  C   UNL A   1      39.319  34.103  30.823  1.00  0.00     0.031 C 
ATOM     55  C   UNL A   1      45.281  33.413  29.863  1.00  0.00     0.029 A 
ATOM     56  C   UNL A   1      43.917  33.178  29.916  1.00  0.00     0.049 A 
ATOM     57  H   UNL A   1      42.855  31.422  29.421  1.00  0.00     0.167 HD
ATOM     58  C   UNL A   1      41.547  33.762  30.387  1.00  0.00     0.074 A 
ATOM     59  C   UNL A   1      40.508  34.685  30.800  1.00  0.00     0.031 C 
ATOM     60  C   UNL A   1      42.865  34.081  30.317  1.00  0.00     0.034 A 
BRANCH  47  61
ATOM     61  C   UNL A   1      46.499  29.440  28.353  1.00  0.00     0.023 A 
ATOM     62  C   UNL A   1      47.258  28.799  29.347  1.00  0.00     0.031 A 
ATOM     63  C   UNL A   1      47.097  29.637  27.096  1.00  0.00     0.131 A 
ATOM     64  C   UNL A   1      48.599  28.467  29.103  1.00  0.00     0.055 A 
ATOM     65  C   UNL A   1      48.404  29.223  26.829  1.00  0.00     0.041 A 
ATOM     66  F   UNL A   1      46.431  30.261  26.112  1.00  0.00    -0.206 F 
ATOM     67  C   UNL A   1      49.170  28.651  27.842  1.00  0.00     0.022 A 
BRANCH  64  68
ATOM     68  S   UNL A   1      49.629  27.945  30.501  1.00  0.00     0.124 S 
ATOM     69  O   UNL A   1      50.650  27.143  29.829  1.00  0.00    -0.237 OA
ATOM     70  O   UNL A   1      50.078  29.216  31.055  1.00  0.00    -0.237 OA
ATOM     71  O   UNL A   1      48.706  27.187  31.343  1.00  0.00    -0.744 OA
ENDBRANCH  64  68
ENDBRANCH  47  61
BRANCH  48  72
ATOM     72  C   UNL A   1      37.094  32.221  30.499  1.00  0.00     0.023 A 
ATOM     73  C   UNL A   1      36.214  32.749  29.540  1.00  0.00     0.031 A 
ATOM     74  C   UNL A   1      36.642  32.125  31.827  1.00  0.00     0.131 A 
ATOM     75  C   UNL A   1      34.945  33.206  29.930  1.00  0.00     0.055 A 
ATOM     76  C   UNL A   1      35.363  32.539  32.202  1.00  0.00     0.041 A 
ATOM     77  F   UNL A   1      37.439  31.616  32.780  1.00  0.00    -0.206 F 
ATOM     78  C   UNL A   1      34.510  33.097  31.252  1.00  0.00     0.022 A 
BRANCH  75  79
ATOM     79  S   UNL A   1      33.897  34.017  28.692  1.00  0.00     0.124 S 
ATOM     80  O   UNL A   1      33.384  32.878  27.942  1.00  0.00    -0.237 OA
ATOM     81  O   UNL A   1      32.932  34.723  29.529  1.00  0.00    -0.237 OA
ATOM     82  O   UNL A   1      34.832  34.875  27.965  1.00  0.00    -0.744 OA
ENDBRANCH  75  79
ENDBRANCH  48  72
BRANCH  60  83
ATOM     83  C   UNL A   1      43.238  35.506  30.636  1.00  0.00     0.023 A 
ATOM     84  C   UNL A   1      43.298  36.499  29.644  1.00  0.00     0.031 A 
ATOM     85  C   UNL A   1      43.554  35.868  31.958  1.00  0.00     0.131 A 
ATOM     86  C   UNL A   1      43.721  37.794  29.978  1.00  0.00     0.055 A 
ATOM     87  C   UNL A   1      43.921  37.171  32.294  1.00  0.00     0.041 A 
ATOM     88  F   UNL A   1      43.512  34.957  32.944  1.00  0.00    -0.206 F 
ATOM     89  C   UNL A   1      44.020  38.139  31.299  1.00  0.00     0.022 A 
BRANCH  86  90
ATOM     90  S   UNL A   1      43.967  38.999  28.646  1.00  0.00     0.124 S 
ATOM     91  O   UNL A   1      42.658  39.639  28.567  1.00  0.00    -0.237 OA
ATOM     92  O   UNL A   1      45.049  39.826  29.172  1.00  0.00    -0.237 OA
ATOM     93  O   UNL A   1      44.323  38.172  27.495  1.00  0.00    -0.744 OA
ENDBRANCH  86  90
ENDBRANCH  60  83
ENDBRANCH  34  35
ENDBRANCH  26  29
ENDBRANCH  24  25
ENDBRANCH  23  24
ENDBRANCH   1  23
TORSDOF 19
ENDMDL
