MODEL 1
REMARK VINA RESULT:     -12.7      0.000      0.000
REMARK SMILES COC(=O)c1c(NC(=O)[C@@H]2C[C@@H]2C(=O)NCCCNC(=O)c2ccc(-c3c4nc(c(-c5cc(S(=O)(=O)[O-])ccc5F)c5ccc([nH]5)c(-c5cc(S(=O)(=O)[O-])ccc5F)c5nc(c(-c6cc(S(=O)(=O)[O-])ccc6F)c6ccc3[nH]6)C=C5)C=C4)cc2)sc2c1CC[N@@H+](Cc1ccccc1)C2
REMARK SMILES IDX 16 1 15 2 13 3 14 4 12 6 10 7 11 8 8 9 7 10 9 12 6 13 5 14
REMARK SMILES IDX 87 15 85 16 86 17 88 18 98 19 89 20 90 21 3 23 4 24 2 25
REMARK SMILES IDX 1 26 91 27 92 28 93 29 97 30 94 31 96 32 95 33 17 34 18 35
REMARK SMILES IDX 19 36 20 37 21 39 22 40 23 41 84 42 24 43 83 44 25 45 26 46
REMARK SMILES IDX 27 47 77 48 28 49 82 50 76 51 78 52 29 53 81 54 75 55 74 56
REMARK SMILES IDX 30 58 62 59 42 60 61 61 43 62 46 63 60 64 79 65 44 66 45 67
REMARK SMILES IDX 59 69 80 70 47 71 31 72 32 73 40 74 33 75 39 76 41 77 38 78
REMARK SMILES IDX 34 79 35 80 36 81 37 82 63 83 64 84 72 85 65 86 71 87 73 88
REMARK SMILES IDX 70 89 66 90 67 91 68 92 69 93 48 94 49 95 57 96 50 97 56 98
REMARK SMILES IDX 58 99 55 100 51 101 52 102 53 103 54 104
REMARK H PARENT 15 5 7 11 90 22 19 38 78 57 46 68
REMARK Flexibility Score: inf
ROOT
ATOM      1  C   UNL A   1      38.950  22.690  26.220  1.00  0.00     0.117 C 
ENDROOT
BRANCH   1   2
ATOM      2  N   UNL A   1      38.417  21.458  25.702  1.00  0.00    -0.356 N 
ATOM      3  C   UNL A   1      37.134  21.103  25.404  1.00  0.00     0.223 C 
ATOM      4  O   UNL A   1      36.972  20.125  24.677  1.00  0.00    -0.275 OA
ATOM      5  H   UNL A   1      39.088  20.755  25.537  1.00  0.00     0.163 HD
BRANCH   3   6
ATOM      6  C   UNL A   1      35.901  21.763  25.906  1.00  0.00     0.091 C 
ATOM      7  C   UNL A   1      34.435  21.909  25.610  1.00  0.00     0.092 C 
ATOM      8  C   UNL A   1      35.400  22.793  24.896  1.00  0.00     0.028 C 
BRANCH   7   9
ATOM      9  C   UNL A   1      33.513  21.017  24.900  1.00  0.00     0.228 C 
ATOM     10  N   UNL A   1      32.416  21.474  24.219  1.00  0.00    -0.317 N 
ATOM     11  H   UNL A   1      31.910  20.770  23.752  1.00  0.00     0.170 HD
ATOM     12  O   UNL A   1      33.752  19.809  24.887  1.00  0.00    -0.274 OA
BRANCH  10  13
ATOM     13  C   UNL A   1      31.896  22.735  24.069  1.00  0.00     0.110 A 
ATOM     14  C   UNL A   1      31.064  23.596  24.763  1.00  0.00     0.098 A 
ATOM     15  C   UNL A   1      30.798  24.778  23.964  1.00  0.00    -0.006 A 
ATOM     16  S   UNL A   1      32.433  23.385  22.571  1.00  0.00    -0.116 S 
ATOM     17  C   UNL A   1      31.536  24.797  22.797  1.00  0.00     0.065 A 
ATOM     18  C   UNL A   1      30.033  26.003  24.391  1.00  0.00     0.099 C 
ATOM     19  C   UNL A   1      31.677  25.997  21.913  1.00  0.00     0.310 C 
ATOM     20  C   UNL A   1      30.334  27.244  23.508  1.00  0.00     0.267 C 
ATOM     21  N   UNL A   1      31.571  27.236  22.706  1.00  0.00    -0.326 N 
ATOM     22  H   UNL A   1      31.477  28.006  22.042  1.00  0.00     0.348 HD
BRANCH  14  23
ATOM     23  C   UNL A   1      30.604  23.453  26.137  1.00  0.00     0.341 C 
ATOM     24  O   UNL A   1      30.892  24.246  27.030  1.00  0.00    -0.246 OA
BRANCH  23  25
ATOM     25  O   UNL A   1      29.884  22.313  26.345  1.00  0.00    -0.465 OA
ATOM     26  C   UNL A   1      28.921  22.407  27.397  1.00  0.00     0.282 C 
ENDBRANCH  23  25
ENDBRANCH  14  23
BRANCH  21  27
ATOM     27  C   UNL A   1      32.802  27.646  23.406  1.00  0.00     0.299 C 
BRANCH  27  28
ATOM     28  C   UNL A   1      32.691  28.287  24.776  1.00  0.00     0.006 A 
ATOM     29  C   UNL A   1      32.967  27.558  25.941  1.00  0.00     0.009 A 
ATOM     30  C   UNL A   1      32.356  29.645  24.908  1.00  0.00     0.009 A 
ATOM     31  C   UNL A   1      33.005  28.189  27.188  1.00  0.00     0.001 A 
ATOM     32  C   UNL A   1      32.411  30.280  26.151  1.00  0.00     0.001 A 
ATOM     33  C   UNL A   1      32.751  29.554  27.289  1.00  0.00     0.000 A 
ENDBRANCH  27  28
ENDBRANCH  21  27
ENDBRANCH  10  13
ENDBRANCH   7   9
ENDBRANCH   3   6
ENDBRANCH   1   2
BRANCH   1  34
ATOM     34  C   UNL A   1      40.358  22.594  26.803  1.00  0.00     0.042 C 
BRANCH  34  35
ATOM     35  C   UNL A   1      40.975  23.903  27.271  1.00  0.00     0.118 C 
BRANCH  35  36
ATOM     36  N   UNL A   1      41.756  24.570  26.219  1.00  0.00    -0.352 N 
ATOM     37  C   UNL A   1      41.590  25.848  25.717  1.00  0.00     0.251 C 
ATOM     38  H   UNL A   1      42.488  24.042  25.825  1.00  0.00     0.163 HD
ATOM     39  O   UNL A   1      42.039  26.167  24.625  1.00  0.00    -0.269 OA
BRANCH  37  40
ATOM     40  C   UNL A   1      40.841  26.799  26.552  1.00  0.00     0.039 A 
ATOM     41  C   UNL A   1      40.025  26.365  27.595  1.00  0.00     0.014 A 
ATOM     42  C   UNL A   1      41.185  28.137  26.412  1.00  0.00     0.014 A 
ATOM     43  C   UNL A   1      39.681  27.280  28.590  1.00  0.00     0.010 A 
ATOM     44  C   UNL A   1      40.993  28.981  27.479  1.00  0.00     0.010 A 
ATOM     45  C   UNL A   1      40.224  28.579  28.569  1.00  0.00    -0.014 A 
BRANCH  45  46
ATOM     46  C   UNL A   1      40.095  29.466  29.731  1.00  0.00     0.031 A 
ATOM     47  C   UNL A   1      38.775  30.138  29.915  1.00  0.00     0.074 A 
ATOM     48  C   UNL A   1      41.012  29.589  30.715  1.00  0.00     0.049 A 
ATOM     49  N   UNL A   1      38.500  31.381  29.694  1.00  0.00    -0.248 NA
ATOM     50  C   UNL A   1      37.600  29.335  30.280  1.00  0.00     0.031 C 
ATOM     51  C   UNL A   1      42.270  28.859  30.912  1.00  0.00     0.029 A 
ATOM     52  N   UNL A   1      40.949  30.371  31.830  1.00  0.00    -0.354 N 
ATOM     53  C   UNL A   1      37.181  31.581  30.095  1.00  0.00     0.074 A 
ATOM     54  C   UNL A   1      36.636  30.262  30.282  1.00  0.00     0.031 C 
ATOM     55  C   UNL A   1      42.721  29.048  32.169  1.00  0.00     0.029 A 
ATOM     56  C   UNL A   1      41.914  30.082  32.783  1.00  0.00     0.049 A 
ATOM     57  H   UNL A   1      40.276  31.081  31.947  1.00  0.00     0.167 HD
ATOM     58  C   UNL A   1      36.723  32.828  30.414  1.00  0.00     0.034 A 
ATOM     59  C   UNL A   1      42.099  30.680  33.984  1.00  0.00     0.034 A 
ATOM     60  C   UNL A   1      37.665  33.844  29.993  1.00  0.00     0.049 A 
ATOM     61  C   UNL A   1      41.541  32.046  33.866  1.00  0.00     0.074 A 
ATOM     62  C   UNL A   1      38.215  34.216  28.781  1.00  0.00     0.029 A 
ATOM     63  N   UNL A   1      38.487  34.400  30.949  1.00  0.00    -0.354 N 
ATOM     64  N   UNL A   1      42.030  32.944  33.053  1.00  0.00    -0.248 NA
ATOM     65  C   UNL A   1      40.169  32.279  34.285  1.00  0.00     0.031 C 
ATOM     66  C   UNL A   1      39.584  34.498  29.075  1.00  0.00     0.029 A 
ATOM     67  C   UNL A   1      39.768  34.363  30.454  1.00  0.00     0.049 A 
ATOM     68  H   UNL A   1      38.209  34.758  31.823  1.00  0.00     0.167 HD
ATOM     69  C   UNL A   1      40.924  33.583  32.515  1.00  0.00     0.074 A 
ATOM     70  C   UNL A   1      39.818  33.216  33.399  1.00  0.00     0.031 C 
ATOM     71  C   UNL A   1      40.952  34.126  31.261  1.00  0.00     0.034 A 
BRANCH  58  72
ATOM     72  C   UNL A   1      35.601  33.160  31.379  1.00  0.00     0.023 A 
ATOM     73  C   UNL A   1      34.703  34.182  31.001  1.00  0.00     0.031 A 
ATOM     74  C   UNL A   1      35.518  32.748  32.725  1.00  0.00     0.131 A 
ATOM     75  C   UNL A   1      33.874  34.815  31.944  1.00  0.00     0.055 A 
ATOM     76  C   UNL A   1      34.641  33.333  33.647  1.00  0.00     0.041 A 
ATOM     77  F   UNL A   1      36.332  31.827  33.250  1.00  0.00    -0.206 F 
ATOM     78  C   UNL A   1      33.838  34.396  33.269  1.00  0.00     0.022 A 
BRANCH  75  79
ATOM     79  S   UNL A   1      32.994  36.321  31.448  1.00  0.00     0.124 S 
ATOM     80  O   UNL A   1      31.703  36.138  32.101  1.00  0.00    -0.237 OA
ATOM     81  O   UNL A   1      33.854  37.365  31.996  1.00  0.00    -0.237 OA
ATOM     82  O   UNL A   1      32.972  36.234  29.989  1.00  0.00    -0.744 OA
ENDBRANCH  75  79
ENDBRANCH  58  72
BRANCH  59  83
ATOM     83  C   UNL A   1      42.485  30.012  35.249  1.00  0.00     0.023 A 
ATOM     84  C   UNL A   1      42.080  28.705  35.573  1.00  0.00     0.031 A 
ATOM     85  C   UNL A   1      43.475  30.600  36.071  1.00  0.00     0.131 A 
ATOM     86  C   UNL A   1      42.663  28.037  36.674  1.00  0.00     0.055 A 
ATOM     87  C   UNL A   1      44.044  29.938  37.160  1.00  0.00     0.041 A 
ATOM     88  F   UNL A   1      43.982  31.811  35.789  1.00  0.00    -0.206 F 
ATOM     89  C   UNL A   1      43.647  28.646  37.460  1.00  0.00     0.022 A 
BRANCH  86  90
ATOM     90  S   UNL A   1      42.218  26.309  37.030  1.00  0.00     0.124 S 
ATOM     91  O   UNL A   1      42.174  25.721  35.696  1.00  0.00    -0.237 OA
ATOM     92  O   UNL A   1      43.312  25.876  37.894  1.00  0.00    -0.237 OA
ATOM     93  O   UNL A   1      40.922  26.421  37.697  1.00  0.00    -0.744 OA
ENDBRANCH  86  90
ENDBRANCH  59  83
BRANCH  71  94
ATOM     94  C   UNL A   1      42.293  34.288  30.567  1.00  0.00     0.023 A 
ATOM     95  C   UNL A   1      42.794  33.428  29.563  1.00  0.00     0.031 A 
ATOM     96  C   UNL A   1      43.030  35.452  30.852  1.00  0.00     0.131 A 
ATOM     97  C   UNL A   1      43.995  33.744  28.895  1.00  0.00     0.055 A 
ATOM     98  C   UNL A   1      44.206  35.772  30.175  1.00  0.00     0.041 A 
ATOM     99  F   UNL A   1      42.594  36.326  31.774  1.00  0.00    -0.206 F 
ATOM    100  C   UNL A   1      44.697  34.916  29.196  1.00  0.00     0.022 A 
BRANCH  97 101
ATOM    101  S   UNL A   1      44.674  32.628  27.624  1.00  0.00     0.124 S 
ATOM    102  O   UNL A   1      43.912  31.398  27.803  1.00  0.00    -0.237 OA
ATOM    103  O   UNL A   1      44.421  33.362  26.387  1.00  0.00    -0.237 OA
ATOM    104  O   UNL A   1      46.090  32.523  27.986  1.00  0.00    -0.744 OA
ENDBRANCH  97 101
ENDBRANCH  71  94
ENDBRANCH  45  46
ENDBRANCH  37  40
ENDBRANCH  35  36
ENDBRANCH  34  35
ENDBRANCH   1  34
TORSDOF 19
ENDMDL
MODEL 2
REMARK VINA RESULT:     -12.4      3.399      8.981
REMARK SMILES COC(=O)c1c(NC(=O)[C@@H]2C[C@@H]2C(=O)NCCCNC(=O)c2ccc(-c3c4nc(c(-c5cc(S(=O)(=O)[O-])ccc5F)c5ccc([nH]5)c(-c5cc(S(=O)(=O)[O-])ccc5F)c5nc(c(-c6cc(S(=O)(=O)[O-])ccc6F)c6ccc3[nH]6)C=C5)C=C4)cc2)sc2c1CC[N@@H+](Cc1ccccc1)C2
REMARK SMILES IDX 16 1 15 2 13 3 14 4 12 6 10 7 11 8 8 9 7 10 9 12 6 13 5 14
REMARK SMILES IDX 87 15 85 16 86 17 88 18 98 19 89 20 90 21 3 23 4 24 2 25
REMARK SMILES IDX 1 26 91 27 92 28 93 29 97 30 94 31 96 32 95 33 17 34 18 35
REMARK SMILES IDX 19 36 20 37 21 39 22 40 23 41 84 42 24 43 83 44 25 45 26 46
REMARK SMILES IDX 27 47 77 48 28 49 82 50 76 51 78 52 29 53 81 54 75 55 74 56
REMARK SMILES IDX 30 58 62 59 42 60 61 61 43 62 46 63 60 64 79 65 44 66 45 67
REMARK SMILES IDX 59 69 80 70 47 71 31 72 32 73 40 74 33 75 39 76 41 77 38 78
REMARK SMILES IDX 34 79 35 80 36 81 37 82 63 83 64 84 72 85 65 86 71 87 73 88
REMARK SMILES IDX 70 89 66 90 67 91 68 92 69 93 48 94 49 95 57 96 50 97 56 98
REMARK SMILES IDX 58 99 55 100 51 101 52 102 53 103 54 104
REMARK H PARENT 15 5 7 11 90 22 19 38 78 57 46 68
REMARK Flexibility Score: inf
ROOT
ATOM      1  C   UNL A   1      32.798  30.502  26.950  1.00  0.00     0.117 C 
ENDROOT
BRANCH   1   2
ATOM      2  N   UNL A   1      31.739  30.618  25.983  1.00  0.00    -0.356 N 
ATOM      3  C   UNL A   1      31.479  29.887  24.861  1.00  0.00     0.223 C 
ATOM      4  O   UNL A   1      30.348  29.965  24.384  1.00  0.00    -0.275 OA
ATOM      5  H   UNL A   1      31.096  31.343  26.161  1.00  0.00     0.163 HD
BRANCH   3   6
ATOM      6  C   UNL A   1      32.446  29.029  24.128  1.00  0.00     0.091 C 
ATOM      7  C   UNL A   1      32.552  27.710  23.417  1.00  0.00     0.092 C 
ATOM      8  C   UNL A   1      32.702  27.737  24.900  1.00  0.00     0.028 C 
BRANCH   7   9
ATOM      9  C   UNL A   1      31.526  26.904  22.746  1.00  0.00     0.228 C 
ATOM     10  N   UNL A   1      31.376  25.561  22.967  1.00  0.00    -0.317 N 
ATOM     11  H   UNL A   1      30.621  25.155  22.483  1.00  0.00     0.170 HD
ATOM     12  O   UNL A   1      30.746  27.464  21.975  1.00  0.00    -0.274 OA
BRANCH  10  13
ATOM     13  C   UNL A   1      32.088  24.678  23.741  1.00  0.00     0.110 A 
ATOM     14  C   UNL A   1      32.144  24.283  25.066  1.00  0.00     0.098 A 
ATOM     15  C   UNL A   1      33.250  23.363  25.261  1.00  0.00    -0.006 A 
ATOM     16  S   UNL A   1      33.242  23.876  22.752  1.00  0.00    -0.116 S 
ATOM     17  C   UNL A   1      33.865  23.026  24.071  1.00  0.00     0.065 A 
ATOM     18  C   UNL A   1      33.592  22.618  26.524  1.00  0.00     0.099 C 
ATOM     19  C   UNL A   1      34.847  21.906  23.923  1.00  0.00     0.310 C 
ATOM     20  C   UNL A   1      34.506  21.389  26.273  1.00  0.00     0.267 C 
ATOM     21  N   UNL A   1      34.566  20.841  24.905  1.00  0.00    -0.326 N 
ATOM     22  H   UNL A   1      35.367  20.209  24.893  1.00  0.00     0.348 HD
BRANCH  14  23
ATOM     23  C   UNL A   1      31.188  24.602  26.117  1.00  0.00     0.341 C 
ATOM     24  O   UNL A   1      31.417  25.410  27.014  1.00  0.00    -0.246 OA
BRANCH  23  25
ATOM     25  O   UNL A   1      30.046  23.860  26.046  1.00  0.00    -0.465 OA
ATOM     26  C   UNL A   1      29.896  22.905  27.098  1.00  0.00     0.282 C 
ENDBRANCH  23  25
ENDBRANCH  14  23
BRANCH  21  27
ATOM     27  C   UNL A   1      33.490  19.905  24.531  1.00  0.00     0.299 C 
BRANCH  27  28
ATOM     28  C   UNL A   1      33.762  18.414  24.578  1.00  0.00     0.006 A 
ATOM     29  C   UNL A   1      35.064  17.920  24.743  1.00  0.00     0.009 A 
ATOM     30  C   UNL A   1      32.707  17.489  24.505  1.00  0.00     0.009 A 
ATOM     31  C   UNL A   1      35.292  16.554  24.931  1.00  0.00     0.001 A 
ATOM     32  C   UNL A   1      32.933  16.126  24.709  1.00  0.00     0.001 A 
ATOM     33  C   UNL A   1      34.224  15.661  24.938  1.00  0.00     0.000 A 
ENDBRANCH  27  28
ENDBRANCH  21  27
ENDBRANCH  10  13
ENDBRANCH   7   9
ENDBRANCH   3   6
ENDBRANCH   1   2
BRANCH   1  34
ATOM     34  C   UNL A   1      33.494  31.812  27.311  1.00  0.00     0.042 C 
BRANCH  34  35
ATOM     35  C   UNL A   1      34.875  31.683  27.934  1.00  0.00     0.118 C 
BRANCH  35  36
ATOM     36  N   UNL A   1      35.157  32.743  28.913  1.00  0.00    -0.352 N 
ATOM     37  C   UNL A   1      36.246  32.853  29.758  1.00  0.00     0.251 C 
ATOM     38  H   UNL A   1      34.488  33.463  28.973  1.00  0.00     0.163 HD
ATOM     39  O   UNL A   1      36.206  33.554  30.761  1.00  0.00    -0.269 OA
BRANCH  37  40
ATOM     40  C   UNL A   1      37.447  32.082  29.401  1.00  0.00     0.039 A 
ATOM     41  C   UNL A   1      38.723  32.531  29.734  1.00  0.00     0.014 A 
ATOM     42  C   UNL A   1      37.230  30.786  28.953  1.00  0.00     0.014 A 
ATOM     43  C   UNL A   1      39.765  31.604  29.754  1.00  0.00     0.010 A 
ATOM     44  C   UNL A   1      38.216  29.850  29.146  1.00  0.00     0.010 A 
ATOM     45  C   UNL A   1      39.498  30.241  29.525  1.00  0.00    -0.014 A 
BRANCH  45  46
ATOM     46  C   UNL A   1      40.516  29.220  29.800  1.00  0.00     0.031 A 
ATOM     47  C   UNL A   1      40.732  28.860  31.232  1.00  0.00     0.074 A 
ATOM     48  C   UNL A   1      41.145  28.482  28.858  1.00  0.00     0.049 A 
ATOM     49  N   UNL A   1      41.735  29.197  31.974  1.00  0.00    -0.248 NA
ATOM     50  C   UNL A   1      39.680  28.140  31.962  1.00  0.00     0.031 C 
ATOM     51  C   UNL A   1      40.935  28.453  27.406  1.00  0.00     0.029 A 
ATOM     52  N   UNL A   1      42.078  27.506  29.040  1.00  0.00    -0.354 N 
ATOM     53  C   UNL A   1      41.564  28.558  33.200  1.00  0.00     0.074 A 
ATOM     54  C   UNL A   1      40.210  28.069  33.189  1.00  0.00     0.031 C 
ATOM     55  C   UNL A   1      41.526  27.362  26.877  1.00  0.00     0.029 A 
ATOM     56  C   UNL A   1      42.337  26.748  27.909  1.00  0.00     0.049 A 
ATOM     57  H   UNL A   1      42.531  27.354  29.902  1.00  0.00     0.167 HD
ATOM     58  C   UNL A   1      42.624  28.334  34.031  1.00  0.00     0.034 A 
ATOM     59  C   UNL A   1      43.202  25.714  27.782  1.00  0.00     0.034 A 
ATOM     60  C   UNL A   1      43.782  29.090  33.601  1.00  0.00     0.049 A 
ATOM     61  C   UNL A   1      44.246  25.910  28.815  1.00  0.00     0.074 A 
ATOM     62  C   UNL A   1      44.050  30.432  33.411  1.00  0.00     0.029 A 
ATOM     63  N   UNL A   1      44.770  28.422  32.912  1.00  0.00    -0.354 N 
ATOM     64  N   UNL A   1      45.062  26.930  28.814  1.00  0.00    -0.248 NA
ATOM     65  C   UNL A   1      44.091  25.247  30.098  1.00  0.00     0.031 C 
ATOM     66  C   UNL A   1      44.828  30.481  32.214  1.00  0.00     0.029 A 
ATOM     67  C   UNL A   1      45.058  29.167  31.794  1.00  0.00     0.049 A 
ATOM     68  H   UNL A   1      45.192  27.571  33.171  1.00  0.00     0.167 HD
ATOM     69  C   UNL A   1      45.165  27.308  30.144  1.00  0.00     0.074 A 
ATOM     70  C   UNL A   1      44.646  26.165  30.895  1.00  0.00     0.031 C 
ATOM     71  C   UNL A   1      45.406  28.605  30.501  1.00  0.00     0.034 A 
BRANCH  58  72
ATOM     72  C   UNL A   1      42.760  27.212  35.043  1.00  0.00     0.023 A 
ATOM     73  C   UNL A   1      43.523  26.086  34.663  1.00  0.00     0.031 A 
ATOM     74  C   UNL A   1      41.988  27.054  36.212  1.00  0.00     0.131 A 
ATOM     75  C   UNL A   1      43.415  24.863  35.347  1.00  0.00     0.055 A 
ATOM     76  C   UNL A   1      41.936  25.854  36.933  1.00  0.00     0.041 A 
ATOM     77  F   UNL A   1      41.175  28.008  36.675  1.00  0.00    -0.206 F 
ATOM     78  C   UNL A   1      42.623  24.739  36.484  1.00  0.00     0.022 A 
BRANCH  75  79
ATOM     79  S   UNL A   1      44.173  23.390  34.610  1.00  0.00     0.124 S 
ATOM     80  O   UNL A   1      43.071  22.856  33.817  1.00  0.00    -0.237 OA
ATOM     81  O   UNL A   1      45.286  23.968  33.862  1.00  0.00    -0.237 OA
ATOM     82  O   UNL A   1      44.553  22.588  35.770  1.00  0.00    -0.744 OA
ENDBRANCH  75  79
ENDBRANCH  58  72
BRANCH  59  83
ATOM     83  C   UNL A   1      42.986  24.477  26.997  1.00  0.00     0.023 A 
ATOM     84  C   UNL A   1      43.946  23.966  26.104  1.00  0.00     0.031 A 
ATOM     85  C   UNL A   1      41.886  23.643  27.303  1.00  0.00     0.131 A 
ATOM     86  C   UNL A   1      43.787  22.671  25.562  1.00  0.00     0.055 A 
ATOM     87  C   UNL A   1      41.731  22.366  26.760  1.00  0.00     0.041 A 
ATOM     88  F   UNL A   1      40.965  24.013  28.207  1.00  0.00    -0.206 F 
ATOM     89  C   UNL A   1      42.690  21.869  25.893  1.00  0.00     0.022 A 
BRANCH  86  90
ATOM     90  S   UNL A   1      45.079  21.967  24.491  1.00  0.00     0.124 S 
ATOM     91  O   UNL A   1      44.449  20.743  24.009  1.00  0.00    -0.237 OA
ATOM     92  O   UNL A   1      45.280  23.024  23.506  1.00  0.00    -0.237 OA
ATOM     93  O   UNL A   1      46.204  21.762  25.404  1.00  0.00    -0.744 OA
ENDBRANCH  86  90
ENDBRANCH  59  83
BRANCH  71  94
ATOM     94  C   UNL A   1      45.856  29.584  29.431  1.00  0.00     0.023 A 
ATOM     95  C   UNL A   1      44.994  30.245  28.526  1.00  0.00     0.031 A 
ATOM     96  C   UNL A   1      47.212  29.958  29.427  1.00  0.00     0.131 A 
ATOM     97  C   UNL A   1      45.503  31.231  27.656  1.00  0.00     0.055 A 
ATOM     98  C   UNL A   1      47.708  30.949  28.580  1.00  0.00     0.041 A 
ATOM     99  F   UNL A   1      48.079  29.389  30.282  1.00  0.00    -0.206 F 
ATOM    100  C   UNL A   1      46.856  31.587  27.687  1.00  0.00     0.022 A 
BRANCH  97 101
ATOM    101  S   UNL A   1      44.414  32.067  26.458  1.00  0.00     0.124 S 
ATOM    102  O   UNL A   1      43.418  31.053  26.132  1.00  0.00    -0.237 OA
ATOM    103  O   UNL A   1      43.930  33.218  27.216  1.00  0.00    -0.237 OA
ATOM    104  O   UNL A   1      45.318  32.406  25.355  1.00  0.00    -0.744 OA
ENDBRANCH  97 101
ENDBRANCH  71  94
ENDBRANCH  45  46
ENDBRANCH  37  40
ENDBRANCH  35  36
ENDBRANCH  34  35
ENDBRANCH   1  34
TORSDOF 19
ENDMDL
MODEL 3
REMARK VINA RESULT:     -12.3      4.292     10.518
REMARK SMILES COC(=O)c1c(NC(=O)[C@@H]2C[C@@H]2C(=O)NCCCNC(=O)c2ccc(-c3c4nc(c(-c5cc(S(=O)(=O)[O-])ccc5F)c5ccc([nH]5)c(-c5cc(S(=O)(=O)[O-])ccc5F)c5nc(c(-c6cc(S(=O)(=O)[O-])ccc6F)c6ccc3[nH]6)C=C5)C=C4)cc2)sc2c1CC[N@@H+](Cc1ccccc1)C2
REMARK SMILES IDX 16 1 15 2 13 3 14 4 12 6 10 7 11 8 8 9 7 10 9 12 6 13 5 14
REMARK SMILES IDX 87 15 85 16 86 17 88 18 98 19 89 20 90 21 3 23 4 24 2 25
REMARK SMILES IDX 1 26 91 27 92 28 93 29 97 30 94 31 96 32 95 33 17 34 18 35
REMARK SMILES IDX 19 36 20 37 21 39 22 40 23 41 84 42 24 43 83 44 25 45 26 46
REMARK SMILES IDX 27 47 77 48 28 49 82 50 76 51 78 52 29 53 81 54 75 55 74 56
REMARK SMILES IDX 30 58 62 59 42 60 61 61 43 62 46 63 60 64 79 65 44 66 45 67
REMARK SMILES IDX 59 69 80 70 47 71 31 72 32 73 40 74 33 75 39 76 41 77 38 78
REMARK SMILES IDX 34 79 35 80 36 81 37 82 63 83 64 84 72 85 65 86 71 87 73 88
REMARK SMILES IDX 70 89 66 90 67 91 68 92 69 93 48 94 49 95 57 96 50 97 56 98
REMARK SMILES IDX 58 99 55 100 51 101 52 102 53 103 54 104
REMARK H PARENT 15 5 7 11 90 22 19 38 78 57 46 68
REMARK Flexibility Score: inf
ROOT
ATOM      1  C   UNL A   1      34.790  32.730  28.902  1.00  0.00     0.117 C 
ENDROOT
BRANCH   1   2
ATOM      2  N   UNL A   1      33.799  33.214  27.979  1.00  0.00    -0.356 N 
ATOM      3  C   UNL A   1      32.646  32.636  27.532  1.00  0.00     0.223 C 
ATOM      4  O   UNL A   1      31.811  33.371  27.007  1.00  0.00    -0.275 OA
ATOM      5  H   UNL A   1      33.982  34.108  27.607  1.00  0.00     0.163 HD
BRANCH   3   6
ATOM      6  C   UNL A   1      32.312  31.189  27.583  1.00  0.00     0.091 C 
ATOM      7  C   UNL A   1      32.764  29.853  27.065  1.00  0.00     0.092 C 
ATOM      8  C   UNL A   1      31.882  30.693  26.204  1.00  0.00     0.028 C 
BRANCH   7   9
ATOM      9  C   UNL A   1      34.089  29.401  26.626  1.00  0.00     0.228 C 
ATOM     10  N   UNL A   1      34.267  28.332  25.788  1.00  0.00    -0.317 N 
ATOM     11  H   UNL A   1      35.206  28.166  25.541  1.00  0.00     0.170 HD
ATOM     12  O   UNL A   1      35.081  30.026  27.000  1.00  0.00    -0.274 OA
BRANCH  10  13
ATOM     13  C   UNL A   1      33.374  27.451  25.230  1.00  0.00     0.110 A 
ATOM     14  C   UNL A   1      32.455  27.432  24.197  1.00  0.00     0.098 A 
ATOM     15  C   UNL A   1      31.714  26.184  24.218  1.00  0.00    -0.006 A 
ATOM     16  S   UNL A   1      33.427  25.975  26.108  1.00  0.00    -0.116 S 
ATOM     17  C   UNL A   1      32.200  25.303  25.163  1.00  0.00     0.065 A 
ATOM     18  C   UNL A   1      30.701  25.719  23.205  1.00  0.00     0.099 C 
ATOM     19  C   UNL A   1      31.821  23.857  25.235  1.00  0.00     0.310 C 
ATOM     20  C   UNL A   1      30.460  24.186  23.249  1.00  0.00     0.267 C 
ATOM     21  N   UNL A   1      31.485  23.344  23.893  1.00  0.00    -0.326 N 
ATOM     22  H   UNL A   1      31.052  22.429  24.025  1.00  0.00     0.348 HD
BRANCH  14  23
ATOM     23  C   UNL A   1      32.302  28.423  23.141  1.00  0.00     0.341 C 
ATOM     24  O   UNL A   1      33.100  28.550  22.216  1.00  0.00    -0.246 OA
BRANCH  23  25
ATOM     25  O   UNL A   1      31.225  29.239  23.324  1.00  0.00    -0.465 OA
ATOM     26  C   UNL A   1      30.206  29.103  22.332  1.00  0.00     0.282 C 
ENDBRANCH  23  25
ENDBRANCH  14  23
BRANCH  21  27
ATOM     27  C   UNL A   1      32.638  22.968  23.054  1.00  0.00     0.299 C 
BRANCH  27  28
ATOM     28  C   UNL A   1      33.832  22.294  23.703  1.00  0.00     0.006 A 
ATOM     29  C   UNL A   1      35.067  22.949  23.802  1.00  0.00     0.009 A 
ATOM     30  C   UNL A   1      33.714  21.011  24.264  1.00  0.00     0.009 A 
ATOM     31  C   UNL A   1      36.120  22.383  24.527  1.00  0.00     0.001 A 
ATOM     32  C   UNL A   1      34.760  20.453  25.003  1.00  0.00     0.001 A 
ATOM     33  C   UNL A   1      35.958  21.147  25.148  1.00  0.00     0.000 A 
ENDBRANCH  27  28
ENDBRANCH  21  27
ENDBRANCH  10  13
ENDBRANCH   7   9
ENDBRANCH   3   6
ENDBRANCH   1   2
BRANCH   1  34
ATOM     34  C   UNL A   1      36.238  32.930  28.464  1.00  0.00     0.042 C 
BRANCH  34  35
ATOM     35  C   UNL A   1      37.255  31.972  29.066  1.00  0.00     0.118 C 
BRANCH  35  36
ATOM     36  N   UNL A   1      36.760  31.312  30.283  1.00  0.00    -0.352 N 
ATOM     37  C   UNL A   1      36.815  29.967  30.603  1.00  0.00     0.251 C 
ATOM     38  H   UNL A   1      36.339  31.899  30.952  1.00  0.00     0.163 HD
ATOM     39  O   UNL A   1      36.072  29.482  31.446  1.00  0.00    -0.269 OA
BRANCH  37  40
ATOM     40  C   UNL A   1      37.799  29.149  29.878  1.00  0.00     0.039 A 
ATOM     41  C   UNL A   1      38.166  29.446  28.568  1.00  0.00     0.014 A 
ATOM     42  C   UNL A   1      38.518  28.239  30.642  1.00  0.00     0.014 A 
ATOM     43  C   UNL A   1      39.364  28.924  28.082  1.00  0.00     0.010 A 
ATOM     44  C   UNL A   1      39.774  27.877  30.223  1.00  0.00     0.010 A 
ATOM     45  C   UNL A   1      40.209  28.190  28.937  1.00  0.00    -0.014 A 
BRANCH  45  46
ATOM     46  C   UNL A   1      41.581  27.861  28.535  1.00  0.00     0.031 A 
ATOM     47  C   UNL A   1      41.761  26.625  27.719  1.00  0.00     0.074 A 
ATOM     48  C   UNL A   1      42.653  28.666  28.711  1.00  0.00     0.049 A 
ATOM     49  N   UNL A   1      42.249  25.496  28.117  1.00  0.00    -0.248 NA
ATOM     50  C   UNL A   1      41.251  26.588  26.342  1.00  0.00     0.031 C 
ATOM     51  C   UNL A   1      42.713  30.031  29.248  1.00  0.00     0.029 A 
ATOM     52  N   UNL A   1      43.945  28.437  28.344  1.00  0.00    -0.354 N 
ATOM     53  C   UNL A   1      42.317  24.668  26.999  1.00  0.00     0.074 A 
ATOM     54  C   UNL A   1      41.537  25.331  25.986  1.00  0.00     0.031 C 
ATOM     55  C   UNL A   1      43.904  30.590  28.952  1.00  0.00     0.029 A 
ATOM     56  C   UNL A   1      44.763  29.555  28.413  1.00  0.00     0.049 A 
ATOM     57  H   UNL A   1      44.270  27.553  28.056  1.00  0.00     0.167 HD
ATOM     58  C   UNL A   1      43.169  23.602  26.963  1.00  0.00     0.034 A 
ATOM     59  C   UNL A   1      46.079  29.641  28.111  1.00  0.00     0.034 A 
ATOM     60  C   UNL A   1      43.699  23.324  28.282  1.00  0.00     0.049 A 
ATOM     61  C   UNL A   1      46.642  28.282  28.290  1.00  0.00     0.074 A 
ATOM     62  C   UNL A   1      43.142  23.001  29.504  1.00  0.00     0.029 A 
ATOM     63  N   UNL A   1      44.977  23.752  28.568  1.00  0.00    -0.354 N 
ATOM     64  N   UNL A   1      46.682  27.679  29.448  1.00  0.00    -0.248 NA
ATOM     65  C   UNL A   1      46.728  27.404  27.136  1.00  0.00     0.031 C 
ATOM     66  C   UNL A   1      43.901  23.746  30.458  1.00  0.00     0.029 A 
ATOM     67  C   UNL A   1      44.923  24.410  29.773  1.00  0.00     0.049 A 
ATOM     68  H   UNL A   1      45.780  23.612  28.014  1.00  0.00     0.167 HD
ATOM     69  C   UNL A   1      46.349  26.361  29.178  1.00  0.00     0.074 A 
ATOM     70  C   UNL A   1      46.508  26.228  27.730  1.00  0.00     0.031 C 
ATOM     71  C   UNL A   1      45.719  25.578  30.105  1.00  0.00     0.034 A 
BRANCH  58  72
ATOM     72  C   UNL A   1      43.798  22.987  25.727  1.00  0.00     0.023 A 
ATOM     73  C   UNL A   1      43.812  21.578  25.640  1.00  0.00     0.031 A 
ATOM     74  C   UNL A   1      44.606  23.660  24.787  1.00  0.00     0.131 A 
ATOM     75  C   UNL A   1      44.671  20.907  24.751  1.00  0.00     0.055 A 
ATOM     76  C   UNL A   1      45.408  22.990  23.856  1.00  0.00     0.041 A 
ATOM     77  F   UNL A   1      44.739  24.990  24.771  1.00  0.00    -0.206 F 
ATOM     78  C   UNL A   1      45.473  21.606  23.856  1.00  0.00     0.022 A 
BRANCH  75  79
ATOM     79  S   UNL A   1      44.864  19.113  24.926  1.00  0.00     0.124 S 
ATOM     80  O   UNL A   1      46.127  19.020  25.650  1.00  0.00    -0.237 OA
ATOM     81  O   UNL A   1      43.664  18.753  25.674  1.00  0.00    -0.237 OA
ATOM     82  O   UNL A   1      44.902  18.641  23.543  1.00  0.00    -0.744 OA
ENDBRANCH  75  79
ENDBRANCH  58  72
BRANCH  59  83
ATOM     83  C   UNL A   1      46.756  30.772  27.435  1.00  0.00     0.023 A 
ATOM     84  C   UNL A   1      46.059  31.889  26.941  1.00  0.00     0.031 A 
ATOM     85  C   UNL A   1      48.167  30.861  27.474  1.00  0.00     0.131 A 
ATOM     86  C   UNL A   1      46.770  33.035  26.518  1.00  0.00     0.055 A 
ATOM     87  C   UNL A   1      48.865  31.994  27.051  1.00  0.00     0.041 A 
ATOM     88  F   UNL A   1      48.911  29.878  28.005  1.00  0.00    -0.206 F 
ATOM     89  C   UNL A   1      48.166  33.093  26.580  1.00  0.00     0.022 A 
BRANCH  86  90
ATOM     90  S   UNL A   1      45.866  34.520  25.980  1.00  0.00     0.124 S 
ATOM     91  O   UNL A   1      45.757  34.311  24.541  1.00  0.00    -0.237 OA
ATOM     92  O   UNL A   1      44.627  34.427  26.745  1.00  0.00    -0.237 OA
ATOM     93  O   UNL A   1      46.747  35.618  26.378  1.00  0.00    -0.744 OA
ENDBRANCH  86  90
ENDBRANCH  59  83
BRANCH  71  94
ATOM     94  C   UNL A   1      45.647  26.066  31.541  1.00  0.00     0.023 A 
ATOM     95  C   UNL A   1      44.481  26.561  32.171  1.00  0.00     0.031 A 
ATOM     96  C   UNL A   1      46.791  25.890  32.341  1.00  0.00     0.131 A 
ATOM     97  C   UNL A   1      44.496  26.867  33.547  1.00  0.00     0.055 A 
ATOM     98  C   UNL A   1      46.796  26.174  33.706  1.00  0.00     0.041 A 
ATOM     99  F   UNL A   1      47.923  25.396  31.811  1.00  0.00    -0.206 F 
ATOM    100  C   UNL A   1      45.649  26.669  34.315  1.00  0.00     0.022 A 
BRANCH  97 101
ATOM    101  S   UNL A   1      43.014  27.540  34.367  1.00  0.00     0.124 S 
ATOM    102  O   UNL A   1      43.558  28.395  35.414  1.00  0.00    -0.237 OA
ATOM    103  O   UNL A   1      42.329  28.225  33.274  1.00  0.00    -0.237 OA
ATOM    104  O   UNL A   1      42.324  26.343  34.858  1.00  0.00    -0.744 OA
ENDBRANCH  97 101
ENDBRANCH  71  94
ENDBRANCH  45  46
ENDBRANCH  37  40
ENDBRANCH  35  36
ENDBRANCH  34  35
ENDBRANCH   1  34
TORSDOF 19
ENDMDL
