MODEL 1
REMARK VINA RESULT:     -11.0      0.000      0.000
REMARK SMILES CC[C@](C)(C(=O)NCCCNC(=O)c1ccc(-c2c3nc(c(-c4cc(S(=O)(=O)[O-])ccc4F)c4ccc([nH]4)c(-c4cc(S(=O)(=O)[O-])ccc4F)c4nc(c(-c5cc(S(=O)(=O)[O-])ccc5F)c5ccc2[nH]5)C=C4)C=C3)cc1)[C@@H]1CCC[C@@H]1O
REMARK SMILES IDX 9 1 8 2 7 3 5 4 6 5 3 7 4 8 2 9 1 10 77 11 78 12 81 13 79 14
REMARK SMILES IDX 80 15 82 16 10 18 11 19 12 20 13 22 14 23 15 24 76 25 16 26
REMARK SMILES IDX 75 27 17 28 18 29 19 30 69 31 20 32 74 33 68 34 70 35 21 36
REMARK SMILES IDX 73 37 67 38 66 39 22 41 54 42 34 43 53 44 35 45 38 46 52 47
REMARK SMILES IDX 71 48 36 49 37 50 51 52 72 53 39 54 23 55 24 56 32 57 25 58
REMARK SMILES IDX 31 59 33 60 30 61 26 62 27 63 28 64 29 65 55 66 56 67 64 68
REMARK SMILES IDX 57 69 63 70 65 71 62 72 58 73 59 74 60 75 61 76 40 77 41 78
REMARK SMILES IDX 49 79 42 80 48 81 50 82 47 83 43 84 44 85 45 86 46 87
REMARK H PARENT 7 6 82 17 11 21 70 40 38 51
REMARK Flexibility Score: inf
ROOT
ATOM      1  C   UNL A   1      31.406  31.990  26.432  1.00  0.00     0.042 C 
ENDROOT
BRANCH   1   2
ATOM      2  C   UNL A   1      31.540  30.580  25.882  1.00  0.00     0.117 C 
BRANCH   2   3
ATOM      3  N   UNL A   1      31.349  29.561  26.899  1.00  0.00    -0.356 N 
ATOM      4  C   UNL A   1      31.876  28.318  27.069  1.00  0.00     0.226 C 
ATOM      5  O   UNL A   1      31.616  27.792  28.153  1.00  0.00    -0.274 OA
ATOM      6  H   UNL A   1      30.713  29.821  27.605  1.00  0.00     0.163 HD
BRANCH   4   7
ATOM      7  C   UNL A   1      32.750  27.627  25.987  1.00  0.00     0.051 C 
ATOM      8  C   UNL A   1      31.900  27.599  24.675  1.00  0.00     0.022 C 
BRANCH   7   9
ATOM      9  C   UNL A   1      34.064  28.432  25.744  1.00  0.00     0.013 C 
ATOM     10  C   UNL A   1      34.746  28.969  27.007  1.00  0.00     0.005 C 
ENDBRANCH   7   9
BRANCH   7  11
ATOM     11  C   UNL A   1      33.075  26.092  26.295  1.00  0.00     0.033 C 
ATOM     12  C   UNL A   1      34.201  25.477  25.429  1.00  0.00     0.007 C 
ATOM     13  C   UNL A   1      32.016  24.975  26.255  1.00  0.00     0.118 C 
ATOM     14  C   UNL A   1      33.535  24.447  24.499  1.00  0.00     0.003 C 
ATOM     15  C   UNL A   1      32.049  24.451  24.835  1.00  0.00     0.032 C 
BRANCH  13  16
ATOM     16  O   UNL A   1      30.730  25.309  26.718  1.00  0.00    -0.393 OA
ATOM     17  H   UNL A   1      30.422  24.628  27.335  1.00  0.00     0.210 HD
ENDBRANCH  13  16
ENDBRANCH   7  11
ENDBRANCH   4   7
ENDBRANCH   2   3
ENDBRANCH   1   2
BRANCH   1  18
ATOM     18  C   UNL A   1      32.622  32.456  27.221  1.00  0.00     0.118 C 
BRANCH  18  19
ATOM     19  N   UNL A   1      32.510  33.842  27.663  1.00  0.00    -0.352 N 
ATOM     20  C   UNL A   1      33.229  34.525  28.614  1.00  0.00     0.251 C 
ATOM     21  H   UNL A   1      31.811  34.368  27.211  1.00  0.00     0.163 HD
ATOM     22  O   UNL A   1      32.845  35.629  28.991  1.00  0.00    -0.269 OA
BRANCH  20  23
ATOM     23  C   UNL A   1      34.444  33.916  29.193  1.00  0.00     0.039 A 
ATOM     24  C   UNL A   1      35.701  34.403  28.826  1.00  0.00     0.014 A 
ATOM     25  C   UNL A   1      34.336  32.872  30.112  1.00  0.00     0.014 A 
ATOM     26  C   UNL A   1      36.846  33.896  29.447  1.00  0.00     0.010 A 
ATOM     27  C   UNL A   1      35.462  32.442  30.800  1.00  0.00     0.010 A 
ATOM     28  C   UNL A   1      36.731  32.941  30.470  1.00  0.00    -0.014 A 
BRANCH  28  29
ATOM     29  C   UNL A   1      37.912  32.406  31.195  1.00  0.00     0.031 A 
ATOM     30  C   UNL A   1      38.678  31.256  30.601  1.00  0.00     0.074 A 
ATOM     31  C   UNL A   1      38.222  32.868  32.422  1.00  0.00     0.049 A 
ATOM     32  N   UNL A   1      39.597  30.499  31.142  1.00  0.00    -0.248 NA
ATOM     33  C   UNL A   1      38.314  30.874  29.229  1.00  0.00     0.031 C 
ATOM     34  C   UNL A   1      37.529  33.953  33.121  1.00  0.00     0.029 A 
ATOM     35  N   UNL A   1      39.185  32.463  33.312  1.00  0.00    -0.354 N 
ATOM     36  C   UNL A   1      39.893  29.528  30.190  1.00  0.00     0.074 A 
ATOM     37  C   UNL A   1      39.003  29.755  29.072  1.00  0.00     0.031 C 
ATOM     38  C   UNL A   1      38.097  34.135  34.323  1.00  0.00     0.029 A 
ATOM     39  C   UNL A   1      39.158  33.148  34.505  1.00  0.00     0.049 A 
ATOM     40  H   UNL A   1      39.834  31.751  33.116  1.00  0.00     0.167 HD
ATOM     41  C   UNL A   1      40.834  28.553  30.235  1.00  0.00     0.034 A 
ATOM     42  C   UNL A   1      39.889  32.984  35.625  1.00  0.00     0.034 A 
ATOM     43  C   UNL A   1      41.730  28.366  31.349  1.00  0.00     0.049 A 
ATOM     44  C   UNL A   1      40.938  31.902  35.656  1.00  0.00     0.074 A 
ATOM     45  C   UNL A   1      42.761  27.452  31.487  1.00  0.00     0.029 A 
ATOM     46  N   UNL A   1      41.704  29.112  32.522  1.00  0.00    -0.354 N 
ATOM     47  N   UNL A   1      41.229  31.008  34.740  1.00  0.00    -0.248 NA
ATOM     48  C   UNL A   1      41.762  31.813  36.868  1.00  0.00     0.031 C 
ATOM     49  C   UNL A   1      43.318  27.608  32.762  1.00  0.00     0.029 A 
ATOM     50  C   UNL A   1      42.685  28.667  33.394  1.00  0.00     0.049 A 
ATOM     51  H   UNL A   1      41.077  29.849  32.707  1.00  0.00     0.167 HD
ATOM     52  C   UNL A   1      42.293  30.272  35.251  1.00  0.00     0.074 A 
ATOM     53  C   UNL A   1      42.593  30.830  36.555  1.00  0.00     0.031 C 
ATOM     54  C   UNL A   1      42.968  29.236  34.692  1.00  0.00     0.034 A 
BRANCH  41  55
ATOM     55  C   UNL A   1      40.908  27.610  29.056  1.00  0.00     0.023 A 
ATOM     56  C   UNL A   1      41.875  27.767  28.046  1.00  0.00     0.031 A 
ATOM     57  C   UNL A   1      39.961  26.583  28.899  1.00  0.00     0.131 A 
ATOM     58  C   UNL A   1      41.804  26.992  26.879  1.00  0.00     0.055 A 
ATOM     59  C   UNL A   1      39.958  25.747  27.780  1.00  0.00     0.041 A 
ATOM     60  F   UNL A   1      39.000  26.391  29.817  1.00  0.00    -0.206 F 
ATOM     61  C   UNL A   1      40.869  25.965  26.750  1.00  0.00     0.022 A 
BRANCH  58  62
ATOM     62  S   UNL A   1      42.829  27.475  25.461  1.00  0.00     0.124 S 
ATOM     63  O   UNL A   1      42.913  26.219  24.719  1.00  0.00    -0.237 OA
ATOM     64  O   UNL A   1      42.035  28.530  24.843  1.00  0.00    -0.237 OA
ATOM     65  O   UNL A   1      44.080  27.911  26.077  1.00  0.00    -0.744 OA
ENDBRANCH  58  62
ENDBRANCH  41  55
BRANCH  42  66
ATOM     66  C   UNL A   1      39.653  33.858  36.808  1.00  0.00     0.023 A 
ATOM     67  C   UNL A   1      39.045  33.354  37.968  1.00  0.00     0.031 A 
ATOM     68  C   UNL A   1      40.024  35.214  36.793  1.00  0.00     0.131 A 
ATOM     69  C   UNL A   1      38.793  34.207  39.054  1.00  0.00     0.055 A 
ATOM     70  C   UNL A   1      39.812  36.050  37.891  1.00  0.00     0.041 A 
ATOM     71  F   UNL A   1      40.620  35.743  35.712  1.00  0.00    -0.206 F 
ATOM     72  C   UNL A   1      39.183  35.549  39.028  1.00  0.00     0.022 A 
BRANCH  69  73
ATOM     73  S   UNL A   1      37.894  33.551  40.485  1.00  0.00     0.124 S 
ATOM     74  O   UNL A   1      38.818  32.535  40.975  1.00  0.00    -0.237 OA
ATOM     75  O   UNL A   1      37.743  34.738  41.319  1.00  0.00    -0.237 OA
ATOM     76  O   UNL A   1      36.654  33.039  39.902  1.00  0.00    -0.744 OA
ENDBRANCH  69  73
ENDBRANCH  42  66
BRANCH  54  77
ATOM     77  C   UNL A   1      44.139  28.681  35.462  1.00  0.00     0.023 A 
ATOM     78  C   UNL A   1      43.990  27.646  36.401  1.00  0.00     0.031 A 
ATOM     79  C   UNL A   1      45.429  29.198  35.244  1.00  0.00     0.131 A 
ATOM     80  C   UNL A   1      45.106  27.188  37.116  1.00  0.00     0.055 A 
ATOM     81  C   UNL A   1      46.544  28.703  35.920  1.00  0.00     0.041 A 
ATOM     82  F   UNL A   1      45.625  30.189  34.359  1.00  0.00    -0.206 F 
ATOM     83  C   UNL A   1      46.384  27.699  36.870  1.00  0.00     0.022 A 
BRANCH  80  84
ATOM     84  S   UNL A   1      44.859  25.963  38.430  1.00  0.00     0.124 S 
ATOM     85  O   UNL A   1      44.110  24.920  37.737  1.00  0.00    -0.237 OA
ATOM     86  O   UNL A   1      46.228  25.623  38.804  1.00  0.00    -0.237 OA
ATOM     87  O   UNL A   1      44.105  26.696  39.446  1.00  0.00    -0.744 OA
ENDBRANCH  80  84
ENDBRANCH  54  77
ENDBRANCH  28  29
ENDBRANCH  20  23
ENDBRANCH  18  19
ENDBRANCH   1  18
TORSDOF 16
ENDMDL
MODEL 2
REMARK VINA RESULT:     -10.9      6.028     10.950
REMARK SMILES CC[C@](C)(C(=O)NCCCNC(=O)c1ccc(-c2c3nc(c(-c4cc(S(=O)(=O)[O-])ccc4F)c4ccc([nH]4)c(-c4cc(S(=O)(=O)[O-])ccc4F)c4nc(c(-c5cc(S(=O)(=O)[O-])ccc5F)c5ccc2[nH]5)C=C4)C=C3)cc1)[C@@H]1CCC[C@@H]1O
REMARK SMILES IDX 9 1 8 2 7 3 5 4 6 5 3 7 4 8 2 9 1 10 77 11 78 12 81 13 79 14
REMARK SMILES IDX 80 15 82 16 10 18 11 19 12 20 13 22 14 23 15 24 76 25 16 26
REMARK SMILES IDX 75 27 17 28 18 29 19 30 69 31 20 32 74 33 68 34 70 35 21 36
REMARK SMILES IDX 73 37 67 38 66 39 22 41 54 42 34 43 53 44 35 45 38 46 52 47
REMARK SMILES IDX 71 48 36 49 37 50 51 52 72 53 39 54 23 55 24 56 32 57 25 58
REMARK SMILES IDX 31 59 33 60 30 61 26 62 27 63 28 64 29 65 55 66 56 67 64 68
REMARK SMILES IDX 57 69 63 70 65 71 62 72 58 73 59 74 60 75 61 76 40 77 41 78
REMARK SMILES IDX 49 79 42 80 48 81 50 82 47 83 43 84 44 85 45 86 46 87
REMARK H PARENT 7 6 82 17 11 21 70 40 38 51
REMARK Flexibility Score: inf
ROOT
ATOM      1  C   UNL A   1      35.046  21.893  26.486  1.00  0.00     0.042 C 
ENDROOT
BRANCH   1   2
ATOM      2  C   UNL A   1      33.677  21.906  25.826  1.00  0.00     0.117 C 
BRANCH   2   3
ATOM      3  N   UNL A   1      32.672  22.578  26.632  1.00  0.00    -0.356 N 
ATOM      4  C   UNL A   1      32.060  23.788  26.521  1.00  0.00     0.226 C 
ATOM      5  O   UNL A   1      31.120  23.962  27.298  1.00  0.00    -0.274 OA
ATOM      6  H   UNL A   1      32.377  22.055  27.412  1.00  0.00     0.163 HD
BRANCH   4   7
ATOM      7  C   UNL A   1      32.503  24.856  25.483  1.00  0.00     0.051 C 
ATOM      8  C   UNL A   1      31.368  25.931  25.435  1.00  0.00     0.022 C 
BRANCH   7   9
ATOM      9  C   UNL A   1      33.842  25.525  25.919  1.00  0.00     0.013 C 
ATOM     10  C   UNL A   1      33.803  27.053  26.039  1.00  0.00     0.005 C 
ENDBRANCH   7   9
BRANCH   7  11
ATOM     11  C   UNL A   1      32.606  24.305  23.985  1.00  0.00     0.033 C 
ATOM     12  C   UNL A   1      33.772  24.891  23.153  1.00  0.00     0.007 C 
ATOM     13  C   UNL A   1      31.446  24.371  22.974  1.00  0.00     0.118 C 
ATOM     14  C   UNL A   1      33.140  25.777  22.065  1.00  0.00     0.003 C 
ATOM     15  C   UNL A   1      31.630  25.689  22.250  1.00  0.00     0.032 C 
BRANCH  13  16
ATOM     16  O   UNL A   1      30.152  24.169  23.486  1.00  0.00    -0.393 OA
ATOM     17  H   UNL A   1      29.888  24.940  24.013  1.00  0.00     0.210 HD
ENDBRANCH  13  16
ENDBRANCH   7  11
ENDBRANCH   4   7
ENDBRANCH   2   3
ENDBRANCH   1   2
BRANCH   1  18
ATOM     18  C   UNL A   1      36.196  22.093  25.508  1.00  0.00     0.118 C 
BRANCH  18  19
ATOM     19  N   UNL A   1      37.120  20.964  25.488  1.00  0.00    -0.352 N 
ATOM     20  C   UNL A   1      38.473  20.927  25.728  1.00  0.00     0.251 C 
ATOM     21  H   UNL A   1      36.712  20.095  25.268  1.00  0.00     0.163 HD
ATOM     22  O   UNL A   1      39.112  19.914  25.456  1.00  0.00    -0.269 OA
BRANCH  20  23
ATOM     23  C   UNL A   1      39.152  22.115  26.285  1.00  0.00     0.039 A 
ATOM     24  C   UNL A   1      40.249  21.946  27.134  1.00  0.00     0.014 A 
ATOM     25  C   UNL A   1      38.710  23.396  25.953  1.00  0.00     0.014 A 
ATOM     26  C   UNL A   1      40.953  23.067  27.582  1.00  0.00     0.010 A 
ATOM     27  C   UNL A   1      39.469  24.500  26.315  1.00  0.00     0.010 A 
ATOM     28  C   UNL A   1      40.594  24.350  27.141  1.00  0.00    -0.014 A 
BRANCH  28  29
ATOM     29  C   UNL A   1      41.340  25.570  27.548  1.00  0.00     0.031 A 
ATOM     30  C   UNL A   1      40.639  26.618  28.367  1.00  0.00     0.074 A 
ATOM     31  C   UNL A   1      42.588  25.786  27.091  1.00  0.00     0.049 A 
ATOM     32  N   UNL A   1      41.012  27.837  28.657  1.00  0.00    -0.248 NA
ATOM     33  C   UNL A   1      39.308  26.258  28.881  1.00  0.00     0.031 C 
ATOM     34  C   UNL A   1      43.359  24.862  26.257  1.00  0.00     0.029 A 
ATOM     35  N   UNL A   1      43.420  26.867  27.244  1.00  0.00    -0.354 N 
ATOM     36  C   UNL A   1      39.947  28.402  29.352  1.00  0.00     0.074 A 
ATOM     37  C   UNL A   1      38.892  27.412  29.375  1.00  0.00     0.031 C 
ATOM     38  C   UNL A   1      44.554  25.410  25.982  1.00  0.00     0.029 A 
ATOM     39  C   UNL A   1      44.615  26.743  26.574  1.00  0.00     0.049 A 
ATOM     40  H   UNL A   1      43.185  27.656  27.782  1.00  0.00     0.167 HD
ATOM     41  C   UNL A   1      39.866  29.623  29.936  1.00  0.00     0.034 A 
ATOM     42  C   UNL A   1      45.634  27.613  26.433  1.00  0.00     0.034 A 
ATOM     43  C   UNL A   1      40.944  30.581  29.926  1.00  0.00     0.049 A 
ATOM     44  C   UNL A   1      45.534  28.963  27.097  1.00  0.00     0.074 A 
ATOM     45  C   UNL A   1      41.003  31.825  30.530  1.00  0.00     0.029 A 
ATOM     46  N   UNL A   1      42.160  30.400  29.276  1.00  0.00    -0.354 N 
ATOM     47  N   UNL A   1      44.534  29.476  27.776  1.00  0.00    -0.248 NA
ATOM     48  C   UNL A   1      46.701  29.847  26.982  1.00  0.00     0.031 C 
ATOM     49  C   UNL A   1      42.228  32.417  30.199  1.00  0.00     0.029 A 
ATOM     50  C   UNL A   1      42.965  31.514  29.449  1.00  0.00     0.049 A 
ATOM     51  H   UNL A   1      42.411  29.596  28.766  1.00  0.00     0.167 HD
ATOM     52  C   UNL A   1      44.966  30.729  28.200  1.00  0.00     0.074 A 
ATOM     53  C   UNL A   1      46.317  30.892  27.700  1.00  0.00     0.031 C 
ATOM     54  C   UNL A   1      44.311  31.658  28.942  1.00  0.00     0.034 A 
BRANCH  41  55
ATOM     55  C   UNL A   1      38.558  29.984  30.603  1.00  0.00     0.023 A 
ATOM     56  C   UNL A   1      37.538  30.659  29.908  1.00  0.00     0.031 A 
ATOM     57  C   UNL A   1      38.352  29.716  31.968  1.00  0.00     0.131 A 
ATOM     58  C   UNL A   1      36.416  31.139  30.600  1.00  0.00     0.055 A 
ATOM     59  C   UNL A   1      37.186  30.108  32.628  1.00  0.00     0.041 A 
ATOM     60  F   UNL A   1      39.294  29.092  32.692  1.00  0.00    -0.206 F 
ATOM     61  C   UNL A   1      36.220  30.846  31.950  1.00  0.00     0.022 A 
BRANCH  58  62
ATOM     62  S   UNL A   1      35.319  32.311  29.753  1.00  0.00     0.124 S 
ATOM     63  O   UNL A   1      34.779  31.482  28.678  1.00  0.00    -0.237 OA
ATOM     64  O   UNL A   1      34.382  32.684  30.806  1.00  0.00    -0.237 OA
ATOM     65  O   UNL A   1      36.225  33.372  29.316  1.00  0.00    -0.744 OA
ENDBRANCH  58  62
ENDBRANCH  41  55
BRANCH  42  66
ATOM     66  C   UNL A   1      46.833  27.241  25.630  1.00  0.00     0.023 A 
ATOM     67  C   UNL A   1      46.985  27.693  24.310  1.00  0.00     0.031 A 
ATOM     68  C   UNL A   1      47.840  26.420  26.168  1.00  0.00     0.131 A 
ATOM     69  C   UNL A   1      48.101  27.292  23.558  1.00  0.00     0.055 A 
ATOM     70  C   UNL A   1      48.969  26.060  25.432  1.00  0.00     0.041 A 
ATOM     71  F   UNL A   1      47.747  25.971  27.430  1.00  0.00    -0.206 F 
ATOM     72  C   UNL A   1      49.100  26.489  24.114  1.00  0.00     0.022 A 
BRANCH  69  73
ATOM     73  S   UNL A   1      48.201  27.792  21.818  1.00  0.00     0.124 S 
ATOM     74  O   UNL A   1      48.419  26.513  21.154  1.00  0.00    -0.237 OA
ATOM     75  O   UNL A   1      46.898  28.414  21.606  1.00  0.00    -0.237 OA
ATOM     76  O   UNL A   1      49.339  28.711  21.793  1.00  0.00    -0.744 OA
ENDBRANCH  69  73
ENDBRANCH  42  66
BRANCH  54  77
ATOM     77  C   UNL A   1      45.072  32.906  29.310  1.00  0.00     0.023 A 
ATOM     78  C   UNL A   1      45.026  34.068  28.520  1.00  0.00     0.031 A 
ATOM     79  C   UNL A   1      45.850  32.930  30.481  1.00  0.00     0.131 A 
ATOM     80  C   UNL A   1      45.779  35.192  28.890  1.00  0.00     0.055 A 
ATOM     81  C   UNL A   1      46.556  34.068  30.872  1.00  0.00     0.041 A 
ATOM     82  F   UNL A   1      45.930  31.846  31.270  1.00  0.00    -0.206 F 
ATOM     83  C   UNL A   1      46.531  35.204  30.069  1.00  0.00     0.022 A 
BRANCH  80  84
ATOM     84  S   UNL A   1      45.825  36.618  27.772  1.00  0.00     0.124 S 
ATOM     85  O   UNL A   1      47.260  36.813  27.585  1.00  0.00    -0.237 OA
ATOM     86  O   UNL A   1      45.092  36.129  26.609  1.00  0.00    -0.237 OA
ATOM     87  O   UNL A   1      45.151  37.671  28.530  1.00  0.00    -0.744 OA
ENDBRANCH  80  84
ENDBRANCH  54  77
ENDBRANCH  28  29
ENDBRANCH  20  23
ENDBRANCH  18  19
ENDBRANCH   1  18
TORSDOF 16
ENDMDL
MODEL 3
REMARK VINA RESULT:     -10.8      3.824      9.906
REMARK SMILES CC[C@](C)(C(=O)NCCCNC(=O)c1ccc(-c2c3nc(c(-c4cc(S(=O)(=O)[O-])ccc4F)c4ccc([nH]4)c(-c4cc(S(=O)(=O)[O-])ccc4F)c4nc(c(-c5cc(S(=O)(=O)[O-])ccc5F)c5ccc2[nH]5)C=C4)C=C3)cc1)[C@@H]1CCC[C@@H]1O
REMARK SMILES IDX 9 1 8 2 7 3 5 4 6 5 3 7 4 8 2 9 1 10 77 11 78 12 81 13 79 14
REMARK SMILES IDX 80 15 82 16 10 18 11 19 12 20 13 22 14 23 15 24 76 25 16 26
REMARK SMILES IDX 75 27 17 28 18 29 19 30 69 31 20 32 74 33 68 34 70 35 21 36
REMARK SMILES IDX 73 37 67 38 66 39 22 41 54 42 34 43 53 44 35 45 38 46 52 47
REMARK SMILES IDX 71 48 36 49 37 50 51 52 72 53 39 54 23 55 24 56 32 57 25 58
REMARK SMILES IDX 31 59 33 60 30 61 26 62 27 63 28 64 29 65 55 66 56 67 64 68
REMARK SMILES IDX 57 69 63 70 65 71 62 72 58 73 59 74 60 75 61 76 40 77 41 78
REMARK SMILES IDX 49 79 42 80 48 81 50 82 47 83 43 84 44 85 45 86 46 87
REMARK H PARENT 7 6 82 17 11 21 70 40 38 51
REMARK Flexibility Score: inf
ROOT
ATOM      1  C   UNL A   1      34.632  34.114  29.078  1.00  0.00     0.042 C 
ENDROOT
BRANCH   1   2
ATOM      2  C   UNL A   1      34.533  33.443  30.439  1.00  0.00     0.117 C 
BRANCH   2   3
ATOM      3  N   UNL A   1      34.524  34.397  31.534  1.00  0.00    -0.356 N 
ATOM      4  C   UNL A   1      35.453  34.732  32.471  1.00  0.00     0.226 C 
ATOM      5  O   UNL A   1      35.164  35.719  33.151  1.00  0.00    -0.274 OA
ATOM      6  H   UNL A   1      33.681  34.899  31.615  1.00  0.00     0.163 HD
BRANCH   4   7
ATOM      7  C   UNL A   1      36.777  33.942  32.655  1.00  0.00     0.051 C 
ATOM      8  C   UNL A   1      36.395  32.426  32.677  1.00  0.00     0.022 C 
BRANCH   7   9
ATOM      9  C   UNL A   1      37.753  34.220  31.470  1.00  0.00     0.013 C 
ATOM     10  C   UNL A   1      38.026  33.022  30.552  1.00  0.00     0.005 C 
ENDBRANCH   7   9
BRANCH   7  11
ATOM     11  C   UNL A   1      37.501  34.200  34.057  1.00  0.00     0.033 C 
ATOM     12  C   UNL A   1      38.950  33.664  34.152  1.00  0.00     0.007 C 
ATOM     13  C   UNL A   1      36.920  33.748  35.409  1.00  0.00     0.118 C 
ATOM     14  C   UNL A   1      38.925  32.491  35.149  1.00  0.00     0.003 C 
ATOM     15  C   UNL A   1      37.489  32.364  35.640  1.00  0.00     0.032 C 
BRANCH  13  16
ATOM     16  O   UNL A   1      35.523  33.830  35.553  1.00  0.00    -0.393 OA
ATOM     17  H   UNL A   1      35.233  33.217  36.246  1.00  0.00     0.210 HD
ENDBRANCH  13  16
ENDBRANCH   7  11
ENDBRANCH   4   7
ENDBRANCH   2   3
ENDBRANCH   1   2
BRANCH   1  18
ATOM     18  C   UNL A   1      35.278  33.239  28.012  1.00  0.00     0.118 C 
BRANCH  18  19
ATOM     19  N   UNL A   1      34.439  32.111  27.625  1.00  0.00    -0.352 N 
ATOM     20  C   UNL A   1      34.720  30.766  27.612  1.00  0.00     0.251 C 
ATOM     21  H   UNL A   1      33.531  32.350  27.326  1.00  0.00     0.163 HD
ATOM     22  O   UNL A   1      33.951  29.988  27.052  1.00  0.00    -0.269 OA
BRANCH  20  23
ATOM     23  C   UNL A   1      35.957  30.269  28.248  1.00  0.00     0.039 A 
ATOM     24  C   UNL A   1      35.903  29.740  29.540  1.00  0.00     0.014 A 
ATOM     25  C   UNL A   1      37.168  30.313  27.557  1.00  0.00     0.014 A 
ATOM     26  C   UNL A   1      37.052  29.179  30.105  1.00  0.00     0.010 A 
ATOM     27  C   UNL A   1      38.281  29.666  28.076  1.00  0.00     0.010 A 
ATOM     28  C   UNL A   1      38.239  29.099  29.360  1.00  0.00    -0.014 A 
BRANCH  28  29
ATOM     29  C   UNL A   1      39.474  28.469  29.895  1.00  0.00     0.031 A 
ATOM     30  C   UNL A   1      40.125  29.054  31.118  1.00  0.00     0.074 A 
ATOM     31  C   UNL A   1      40.066  27.461  29.227  1.00  0.00     0.049 A 
ATOM     32  N   UNL A   1      41.300  28.809  31.635  1.00  0.00    -0.248 NA
ATOM     33  C   UNL A   1      39.366  30.100  31.819  1.00  0.00     0.031 C 
ATOM     34  C   UNL A   1      39.552  26.834  28.007  1.00  0.00     0.029 A 
ATOM     35  N   UNL A   1      41.245  26.801  29.466  1.00  0.00    -0.354 N 
ATOM     36  C   UNL A   1      41.438  29.697  32.697  1.00  0.00     0.074 A 
ATOM     37  C   UNL A   1      40.254  30.529  32.701  1.00  0.00     0.031 C 
ATOM     38  C   UNL A   1      40.404  25.875  27.612  1.00  0.00     0.029 A 
ATOM     39  C   UNL A   1      41.550  25.852  28.517  1.00  0.00     0.049 A 
ATOM     40  H   UNL A   1      41.820  26.989  30.242  1.00  0.00     0.167 HD
ATOM     41  C   UNL A   1      42.446  29.794  33.599  1.00  0.00     0.034 A 
ATOM     42  C   UNL A   1      42.638  25.070  28.380  1.00  0.00     0.034 A 
ATOM     43  C   UNL A   1      43.602  28.931  33.592  1.00  0.00     0.049 A 
ATOM     44  C   UNL A   1      43.746  25.182  29.396  1.00  0.00     0.074 A 
ATOM     45  C   UNL A   1      44.659  28.894  34.485  1.00  0.00     0.029 A 
ATOM     46  N   UNL A   1      43.852  27.948  32.642  1.00  0.00    -0.354 N 
ATOM     47  N   UNL A   1      43.853  26.006  30.414  1.00  0.00    -0.248 NA
ATOM     48  C   UNL A   1      44.875  24.255  29.250  1.00  0.00     0.031 C 
ATOM     49  C   UNL A   1      45.573  27.930  34.043  1.00  0.00     0.029 A 
ATOM     50  C   UNL A   1      45.053  27.313  32.915  1.00  0.00     0.049 A 
ATOM     51  H   UNL A   1      43.262  27.734  31.883  1.00  0.00     0.167 HD
ATOM     52  C   UNL A   1      45.044  25.671  31.049  1.00  0.00     0.074 A 
ATOM     53  C   UNL A   1      45.618  24.570  30.301  1.00  0.00     0.031 C 
ATOM     54  C   UNL A   1      45.610  26.217  32.156  1.00  0.00     0.034 A 
BRANCH  41  55
ATOM     55  C   UNL A   1      42.341  30.887  34.637  1.00  0.00     0.023 A 
ATOM     56  C   UNL A   1      42.702  32.216  34.347  1.00  0.00     0.031 A 
ATOM     57  C   UNL A   1      41.944  30.590  35.952  1.00  0.00     0.131 A 
ATOM     58  C   UNL A   1      42.767  33.166  35.378  1.00  0.00     0.055 A 
ATOM     59  C   UNL A   1      41.914  31.565  36.952  1.00  0.00     0.041 A 
ATOM     60  F   UNL A   1      41.605  29.338  36.299  1.00  0.00    -0.206 F 
ATOM     61  C   UNL A   1      42.350  32.858  36.673  1.00  0.00     0.022 A 
BRANCH  58  62
ATOM     62  S   UNL A   1      43.584  34.751  35.037  1.00  0.00     0.124 S 
ATOM     63  O   UNL A   1      42.817  35.664  35.882  1.00  0.00    -0.237 OA
ATOM     64  O   UNL A   1      44.957  34.494  35.455  1.00  0.00    -0.237 OA
ATOM     65  O   UNL A   1      43.390  34.933  33.600  1.00  0.00    -0.744 OA
ENDBRANCH  58  62
ENDBRANCH  41  55
BRANCH  42  66
ATOM     66  C   UNL A   1      42.738  24.118  27.239  1.00  0.00     0.023 A 
ATOM     67  C   UNL A   1      42.121  22.859  27.293  1.00  0.00     0.031 A 
ATOM     68  C   UNL A   1      43.461  24.451  26.079  1.00  0.00     0.131 A 
ATOM     69  C   UNL A   1      42.267  21.962  26.223  1.00  0.00     0.055 A 
ATOM     70  C   UNL A   1      43.568  23.573  24.999  1.00  0.00     0.041 A 
ATOM     71  F   UNL A   1      44.061  25.647  25.973  1.00  0.00    -0.206 F 
ATOM     72  C   UNL A   1      42.976  22.315  25.072  1.00  0.00     0.022 A 
BRANCH  69  73
ATOM     73  S   UNL A   1      41.561  20.299  26.381  1.00  0.00     0.124 S 
ATOM     74  O   UNL A   1      41.932  19.948  27.747  1.00  0.00    -0.237 OA
ATOM     75  O   UNL A   1      40.144  20.548  26.143  1.00  0.00    -0.237 OA
ATOM     76  O   UNL A   1      42.243  19.539  25.334  1.00  0.00    -0.744 OA
ENDBRANCH  69  73
ENDBRANCH  42  66
BRANCH  54  77
ATOM     77  C   UNL A   1      46.884  25.588  32.660  1.00  0.00     0.023 A 
ATOM     78  C   UNL A   1      46.886  24.622  33.681  1.00  0.00     0.031 A 
ATOM     79  C   UNL A   1      48.118  25.960  32.097  1.00  0.00     0.131 A 
ATOM     80  C   UNL A   1      48.101  24.092  34.137  1.00  0.00     0.055 A 
ATOM     81  C   UNL A   1      49.320  25.390  32.517  1.00  0.00     0.041 A 
ATOM     82  F   UNL A   1      48.172  26.879  31.119  1.00  0.00    -0.206 F 
ATOM     83  C   UNL A   1      49.316  24.458  33.550  1.00  0.00     0.022 A 
BRANCH  80  84
ATOM     84  S   UNL A   1      48.085  22.968  35.559  1.00  0.00     0.124 S 
ATOM     85  O   UNL A   1      49.396  23.211  36.154  1.00  0.00    -0.237 OA
ATOM     86  O   UNL A   1      46.939  23.448  36.325  1.00  0.00    -0.237 OA
ATOM     87  O   UNL A   1      47.915  21.648  34.952  1.00  0.00    -0.744 OA
ENDBRANCH  80  84
ENDBRANCH  54  77
ENDBRANCH  28  29
ENDBRANCH  20  23
ENDBRANCH  18  19
ENDBRANCH   1  18
TORSDOF 16
ENDMDL
