MODEL 1
REMARK VINA RESULT:     -11.9      0.000      0.000
REMARK SMILES O=C(C[C@H]1C[N@@H+]([C@@H]2CC(=O)NC2=O)CCO1)NCCCNC(=O)c1ccc(-c2c3nc(c(-c4cc(S(=O)(=O)[O-])ccc4F)c4ccc([nH]4)c(-c4cc(S(=O)(=O)[O-])ccc4F)c4nc(c(-c5cc(S(=O)(=O)[O-])ccc5F)c5ccc2[nH]5)C=C4)C=C3)cc1
REMARK SMILES IDX 19 1 18 2 17 3 1 4 2 5 3 7 4 8 5 9 16 10 6 11 15 12 14 13
REMARK SMILES IDX 7 15 8 16 12 17 9 18 11 19 13 20 10 21 20 23 21 24 22 25
REMARK SMILES IDX 23 27 24 28 25 29 86 30 26 31 85 32 27 33 28 34 29 35 79 36
REMARK SMILES IDX 30 37 84 38 78 39 80 40 31 41 83 42 77 43 76 44 32 46 64 47
REMARK SMILES IDX 44 48 63 49 45 50 48 51 62 52 81 53 46 54 47 55 61 57 82 58
REMARK SMILES IDX 49 59 33 60 34 61 42 62 35 63 41 64 43 65 40 66 36 67 37 68
REMARK SMILES IDX 38 69 39 70 65 71 66 72 74 73 67 74 73 75 75 76 72 77 68 78
REMARK SMILES IDX 69 79 70 80 71 81 50 82 51 83 59 84 52 85 58 86 60 87 57 88
REMARK SMILES IDX 53 89 54 90 55 91 56 92
REMARK H PARENT 17 6 6 14 11 22 21 26 80 45 48 56
REMARK Flexibility Score: inf
ROOT
ATOM      1  C   UNL A   1      35.587  21.591  25.728  1.00  0.00     0.042 C 
ENDROOT
BRANCH   1   2
ATOM      2  C   UNL A   1      34.401  21.591  24.767  1.00  0.00     0.117 C 
BRANCH   2   3
ATOM      3  N   UNL A   1      33.715  22.866  24.778  1.00  0.00    -0.356 N 
ATOM      4  O   UNL A   1      32.124  22.321  23.211  1.00  0.00    -0.275 OA
ATOM      5  C   UNL A   1      32.698  23.156  23.899  1.00  0.00     0.222 C 
ATOM      6  H   UNL A   1      33.985  23.548  25.437  1.00  0.00     0.163 HD
BRANCH   5   7
ATOM      7  C   UNL A   1      32.449  24.635  23.752  1.00  0.00     0.138 C 
BRANCH   7   8
ATOM      8  C   UNL A   1      33.701  25.485  23.566  1.00  0.00     0.182 C 
ATOM      9  C   UNL A   1      33.363  26.917  23.075  1.00  0.00     0.295 C 
ATOM     10  O   UNL A   1      34.506  25.552  24.757  1.00  0.00    -0.366 OA
ATOM     11  N   UNL A   1      32.802  27.824  24.081  1.00  0.00    -0.320 N 
ATOM     12  C   UNL A   1      33.933  26.350  25.798  1.00  0.00     0.222 C 
ATOM     13  C   UNL A   1      33.558  27.769  25.333  1.00  0.00     0.291 C 
ATOM     14  H   UNL A   1      32.959  28.731  23.641  1.00  0.00     0.348 HD
BRANCH  11  15
ATOM     15  C   UNL A   1      31.356  28.068  24.183  1.00  0.00     0.284 C 
ATOM     16  C   UNL A   1      30.463  27.800  22.972  1.00  0.00     0.176 C 
ATOM     17  C   UNL A   1      31.025  29.515  24.539  1.00  0.00     0.285 C 
ATOM     18  C   UNL A   1      30.005  29.163  22.548  1.00  0.00     0.233 C 
ATOM     19  N   UNL A   1      30.298  30.053  23.522  1.00  0.00    -0.291 N 
ATOM     20  O   UNL A   1      31.381  30.125  25.533  1.00  0.00    -0.268 OA
ATOM     21  O   UNL A   1      29.452  29.426  21.492  1.00  0.00    -0.274 OA
ATOM     22  H   UNL A   1      30.015  30.996  23.500  1.00  0.00     0.173 HD
ENDBRANCH  11  15
ENDBRANCH   7   8
ENDBRANCH   5   7
ENDBRANCH   2   3
ENDBRANCH   1   2
BRANCH   1  23
ATOM     23  C   UNL A   1      36.949  21.717  25.053  1.00  0.00     0.118 C 
BRANCH  23  24
ATOM     24  N   UNL A   1      37.848  20.622  25.385  1.00  0.00    -0.352 N 
ATOM     25  C   UNL A   1      39.108  20.658  25.933  1.00  0.00     0.251 C 
ATOM     26  H   UNL A   1      37.504  19.721  25.188  1.00  0.00     0.163 HD
ATOM     27  O   UNL A   1      39.790  19.638  25.956  1.00  0.00    -0.269 OA
BRANCH  25  28
ATOM     28  C   UNL A   1      39.640  21.929  26.465  1.00  0.00     0.039 A 
ATOM     29  C   UNL A   1      40.671  21.893  27.407  1.00  0.00     0.014 A 
ATOM     30  C   UNL A   1      39.135  23.152  26.018  1.00  0.00     0.014 A 
ATOM     31  C   UNL A   1      41.253  23.087  27.838  1.00  0.00     0.010 A 
ATOM     32  C   UNL A   1      39.768  24.334  26.389  1.00  0.00     0.010 A 
ATOM     33  C   UNL A   1      40.839  24.316  27.296  1.00  0.00    -0.014 A 
BRANCH  33  34
ATOM     34  C   UNL A   1      41.511  25.593  27.649  1.00  0.00     0.031 A 
ATOM     35  C   UNL A   1      40.761  26.648  28.414  1.00  0.00     0.074 A 
ATOM     36  C   UNL A   1      42.761  25.837  27.207  1.00  0.00     0.049 A 
ATOM     37  N   UNL A   1      41.112  27.877  28.693  1.00  0.00    -0.248 NA
ATOM     38  C   UNL A   1      39.423  26.280  28.901  1.00  0.00     0.031 C 
ATOM     39  C   UNL A   1      43.585  24.901  26.439  1.00  0.00     0.029 A 
ATOM     40  N   UNL A   1      43.554  26.953  27.323  1.00  0.00    -0.354 N 
ATOM     41  C   UNL A   1      40.035  28.434  29.374  1.00  0.00     0.074 A 
ATOM     42  C   UNL A   1      38.997  27.425  29.410  1.00  0.00     0.031 C 
ATOM     43  C   UNL A   1      44.769  25.473  26.170  1.00  0.00     0.029 A 
ATOM     44  C   UNL A   1      44.771  26.837  26.688  1.00  0.00     0.049 A 
ATOM     45  H   UNL A   1      43.279  27.760  27.815  1.00  0.00     0.167 HD
ATOM     46  C   UNL A   1      39.930  29.665  29.933  1.00  0.00     0.034 A 
ATOM     47  C   UNL A   1      45.763  27.734  26.517  1.00  0.00     0.034 A 
ATOM     48  C   UNL A   1      40.981  30.654  29.891  1.00  0.00     0.049 A 
ATOM     49  C   UNL A   1      45.601  29.119  27.099  1.00  0.00     0.074 A 
ATOM     50  C   UNL A   1      40.997  31.913  30.464  1.00  0.00     0.029 A 
ATOM     51  N   UNL A   1      42.194  30.502  29.232  1.00  0.00    -0.354 N 
ATOM     52  N   UNL A   1      44.589  29.620  27.768  1.00  0.00    -0.248 NA
ATOM     53  C   UNL A   1      46.716  30.056  26.906  1.00  0.00     0.031 C 
ATOM     54  C   UNL A   1      42.180  32.553  30.082  1.00  0.00     0.029 A 
ATOM     55  C   UNL A   1      42.949  31.658  29.353  1.00  0.00     0.049 A 
ATOM     56  H   UNL A   1      42.477  29.691  28.749  1.00  0.00     0.167 HD
ATOM     57  C   UNL A   1      44.965  30.915  28.113  1.00  0.00     0.074 A 
ATOM     58  C   UNL A   1      46.295  31.118  27.578  1.00  0.00     0.031 C 
ATOM     59  C   UNL A   1      44.277  31.848  28.818  1.00  0.00     0.034 A 
BRANCH  46  60
ATOM     60  C   UNL A   1      38.625  30.018  30.606  1.00  0.00     0.023 A 
ATOM     61  C   UNL A   1      37.609  30.714  29.929  1.00  0.00     0.031 A 
ATOM     62  C   UNL A   1      38.402  29.673  31.951  1.00  0.00     0.131 A 
ATOM     63  C   UNL A   1      36.452  31.109  30.618  1.00  0.00     0.055 A 
ATOM     64  C   UNL A   1      37.210  29.990  32.605  1.00  0.00     0.041 A 
ATOM     65  F   UNL A   1      39.344  29.029  32.658  1.00  0.00    -0.206 F 
ATOM     66  C   UNL A   1      36.233  30.727  31.944  1.00  0.00     0.022 A 
BRANCH  63  67
ATOM     67  S   UNL A   1      35.314  32.262  29.803  1.00  0.00     0.124 S 
ATOM     68  O   UNL A   1      34.414  32.611  30.901  1.00  0.00    -0.237 OA
ATOM     69  O   UNL A   1      36.208  33.320  29.349  1.00  0.00    -0.237 OA
ATOM     70  O   UNL A   1      34.709  31.456  28.744  1.00  0.00    -0.744 OA
ENDBRANCH  63  67
ENDBRANCH  46  60
BRANCH  47  71
ATOM     71  C   UNL A   1      46.988  27.372  25.747  1.00  0.00     0.023 A 
ATOM     72  C   UNL A   1      47.143  27.767  24.408  1.00  0.00     0.031 A 
ATOM     73  C   UNL A   1      48.003  26.585  26.320  1.00  0.00     0.131 A 
ATOM     74  C   UNL A   1      48.257  27.331  23.673  1.00  0.00     0.055 A 
ATOM     75  C   UNL A   1      49.141  26.208  25.605  1.00  0.00     0.041 A 
ATOM     76  F   UNL A   1      47.907  26.179  27.597  1.00  0.00    -0.206 F 
ATOM     77  C   UNL A   1      49.264  26.568  24.268  1.00  0.00     0.022 A 
BRANCH  74  78
ATOM     78  S   UNL A   1      48.317  27.689  21.896  1.00  0.00     0.124 S 
ATOM     79  O   UNL A   1      47.007  28.290  21.672  1.00  0.00    -0.237 OA
ATOM     80  O   UNL A   1      49.462  28.588  21.807  1.00  0.00    -0.237 OA
ATOM     81  O   UNL A   1      48.511  26.373  21.292  1.00  0.00    -0.744 OA
ENDBRANCH  74  78
ENDBRANCH  47  71
BRANCH  59  82
ATOM     82  C   UNL A   1      44.975  33.154  29.117  1.00  0.00     0.023 A 
ATOM     83  C   UNL A   1      44.840  34.282  28.291  1.00  0.00     0.031 A 
ATOM     84  C   UNL A   1      45.770  33.270  30.273  1.00  0.00     0.131 A 
ATOM     85  C   UNL A   1      45.521  35.467  28.612  1.00  0.00     0.055 A 
ATOM     86  C   UNL A   1      46.393  34.468  30.620  1.00  0.00     0.041 A 
ATOM     87  F   UNL A   1      45.938  32.221  31.095  1.00  0.00    -0.206 F 
ATOM     88  C   UNL A   1      46.278  35.574  29.783  1.00  0.00     0.022 A 
BRANCH  85  89
ATOM     89  S   UNL A   1      45.462  36.854  27.445  1.00  0.00     0.124 S 
ATOM     90  O   UNL A   1      46.432  36.441  26.436  1.00  0.00    -0.237 OA
ATOM     91  O   UNL A   1      44.065  36.850  27.024  1.00  0.00    -0.237 OA
ATOM     92  O   UNL A   1      45.861  38.003  28.256  1.00  0.00    -0.744 OA
ENDBRANCH  85  89
ENDBRANCH  59  82
ENDBRANCH  33  34
ENDBRANCH  25  28
ENDBRANCH  23  24
ENDBRANCH   1  23
TORSDOF 15
ENDMDL
MODEL 2
REMARK VINA RESULT:     -11.9      1.066      2.011
REMARK SMILES O=C(C[C@H]1C[N@@H+]([C@@H]2CC(=O)NC2=O)CCO1)NCCCNC(=O)c1ccc(-c2c3nc(c(-c4cc(S(=O)(=O)[O-])ccc4F)c4ccc([nH]4)c(-c4cc(S(=O)(=O)[O-])ccc4F)c4nc(c(-c5cc(S(=O)(=O)[O-])ccc5F)c5ccc2[nH]5)C=C4)C=C3)cc1
REMARK SMILES IDX 19 1 18 2 17 3 1 4 2 5 3 7 4 8 5 9 16 10 6 11 15 12 14 13
REMARK SMILES IDX 7 15 8 16 12 17 9 18 11 19 13 20 10 21 20 23 21 24 22 25
REMARK SMILES IDX 23 27 24 28 25 29 86 30 26 31 85 32 27 33 28 34 29 35 79 36
REMARK SMILES IDX 30 37 84 38 78 39 80 40 31 41 83 42 77 43 76 44 32 46 64 47
REMARK SMILES IDX 44 48 63 49 45 50 48 51 62 52 81 53 46 54 47 55 61 57 82 58
REMARK SMILES IDX 49 59 33 60 34 61 42 62 35 63 41 64 43 65 40 66 36 67 37 68
REMARK SMILES IDX 38 69 39 70 65 71 66 72 74 73 67 74 73 75 75 76 72 77 68 78
REMARK SMILES IDX 69 79 70 80 71 81 50 82 51 83 59 84 52 85 58 86 60 87 57 88
REMARK SMILES IDX 53 89 54 90 55 91 56 92
REMARK H PARENT 17 6 6 14 11 22 21 26 80 45 48 56
REMARK Flexibility Score: inf
ROOT
ATOM      1  C   UNL A   1      35.985  21.004  24.977  1.00  0.00     0.042 C 
ENDROOT
BRANCH   1   2
ATOM      2  C   UNL A   1      35.123  21.503  26.134  1.00  0.00     0.117 C 
BRANCH   2   3
ATOM      3  N   UNL A   1      34.195  22.525  25.696  1.00  0.00    -0.356 N 
ATOM      4  O   UNL A   1      35.642  24.299  25.907  1.00  0.00    -0.275 OA
ATOM      5  C   UNL A   1      34.510  23.863  25.738  1.00  0.00     0.222 C 
ATOM      6  H   UNL A   1      33.310  22.253  25.358  1.00  0.00     0.163 HD
BRANCH   5   7
ATOM      7  C   UNL A   1      33.295  24.755  25.699  1.00  0.00     0.138 C 
BRANCH   7   8
ATOM      8  C   UNL A   1      33.590  26.238  25.503  1.00  0.00     0.182 C 
ATOM      9  C   UNL A   1      33.526  26.650  24.008  1.00  0.00     0.295 C 
ATOM     10  O   UNL A   1      32.723  27.081  26.282  1.00  0.00    -0.366 OA
ATOM     11  N   UNL A   1      32.184  26.760  23.431  1.00  0.00    -0.320 N 
ATOM     12  C   UNL A   1      31.375  27.128  25.799  1.00  0.00     0.222 C 
ATOM     13  C   UNL A   1      31.281  27.505  24.310  1.00  0.00     0.291 C 
ATOM     14  H   UNL A   1      32.371  27.321  22.599  1.00  0.00     0.348 HD
BRANCH  11  15
ATOM     15  C   UNL A   1      31.595  25.678  22.629  1.00  0.00     0.284 C 
ATOM     16  C   UNL A   1      30.998  24.461  23.335  1.00  0.00     0.176 C 
ATOM     17  C   UNL A   1      32.592  25.054  21.656  1.00  0.00     0.285 C 
ATOM     18  C   UNL A   1      31.928  23.341  22.978  1.00  0.00     0.233 C 
ATOM     19  N   UNL A   1      32.741  23.740  21.975  1.00  0.00    -0.291 N 
ATOM     20  O   UNL A   1      33.203  25.624  20.767  1.00  0.00    -0.268 OA
ATOM     21  O   UNL A   1      31.945  22.241  23.507  1.00  0.00    -0.274 OA
ATOM     22  H   UNL A   1      33.377  23.142  21.520  1.00  0.00     0.173 HD
ENDBRANCH  11  15
ENDBRANCH   7   8
ENDBRANCH   5   7
ENDBRANCH   2   3
ENDBRANCH   1   2
BRANCH   1  23
ATOM     23  C   UNL A   1      37.441  21.456  25.031  1.00  0.00     0.118 C 
BRANCH  23  24
ATOM     24  N   UNL A   1      38.345  20.399  25.462  1.00  0.00    -0.352 N 
ATOM     25  C   UNL A   1      39.571  20.491  26.076  1.00  0.00     0.251 C 
ATOM     26  H   UNL A   1      38.032  19.483  25.286  1.00  0.00     0.163 HD
ATOM     27  O   UNL A   1      40.274  19.490  26.182  1.00  0.00    -0.269 OA
BRANCH  25  28
ATOM     28  C   UNL A   1      40.043  21.797  26.578  1.00  0.00     0.039 A 
ATOM     29  C   UNL A   1      40.996  21.827  27.600  1.00  0.00     0.014 A 
ATOM     30  C   UNL A   1      39.560  22.986  26.028  1.00  0.00     0.014 A 
ATOM     31  C   UNL A   1      41.527  23.052  28.011  1.00  0.00     0.010 A 
ATOM     32  C   UNL A   1      40.147  24.197  26.383  1.00  0.00     0.010 A 
ATOM     33  C   UNL A   1      41.143  24.243  27.372  1.00  0.00    -0.014 A 
BRANCH  33  34
ATOM     34  C   UNL A   1      41.769  25.548  27.708  1.00  0.00     0.031 A 
ATOM     35  C   UNL A   1      40.979  26.589  28.453  1.00  0.00     0.074 A 
ATOM     36  C   UNL A   1      43.012  25.829  27.267  1.00  0.00     0.049 A 
ATOM     37  N   UNL A   1      41.287  27.833  28.714  1.00  0.00    -0.248 NA
ATOM     38  C   UNL A   1      39.653  26.182  28.941  1.00  0.00     0.031 C 
ATOM     39  C   UNL A   1      43.870  24.910  26.516  1.00  0.00     0.029 A 
ATOM     40  N   UNL A   1      43.765  26.973  27.368  1.00  0.00    -0.354 N 
ATOM     41  C   UNL A   1      40.189  28.363  29.383  1.00  0.00     0.074 A 
ATOM     42  C   UNL A   1      39.185  27.319  29.431  1.00  0.00     0.031 C 
ATOM     43  C   UNL A   1      45.035  25.518  26.242  1.00  0.00     0.029 A 
ATOM     44  C   UNL A   1      44.987  26.890  26.739  1.00  0.00     0.049 A 
ATOM     45  H   UNL A   1      43.460  27.778  27.846  1.00  0.00     0.167 HD
ATOM     46  C   UNL A   1      40.039  29.598  29.922  1.00  0.00     0.034 A 
ATOM     47  C   UNL A   1      45.949  27.818  26.558  1.00  0.00     0.034 A 
ATOM     48  C   UNL A   1      41.055  30.622  29.869  1.00  0.00     0.049 A 
ATOM     49  C   UNL A   1      45.737  29.205  27.117  1.00  0.00     0.074 A 
ATOM     50  C   UNL A   1      41.025  31.890  30.422  1.00  0.00     0.029 A 
ATOM     51  N   UNL A   1      42.275  30.502  29.216  1.00  0.00    -0.354 N 
ATOM     52  N   UNL A   1      44.705  29.681  27.775  1.00  0.00    -0.248 NA
ATOM     53  C   UNL A   1      46.819  30.177  26.914  1.00  0.00     0.031 C 
ATOM     54  C   UNL A   1      42.187  32.564  30.035  1.00  0.00     0.029 A 
ATOM     55  C   UNL A   1      42.989  31.685  29.323  1.00  0.00     0.049 A 
ATOM     56  H   UNL A   1      42.588  29.694  28.748  1.00  0.00     0.167 HD
ATOM     57  C   UNL A   1      45.035  30.994  28.101  1.00  0.00     0.074 A 
ATOM     58  C   UNL A   1      46.360  31.234  27.568  1.00  0.00     0.031 C 
ATOM     59  C   UNL A   1      44.312  31.913  28.789  1.00  0.00     0.034 A 
BRANCH  46  60
ATOM     60  C   UNL A   1      38.720  29.916  30.586  1.00  0.00     0.023 A 
ATOM     61  C   UNL A   1      37.716  30.643  29.923  1.00  0.00     0.031 A 
ATOM     62  C   UNL A   1      38.470  29.505  31.907  1.00  0.00     0.131 A 
ATOM     63  C   UNL A   1      36.545  31.003  30.607  1.00  0.00     0.055 A 
ATOM     64  C   UNL A   1      37.264  29.787  32.551  1.00  0.00     0.041 A 
ATOM     65  F   UNL A   1      39.399  28.827  32.600  1.00  0.00    -0.206 F 
ATOM     66  C   UNL A   1      36.299  30.555  31.907  1.00  0.00     0.022 A 
BRANCH  63  67
ATOM     67  S   UNL A   1      35.421  32.194  29.827  1.00  0.00     0.124 S 
ATOM     68  O   UNL A   1      34.909  31.420  28.699  1.00  0.00    -0.237 OA
ATOM     69  O   UNL A   1      34.469  32.474  30.895  1.00  0.00    -0.237 OA
ATOM     70  O   UNL A   1      36.299  33.305  29.464  1.00  0.00    -0.744 OA
ENDBRANCH  63  67
ENDBRANCH  46  60
BRANCH  47  71
ATOM     71  C   UNL A   1      47.189  27.486  25.797  1.00  0.00     0.023 A 
ATOM     72  C   UNL A   1      47.314  27.821  24.439  1.00  0.00     0.031 A 
ATOM     73  C   UNL A   1      48.249  26.789  26.402  1.00  0.00     0.131 A 
ATOM     74  C   UNL A   1      48.447  27.411  23.718  1.00  0.00     0.055 A 
ATOM     75  C   UNL A   1      49.403  26.440  25.698  1.00  0.00     0.041 A 
ATOM     76  F   UNL A   1      48.183  26.444  27.699  1.00  0.00    -0.206 F 
ATOM     77  C   UNL A   1      49.500  26.738  24.343  1.00  0.00     0.022 A 
BRANCH  74  78
ATOM     78  S   UNL A   1      48.479  27.681  21.926  1.00  0.00     0.124 S 
ATOM     79  O   UNL A   1      47.158  28.252  21.690  1.00  0.00    -0.237 OA
ATOM     80  O   UNL A   1      49.609  28.590  21.776  1.00  0.00    -0.237 OA
ATOM     81  O   UNL A   1      48.684  26.339  21.385  1.00  0.00    -0.744 OA
ENDBRANCH  74  78
ENDBRANCH  47  71
BRANCH  59  82
ATOM     82  C   UNL A   1      44.963  33.246  29.071  1.00  0.00     0.023 A 
ATOM     83  C   UNL A   1      45.007  34.276  28.115  1.00  0.00     0.031 A 
ATOM     84  C   UNL A   1      45.528  33.493  30.336  1.00  0.00     0.131 A 
ATOM     85  C   UNL A   1      45.634  35.491  28.429  1.00  0.00     0.055 A 
ATOM     86  C   UNL A   1      46.095  34.725  30.662  1.00  0.00     0.041 A 
ATOM     87  F   UNL A   1      45.520  32.542  31.285  1.00  0.00    -0.206 F 
ATOM     88  C   UNL A   1      46.159  35.730  29.702  1.00  0.00     0.022 A 
BRANCH  85  89
ATOM     89  S   UNL A   1      45.821  36.740  27.126  1.00  0.00     0.124 S 
ATOM     90  O   UNL A   1      47.055  37.410  27.524  1.00  0.00    -0.237 OA
ATOM     91  O   UNL A   1      45.900  35.924  25.919  1.00  0.00    -0.237 OA
ATOM     92  O   UNL A   1      44.608  37.548  27.249  1.00  0.00    -0.744 OA
ENDBRANCH  85  89
ENDBRANCH  59  82
ENDBRANCH  33  34
ENDBRANCH  25  28
ENDBRANCH  23  24
ENDBRANCH   1  23
TORSDOF 15
ENDMDL
MODEL 3
REMARK VINA RESULT:     -11.8      1.139      7.753
REMARK SMILES O=C(C[C@H]1C[N@@H+]([C@@H]2CC(=O)NC2=O)CCO1)NCCCNC(=O)c1ccc(-c2c3nc(c(-c4cc(S(=O)(=O)[O-])ccc4F)c4ccc([nH]4)c(-c4cc(S(=O)(=O)[O-])ccc4F)c4nc(c(-c5cc(S(=O)(=O)[O-])ccc5F)c5ccc2[nH]5)C=C4)C=C3)cc1
REMARK SMILES IDX 19 1 18 2 17 3 1 4 2 5 3 7 4 8 5 9 16 10 6 11 15 12 14 13
REMARK SMILES IDX 7 15 8 16 12 17 9 18 11 19 13 20 10 21 20 23 21 24 22 25
REMARK SMILES IDX 23 27 24 28 25 29 86 30 26 31 85 32 27 33 28 34 29 35 79 36
REMARK SMILES IDX 30 37 84 38 78 39 80 40 31 41 83 42 77 43 76 44 32 46 64 47
REMARK SMILES IDX 44 48 63 49 45 50 48 51 62 52 81 53 46 54 47 55 61 57 82 58
REMARK SMILES IDX 49 59 33 60 34 61 42 62 35 63 41 64 43 65 40 66 36 67 37 68
REMARK SMILES IDX 38 69 39 70 65 71 66 72 74 73 67 74 73 75 75 76 72 77 68 78
REMARK SMILES IDX 69 79 70 80 71 81 50 82 51 83 59 84 52 85 58 86 60 87 57 88
REMARK SMILES IDX 53 89 54 90 55 91 56 92
REMARK H PARENT 17 6 6 14 11 22 21 26 80 45 48 56
REMARK Flexibility Score: inf
ROOT
ATOM      1  C   UNL A   1      36.125  20.911  25.036  1.00  0.00     0.042 C 
ENDROOT
BRANCH   1   2
ATOM      2  C   UNL A   1      35.334  21.721  26.060  1.00  0.00     0.117 C 
BRANCH   2   3
ATOM      3  N   UNL A   1      34.567  22.771  25.420  1.00  0.00    -0.356 N 
ATOM      4  O   UNL A   1      36.162  24.415  25.616  1.00  0.00    -0.275 OA
ATOM      5  C   UNL A   1      35.014  24.070  25.365  1.00  0.00     0.222 C 
ATOM      6  H   UNL A   1      33.699  22.547  25.013  1.00  0.00     0.163 HD
BRANCH   5   7
ATOM      7  C   UNL A   1      33.910  25.062  25.100  1.00  0.00     0.138 C 
BRANCH   7   8
ATOM      8  C   UNL A   1      33.010  25.360  26.294  1.00  0.00     0.182 C 
ATOM      9  C   UNL A   1      32.373  26.771  26.203  1.00  0.00     0.295 C 
ATOM     10  O   UNL A   1      31.984  24.367  26.473  1.00  0.00    -0.366 OA
ATOM     11  N   UNL A   1      31.277  26.918  25.240  1.00  0.00    -0.320 N 
ATOM     12  C   UNL A   1      30.949  24.421  25.484  1.00  0.00     0.222 C 
ATOM     13  C   UNL A   1      30.317  25.818  25.349  1.00  0.00     0.291 C 
ATOM     14  H   UNL A   1      30.835  27.776  25.572  1.00  0.00     0.348 HD
BRANCH  11  15
ATOM     15  C   UNL A   1      31.493  27.488  23.903  1.00  0.00     0.284 C 
ATOM     16  C   UNL A   1      31.707  26.552  22.714  1.00  0.00     0.176 C 
ATOM     17  C   UNL A   1      32.712  28.404  23.841  1.00  0.00     0.285 C 
ATOM     18  C   UNL A   1      33.138  26.775  22.328  1.00  0.00     0.233 C 
ATOM     19  N   UNL A   1      33.600  27.880  22.955  1.00  0.00    -0.291 N 
ATOM     20  O   UNL A   1      32.905  29.412  24.500  1.00  0.00    -0.268 OA
ATOM     21  O   UNL A   1      33.783  26.072  21.567  1.00  0.00    -0.274 OA
ATOM     22  H   UNL A   1      34.490  28.267  22.787  1.00  0.00     0.173 HD
ENDBRANCH  11  15
ENDBRANCH   7   8
ENDBRANCH   5   7
ENDBRANCH   2   3
ENDBRANCH   1   2
BRANCH   1  23
ATOM     23  C   UNL A   1      37.593  21.309  24.912  1.00  0.00     0.118 C 
BRANCH  23  24
ATOM     24  N   UNL A   1      38.494  20.340  25.517  1.00  0.00    -0.352 N 
ATOM     25  C   UNL A   1      39.658  20.545  26.219  1.00  0.00     0.251 C 
ATOM     26  H   UNL A   1      38.233  19.397  25.407  1.00  0.00     0.163 HD
ATOM     27  O   UNL A   1      40.386  19.591  26.481  1.00  0.00    -0.269 OA
BRANCH  25  28
ATOM     28  C   UNL A   1      40.036  21.912  26.628  1.00  0.00     0.039 A 
ATOM     29  C   UNL A   1      41.121  22.088  27.490  1.00  0.00     0.014 A 
ATOM     30  C   UNL A   1      39.332  23.018  26.145  1.00  0.00     0.014 A 
ATOM     31  C   UNL A   1      41.553  23.380  27.801  1.00  0.00     0.010 A 
ATOM     32  C   UNL A   1      39.812  24.300  26.392  1.00  0.00     0.010 A 
ATOM     33  C   UNL A   1      40.933  24.496  27.216  1.00  0.00    -0.014 A 
BRANCH  33  34
ATOM     34  C   UNL A   1      41.437  25.876  27.436  1.00  0.00     0.031 A 
ATOM     35  C   UNL A   1      42.800  26.265  26.932  1.00  0.00     0.074 A 
ATOM     36  C   UNL A   1      40.709  26.749  28.162  1.00  0.00     0.049 A 
ATOM     37  N   UNL A   1      43.479  27.363  27.145  1.00  0.00    -0.248 NA
ATOM     38  C   UNL A   1      43.504  25.272  26.107  1.00  0.00     0.031 C 
ATOM     39  C   UNL A   1      39.382  26.482  28.721  1.00  0.00     0.029 A 
ATOM     40  N   UNL A   1      40.986  28.030  28.571  1.00  0.00    -0.354 N 
ATOM     41  C   UNL A   1      44.695  27.188  26.493  1.00  0.00     0.074 A 
ATOM     42  C   UNL A   1      44.680  25.853  25.932  1.00  0.00     0.031 C 
ATOM     43  C   UNL A   1      38.955  27.569  29.383  1.00  0.00     0.029 A 
ATOM     44  C   UNL A   1      39.999  28.589  29.351  1.00  0.00     0.049 A 
ATOM     45  H   UNL A   1      41.814  28.505  28.329  1.00  0.00     0.167 HD
ATOM     46  C   UNL A   1      45.720  28.065  26.360  1.00  0.00     0.034 A 
ATOM     47  C   UNL A   1      39.950  29.775  29.992  1.00  0.00     0.034 A 
ATOM     48  C   UNL A   1      45.712  29.394  26.922  1.00  0.00     0.049 A 
ATOM     49  C   UNL A   1      41.127  30.714  29.878  1.00  0.00     0.074 A 
ATOM     50  C   UNL A   1      46.677  30.380  26.809  1.00  0.00     0.029 A 
ATOM     51  N   UNL A   1      44.698  29.921  27.713  1.00  0.00    -0.354 N 
ATOM     52  N   UNL A   1      42.258  30.546  29.231  1.00  0.00    -0.248 NA
ATOM     53  C   UNL A   1      41.021  32.003  30.575  1.00  0.00     0.031 C 
ATOM     54  C   UNL A   1      46.286  31.468  27.597  1.00  0.00     0.029 A 
ATOM     55  C   UNL A   1      45.032  31.202  28.123  1.00  0.00     0.049 A 
ATOM     56  H   UNL A   1      43.864  29.452  27.947  1.00  0.00     0.167 HD
ATOM     57  C   UNL A   1      42.975  31.726  29.409  1.00  0.00     0.074 A 
ATOM     58  C   UNL A   1      42.152  32.595  30.222  1.00  0.00     0.031 C 
ATOM     59  C   UNL A   1      44.200  32.063  28.932  1.00  0.00     0.034 A 
BRANCH  46  60
ATOM     60  C   UNL A   1      46.944  27.602  25.606  1.00  0.00     0.023 A 
ATOM     61  C   UNL A   1      47.172  27.972  24.269  1.00  0.00     0.031 A 
ATOM     62  C   UNL A   1      47.887  26.763  26.225  1.00  0.00     0.131 A 
ATOM     63  C   UNL A   1      48.269  27.442  23.573  1.00  0.00     0.055 A 
ATOM     64  C   UNL A   1      49.025  26.313  25.554  1.00  0.00     0.041 A 
ATOM     65  F   UNL A   1      47.713  26.356  27.493  1.00  0.00    -0.206 F 
ATOM     66  C   UNL A   1      49.214  26.638  24.214  1.00  0.00     0.022 A 
BRANCH  63  67
ATOM     67  S   UNL A   1      48.355  27.692  21.779  1.00  0.00     0.124 S 
ATOM     68  O   UNL A   1      49.481  28.618  21.665  1.00  0.00    -0.237 OA
ATOM     69  O   UNL A   1      48.586  26.341  21.282  1.00  0.00    -0.237 OA
ATOM     70  O   UNL A   1      47.052  28.266  21.450  1.00  0.00    -0.744 OA
ENDBRANCH  63  67
ENDBRANCH  46  60
BRANCH  47  71
ATOM     71  C   UNL A   1      38.762  30.141  30.818  1.00  0.00     0.023 A 
ATOM     72  C   UNL A   1      37.721  30.917  30.284  1.00  0.00     0.031 A 
ATOM     73  C   UNL A   1      38.671  29.760  32.169  1.00  0.00     0.131 A 
ATOM     74  C   UNL A   1      36.663  31.332  31.107  1.00  0.00     0.055 A 
ATOM     75  C   UNL A   1      37.584  30.120  32.968  1.00  0.00     0.041 A 
ATOM     76  F   UNL A   1      39.638  29.017  32.732  1.00  0.00    -0.206 F 
ATOM     77  C   UNL A   1      36.579  30.924  32.441  1.00  0.00     0.022 A 
BRANCH  74  78
ATOM     78  S   UNL A   1      35.449  32.500  30.436  1.00  0.00     0.124 S 
ATOM     79  O   UNL A   1      35.137  31.893  29.147  1.00  0.00    -0.237 OA
ATOM     80  O   UNL A   1      34.394  32.452  31.442  1.00  0.00    -0.237 OA
ATOM     81  O   UNL A   1      36.190  33.758  30.371  1.00  0.00    -0.744 OA
ENDBRANCH  74  78
ENDBRANCH  47  71
BRANCH  59  82
ATOM     82  C   UNL A   1      44.701  33.459  29.216  1.00  0.00     0.023 A 
ATOM     83  C   UNL A   1      44.484  34.528  28.331  1.00  0.00     0.031 A 
ATOM     84  C   UNL A   1      45.388  33.722  30.417  1.00  0.00     0.131 A 
ATOM     85  C   UNL A   1      44.981  35.803  28.643  1.00  0.00     0.055 A 
ATOM     86  C   UNL A   1      45.825  35.004  30.749  1.00  0.00     0.041 A 
ATOM     87  F   UNL A   1      45.628  32.736  31.297  1.00  0.00    -0.206 F 
ATOM     88  C   UNL A   1      45.630  36.052  29.855  1.00  0.00     0.022 A 
BRANCH  85  89
ATOM     89  S   UNL A   1      44.830  37.126  27.410  1.00  0.00     0.124 S 
ATOM     90  O   UNL A   1      45.919  36.808  26.491  1.00  0.00    -0.237 OA
ATOM     91  O   UNL A   1      43.481  36.921  26.894  1.00  0.00    -0.237 OA
ATOM     92  O   UNL A   1      45.015  38.347  28.192  1.00  0.00    -0.744 OA
ENDBRANCH  85  89
ENDBRANCH  59  82
ENDBRANCH  33  34
ENDBRANCH  25  28
ENDBRANCH  23  24
ENDBRANCH   1  23
TORSDOF 15
ENDMDL
