MODEL 1
REMARK VINA RESULT:     -12.9      0.000      0.000
REMARK SMILES O=C(Nc1ccc2c(c1)OCO2)N[C@H]1C=C[C@@H](C(=O)NCCCNC(=O)c2ccc(-c3c4nc(c(-c5cc(S(=O)(=O)[O-])ccc5F)c5ccc([nH]5)c(-c5cc(S(=O)(=O)[O-])ccc5F)c5nc(c(-c6cc(S(=O)(=O)[O-])ccc6F)c6ccc3[nH]6)C=C5)C=C4)cc2)C1
REMARK SMILES IDX 22 1 21 2 20 3 18 4 19 5 17 7 14 8 15 9 90 10 16 11 13 12
REMARK SMILES IDX 1 13 2 14 3 15 4 18 5 19 9 20 6 21 8 22 7 23 10 24 12 25
REMARK SMILES IDX 11 26 23 27 24 28 25 29 26 31 27 32 28 33 89 34 29 35 88 36
REMARK SMILES IDX 30 37 31 38 32 39 82 40 33 41 87 42 81 43 83 44 34 45 86 46
REMARK SMILES IDX 80 47 79 48 35 50 67 51 47 52 66 53 48 54 51 55 65 56 84 57
REMARK SMILES IDX 49 58 50 59 64 61 85 62 52 63 36 64 37 65 45 66 38 67 44 68
REMARK SMILES IDX 46 69 43 70 39 71 40 72 41 73 42 74 68 75 69 76 77 77 70 78
REMARK SMILES IDX 76 79 78 80 75 81 71 82 72 83 73 84 74 85 53 86 54 87 62 88
REMARK SMILES IDX 55 89 61 90 63 91 60 92 56 93 57 94 58 95 59 96
REMARK H PARENT 20 6 3 16 13 17 24 30 83 49 51 60
REMARK Flexibility Score: inf
ROOT
ATOM      1  C   UNL A   1      31.730  31.681  26.480  1.00  0.00     0.042 C 
ENDROOT
BRANCH   1   2
ATOM      2  C   UNL A   1      32.095  30.297  25.963  1.00  0.00     0.117 C 
BRANCH   2   3
ATOM      3  N   UNL A   1      33.237  29.731  26.656  1.00  0.00    -0.356 N 
ATOM      4  C   UNL A   1      34.035  28.670  26.356  1.00  0.00     0.227 C 
ATOM      5  O   UNL A   1      34.981  28.447  27.119  1.00  0.00    -0.274 OA
ATOM      6  H   UNL A   1      33.477  30.196  27.490  1.00  0.00     0.163 HD
BRANCH   4   7
ATOM      7  C   UNL A   1      33.809  27.774  25.135  1.00  0.00     0.103 C 
ATOM      8  C   UNL A   1      32.058  27.451  23.439  1.00  0.00     0.107 C 
ATOM      9  C   UNL A   1      33.207  28.253  22.917  1.00  0.00    -0.006 C 
ATOM     10  C   UNL A   1      32.362  27.307  24.941  1.00  0.00     0.047 C 
ATOM     11  C   UNL A   1      34.167  28.421  23.832  1.00  0.00    -0.016 C 
BRANCH   8  12
ATOM     12  N   UNL A   1      30.840  28.188  23.217  1.00  0.00    -0.332 N 
ATOM     13  O   UNL A   1      29.451  26.416  23.548  1.00  0.00    -0.248 OA
ATOM     14  C   UNL A   1      29.611  27.612  23.320  1.00  0.00     0.319 C 
ATOM     15  N   UNL A   1      28.533  28.447  23.281  1.00  0.00    -0.308 N 
ATOM     16  H   UNL A   1      27.696  28.038  23.600  1.00  0.00     0.171 HD
ATOM     17  H   UNL A   1      30.900  29.142  22.982  1.00  0.00     0.165 HD
BRANCH  15  18
ATOM     18  C   UNL A   1      28.400  29.784  22.868  1.00  0.00     0.046 A 
ATOM     19  C   UNL A   1      28.625  30.881  23.724  1.00  0.00     0.030 A 
ATOM     20  C   UNL A   1      28.065  30.008  21.526  1.00  0.00     0.076 A 
ATOM     21  C   UNL A   1      28.449  32.194  23.272  1.00  0.00     0.053 A 
ATOM     22  C   UNL A   1      27.884  31.312  21.113  1.00  0.00     0.167 A 
ATOM     23  C   UNL A   1      28.064  32.375  21.962  1.00  0.00     0.165 A 
ATOM     24  O   UNL A   1      27.512  31.704  19.867  1.00  0.00    -0.454 OA
ATOM     25  O   UNL A   1      27.836  33.570  21.358  1.00  0.00    -0.454 OA
ATOM     26  C   UNL A   1      27.463  33.137  20.030  1.00  0.00     0.468 C 
ENDBRANCH  15  18
ENDBRANCH   8  12
ENDBRANCH   4   7
ENDBRANCH   2   3
ENDBRANCH   1   2
BRANCH   1  27
ATOM     27  C   UNL A   1      32.796  32.302  27.373  1.00  0.00     0.118 C 
BRANCH  27  28
ATOM     28  N   UNL A   1      32.550  33.715  27.632  1.00  0.00    -0.352 N 
ATOM     29  C   UNL A   1      33.098  34.548  28.576  1.00  0.00     0.251 C 
ATOM     30  H   UNL A   1      31.888  34.138  27.039  1.00  0.00     0.163 HD
ATOM     31  O   UNL A   1      32.595  35.654  28.768  1.00  0.00    -0.269 OA
BRANCH  29  32
ATOM     32  C   UNL A   1      34.267  34.111  29.372  1.00  0.00     0.039 A 
ATOM     33  C   UNL A   1      34.057  33.344  30.520  1.00  0.00     0.014 A 
ATOM     34  C   UNL A   1      35.565  34.464  28.995  1.00  0.00     0.014 A 
ATOM     35  C   UNL A   1      35.154  32.861  31.239  1.00  0.00     0.010 A 
ATOM     36  C   UNL A   1      36.656  33.911  29.659  1.00  0.00     0.010 A 
ATOM     37  C   UNL A   1      36.462  33.099  30.785  1.00  0.00    -0.014 A 
BRANCH  37  38
ATOM     38  C   UNL A   1      37.638  32.503  31.472  1.00  0.00     0.031 A 
ATOM     39  C   UNL A   1      38.386  31.366  30.839  1.00  0.00     0.074 A 
ATOM     40  C   UNL A   1      37.989  32.947  32.695  1.00  0.00     0.049 A 
ATOM     41  N   UNL A   1      39.375  30.660  31.321  1.00  0.00    -0.248 NA
ATOM     42  C   UNL A   1      37.938  30.945  29.503  1.00  0.00     0.031 C 
ATOM     43  C   UNL A   1      37.296  34.005  33.430  1.00  0.00     0.029 A 
ATOM     44  N   UNL A   1      39.002  32.571  33.540  1.00  0.00    -0.354 N 
ATOM     45  C   UNL A   1      39.657  29.698  30.358  1.00  0.00     0.074 A 
ATOM     46  C   UNL A   1      38.695  29.880  29.290  1.00  0.00     0.031 C 
ATOM     47  C   UNL A   1      37.934  34.233  34.589  1.00  0.00     0.029 A 
ATOM     48  C   UNL A   1      39.033  33.281  34.720  1.00  0.00     0.049 A 
ATOM     49  H   UNL A   1      39.648  31.860  33.323  1.00  0.00     0.167 HD
ATOM     50  C   UNL A   1      40.637  28.762  30.358  1.00  0.00     0.034 A 
ATOM     51  C   UNL A   1      39.835  33.158  35.798  1.00  0.00     0.034 A 
ATOM     52  C   UNL A   1      41.587  28.600  31.433  1.00  0.00     0.049 A 
ATOM     53  C   UNL A   1      40.895  32.084  35.789  1.00  0.00     0.074 A 
ATOM     54  C   UNL A   1      42.649  27.716  31.517  1.00  0.00     0.029 A 
ATOM     55  N   UNL A   1      41.584  29.327  32.617  1.00  0.00    -0.354 N 
ATOM     56  N   UNL A   1      41.176  31.210  34.850  1.00  0.00    -0.248 NA
ATOM     57  C   UNL A   1      41.740  31.976  36.985  1.00  0.00     0.031 C 
ATOM     58  C   UNL A   1      43.235  27.853  32.779  1.00  0.00     0.029 A 
ATOM     59  C   UNL A   1      42.600  28.885  33.451  1.00  0.00     0.049 A 
ATOM     60  H   UNL A   1      40.952  30.050  32.833  1.00  0.00     0.167 HD
ATOM     61  C   UNL A   1      42.249  30.466  35.334  1.00  0.00     0.074 A 
ATOM     62  C   UNL A   1      42.575  31.008  36.637  1.00  0.00     0.031 C 
ATOM     63  C   UNL A   1      42.908  29.429  34.754  1.00  0.00     0.034 A 
BRANCH  50  64
ATOM     64  C   UNL A   1      40.704  27.825  29.176  1.00  0.00     0.023 A 
ATOM     65  C   UNL A   1      41.638  28.007  28.141  1.00  0.00     0.031 A 
ATOM     66  C   UNL A   1      39.804  26.751  29.067  1.00  0.00     0.131 A 
ATOM     67  C   UNL A   1      41.598  27.180  27.008  1.00  0.00     0.055 A 
ATOM     68  C   UNL A   1      39.828  25.877  27.978  1.00  0.00     0.041 A 
ATOM     69  F   UNL A   1      38.873  26.539  30.012  1.00  0.00    -0.206 F 
ATOM     70  C   UNL A   1      40.719  26.099  26.932  1.00  0.00     0.022 A 
BRANCH  67  71
ATOM     71  S   UNL A   1      42.606  27.637  25.571  1.00  0.00     0.124 S 
ATOM     72  O   UNL A   1      43.908  27.880  26.190  1.00  0.00    -0.237 OA
ATOM     73  O   UNL A   1      42.511  26.451  24.730  1.00  0.00    -0.237 OA
ATOM     74  O   UNL A   1      41.940  28.828  25.050  1.00  0.00    -0.744 OA
ENDBRANCH  67  71
ENDBRANCH  50  64
BRANCH  51  75
ATOM     75  C   UNL A   1      39.654  34.042  36.987  1.00  0.00     0.023 A 
ATOM     76  C   UNL A   1      39.132  33.539  38.190  1.00  0.00     0.031 A 
ATOM     77  C   UNL A   1      39.952  35.416  36.925  1.00  0.00     0.131 A 
ATOM     78  C   UNL A   1      38.877  34.410  39.262  1.00  0.00     0.055 A 
ATOM     79  C   UNL A   1      39.757  36.266  38.016  1.00  0.00     0.041 A 
ATOM     80  F   UNL A   1      40.450  35.954  35.800  1.00  0.00    -0.206 F 
ATOM     81  C   UNL A   1      39.202  35.766  39.189  1.00  0.00     0.022 A 
BRANCH  78  82
ATOM     82  S   UNL A   1      38.019  33.759  40.721  1.00  0.00     0.124 S 
ATOM     83  O   UNL A   1      39.135  33.445  41.606  1.00  0.00    -0.237 OA
ATOM     84  O   UNL A   1      37.187  34.891  41.113  1.00  0.00    -0.237 OA
ATOM     85  O   UNL A   1      37.291  32.603  40.200  1.00  0.00    -0.744 OA
ENDBRANCH  78  82
ENDBRANCH  51  75
BRANCH  63  86
ATOM     86  C   UNL A   1      44.077  28.847  35.510  1.00  0.00     0.023 A 
ATOM     87  C   UNL A   1      43.930  27.750  36.378  1.00  0.00     0.031 A 
ATOM     88  C   UNL A   1      45.361  29.401  35.358  1.00  0.00     0.131 A 
ATOM     89  C   UNL A   1      45.036  27.278  37.099  1.00  0.00     0.055 A 
ATOM     90  C   UNL A   1      46.470  28.884  36.027  1.00  0.00     0.041 A 
ATOM     91  F   UNL A   1      45.559  30.454  34.546  1.00  0.00    -0.206 F 
ATOM     92  C   UNL A   1      46.309  27.824  36.914  1.00  0.00     0.022 A 
BRANCH  89  93
ATOM     93  S   UNL A   1      44.774  25.998  38.358  1.00  0.00     0.124 S 
ATOM     94  O   UNL A   1      43.927  25.045  37.649  1.00  0.00    -0.237 OA
ATOM     95  O   UNL A   1      46.136  25.554  38.640  1.00  0.00    -0.237 OA
ATOM     96  O   UNL A   1      44.121  26.718  39.448  1.00  0.00    -0.744 OA
ENDBRANCH  89  93
ENDBRANCH  63  86
ENDBRANCH  37  38
ENDBRANCH  29  32
ENDBRANCH  27  28
ENDBRANCH   1  27
TORSDOF 15
ENDMDL
MODEL 2
REMARK VINA RESULT:     -12.5      2.111      4.091
REMARK SMILES O=C(Nc1ccc2c(c1)OCO2)N[C@H]1C=C[C@@H](C(=O)NCCCNC(=O)c2ccc(-c3c4nc(c(-c5cc(S(=O)(=O)[O-])ccc5F)c5ccc([nH]5)c(-c5cc(S(=O)(=O)[O-])ccc5F)c5nc(c(-c6cc(S(=O)(=O)[O-])ccc6F)c6ccc3[nH]6)C=C5)C=C4)cc2)C1
REMARK SMILES IDX 22 1 21 2 20 3 18 4 19 5 17 7 14 8 15 9 90 10 16 11 13 12
REMARK SMILES IDX 1 13 2 14 3 15 4 18 5 19 9 20 6 21 8 22 7 23 10 24 12 25
REMARK SMILES IDX 11 26 23 27 24 28 25 29 26 31 27 32 28 33 89 34 29 35 88 36
REMARK SMILES IDX 30 37 31 38 32 39 82 40 33 41 87 42 81 43 83 44 34 45 86 46
REMARK SMILES IDX 80 47 79 48 35 50 67 51 47 52 66 53 48 54 51 55 65 56 84 57
REMARK SMILES IDX 49 58 50 59 64 61 85 62 52 63 36 64 37 65 45 66 38 67 44 68
REMARK SMILES IDX 46 69 43 70 39 71 40 72 41 73 42 74 68 75 69 76 77 77 70 78
REMARK SMILES IDX 76 79 78 80 75 81 71 82 72 83 73 84 74 85 53 86 54 87 62 88
REMARK SMILES IDX 55 89 61 90 63 91 60 92 56 93 57 94 58 95 59 96
REMARK H PARENT 20 6 3 16 13 17 24 30 83 49 51 60
REMARK Flexibility Score: inf
ROOT
ATOM      1  C   UNL A   1      31.638  31.783  26.570  1.00  0.00     0.042 C 
ENDROOT
BRANCH   1   2
ATOM      2  C   UNL A   1      31.480  30.296  26.855  1.00  0.00     0.117 C 
BRANCH   2   3
ATOM      3  N   UNL A   1      32.727  29.569  26.707  1.00  0.00    -0.356 N 
ATOM      4  C   UNL A   1      33.307  28.991  25.620  1.00  0.00     0.227 C 
ATOM      5  O   UNL A   1      34.416  28.473  25.786  1.00  0.00    -0.274 OA
ATOM      6  H   UNL A   1      33.245  29.478  27.540  1.00  0.00     0.163 HD
BRANCH   4   7
ATOM      7  C   UNL A   1      32.649  28.967  24.237  1.00  0.00     0.103 C 
ATOM      8  C   UNL A   1      32.283  27.323  22.446  1.00  0.00     0.107 C 
ATOM      9  C   UNL A   1      31.056  27.537  23.273  1.00  0.00    -0.006 C 
ATOM     10  C   UNL A   1      33.374  28.108  23.196  1.00  0.00     0.047 C 
ATOM     11  C   UNL A   1      31.247  28.439  24.242  1.00  0.00    -0.016 C 
BRANCH   8  12
ATOM     12  N   UNL A   1      32.579  25.913  22.412  1.00  0.00    -0.332 N 
ATOM     13  O   UNL A   1      32.331  25.693  20.161  1.00  0.00    -0.248 OA
ATOM     14  C   UNL A   1      32.611  25.203  21.251  1.00  0.00     0.319 C 
ATOM     15  N   UNL A   1      33.090  23.928  21.320  1.00  0.00    -0.308 N 
ATOM     16  H   UNL A   1      33.327  23.539  20.447  1.00  0.00     0.171 HD
ATOM     17  H   UNL A   1      32.764  25.447  23.259  1.00  0.00     0.165 HD
BRANCH  15  18
ATOM     18  C   UNL A   1      33.308  23.068  22.412  1.00  0.00     0.046 A 
ATOM     19  C   UNL A   1      32.415  22.037  22.770  1.00  0.00     0.030 A 
ATOM     20  C   UNL A   1      34.492  23.244  23.138  1.00  0.00     0.076 A 
ATOM     21  C   UNL A   1      32.661  21.228  23.885  1.00  0.00     0.053 A 
ATOM     22  C   UNL A   1      34.701  22.442  24.240  1.00  0.00     0.167 A 
ATOM     23  C   UNL A   1      33.809  21.466  24.608  1.00  0.00     0.165 A 
ATOM     24  O   UNL A   1      35.767  22.511  25.080  1.00  0.00    -0.454 OA
ATOM     25  O   UNL A   1      34.202  20.792  25.721  1.00  0.00    -0.454 OA
ATOM     26  C   UNL A   1      35.438  21.476  26.030  1.00  0.00     0.468 C 
ENDBRANCH  15  18
ENDBRANCH   8  12
ENDBRANCH   4   7
ENDBRANCH   2   3
ENDBRANCH   1   2
BRANCH   1  27
ATOM     27  C   UNL A   1      32.786  32.434  27.332  1.00  0.00     0.118 C 
BRANCH  27  28
ATOM     28  N   UNL A   1      32.544  33.847  27.599  1.00  0.00    -0.352 N 
ATOM     29  C   UNL A   1      33.100  34.674  28.543  1.00  0.00     0.251 C 
ATOM     30  H   UNL A   1      31.879  34.274  27.012  1.00  0.00     0.163 HD
ATOM     31  O   UNL A   1      32.600  35.780  28.743  1.00  0.00    -0.269 OA
BRANCH  29  32
ATOM     32  C   UNL A   1      34.273  34.231  29.329  1.00  0.00     0.039 A 
ATOM     33  C   UNL A   1      34.066  33.581  30.549  1.00  0.00     0.014 A 
ATOM     34  C   UNL A   1      35.573  34.463  28.873  1.00  0.00     0.014 A 
ATOM     35  C   UNL A   1      35.162  33.090  31.265  1.00  0.00     0.010 A 
ATOM     36  C   UNL A   1      36.655  33.899  29.541  1.00  0.00     0.010 A 
ATOM     37  C   UNL A   1      36.460  33.202  30.742  1.00  0.00    -0.014 A 
BRANCH  37  38
ATOM     38  C   UNL A   1      37.625  32.591  31.433  1.00  0.00     0.031 A 
ATOM     39  C   UNL A   1      38.367  31.450  30.799  1.00  0.00     0.074 A 
ATOM     40  C   UNL A   1      37.973  33.025  32.662  1.00  0.00     0.049 A 
ATOM     41  N   UNL A   1      39.346  30.732  31.284  1.00  0.00    -0.248 NA
ATOM     42  C   UNL A   1      37.924  31.041  29.458  1.00  0.00     0.031 C 
ATOM     43  C   UNL A   1      37.285  34.085  33.397  1.00  0.00     0.029 A 
ATOM     44  N   UNL A   1      38.976  32.634  33.511  1.00  0.00    -0.354 N 
ATOM     45  C   UNL A   1      39.626  29.772  30.317  1.00  0.00     0.074 A 
ATOM     46  C   UNL A   1      38.673  29.969  29.244  1.00  0.00     0.031 C 
ATOM     47  C   UNL A   1      37.917  34.300  34.562  1.00  0.00     0.029 A 
ATOM     48  C   UNL A   1      39.006  33.337  34.696  1.00  0.00     0.049 A 
ATOM     49  H   UNL A   1      39.616  31.918  33.295  1.00  0.00     0.167 HD
ATOM     50  C   UNL A   1      40.597  28.827  30.319  1.00  0.00     0.034 A 
ATOM     51  C   UNL A   1      39.799  33.201  35.777  1.00  0.00     0.034 A 
ATOM     52  C   UNL A   1      41.537  28.650  31.400  1.00  0.00     0.049 A 
ATOM     53  C   UNL A   1      40.848  32.116  35.770  1.00  0.00     0.074 A 
ATOM     54  C   UNL A   1      42.590  27.755  31.485  1.00  0.00     0.029 A 
ATOM     55  N   UNL A   1      41.533  29.371  32.588  1.00  0.00    -0.354 N 
ATOM     56  N   UNL A   1      41.128  31.245  34.829  1.00  0.00    -0.248 NA
ATOM     57  C   UNL A   1      41.684  31.993  36.971  1.00  0.00     0.031 C 
ATOM     58  C   UNL A   1      43.169  27.879  32.752  1.00  0.00     0.029 A 
ATOM     59  C   UNL A   1      42.539  28.914  33.426  1.00  0.00     0.049 A 
ATOM     60  H   UNL A   1      40.906  30.098  32.803  1.00  0.00     0.167 HD
ATOM     61  C   UNL A   1      42.190  30.488  35.315  1.00  0.00     0.074 A 
ATOM     62  C   UNL A   1      42.512  31.020  36.624  1.00  0.00     0.031 C 
ATOM     63  C   UNL A   1      42.843  29.448  34.734  1.00  0.00     0.034 A 
BRANCH  50  64
ATOM     64  C   UNL A   1      40.663  27.896  29.132  1.00  0.00     0.023 A 
ATOM     65  C   UNL A   1      41.595  28.084  28.097  1.00  0.00     0.031 A 
ATOM     66  C   UNL A   1      39.764  26.821  29.020  1.00  0.00     0.131 A 
ATOM     67  C   UNL A   1      41.554  27.263  26.960  1.00  0.00     0.055 A 
ATOM     68  C   UNL A   1      39.787  25.952  27.926  1.00  0.00     0.041 A 
ATOM     69  F   UNL A   1      38.835  26.604  29.965  1.00  0.00    -0.206 F 
ATOM     70  C   UNL A   1      40.676  26.181  26.879  1.00  0.00     0.022 A 
BRANCH  67  71
ATOM     71  S   UNL A   1      42.559  27.728  25.523  1.00  0.00     0.124 S 
ATOM     72  O   UNL A   1      42.453  26.531  24.691  1.00  0.00    -0.237 OA
ATOM     73  O   UNL A   1      41.872  28.913  25.027  1.00  0.00    -0.237 OA
ATOM     74  O   UNL A   1      43.883  27.965  26.094  1.00  0.00    -0.744 OA
ENDBRANCH  67  71
ENDBRANCH  50  64
BRANCH  51  75
ATOM     75  C   UNL A   1      39.619  34.080  36.970  1.00  0.00     0.023 A 
ATOM     76  C   UNL A   1      39.050  33.584  38.155  1.00  0.00     0.031 A 
ATOM     77  C   UNL A   1      39.964  35.443  36.930  1.00  0.00     0.131 A 
ATOM     78  C   UNL A   1      38.798  34.453  39.229  1.00  0.00     0.055 A 
ATOM     79  C   UNL A   1      39.770  36.289  38.023  1.00  0.00     0.041 A 
ATOM     80  F   UNL A   1      40.508  35.974  35.822  1.00  0.00    -0.206 F 
ATOM     81  C   UNL A   1      39.170  35.798  39.177  1.00  0.00     0.022 A 
BRANCH  78  82
ATOM     82  S   UNL A   1      37.882  33.819  40.661  1.00  0.00     0.124 S 
ATOM     83  O   UNL A   1      36.764  33.138  40.019  1.00  0.00    -0.237 OA
ATOM     84  O   UNL A   1      38.875  32.963  41.300  1.00  0.00    -0.237 OA
ATOM     85  O   UNL A   1      37.533  35.029  41.403  1.00  0.00    -0.744 OA
ENDBRANCH  78  82
ENDBRANCH  51  75
BRANCH  63  86
ATOM     86  C   UNL A   1      44.002  28.850  35.495  1.00  0.00     0.023 A 
ATOM     87  C   UNL A   1      43.834  27.764  36.372  1.00  0.00     0.031 A 
ATOM     88  C   UNL A   1      45.296  29.379  35.337  1.00  0.00     0.131 A 
ATOM     89  C   UNL A   1      44.932  27.277  37.097  1.00  0.00     0.055 A 
ATOM     90  C   UNL A   1      46.395  28.847  36.011  1.00  0.00     0.041 A 
ATOM     91  F   UNL A   1      45.513  30.420  34.517  1.00  0.00    -0.206 F 
ATOM     92  C   UNL A   1      46.215  27.798  36.907  1.00  0.00     0.022 A 
BRANCH  89  93
ATOM     93  S   UNL A   1      44.646  26.014  38.368  1.00  0.00     0.124 S 
ATOM     94  O   UNL A   1      44.332  26.826  39.537  1.00  0.00    -0.237 OA
ATOM     95  O   UNL A   1      43.537  25.250  37.805  1.00  0.00    -0.237 OA
ATOM     96  O   UNL A   1      45.919  25.299  38.432  1.00  0.00    -0.744 OA
ENDBRANCH  89  93
ENDBRANCH  63  86
ENDBRANCH  37  38
ENDBRANCH  29  32
ENDBRANCH  27  28
ENDBRANCH   1  27
TORSDOF 15
ENDMDL
MODEL 3
REMARK VINA RESULT:     -12.5      6.159     11.697
REMARK SMILES O=C(Nc1ccc2c(c1)OCO2)N[C@H]1C=C[C@@H](C(=O)NCCCNC(=O)c2ccc(-c3c4nc(c(-c5cc(S(=O)(=O)[O-])ccc5F)c5ccc([nH]5)c(-c5cc(S(=O)(=O)[O-])ccc5F)c5nc(c(-c6cc(S(=O)(=O)[O-])ccc6F)c6ccc3[nH]6)C=C5)C=C4)cc2)C1
REMARK SMILES IDX 22 1 21 2 20 3 18 4 19 5 17 7 14 8 15 9 90 10 16 11 13 12
REMARK SMILES IDX 1 13 2 14 3 15 4 18 5 19 9 20 6 21 8 22 7 23 10 24 12 25
REMARK SMILES IDX 11 26 23 27 24 28 25 29 26 31 27 32 28 33 89 34 29 35 88 36
REMARK SMILES IDX 30 37 31 38 32 39 82 40 33 41 87 42 81 43 83 44 34 45 86 46
REMARK SMILES IDX 80 47 79 48 35 50 67 51 47 52 66 53 48 54 51 55 65 56 84 57
REMARK SMILES IDX 49 58 50 59 64 61 85 62 52 63 36 64 37 65 45 66 38 67 44 68
REMARK SMILES IDX 46 69 43 70 39 71 40 72 41 73 42 74 68 75 69 76 77 77 70 78
REMARK SMILES IDX 76 79 78 80 75 81 71 82 72 83 73 84 74 85 53 86 54 87 62 88
REMARK SMILES IDX 55 89 61 90 63 91 60 92 56 93 57 94 58 95 59 96
REMARK H PARENT 20 6 3 16 13 17 24 30 83 49 51 60
REMARK Flexibility Score: inf
ROOT
ATOM      1  C   UNL A   1      38.124  20.282  25.089  1.00  0.00     0.042 C 
ENDROOT
BRANCH   1   2
ATOM      2  C   UNL A   1      36.886  21.118  25.382  1.00  0.00     0.117 C 
BRANCH   2   3
ATOM      3  N   UNL A   1      36.556  22.019  24.294  1.00  0.00    -0.356 N 
ATOM      4  C   UNL A   1      35.362  22.349  23.731  1.00  0.00     0.227 C 
ATOM      5  O   UNL A   1      35.381  23.199  22.834  1.00  0.00    -0.274 OA
ATOM      6  H   UNL A   1      37.333  22.473  23.893  1.00  0.00     0.163 HD
BRANCH   4   7
ATOM      7  C   UNL A   1      34.033  21.723  24.163  1.00  0.00     0.103 C 
ATOM      8  C   UNL A   1      31.894  22.501  25.092  1.00  0.00     0.107 C 
ATOM      9  C   UNL A   1      31.804  22.227  23.625  1.00  0.00    -0.006 C 
ATOM     10  C   UNL A   1      33.395  22.361  25.401  1.00  0.00     0.047 C 
ATOM     11  C   UNL A   1      32.962  21.792  23.117  1.00  0.00    -0.016 C 
BRANCH   8  12
ATOM     12  N   UNL A   1      31.428  23.841  25.342  1.00  0.00    -0.332 N 
ATOM     13  O   UNL A   1      30.328  23.334  27.268  1.00  0.00    -0.248 OA
ATOM     14  C   UNL A   1      30.697  24.165  26.443  1.00  0.00     0.319 C 
ATOM     15  N   UNL A   1      30.480  25.493  26.672  1.00  0.00    -0.308 N 
ATOM     16  H   UNL A   1      30.170  25.698  27.583  1.00  0.00     0.171 HD
ATOM     17  H   UNL A   1      31.648  24.548  24.692  1.00  0.00     0.165 HD
BRANCH  15  18
ATOM     18  C   UNL A   1      30.619  26.620  25.842  1.00  0.00     0.046 A 
ATOM     19  C   UNL A   1      31.506  27.679  26.123  1.00  0.00     0.030 A 
ATOM     20  C   UNL A   1      29.855  26.647  24.669  1.00  0.00     0.076 A 
ATOM     21  C   UNL A   1      31.584  28.794  25.281  1.00  0.00     0.053 A 
ATOM     22  C   UNL A   1      29.941  27.765  23.866  1.00  0.00     0.167 A 
ATOM     23  C   UNL A   1      30.776  28.812  24.166  1.00  0.00     0.165 A 
ATOM     24  O   UNL A   1      29.237  27.977  22.723  1.00  0.00    -0.454 OA
ATOM     25  O   UNL A   1      30.710  29.812  23.248  1.00  0.00    -0.454 OA
ATOM     26  C   UNL A   1      29.712  29.285  22.344  1.00  0.00     0.468 C 
ENDBRANCH  15  18
ENDBRANCH   8  12
ENDBRANCH   4   7
ENDBRANCH   2   3
ENDBRANCH   1   2
BRANCH   1  27
ATOM     27  C   UNL A   1      39.243  20.470  26.106  1.00  0.00     0.118 C 
BRANCH  27  28
ATOM     28  N   UNL A   1      40.244  19.413  26.030  1.00  0.00    -0.352 N 
ATOM     29  C   UNL A   1      41.616  19.495  26.026  1.00  0.00     0.251 C 
ATOM     30  H   UNL A   1      39.882  18.500  25.974  1.00  0.00     0.163 HD
ATOM     31  O   UNL A   1      42.276  18.498  25.737  1.00  0.00    -0.269 OA
BRANCH  29  32
ATOM     32  C   UNL A   1      42.290  20.773  26.342  1.00  0.00     0.039 A 
ATOM     33  C   UNL A   1      42.712  21.595  25.293  1.00  0.00     0.014 A 
ATOM     34  C   UNL A   1      42.516  21.159  27.665  1.00  0.00     0.014 A 
ATOM     35  C   UNL A   1      43.282  22.839  25.576  1.00  0.00     0.010 A 
ATOM     36  C   UNL A   1      43.003  22.432  27.945  1.00  0.00     0.010 A 
ATOM     37  C   UNL A   1      43.386  23.288  26.903  1.00  0.00    -0.014 A 
BRANCH  37  38
ATOM     38  C   UNL A   1      43.888  24.651  27.219  1.00  0.00     0.031 A 
ATOM     39  C   UNL A   1      42.954  25.691  27.768  1.00  0.00     0.074 A 
ATOM     40  C   UNL A   1      45.170  24.967  26.949  1.00  0.00     0.049 A 
ATOM     41  N   UNL A   1      43.182  26.953  28.020  1.00  0.00    -0.248 NA
ATOM     42  C   UNL A   1      41.574  25.261  28.034  1.00  0.00     0.031 C 
ATOM     43  C   UNL A   1      46.149  24.054  26.360  1.00  0.00     0.029 A 
ATOM     44  N   UNL A   1      45.874  26.131  27.126  1.00  0.00    -0.354 N 
ATOM     45  C   UNL A   1      41.970  27.476  28.457  1.00  0.00     0.074 A 
ATOM     46  C   UNL A   1      41.000  26.404  28.380  1.00  0.00     0.031 C 
ATOM     47  C   UNL A   1      47.337  24.672  26.273  1.00  0.00     0.029 A 
ATOM     48  C   UNL A   1      47.189  26.052  26.724  1.00  0.00     0.049 A 
ATOM     49  H   UNL A   1      45.476  26.948  27.505  1.00  0.00     0.167 HD
ATOM     50  C   UNL A   1      41.699  28.729  28.896  1.00  0.00     0.034 A 
ATOM     51  C   UNL A   1      48.155  26.991  26.693  1.00  0.00     0.034 A 
ATOM     52  C   UNL A   1      42.684  29.782  28.966  1.00  0.00     0.049 A 
ATOM     53  C   UNL A   1      47.818  28.389  27.152  1.00  0.00     0.074 A 
ATOM     54  C   UNL A   1      42.528  31.075  29.437  1.00  0.00     0.029 A 
ATOM     55  N   UNL A   1      44.002  29.672  28.541  1.00  0.00    -0.354 N 
ATOM     56  N   UNL A   1      46.677  28.856  27.603  1.00  0.00    -0.248 NA
ATOM     57  C   UNL A   1      48.894  29.385  27.092  1.00  0.00     0.031 C 
ATOM     58  C   UNL A   1      43.726  31.766  29.224  1.00  0.00     0.029 A 
ATOM     59  C   UNL A   1      44.659  30.882  28.704  1.00  0.00     0.049 A 
ATOM     60  H   UNL A   1      44.410  28.854  28.177  1.00  0.00     0.167 HD
ATOM     61  C   UNL A   1      46.908  30.195  27.905  1.00  0.00     0.074 A 
ATOM     62  C   UNL A   1      48.301  30.453  27.604  1.00  0.00     0.031 C 
ATOM     63  C   UNL A   1      46.048  31.128  28.390  1.00  0.00     0.034 A 
BRANCH  50  64
ATOM     64  C   UNL A   1      40.275  29.031  29.299  1.00  0.00     0.023 A 
ATOM     65  C   UNL A   1      39.865  28.997  30.642  1.00  0.00     0.031 A 
ATOM     66  C   UNL A   1      39.308  29.330  28.323  1.00  0.00     0.131 A 
ATOM     67  C   UNL A   1      38.512  29.177  30.967  1.00  0.00     0.055 A 
ATOM     68  C   UNL A   1      37.979  29.597  28.662  1.00  0.00     0.041 A 
ATOM     69  F   UNL A   1      39.633  29.355  27.021  1.00  0.00    -0.206 F 
ATOM     70  C   UNL A   1      37.571  29.505  29.989  1.00  0.00     0.022 A 
BRANCH  67  71
ATOM     71  S   UNL A   1      37.976  28.821  32.663  1.00  0.00     0.124 S 
ATOM     72  O   UNL A   1      38.961  29.566  33.445  1.00  0.00    -0.237 OA
ATOM     73  O   UNL A   1      36.617  29.347  32.681  1.00  0.00    -0.237 OA
ATOM     74  O   UNL A   1      38.086  27.367  32.759  1.00  0.00    -0.744 OA
ENDBRANCH  67  71
ENDBRANCH  50  64
BRANCH  51  75
ATOM     75  C   UNL A   1      49.519  26.665  26.182  1.00  0.00     0.023 A 
ATOM     76  C   UNL A   1      49.950  27.123  24.926  1.00  0.00     0.031 A 
ATOM     77  C   UNL A   1      50.397  25.847  26.918  1.00  0.00     0.131 A 
ATOM     78  C   UNL A   1      51.198  26.720  24.423  1.00  0.00     0.055 A 
ATOM     79  C   UNL A   1      51.663  25.502  26.441  1.00  0.00     0.041 A 
ATOM     80  F   UNL A   1      50.038  25.376  28.123  1.00  0.00    -0.206 F 
ATOM     81  C   UNL A   1      52.064  25.927  25.179  1.00  0.00     0.022 A 
BRANCH  78  82
ATOM     82  S   UNL A   1      51.632  27.167  22.719  1.00  0.00     0.124 S 
ATOM     83  O   UNL A   1      52.774  26.297  22.466  1.00  0.00    -0.237 OA
ATOM     84  O   UNL A   1      50.405  26.844  22.000  1.00  0.00    -0.237 OA
ATOM     85  O   UNL A   1      51.941  28.593  22.811  1.00  0.00    -0.744 OA
ENDBRANCH  78  82
ENDBRANCH  51  75
BRANCH  63  86
ATOM     86  C   UNL A   1      46.607  32.503  28.667  1.00  0.00     0.023 A 
ATOM     87  C   UNL A   1      46.634  33.507  27.683  1.00  0.00     0.031 A 
ATOM     88  C   UNL A   1      47.122  32.810  29.939  1.00  0.00     0.131 A 
ATOM     89  C   UNL A   1      47.212  34.752  27.972  1.00  0.00     0.055 A 
ATOM     90  C   UNL A   1      47.636  34.071  30.240  1.00  0.00     0.041 A 
ATOM     91  F   UNL A   1      47.128  31.887  30.916  1.00  0.00    -0.206 F 
ATOM     92  C   UNL A   1      47.695  35.048  29.250  1.00  0.00     0.022 A 
BRANCH  89  93
ATOM     93  S   UNL A   1      47.414  35.953  26.628  1.00  0.00     0.124 S 
ATOM     94  O   UNL A   1      46.228  36.786  26.786  1.00  0.00    -0.237 OA
ATOM     95  O   UNL A   1      48.687  36.585  26.962  1.00  0.00    -0.237 OA
ATOM     96  O   UNL A   1      47.433  35.122  25.426  1.00  0.00    -0.744 OA
ENDBRANCH  89  93
ENDBRANCH  63  86
ENDBRANCH  37  38
ENDBRANCH  29  32
ENDBRANCH  27  28
ENDBRANCH   1  27
TORSDOF 15
ENDMDL
