MODEL 1
REMARK VINA RESULT:     -11.9      0.000      0.000
REMARK SMILES CC[C@@H](C(=O)NCCCNC(=O)c1ccc(-c2c3nc(c(-c4cc(S(=O)(=O)[O-])ccc4F)c4ccc([nH]4)c(-c4cc(S(=O)(=O)[O-])ccc4F)c4nc(c(-c5cc(S(=O)(=O)[O-])ccc5F)c5ccc2[nH]5)C=C4)C=C3)cc1)N1C(=O)/C(=C\c2ccc(C(=O)OC)cc2)SC1=S
REMARK SMILES IDX 7 1 6 2 4 3 5 4 3 6 2 7 1 8 76 9 77 10 92 11 78 12 79 13
REMARK SMILES IDX 91 14 93 15 80 16 81 17 82 18 90 19 83 20 89 21 84 22 85 23
REMARK SMILES IDX 86 24 87 25 88 26 8 27 9 28 10 29 11 30 12 32 13 33 14 34
REMARK SMILES IDX 75 35 15 36 74 37 16 38 17 39 18 40 68 41 19 42 73 43 67 44
REMARK SMILES IDX 69 45 20 46 72 47 66 48 65 49 21 51 53 52 33 53 52 54 34 55
REMARK SMILES IDX 37 56 51 57 70 58 35 59 36 60 50 62 71 63 38 64 22 65 23 66
REMARK SMILES IDX 31 67 24 68 30 69 32 70 29 71 25 72 26 73 27 74 28 75 54 76
REMARK SMILES IDX 55 77 63 78 56 79 62 80 64 81 61 82 57 83 58 84 59 85 60 86
REMARK SMILES IDX 39 87 40 88 48 89 41 90 47 91 49 92 46 93 42 94 43 95 44 96
REMARK SMILES IDX 45 97
REMARK H PARENT 6 5 10 31 69 50 37 61
REMARK Flexibility Score: inf
ROOT
ATOM      1  C   UNL A   1      37.403  22.287  25.717  1.00  0.00     0.117 C 
ENDROOT
BRANCH   1   2
ATOM      2  N   UNL A   1      36.172  21.921  26.405  1.00  0.00    -0.354 N 
ATOM      3  C   UNL A   1      34.925  22.477  26.411  1.00  0.00     0.243 C 
ATOM      4  O   UNL A   1      34.137  22.074  27.276  1.00  0.00    -0.273 OA
ATOM      5  H   UNL A   1      36.255  21.121  26.973  1.00  0.00     0.163 HD
BRANCH   3   6
ATOM      6  C   UNL A   1      34.515  23.604  25.415  1.00  0.00     0.181 C 
BRANCH   6   7
ATOM      7  C   UNL A   1      33.756  24.659  26.265  1.00  0.00     0.032 C 
ATOM      8  C   UNL A   1      34.094  26.111  25.993  1.00  0.00     0.006 C 
ENDBRANCH   6   7
BRANCH   6   9
ATOM      9  N   UNL A   1      33.602  23.026  24.364  1.00  0.00    -0.280 N 
ATOM     10  C   UNL A   1      33.680  21.675  24.056  1.00  0.00     0.266 C 
ATOM     11  C   UNL A   1      32.935  23.721  23.378  1.00  0.00     0.149 C 
ATOM     12  O   UNL A   1      34.643  20.950  24.265  1.00  0.00    -0.268 OA
ATOM     13  C   UNL A   1      32.481  21.264  23.264  1.00  0.00     0.081 C 
ATOM     14  S   UNL A   1      31.740  22.672  22.615  1.00  0.00    -0.054 SA
ATOM     15  S   UNL A   1      33.175  25.269  22.799  1.00  0.00    -0.052 S 
ATOM     16  C   UNL A   1      32.000  20.032  23.048  1.00  0.00     0.029 C 
BRANCH  16  17
ATOM     17  C   UNL A   1      32.579  18.804  23.587  1.00  0.00    -0.024 A 
ATOM     18  C   UNL A   1      32.409  18.504  24.942  1.00  0.00     0.009 A 
ATOM     19  C   UNL A   1      33.294  17.924  22.766  1.00  0.00     0.009 A 
ATOM     20  C   UNL A   1      32.910  17.310  25.463  1.00  0.00     0.016 A 
ATOM     21  C   UNL A   1      33.798  16.730  23.289  1.00  0.00     0.016 A 
ATOM     22  C   UNL A   1      33.593  16.410  24.637  1.00  0.00     0.060 A 
BRANCH  22  23
ATOM     23  C   UNL A   1      34.050  15.123  25.230  1.00  0.00     0.337 C 
ATOM     24  O   UNL A   1      33.292  14.251  25.616  1.00  0.00    -0.246 OA
BRANCH  23  25
ATOM     25  O   UNL A   1      35.406  15.067  25.247  1.00  0.00    -0.465 OA
ATOM     26  C   UNL A   1      36.031  16.247  25.752  1.00  0.00     0.282 C 
ENDBRANCH  23  25
ENDBRANCH  22  23
ENDBRANCH  16  17
ENDBRANCH   6   9
ENDBRANCH   3   6
ENDBRANCH   1   2
BRANCH   1  27
ATOM     27  C   UNL A   1      38.590  21.441  26.194  1.00  0.00     0.042 C 
BRANCH  27  28
ATOM     28  C   UNL A   1      38.967  20.286  25.269  1.00  0.00     0.118 C 
BRANCH  28  29
ATOM     29  N   UNL A   1      39.932  19.392  25.881  1.00  0.00    -0.352 N 
ATOM     30  C   UNL A   1      41.173  19.658  26.413  1.00  0.00     0.251 C 
ATOM     31  H   UNL A   1      39.656  18.447  25.922  1.00  0.00     0.163 HD
ATOM     32  O   UNL A   1      41.925  18.713  26.643  1.00  0.00    -0.269 OA
BRANCH  30  33
ATOM     33  C   UNL A   1      41.624  21.048  26.690  1.00  0.00     0.039 A 
ATOM     34  C   UNL A   1      42.099  21.820  25.625  1.00  0.00     0.014 A 
ATOM     35  C   UNL A   1      41.647  21.581  27.982  1.00  0.00     0.014 A 
ATOM     36  C   UNL A   1      42.553  23.126  25.848  1.00  0.00     0.010 A 
ATOM     37  C   UNL A   1      42.016  22.912  28.190  1.00  0.00     0.010 A 
ATOM     38  C   UNL A   1      42.489  23.699  27.128  1.00  0.00    -0.014 A 
BRANCH  38  39
ATOM     39  C   UNL A   1      42.937  25.102  27.365  1.00  0.00     0.031 A 
ATOM     40  C   UNL A   1      42.012  26.100  28.017  1.00  0.00     0.074 A 
ATOM     41  C   UNL A   1      44.168  25.488  26.974  1.00  0.00     0.049 A 
ATOM     42  N   UNL A   1      42.213  27.366  28.283  1.00  0.00    -0.248 NA
ATOM     43  C   UNL A   1      40.676  25.616  28.395  1.00  0.00     0.031 C 
ATOM     44  C   UNL A   1      45.148  24.629  26.304  1.00  0.00     0.029 A 
ATOM     45  N   UNL A   1      44.812  26.697  27.085  1.00  0.00    -0.354 N 
ATOM     46  C   UNL A   1      41.032  27.831  28.853  1.00  0.00     0.074 A 
ATOM     47  C   UNL A   1      40.097  26.725  28.828  1.00  0.00     0.031 C 
ATOM     48  C   UNL A   1      46.277  25.326  26.100  1.00  0.00     0.029 A 
ATOM     49  C   UNL A   1      46.091  26.693  26.574  1.00  0.00     0.049 A 
ATOM     50  H   UNL A   1      44.399  27.491  27.491  1.00  0.00     0.167 HD
ATOM     51  C   UNL A   1      40.758  29.053  29.375  1.00  0.00     0.034 A 
ATOM     52  C   UNL A   1      47.008  27.679  26.489  1.00  0.00     0.034 A 
ATOM     53  C   UNL A   1      41.701  30.147  29.399  1.00  0.00     0.049 A 
ATOM     54  C   UNL A   1      46.666  29.042  27.038  1.00  0.00     0.074 A 
ATOM     55  C   UNL A   1      41.542  31.411  29.939  1.00  0.00     0.029 A 
ATOM     56  N   UNL A   1      42.978  30.111  28.851  1.00  0.00    -0.354 N 
ATOM     57  N   UNL A   1      45.558  29.447  27.615  1.00  0.00    -0.248 NA
ATOM     58  C   UNL A   1      47.704  30.075  26.933  1.00  0.00     0.031 C 
ATOM     59  C   UNL A   1      42.686  32.161  29.650  1.00  0.00     0.029 A 
ATOM     60  C   UNL A   1      43.601  31.340  29.010  1.00  0.00     0.049 A 
ATOM     61  H   UNL A   1      43.382  29.327  28.414  1.00  0.00     0.167 HD
ATOM     62  C   UNL A   1      45.782  30.775  27.973  1.00  0.00     0.074 A 
ATOM     63  C   UNL A   1      47.135  31.092  27.564  1.00  0.00     0.031 C 
ATOM     64  C   UNL A   1      44.947  31.652  28.587  1.00  0.00     0.034 A 
BRANCH  51  65
ATOM     65  C   UNL A   1      39.371  29.279  29.936  1.00  0.00     0.023 A 
ATOM     66  C   UNL A   1      38.388  29.985  29.219  1.00  0.00     0.031 A 
ATOM     67  C   UNL A   1      39.030  28.799  31.214  1.00  0.00     0.131 A 
ATOM     68  C   UNL A   1      37.147  30.258  29.812  1.00  0.00     0.055 A 
ATOM     69  C   UNL A   1      37.762  29.000  31.763  1.00  0.00     0.041 A 
ATOM     70  F   UNL A   1      39.929  28.137  31.958  1.00  0.00    -0.206 F 
ATOM     71  C   UNL A   1      36.816  29.747  31.068  1.00  0.00     0.022 A 
BRANCH  68  72
ATOM     72  S   UNL A   1      36.030  31.423  28.982  1.00  0.00     0.124 S 
ATOM     73  O   UNL A   1      35.090  31.744  30.055  1.00  0.00    -0.237 OA
ATOM     74  O   UNL A   1      36.931  32.495  28.582  1.00  0.00    -0.237 OA
ATOM     75  O   UNL A   1      35.466  30.638  27.886  1.00  0.00    -0.744 OA
ENDBRANCH  68  72
ENDBRANCH  51  65
BRANCH  52  76
ATOM     76  C   UNL A   1      48.335  27.427  25.852  1.00  0.00     0.023 A 
ATOM     77  C   UNL A   1      48.520  27.597  24.470  1.00  0.00     0.031 A 
ATOM     78  C   UNL A   1      49.426  26.964  26.609  1.00  0.00     0.131 A 
ATOM     79  C   UNL A   1      49.747  27.256  23.880  1.00  0.00     0.055 A 
ATOM     80  C   UNL A   1      50.665  26.686  26.026  1.00  0.00     0.041 A 
ATOM     81  F   UNL A   1      49.307  26.785  27.934  1.00  0.00    -0.206 F 
ATOM     82  C   UNL A   1      50.826  26.817  24.651  1.00  0.00     0.022 A 
BRANCH  79  83
ATOM     83  S   UNL A   1      49.884  27.302  22.072  1.00  0.00     0.124 S 
ATOM     84  O   UNL A   1      48.902  26.300  21.674  1.00  0.00    -0.237 OA
ATOM     85  O   UNL A   1      49.542  28.689  21.778  1.00  0.00    -0.237 OA
ATOM     86  O   UNL A   1      51.279  26.940  21.828  1.00  0.00    -0.744 OA
ENDBRANCH  79  83
ENDBRANCH  52  76
BRANCH  64  87
ATOM     87  C   UNL A   1      45.496  33.026  28.894  1.00  0.00     0.023 A 
ATOM     88  C   UNL A   1      45.278  34.121  28.039  1.00  0.00     0.031 A 
ATOM     89  C   UNL A   1      46.272  33.236  30.049  1.00  0.00     0.131 A 
ATOM     90  C   UNL A   1      45.886  35.356  28.313  1.00  0.00     0.055 A 
ATOM     91  C   UNL A   1      46.813  34.486  30.355  1.00  0.00     0.041 A 
ATOM     92  F   UNL A   1      46.518  32.228  30.900  1.00  0.00    -0.206 F 
ATOM     93  C   UNL A   1      46.636  35.551  29.476  1.00  0.00     0.022 A 
BRANCH  90  94
ATOM     94  S   UNL A   1      45.783  36.672  27.071  1.00  0.00     0.124 S 
ATOM     95  O   UNL A   1      44.351  36.715  26.793  1.00  0.00    -0.237 OA
ATOM     96  O   UNL A   1      46.327  37.822  27.788  1.00  0.00    -0.237 OA
ATOM     97  O   UNL A   1      46.612  36.177  25.974  1.00  0.00    -0.744 OA
ENDBRANCH  90  94
ENDBRANCH  64  87
ENDBRANCH  38  39
ENDBRANCH  30  33
ENDBRANCH  28  29
ENDBRANCH  27  28
ENDBRANCH   1  27
TORSDOF 18
ENDMDL
MODEL 2
REMARK VINA RESULT:     -11.7      1.865      2.264
REMARK SMILES CC[C@@H](C(=O)NCCCNC(=O)c1ccc(-c2c3nc(c(-c4cc(S(=O)(=O)[O-])ccc4F)c4ccc([nH]4)c(-c4cc(S(=O)(=O)[O-])ccc4F)c4nc(c(-c5cc(S(=O)(=O)[O-])ccc5F)c5ccc2[nH]5)C=C4)C=C3)cc1)N1C(=O)/C(=C\c2ccc(C(=O)OC)cc2)SC1=S
REMARK SMILES IDX 7 1 6 2 4 3 5 4 3 6 2 7 1 8 76 9 77 10 92 11 78 12 79 13
REMARK SMILES IDX 91 14 93 15 80 16 81 17 82 18 90 19 83 20 89 21 84 22 85 23
REMARK SMILES IDX 86 24 87 25 88 26 8 27 9 28 10 29 11 30 12 32 13 33 14 34
REMARK SMILES IDX 75 35 15 36 74 37 16 38 17 39 18 40 68 41 19 42 73 43 67 44
REMARK SMILES IDX 69 45 20 46 72 47 66 48 65 49 21 51 53 52 33 53 52 54 34 55
REMARK SMILES IDX 37 56 51 57 70 58 35 59 36 60 50 62 71 63 38 64 22 65 23 66
REMARK SMILES IDX 31 67 24 68 30 69 32 70 29 71 25 72 26 73 27 74 28 75 54 76
REMARK SMILES IDX 55 77 63 78 56 79 62 80 64 81 61 82 57 83 58 84 59 85 60 86
REMARK SMILES IDX 39 87 40 88 48 89 41 90 47 91 49 92 46 93 42 94 43 95 44 96
REMARK SMILES IDX 45 97
REMARK H PARENT 6 5 10 31 69 50 37 61
REMARK Flexibility Score: inf
ROOT
ATOM      1  C   UNL A   1      37.715  22.400  25.729  1.00  0.00     0.117 C 
ENDROOT
BRANCH   1   2
ATOM      2  N   UNL A   1      36.448  22.279  26.437  1.00  0.00    -0.354 N 
ATOM      3  C   UNL A   1      35.266  22.955  26.324  1.00  0.00     0.243 C 
ATOM      4  O   UNL A   1      34.434  22.781  27.223  1.00  0.00    -0.273 OA
ATOM      5  H   UNL A   1      36.442  21.579  27.129  1.00  0.00     0.163 HD
BRANCH   3   6
ATOM      6  C   UNL A   1      34.984  23.940  25.149  1.00  0.00     0.181 C 
BRANCH   6   7
ATOM      7  C   UNL A   1      34.453  25.241  25.812  1.00  0.00     0.032 C 
ATOM      8  C   UNL A   1      32.996  25.240  26.223  1.00  0.00     0.006 C 
ENDBRANCH   6   7
BRANCH   6   9
ATOM      9  N   UNL A   1      33.931  23.347  24.249  1.00  0.00    -0.280 N 
ATOM     10  C   UNL A   1      33.924  21.980  24.011  1.00  0.00     0.266 C 
ATOM     11  C   UNL A   1      33.174  24.017  23.311  1.00  0.00     0.149 C 
ATOM     12  O   UNL A   1      34.879  21.227  24.145  1.00  0.00    -0.268 OA
ATOM     13  C   UNL A   1      32.624  21.578  23.392  1.00  0.00     0.081 C 
ATOM     14  S   UNL A   1      31.860  22.980  22.757  1.00  0.00    -0.054 SA
ATOM     15  S   UNL A   1      33.397  25.521  22.621  1.00  0.00    -0.052 S 
ATOM     16  C   UNL A   1      32.078  20.358  23.304  1.00  0.00     0.029 C 
BRANCH  16  17
ATOM     17  C   UNL A   1      32.675  19.136  23.839  1.00  0.00    -0.024 A 
ATOM     18  C   UNL A   1      33.233  18.206  22.957  1.00  0.00     0.009 A 
ATOM     19  C   UNL A   1      32.701  18.889  25.216  1.00  0.00     0.009 A 
ATOM     20  C   UNL A   1      33.854  17.057  23.452  1.00  0.00     0.016 A 
ATOM     21  C   UNL A   1      33.320  17.739  25.711  1.00  0.00     0.016 A 
ATOM     22  C   UNL A   1      33.915  16.825  24.832  1.00  0.00     0.060 A 
BRANCH  22  23
ATOM     23  C   UNL A   1      34.645  15.618  25.307  1.00  0.00     0.337 C 
ATOM     24  O   UNL A   1      35.817  15.625  25.639  1.00  0.00    -0.246 OA
BRANCH  23  25
ATOM     25  O   UNL A   1      33.813  14.546  25.338  1.00  0.00    -0.465 OA
ATOM     26  C   UNL A   1      32.441  14.879  25.548  1.00  0.00     0.282 C 
ENDBRANCH  23  25
ENDBRANCH  22  23
ENDBRANCH  16  17
ENDBRANCH   6   9
ENDBRANCH   3   6
ENDBRANCH   1   2
BRANCH   1  27
ATOM     27  C   UNL A   1      38.769  21.436  26.288  1.00  0.00     0.042 C 
BRANCH  27  28
ATOM     28  C   UNL A   1      39.296  20.410  25.289  1.00  0.00     0.118 C 
BRANCH  28  29
ATOM     29  N   UNL A   1      40.225  19.480  25.901  1.00  0.00    -0.352 N 
ATOM     30  C   UNL A   1      41.483  19.696  26.416  1.00  0.00     0.251 C 
ATOM     31  H   UNL A   1      39.907  18.550  25.957  1.00  0.00     0.163 HD
ATOM     32  O   UNL A   1      42.194  18.720  26.650  1.00  0.00    -0.269 OA
BRANCH  30  33
ATOM     33  C   UNL A   1      42.000  21.067  26.671  1.00  0.00     0.039 A 
ATOM     34  C   UNL A   1      42.287  21.887  25.575  1.00  0.00     0.014 A 
ATOM     35  C   UNL A   1      42.266  21.536  27.961  1.00  0.00     0.014 A 
ATOM     36  C   UNL A   1      42.795  23.177  25.772  1.00  0.00     0.010 A 
ATOM     37  C   UNL A   1      42.689  22.853  28.160  1.00  0.00     0.010 A 
ATOM     38  C   UNL A   1      42.974  23.686  27.068  1.00  0.00    -0.014 A 
BRANCH  38  39
ATOM     39  C   UNL A   1      43.481  25.073  27.284  1.00  0.00     0.031 A 
ATOM     40  C   UNL A   1      42.576  26.138  27.851  1.00  0.00     0.074 A 
ATOM     41  C   UNL A   1      44.750  25.383  26.952  1.00  0.00     0.049 A 
ATOM     42  N   UNL A   1      42.827  27.401  28.087  1.00  0.00    -0.248 NA
ATOM     43  C   UNL A   1      41.197  25.735  28.169  1.00  0.00     0.031 C 
ATOM     44  C   UNL A   1      45.720  24.453  26.366  1.00  0.00     0.029 A 
ATOM     45  N   UNL A   1      45.449  26.561  27.060  1.00  0.00    -0.354 N 
ATOM     46  C   UNL A   1      41.642  27.944  28.575  1.00  0.00     0.074 A 
ATOM     47  C   UNL A   1      40.654  26.887  28.532  1.00  0.00     0.031 C 
ATOM     48  C   UNL A   1      46.893  25.084  26.204  1.00  0.00     0.029 A 
ATOM     49  C   UNL A   1      46.753  26.475  26.623  1.00  0.00     0.049 A 
ATOM     50  H   UNL A   1      45.056  27.389  27.417  1.00  0.00     0.167 HD
ATOM     51  C   UNL A   1      41.404  29.196  29.041  1.00  0.00     0.034 A 
ATOM     52  C   UNL A   1      47.723  27.410  26.558  1.00  0.00     0.034 A 
ATOM     53  C   UNL A   1      42.400  30.241  29.083  1.00  0.00     0.049 A 
ATOM     54  C   UNL A   1      47.423  28.807  27.042  1.00  0.00     0.074 A 
ATOM     55  C   UNL A   1      42.278  31.530  29.572  1.00  0.00     0.029 A 
ATOM     56  N   UNL A   1      43.702  30.122  28.610  1.00  0.00    -0.354 N 
ATOM     57  N   UNL A   1      46.308  29.287  27.543  1.00  0.00    -0.248 NA
ATOM     58  C   UNL A   1      48.517  29.782  26.964  1.00  0.00     0.031 C 
ATOM     59  C   UNL A   1      43.474  32.211  29.325  1.00  0.00     0.029 A 
ATOM     60  C   UNL A   1      44.378  31.323  28.764  1.00  0.00     0.049 A 
ATOM     61  H   UNL A   1      44.087  29.304  28.222  1.00  0.00     0.167 HD
ATOM     62  C   UNL A   1      46.580  30.613  27.870  1.00  0.00     0.074 A 
ATOM     63  C   UNL A   1      47.969  30.848  27.528  1.00  0.00     0.031 C 
ATOM     64  C   UNL A   1      45.759  31.552  28.408  1.00  0.00     0.034 A 
BRANCH  51  65
ATOM     65  C   UNL A   1      40.003  29.510  29.516  1.00  0.00     0.023 A 
ATOM     66  C   UNL A   1      39.685  29.585  30.884  1.00  0.00     0.031 A 
ATOM     67  C   UNL A   1      38.963  29.718  28.592  1.00  0.00     0.131 A 
ATOM     68  C   UNL A   1      38.356  29.781  31.288  1.00  0.00     0.055 A 
ATOM     69  C   UNL A   1      37.658  30.000  29.000  1.00  0.00     0.041 A 
ATOM     70  F   UNL A   1      39.196  29.639  27.272  1.00  0.00    -0.206 F 
ATOM     71  C   UNL A   1      37.344  30.017  30.355  1.00  0.00     0.022 A 
BRANCH  68  72
ATOM     72  S   UNL A   1      37.943  29.567  33.042  1.00  0.00     0.124 S 
ATOM     73  O   UNL A   1      37.359  28.228  33.045  1.00  0.00    -0.237 OA
ATOM     74  O   UNL A   1      39.241  29.700  33.690  1.00  0.00    -0.237 OA
ATOM     75  O   UNL A   1      36.998  30.651  33.306  1.00  0.00    -0.744 OA
ENDBRANCH  68  72
ENDBRANCH  51  65
BRANCH  52  76
ATOM     76  C   UNL A   1      49.068  27.070  26.005  1.00  0.00     0.023 A 
ATOM     77  C   UNL A   1      49.441  27.468  24.711  1.00  0.00     0.031 A 
ATOM     78  C   UNL A   1      49.981  26.298  26.744  1.00  0.00     0.131 A 
ATOM     79  C   UNL A   1      50.670  27.049  24.176  1.00  0.00     0.055 A 
ATOM     80  C   UNL A   1      51.229  25.936  26.231  1.00  0.00     0.041 A 
ATOM     81  F   UNL A   1      49.677  25.890  27.987  1.00  0.00    -0.206 F 
ATOM     82  C   UNL A   1      51.573  26.300  24.934  1.00  0.00     0.022 A 
BRANCH  79  83
ATOM     83  S   UNL A   1      51.031  27.417  22.437  1.00  0.00     0.124 S 
ATOM     84  O   UNL A   1      52.368  26.856  22.287  1.00  0.00    -0.237 OA
ATOM     85  O   UNL A   1      49.956  26.709  21.750  1.00  0.00    -0.237 OA
ATOM     86  O   UNL A   1      50.954  28.875  22.376  1.00  0.00    -0.744 OA
ENDBRANCH  79  83
ENDBRANCH  52  76
BRANCH  64  87
ATOM     87  C   UNL A   1      46.362  32.907  28.702  1.00  0.00     0.023 A 
ATOM     88  C   UNL A   1      47.053  33.169  29.898  1.00  0.00     0.031 A 
ATOM     89  C   UNL A   1      46.218  33.959  27.779  1.00  0.00     0.131 A 
ATOM     90  C   UNL A   1      47.514  34.467  30.170  1.00  0.00     0.055 A 
ATOM     91  C   UNL A   1      46.743  35.229  28.023  1.00  0.00     0.041 A 
ATOM     92  F   UNL A   1      45.564  33.770  26.622  1.00  0.00    -0.206 F 
ATOM     93  C   UNL A   1      47.381  35.494  29.232  1.00  0.00     0.022 A 
BRANCH  90  94
ATOM     94  S   UNL A   1      48.184  34.825  31.816  1.00  0.00     0.124 S 
ATOM     95  O   UNL A   1      47.571  36.114  32.120  1.00  0.00    -0.237 OA
ATOM     96  O   UNL A   1      47.705  33.690  32.601  1.00  0.00    -0.237 OA
ATOM     97  O   UNL A   1      49.629  34.862  31.599  1.00  0.00    -0.744 OA
ENDBRANCH  90  94
ENDBRANCH  64  87
ENDBRANCH  38  39
ENDBRANCH  30  33
ENDBRANCH  28  29
ENDBRANCH  27  28
ENDBRANCH   1  27
TORSDOF 18
ENDMDL
MODEL 3
REMARK VINA RESULT:     -11.4      3.052      5.549
REMARK SMILES CC[C@@H](C(=O)NCCCNC(=O)c1ccc(-c2c3nc(c(-c4cc(S(=O)(=O)[O-])ccc4F)c4ccc([nH]4)c(-c4cc(S(=O)(=O)[O-])ccc4F)c4nc(c(-c5cc(S(=O)(=O)[O-])ccc5F)c5ccc2[nH]5)C=C4)C=C3)cc1)N1C(=O)/C(=C\c2ccc(C(=O)OC)cc2)SC1=S
REMARK SMILES IDX 7 1 6 2 4 3 5 4 3 6 2 7 1 8 76 9 77 10 92 11 78 12 79 13
REMARK SMILES IDX 91 14 93 15 80 16 81 17 82 18 90 19 83 20 89 21 84 22 85 23
REMARK SMILES IDX 86 24 87 25 88 26 8 27 9 28 10 29 11 30 12 32 13 33 14 34
REMARK SMILES IDX 75 35 15 36 74 37 16 38 17 39 18 40 68 41 19 42 73 43 67 44
REMARK SMILES IDX 69 45 20 46 72 47 66 48 65 49 21 51 53 52 33 53 52 54 34 55
REMARK SMILES IDX 37 56 51 57 70 58 35 59 36 60 50 62 71 63 38 64 22 65 23 66
REMARK SMILES IDX 31 67 24 68 30 69 32 70 29 71 25 72 26 73 27 74 28 75 54 76
REMARK SMILES IDX 55 77 63 78 56 79 62 80 64 81 61 82 57 83 58 84 59 85 60 86
REMARK SMILES IDX 39 87 40 88 48 89 41 90 47 91 49 92 46 93 42 94 43 95 44 96
REMARK SMILES IDX 45 97
REMARK H PARENT 6 5 10 31 69 50 37 61
REMARK Flexibility Score: inf
ROOT
ATOM      1  C   UNL A   1      33.782  22.621  27.777  1.00  0.00     0.117 C 
ENDROOT
BRANCH   1   2
ATOM      2  N   UNL A   1      32.409  22.895  27.374  1.00  0.00    -0.354 N 
ATOM      3  C   UNL A   1      31.832  23.966  26.753  1.00  0.00     0.243 C 
ATOM      4  O   UNL A   1      30.595  24.009  26.746  1.00  0.00    -0.273 OA
ATOM      5  H   UNL A   1      31.777  22.172  27.590  1.00  0.00     0.163 HD
BRANCH   3   6
ATOM      6  C   UNL A   1      32.678  25.113  26.123  1.00  0.00     0.181 C 
BRANCH   6   7
ATOM      7  C   UNL A   1      32.188  26.419  26.806  1.00  0.00     0.032 C 
ATOM      8  C   UNL A   1      33.163  27.579  26.818  1.00  0.00     0.006 C 
ENDBRANCH   6   7
BRANCH   6   9
ATOM      9  N   UNL A   1      32.410  25.169  24.640  1.00  0.00    -0.280 N 
ATOM     10  C   UNL A   1      31.411  26.001  24.156  1.00  0.00     0.266 C 
ATOM     11  C   UNL A   1      32.767  24.225  23.701  1.00  0.00     0.149 C 
ATOM     12  O   UNL A   1      30.466  26.433  24.802  1.00  0.00    -0.268 OA
ATOM     13  C   UNL A   1      31.551  26.155  22.676  1.00  0.00     0.081 C 
ATOM     14  S   UNL A   1      32.542  24.884  22.081  1.00  0.00    -0.054 SA
ATOM     15  S   UNL A   1      33.244  22.637  23.896  1.00  0.00    -0.052 S 
ATOM     16  C   UNL A   1      31.026  27.094  21.877  1.00  0.00     0.029 C 
BRANCH  16  17
ATOM     17  C   UNL A   1      30.191  28.204  22.329  1.00  0.00    -0.024 A 
ATOM     18  C   UNL A   1      30.799  29.404  22.711  1.00  0.00     0.009 A 
ATOM     19  C   UNL A   1      28.798  28.085  22.379  1.00  0.00     0.009 A 
ATOM     20  C   UNL A   1      30.015  30.493  23.097  1.00  0.00     0.016 A 
ATOM     21  C   UNL A   1      28.014  29.174  22.767  1.00  0.00     0.016 A 
ATOM     22  C   UNL A   1      28.618  30.389  23.112  1.00  0.00     0.060 A 
BRANCH  22  23
ATOM     23  C   UNL A   1      27.830  31.600  23.469  1.00  0.00     0.337 C 
ATOM     24  O   UNL A   1      26.903  31.594  24.260  1.00  0.00    -0.246 OA
BRANCH  23  25
ATOM     25  O   UNL A   1      28.310  32.687  22.812  1.00  0.00    -0.465 OA
ATOM     26  C   UNL A   1      28.026  32.693  21.413  1.00  0.00     0.282 C 
ENDBRANCH  23  25
ENDBRANCH  22  23
ENDBRANCH  16  17
ENDBRANCH   6   9
ENDBRANCH   3   6
ENDBRANCH   1   2
BRANCH   1  27
ATOM     27  C   UNL A   1      34.470  21.647  26.813  1.00  0.00     0.042 C 
BRANCH  27  28
ATOM     28  C   UNL A   1      35.768  22.162  26.198  1.00  0.00     0.118 C 
BRANCH  28  29
ATOM     29  N   UNL A   1      36.720  21.094  25.959  1.00  0.00    -0.352 N 
ATOM     30  C   UNL A   1      38.088  21.142  25.818  1.00  0.00     0.251 C 
ATOM     31  H   UNL A   1      36.326  20.194  25.888  1.00  0.00     0.163 HD
ATOM     32  O   UNL A   1      38.665  20.155  25.367  1.00  0.00    -0.269 OA
BRANCH  30  33
ATOM     33  C   UNL A   1      38.869  22.356  26.176  1.00  0.00     0.039 A 
ATOM     34  C   UNL A   1      38.447  23.593  25.678  1.00  0.00     0.014 A 
ATOM     35  C   UNL A   1      40.041  22.293  26.936  1.00  0.00     0.014 A 
ATOM     36  C   UNL A   1      39.167  24.757  25.974  1.00  0.00     0.010 A 
ATOM     37  C   UNL A   1      40.708  23.464  27.304  1.00  0.00     0.010 A 
ATOM     38  C   UNL A   1      40.290  24.711  26.815  1.00  0.00    -0.014 A 
BRANCH  38  39
ATOM     39  C   UNL A   1      41.039  25.952  27.164  1.00  0.00     0.031 A 
ATOM     40  C   UNL A   1      40.399  27.018  28.018  1.00  0.00     0.074 A 
ATOM     41  C   UNL A   1      42.291  26.134  26.696  1.00  0.00     0.049 A 
ATOM     42  N   UNL A   1      40.882  28.172  28.405  1.00  0.00    -0.248 NA
ATOM     43  C   UNL A   1      39.024  26.765  28.472  1.00  0.00     0.031 C 
ATOM     44  C   UNL A   1      43.014  25.194  25.835  1.00  0.00     0.029 A 
ATOM     45  N   UNL A   1      43.182  27.164  26.878  1.00  0.00    -0.354 N 
ATOM     46  C   UNL A   1      39.872  28.783  29.142  1.00  0.00     0.074 A 
ATOM     47  C   UNL A   1      38.726  27.899  29.086  1.00  0.00     0.031 C 
ATOM     48  C   UNL A   1      44.245  25.672  25.598  1.00  0.00     0.029 A 
ATOM     49  C   UNL A   1      44.388  26.973  26.242  1.00  0.00     0.049 A 
ATOM     50  H   UNL A   1      42.977  27.963  27.413  1.00  0.00     0.167 HD
ATOM     51  C   UNL A   1      39.902  29.955  29.826  1.00  0.00     0.034 A 
ATOM     52  C   UNL A   1      45.483  27.759  26.177  1.00  0.00     0.034 A 
ATOM     53  C   UNL A   1      41.054  30.825  29.878  1.00  0.00     0.049 A 
ATOM     54  C   UNL A   1      45.479  29.078  26.910  1.00  0.00     0.074 A 
ATOM     55  C   UNL A   1      41.206  32.012  30.573  1.00  0.00     0.029 A 
ATOM     56  N   UNL A   1      42.249  30.609  29.202  1.00  0.00    -0.354 N 
ATOM     57  N   UNL A   1      44.529  29.615  27.640  1.00  0.00    -0.248 NA
ATOM     58  C   UNL A   1      46.700  29.887  26.819  1.00  0.00     0.031 C 
ATOM     59  C   UNL A   1      42.457  32.551  30.256  1.00  0.00     0.029 A 
ATOM     60  C   UNL A   1      43.127  31.656  29.436  1.00  0.00     0.049 A 
ATOM     61  H   UNL A   1      42.444  29.825  28.639  1.00  0.00     0.167 HD
ATOM     62  C   UNL A   1      45.054  30.811  28.123  1.00  0.00     0.074 A 
ATOM     63  C   UNL A   1      46.408  30.904  27.617  1.00  0.00     0.031 C 
ATOM     64  C   UNL A   1      44.471  31.747  28.917  1.00  0.00     0.034 A 
BRANCH  51  65
ATOM     65  C   UNL A   1      38.642  30.375  30.549  1.00  0.00     0.023 A 
ATOM     66  C   UNL A   1      37.730  31.283  29.979  1.00  0.00     0.031 A 
ATOM     67  C   UNL A   1      38.353  29.878  31.833  1.00  0.00     0.131 A 
ATOM     68  C   UNL A   1      36.623  31.724  30.719  1.00  0.00     0.055 A 
ATOM     69  C   UNL A   1      37.203  30.255  32.528  1.00  0.00     0.041 A 
ATOM     70  F   UNL A   1      39.193  29.026  32.440  1.00  0.00    -0.206 F 
ATOM     71  C   UNL A   1      36.337  31.196  31.979  1.00  0.00     0.022 A 
BRANCH  68  72
ATOM     72  S   UNL A   1      35.649  33.114  30.075  1.00  0.00     0.124 S 
ATOM     73  O   UNL A   1      35.595  33.998  31.237  1.00  0.00    -0.237 OA
ATOM     74  O   UNL A   1      36.461  33.577  28.957  1.00  0.00    -0.237 OA
ATOM     75  O   UNL A   1      34.375  32.499  29.709  1.00  0.00    -0.744 OA
ENDBRANCH  68  72
ENDBRANCH  51  65
BRANCH  52  76
ATOM     76  C   UNL A   1      46.675  27.335  25.383  1.00  0.00     0.023 A 
ATOM     77  C   UNL A   1      46.894  27.828  24.085  1.00  0.00     0.031 A 
ATOM     78  C   UNL A   1      47.585  26.391  25.890  1.00  0.00     0.131 A 
ATOM     79  C   UNL A   1      47.964  27.337  23.321  1.00  0.00     0.055 A 
ATOM     80  C   UNL A   1      48.684  25.952  25.148  1.00  0.00     0.041 A 
ATOM     81  F   UNL A   1      47.425  25.887  27.123  1.00  0.00    -0.206 F 
ATOM     82  C   UNL A   1      48.870  26.415  23.850  1.00  0.00     0.022 A 
BRANCH  79  83
ATOM     83  S   UNL A   1      48.100  27.849  21.587  1.00  0.00     0.124 S 
ATOM     84  O   UNL A   1      49.265  28.724  21.625  1.00  0.00    -0.237 OA
ATOM     85  O   UNL A   1      48.278  26.570  20.907  1.00  0.00    -0.237 OA
ATOM     86  O   UNL A   1      46.825  28.517  21.330  1.00  0.00    -0.744 OA
ENDBRANCH  79  83
ENDBRANCH  52  76
BRANCH  64  87
ATOM     87  C   UNL A   1      45.320  32.931  29.321  1.00  0.00     0.023 A 
ATOM     88  C   UNL A   1      45.346  34.119  28.567  1.00  0.00     0.031 A 
ATOM     89  C   UNL A   1      46.135  32.859  30.465  1.00  0.00     0.131 A 
ATOM     90  C   UNL A   1      46.219  35.156  28.926  1.00  0.00     0.055 A 
ATOM     91  C   UNL A   1      46.948  33.924  30.859  1.00  0.00     0.041 A 
ATOM     92  F   UNL A   1      46.157  31.750  31.221  1.00  0.00    -0.206 F 
ATOM     93  C   UNL A   1      47.006  35.075  30.078  1.00  0.00     0.022 A 
BRANCH  90  94
ATOM     94  S   UNL A   1      46.403  36.567  27.802  1.00  0.00     0.124 S 
ATOM     95  O   UNL A   1      45.441  37.519  28.349  1.00  0.00    -0.237 OA
ATOM     96  O   UNL A   1      47.810  36.918  27.968  1.00  0.00    -0.237 OA
ATOM     97  O   UNL A   1      46.052  36.015  26.495  1.00  0.00    -0.744 OA
ENDBRANCH  90  94
ENDBRANCH  64  87
ENDBRANCH  38  39
ENDBRANCH  30  33
ENDBRANCH  28  29
ENDBRANCH  27  28
ENDBRANCH   1  27
TORSDOF 18
ENDMDL
