MODEL 1
REMARK VINA RESULT:     -10.7      0.000      0.000
REMARK SMILES Cc1c(Br)cc(C(=O)NCCCNC(=O)c2ccc(-c3c4nc(c(-c5cc(S(=O)(=O)[O-])ccc5F)c5ccc([nH]5)c(-c5cc(S(=O)(=O)[O-])ccc5F)c5nc(c(-c6cc(S(=O)(=O)[O-])ccc6F)c6ccc3[nH]6)C=C5)C=C4)cc2)c(C)c1C
REMARK SMILES IDX 13 1 14 2 15 3 12 5 11 6 10 7 9 8 7 9 8 10 6 12 1 13 2 14
REMARK SMILES IDX 3 15 81 16 4 17 5 18 79 19 82 20 80 21 16 22 17 23 78 24
REMARK SMILES IDX 18 25 77 26 19 27 20 28 21 29 71 30 22 31 76 32 70 33 72 34
REMARK SMILES IDX 23 35 75 36 69 37 68 38 24 40 56 41 36 42 55 43 37 44 40 45
REMARK SMILES IDX 54 46 73 47 38 48 39 49 53 51 74 52 41 53 25 54 26 55 34 56
REMARK SMILES IDX 27 57 33 58 35 59 32 60 28 61 29 62 30 63 31 64 57 65 58 66
REMARK SMILES IDX 66 67 59 68 65 69 67 70 64 71 60 72 61 73 62 74 63 75 42 76
REMARK SMILES IDX 43 77 51 78 44 79 50 80 52 81 49 82 45 83 46 84 47 85 48 86
REMARK H PARENT 13 4 9 11 72 39 40 50
REMARK Flexibility Score: inf
ROOT
ATOM      1  N   UNL A   1      33.714  32.805  27.789  1.00  0.00    -0.352 N 
ATOM      2  C   UNL A   1      34.050  31.494  27.560  1.00  0.00     0.251 C 
ATOM      3  O   UNL A   1      33.331  30.791  26.861  1.00  0.00    -0.269 OA
ATOM      4  H   UNL A   1      32.787  33.052  27.567  1.00  0.00     0.163 HD
ENDROOT
BRANCH   1   5
ATOM      5  C   UNL A   1      34.543  33.881  28.318  1.00  0.00     0.118 C 
BRANCH   5   6
ATOM      6  C   UNL A   1      33.708  35.116  28.602  1.00  0.00     0.042 C 
BRANCH   6   7
ATOM      7  C   UNL A   1      33.721  35.525  30.074  1.00  0.00     0.118 C 
BRANCH   7   8
ATOM      8  N   UNL A   1      33.625  34.369  30.929  1.00  0.00    -0.352 N 
ATOM      9  C   UNL A   1      34.425  33.676  31.788  1.00  0.00     0.251 C 
ATOM     10  O   UNL A   1      33.816  32.737  32.324  1.00  0.00    -0.269 OA
ATOM     11  H   UNL A   1      32.729  33.964  30.877  1.00  0.00     0.163 HD
BRANCH   9  12
ATOM     12  C   UNL A   1      35.869  33.900  32.197  1.00  0.00     0.044 A 
ATOM     13  C   UNL A   1      40.167  34.793  32.431  1.00  0.00     0.046 C 
ATOM     14  C   UNL A   1      38.698  34.467  32.342  1.00  0.00    -0.034 A 
ATOM     15  C   UNL A   1      38.073  34.229  31.118  1.00  0.00     0.021 A 
ATOM     16  C   UNL A   1      37.898  34.443  33.515  1.00  0.00    -0.043 A 
ATOM     17  Br  UNL A   1      38.981  34.309  29.445  1.00  0.00    -0.051 Br
ATOM     18  C   UNL A   1      36.708  33.942  31.060  1.00  0.00     0.030 A 
ATOM     19  C   UNL A   1      36.482  34.164  33.448  1.00  0.00    -0.035 A 
ATOM     20  C   UNL A   1      38.530  34.758  34.862  1.00  0.00     0.045 C 
ATOM     21  C   UNL A   1      35.722  34.196  34.739  1.00  0.00     0.045 C 
ENDBRANCH   9  12
ENDBRANCH   7   8
ENDBRANCH   6   7
ENDBRANCH   5   6
ENDBRANCH   1   5
BRANCH   2  22
ATOM     22  C   UNL A   1      35.281  30.947  28.165  1.00  0.00     0.039 A 
ATOM     23  C   UNL A   1      36.501  31.592  27.941  1.00  0.00     0.014 A 
ATOM     24  C   UNL A   1      35.223  29.786  28.942  1.00  0.00     0.014 A 
ATOM     25  C   UNL A   1      37.660  31.092  28.534  1.00  0.00     0.010 A 
ATOM     26  C   UNL A   1      36.361  29.337  29.594  1.00  0.00     0.010 A 
ATOM     27  C   UNL A   1      37.591  29.970  29.374  1.00  0.00    -0.014 A 
BRANCH  27  28
ATOM     28  C   UNL A   1      38.799  29.381  29.989  1.00  0.00     0.031 A 
ATOM     29  C   UNL A   1      39.267  29.903  31.316  1.00  0.00     0.074 A 
ATOM     30  C   UNL A   1      39.513  28.459  29.319  1.00  0.00     0.049 A 
ATOM     31  N   UNL A   1      40.363  29.627  31.968  1.00  0.00    -0.248 NA
ATOM     32  C   UNL A   1      38.399  30.890  31.983  1.00  0.00     0.031 C 
ATOM     33  C   UNL A   1      39.164  27.918  28.006  1.00  0.00     0.029 A 
ATOM     34  N   UNL A   1      40.695  27.838  29.637  1.00  0.00    -0.354 N 
ATOM     35  C   UNL A   1      40.318  30.406  33.118  1.00  0.00     0.074 A 
ATOM     36  C   UNL A   1      39.124  31.217  33.041  1.00  0.00     0.031 C 
ATOM     37  C   UNL A   1      40.113  27.047  27.628  1.00  0.00     0.029 A 
ATOM     38  C   UNL A   1      41.155  26.999  28.652  1.00  0.00     0.049 A 
ATOM     39  H   UNL A   1      41.165  27.979  30.490  1.00  0.00     0.167 HD
ATOM     40  C   UNL A   1      41.180  30.416  34.158  1.00  0.00     0.034 A 
ATOM     41  C   UNL A   1      42.298  26.287  28.573  1.00  0.00     0.034 A 
ATOM     42  C   UNL A   1      42.354  29.590  34.223  1.00  0.00     0.049 A 
ATOM     43  C   UNL A   1      43.260  26.324  29.731  1.00  0.00     0.074 A 
ATOM     44  C   UNL A   1      43.272  29.491  35.251  1.00  0.00     0.029 A 
ATOM     45  N   UNL A   1      42.771  28.721  33.224  1.00  0.00    -0.354 N 
ATOM     46  N   UNL A   1      43.169  27.007  30.850  1.00  0.00    -0.248 NA
ATOM     47  C   UNL A   1      44.468  25.495  29.634  1.00  0.00     0.031 C 
ATOM     48  C   UNL A   1      44.269  28.600  34.855  1.00  0.00     0.029 A 
ATOM     49  C   UNL A   1      43.944  28.097  33.605  1.00  0.00     0.049 A 
ATOM     50  H   UNL A   1      42.301  28.573  32.372  1.00  0.00     0.167 HD
ATOM     51  C   UNL A   1      44.296  26.677  31.596  1.00  0.00     0.074 A 
ATOM     52  C   UNL A   1      45.047  25.720  30.809  1.00  0.00     0.031 C 
ATOM     53  C   UNL A   1      44.671  27.128  32.818  1.00  0.00     0.034 A 
BRANCH  40  54
ATOM     54  C   UNL A   1      40.874  31.309  35.331  1.00  0.00     0.023 A 
ATOM     55  C   UNL A   1      39.718  31.093  36.102  1.00  0.00     0.031 A 
ATOM     56  C   UNL A   1      41.668  32.435  35.614  1.00  0.00     0.131 A 
ATOM     57  C   UNL A   1      39.373  32.012  37.101  1.00  0.00     0.055 A 
ATOM     58  C   UNL A   1      41.341  33.324  36.637  1.00  0.00     0.041 A 
ATOM     59  F   UNL A   1      42.785  32.675  34.908  1.00  0.00    -0.206 F 
ATOM     60  C   UNL A   1      40.181  33.120  37.377  1.00  0.00     0.022 A 
BRANCH  57  61
ATOM     61  S   UNL A   1      37.842  31.827  38.053  1.00  0.00     0.124 S 
ATOM     62  O   UNL A   1      37.032  32.929  37.539  1.00  0.00    -0.237 OA
ATOM     63  O   UNL A   1      37.400  30.492  37.659  1.00  0.00    -0.237 OA
ATOM     64  O   UNL A   1      38.271  31.970  39.439  1.00  0.00    -0.744 OA
ENDBRANCH  57  61
ENDBRANCH  40  54
BRANCH  41  65
ATOM     65  C   UNL A   1      42.536  25.452  27.363  1.00  0.00     0.023 A 
ATOM     66  C   UNL A   1      42.061  24.129  27.298  1.00  0.00     0.031 A 
ATOM     67  C   UNL A   1      43.364  25.911  26.327  1.00  0.00     0.131 A 
ATOM     68  C   UNL A   1      42.482  23.289  26.259  1.00  0.00     0.055 A 
ATOM     69  C   UNL A   1      43.730  25.090  25.260  1.00  0.00     0.041 A 
ATOM     70  F   UNL A   1      43.850  27.162  26.356  1.00  0.00    -0.206 F 
ATOM     71  C   UNL A   1      43.302  23.765  25.231  1.00  0.00     0.022 A 
BRANCH  68  72
ATOM     72  S   UNL A   1      42.075  21.521  26.272  1.00  0.00     0.124 S 
ATOM     73  O   UNL A   1      42.375  21.145  27.649  1.00  0.00    -0.237 OA
ATOM     74  O   UNL A   1      40.658  21.545  25.918  1.00  0.00    -0.237 OA
ATOM     75  O   UNL A   1      42.960  20.957  25.257  1.00  0.00    -0.744 OA
ENDBRANCH  68  72
ENDBRANCH  41  65
BRANCH  53  76
ATOM     76  C   UNL A   1      45.950  26.612  33.423  1.00  0.00     0.023 A 
ATOM     77  C   UNL A   1      45.925  25.452  34.222  1.00  0.00     0.031 A 
ATOM     78  C   UNL A   1      47.130  27.373  33.384  1.00  0.00     0.131 A 
ATOM     79  C   UNL A   1      47.040  25.121  35.000  1.00  0.00     0.055 A 
ATOM     80  C   UNL A   1      48.255  27.012  34.125  1.00  0.00     0.041 A 
ATOM     81  F   UNL A   1      47.194  28.490  32.643  1.00  0.00    -0.206 F 
ATOM     82  C   UNL A   1      48.206  25.892  34.953  1.00  0.00     0.022 A 
BRANCH  79  83
ATOM     83  S   UNL A   1      46.986  23.731  36.165  1.00  0.00     0.124 S 
ATOM     84  O   UNL A   1      45.897  24.123  37.057  1.00  0.00    -0.237 OA
ATOM     85  O   UNL A   1      46.698  22.605  35.282  1.00  0.00    -0.237 OA
ATOM     86  O   UNL A   1      48.313  23.732  36.773  1.00  0.00    -0.744 OA
ENDBRANCH  79  83
ENDBRANCH  53  76
ENDBRANCH  27  28
ENDBRANCH   2  22
TORSDOF 13
ENDMDL
MODEL 2
REMARK VINA RESULT:     -10.6      3.622      9.775
REMARK SMILES Cc1c(Br)cc(C(=O)NCCCNC(=O)c2ccc(-c3c4nc(c(-c5cc(S(=O)(=O)[O-])ccc5F)c5ccc([nH]5)c(-c5cc(S(=O)(=O)[O-])ccc5F)c5nc(c(-c6cc(S(=O)(=O)[O-])ccc6F)c6ccc3[nH]6)C=C5)C=C4)cc2)c(C)c1C
REMARK SMILES IDX 13 1 14 2 15 3 12 5 11 6 10 7 9 8 7 9 8 10 6 12 1 13 2 14
REMARK SMILES IDX 3 15 81 16 4 17 5 18 79 19 82 20 80 21 16 22 17 23 78 24
REMARK SMILES IDX 18 25 77 26 19 27 20 28 21 29 71 30 22 31 76 32 70 33 72 34
REMARK SMILES IDX 23 35 75 36 69 37 68 38 24 40 56 41 36 42 55 43 37 44 40 45
REMARK SMILES IDX 54 46 73 47 38 48 39 49 53 51 74 52 41 53 25 54 26 55 34 56
REMARK SMILES IDX 27 57 33 58 35 59 32 60 28 61 29 62 30 63 31 64 57 65 58 66
REMARK SMILES IDX 66 67 59 68 65 69 67 70 64 71 60 72 61 73 62 74 63 75 42 76
REMARK SMILES IDX 43 77 51 78 44 79 50 80 52 81 49 82 45 83 46 84 47 85 48 86
REMARK H PARENT 13 4 9 11 72 39 40 50
REMARK Flexibility Score: inf
ROOT
ATOM      1  N   UNL A   1      32.522  30.304  25.708  1.00  0.00    -0.352 N 
ATOM      2  C   UNL A   1      32.864  31.159  26.726  1.00  0.00     0.251 C 
ATOM      3  O   UNL A   1      32.132  32.100  27.008  1.00  0.00    -0.269 OA
ATOM      4  H   UNL A   1      31.816  30.626  25.101  1.00  0.00     0.163 HD
ENDROOT
BRANCH   1   5
ATOM      5  C   UNL A   1      33.063  28.986  25.402  1.00  0.00     0.118 C 
BRANCH   5   6
ATOM      6  C   UNL A   1      33.640  28.951  23.999  1.00  0.00     0.042 C 
BRANCH   6   7
ATOM      7  C   UNL A   1      32.599  28.627  22.929  1.00  0.00     0.118 C 
BRANCH   7   8
ATOM      8  N   UNL A   1      33.013  27.499  22.135  1.00  0.00    -0.352 N 
ATOM      9  C   UNL A   1      33.277  26.174  22.318  1.00  0.00     0.251 C 
ATOM     10  O   UNL A   1      33.572  25.614  21.250  1.00  0.00    -0.269 OA
ATOM     11  H   UNL A   1      33.143  27.757  21.194  1.00  0.00     0.163 HD
BRANCH   9  12
ATOM     12  C   UNL A   1      33.225  25.318  23.569  1.00  0.00     0.044 A 
ATOM     13  C   UNL A   1      34.053  22.954  27.182  1.00  0.00     0.046 C 
ATOM     14  C   UNL A   1      33.774  23.747  25.930  1.00  0.00    -0.034 A 
ATOM     15  C   UNL A   1      34.782  24.044  25.012  1.00  0.00     0.021 A 
ATOM     16  C   UNL A   1      32.473  24.257  25.681  1.00  0.00    -0.043 A 
ATOM     17  Br  UNL A   1      36.597  23.511  25.239  1.00  0.00    -0.051 Br
ATOM     18  C   UNL A   1      34.502  24.791  23.867  1.00  0.00     0.030 A 
ATOM     19  C   UNL A   1      32.193  25.046  24.504  1.00  0.00    -0.035 A 
ATOM     20  C   UNL A   1      31.362  24.007  26.689  1.00  0.00     0.045 C 
ATOM     21  C   UNL A   1      30.796  25.566  24.352  1.00  0.00     0.045 C 
ENDBRANCH   9  12
ENDBRANCH   7   8
ENDBRANCH   6   7
ENDBRANCH   5   6
ENDBRANCH   1   5
BRANCH   2  22
ATOM     22  C   UNL A   1      34.119  30.931  27.471  1.00  0.00     0.039 A 
ATOM     23  C   UNL A   1      35.026  31.984  27.626  1.00  0.00     0.014 A 
ATOM     24  C   UNL A   1      34.396  29.669  28.004  1.00  0.00     0.014 A 
ATOM     25  C   UNL A   1      36.198  31.777  28.353  1.00  0.00     0.010 A 
ATOM     26  C   UNL A   1      35.522  29.487  28.792  1.00  0.00     0.010 A 
ATOM     27  C   UNL A   1      36.443  30.531  28.950  1.00  0.00    -0.014 A 
BRANCH  27  28
ATOM     28  C   UNL A   1      37.691  30.255  29.694  1.00  0.00     0.031 A 
ATOM     29  C   UNL A   1      38.671  29.270  29.128  1.00  0.00     0.074 A 
ATOM     30  C   UNL A   1      37.891  30.812  30.901  1.00  0.00     0.049 A 
ATOM     31  N   UNL A   1      39.754  28.783  29.669  1.00  0.00    -0.248 NA
ATOM     32  C   UNL A   1      38.375  28.738  27.785  1.00  0.00     0.031 C 
ATOM     33  C   UNL A   1      36.979  31.750  31.555  1.00  0.00     0.029 A 
ATOM     34  N   UNL A   1      38.911  30.647  31.804  1.00  0.00    -0.354 N 
ATOM     35  C   UNL A   1      40.266  27.889  28.737  1.00  0.00     0.074 A 
ATOM     36  C   UNL A   1      39.341  27.846  27.628  1.00  0.00     0.031 C 
ATOM     37  C   UNL A   1      37.478  32.075  32.758  1.00  0.00     0.029 A 
ATOM     38  C   UNL A   1      38.723  31.339  32.976  1.00  0.00     0.049 A 
ATOM     39  H   UNL A   1      39.701  30.087  31.629  1.00  0.00     0.167 HD
ATOM     40  C   UNL A   1      41.424  27.193  28.791  1.00  0.00     0.034 A 
ATOM     41  C   UNL A   1      39.459  31.363  34.106  1.00  0.00     0.034 A 
ATOM     42  C   UNL A   1      42.339  27.261  29.897  1.00  0.00     0.049 A 
ATOM     43  C   UNL A   1      40.736  30.566  34.159  1.00  0.00     0.074 A 
ATOM     44  C   UNL A   1      43.561  26.630  30.033  1.00  0.00     0.029 A 
ATOM     45  N   UNL A   1      42.136  28.004  31.051  1.00  0.00    -0.354 N 
ATOM     46  N   UNL A   1      41.251  29.782  33.239  1.00  0.00    -0.248 NA
ATOM     47  C   UNL A   1      41.539  30.658  35.385  1.00  0.00     0.031 C 
ATOM     48  C   UNL A   1      44.075  26.952  31.289  1.00  0.00     0.029 A 
ATOM     49  C   UNL A   1      43.204  27.831  31.914  1.00  0.00     0.049 A 
ATOM     50  H   UNL A   1      41.351  28.569  31.230  1.00  0.00     0.167 HD
ATOM     51  C   UNL A   1      42.445  29.302  33.767  1.00  0.00     0.074 A 
ATOM     52  C   UNL A   1      42.585  29.897  35.081  1.00  0.00     0.031 C 
ATOM     53  C   UNL A   1      43.339  28.448  33.212  1.00  0.00     0.034 A 
BRANCH  40  54
ATOM     54  C   UNL A   1      41.795  26.333  27.613  1.00  0.00     0.023 A 
ATOM     55  C   UNL A   1      41.468  24.965  27.606  1.00  0.00     0.031 A 
ATOM     56  C   UNL A   1      42.566  26.843  26.554  1.00  0.00     0.131 A 
ATOM     57  C   UNL A   1      41.940  24.148  26.571  1.00  0.00     0.055 A 
ATOM     58  C   UNL A   1      42.999  26.032  25.505  1.00  0.00     0.041 A 
ATOM     59  F   UNL A   1      42.896  28.145  26.516  1.00  0.00    -0.206 F 
ATOM     60  C   UNL A   1      42.696  24.675  25.519  1.00  0.00     0.022 A 
BRANCH  57  61
ATOM     61  S   UNL A   1      41.625  22.363  26.572  1.00  0.00     0.124 S 
ATOM     62  O   UNL A   1      42.230  21.951  27.837  1.00  0.00    -0.237 OA
ATOM     63  O   UNL A   1      40.167  22.312  26.532  1.00  0.00    -0.237 OA
ATOM     64  O   UNL A   1      42.310  21.885  25.376  1.00  0.00    -0.744 OA
ENDBRANCH  57  61
ENDBRANCH  40  54
BRANCH  41  65
ATOM     65  C   UNL A   1      39.003  32.220  35.236  1.00  0.00     0.023 A 
ATOM     66  C   UNL A   1      39.464  33.543  35.365  1.00  0.00     0.031 A 
ATOM     67  C   UNL A   1      38.227  31.683  36.274  1.00  0.00     0.131 A 
ATOM     68  C   UNL A   1      39.208  34.256  36.544  1.00  0.00     0.055 A 
ATOM     69  C   UNL A   1      37.920  32.419  37.419  1.00  0.00     0.041 A 
ATOM     70  F   UNL A   1      37.779  30.420  36.197  1.00  0.00    -0.206 F 
ATOM     71  C   UNL A   1      38.427  33.708  37.566  1.00  0.00     0.022 A 
BRANCH  68  72
ATOM     72  S   UNL A   1      39.979  35.872  36.837  1.00  0.00     0.124 S 
ATOM     73  O   UNL A   1      39.653  36.596  35.613  1.00  0.00    -0.237 OA
ATOM     74  O   UNL A   1      39.277  36.316  38.039  1.00  0.00    -0.237 OA
ATOM     75  O   UNL A   1      41.390  35.552  37.023  1.00  0.00    -0.744 OA
ENDBRANCH  68  72
ENDBRANCH  41  65
BRANCH  53  76
ATOM     76  C   UNL A   1      44.574  28.078  33.993  1.00  0.00     0.023 A 
ATOM     77  C   UNL A   1      44.528  27.001  34.899  1.00  0.00     0.031 A 
ATOM     78  C   UNL A   1      45.706  28.909  33.996  1.00  0.00     0.131 A 
ATOM     79  C   UNL A   1      45.570  26.821  35.816  1.00  0.00     0.055 A 
ATOM     80  C   UNL A   1      46.763  28.697  34.881  1.00  0.00     0.041 A 
ATOM     81  F   UNL A   1      45.785  29.953  33.156  1.00  0.00    -0.206 F 
ATOM     82  C   UNL A   1      46.689  27.660  35.809  1.00  0.00     0.022 A 
BRANCH  79  83
ATOM     83  S   UNL A   1      45.470  25.547  37.104  1.00  0.00     0.124 S 
ATOM     84  O   UNL A   1      45.417  24.319  36.315  1.00  0.00    -0.237 OA
ATOM     85  O   UNL A   1      46.710  25.763  37.842  1.00  0.00    -0.237 OA
ATOM     86  O   UNL A   1      44.243  25.872  37.824  1.00  0.00    -0.744 OA
ENDBRANCH  79  83
ENDBRANCH  53  76
ENDBRANCH  27  28
ENDBRANCH   2  22
TORSDOF 13
ENDMDL
MODEL 3
REMARK VINA RESULT:     -10.6      3.821      9.844
REMARK SMILES Cc1c(Br)cc(C(=O)NCCCNC(=O)c2ccc(-c3c4nc(c(-c5cc(S(=O)(=O)[O-])ccc5F)c5ccc([nH]5)c(-c5cc(S(=O)(=O)[O-])ccc5F)c5nc(c(-c6cc(S(=O)(=O)[O-])ccc6F)c6ccc3[nH]6)C=C5)C=C4)cc2)c(C)c1C
REMARK SMILES IDX 13 1 14 2 15 3 12 5 11 6 10 7 9 8 7 9 8 10 6 12 1 13 2 14
REMARK SMILES IDX 3 15 81 16 4 17 5 18 79 19 82 20 80 21 16 22 17 23 78 24
REMARK SMILES IDX 18 25 77 26 19 27 20 28 21 29 71 30 22 31 76 32 70 33 72 34
REMARK SMILES IDX 23 35 75 36 69 37 68 38 24 40 56 41 36 42 55 43 37 44 40 45
REMARK SMILES IDX 54 46 73 47 38 48 39 49 53 51 74 52 41 53 25 54 26 55 34 56
REMARK SMILES IDX 27 57 33 58 35 59 32 60 28 61 29 62 30 63 31 64 57 65 58 66
REMARK SMILES IDX 66 67 59 68 65 69 67 70 64 71 60 72 61 73 62 74 63 75 42 76
REMARK SMILES IDX 43 77 51 78 44 79 50 80 52 81 49 82 45 83 46 84 47 85 48 86
REMARK H PARENT 13 4 9 11 72 39 40 50
REMARK Flexibility Score: inf
ROOT
ATOM      1  N   UNL A   1      32.668  33.795  27.642  1.00  0.00    -0.352 N 
ATOM      2  C   UNL A   1      33.256  34.507  28.657  1.00  0.00     0.251 C 
ATOM      3  O   UNL A   1      32.782  35.581  29.007  1.00  0.00    -0.269 OA
ATOM      4  H   UNL A   1      32.025  34.294  27.089  1.00  0.00     0.163 HD
ENDROOT
BRANCH   1   5
ATOM      5  C   UNL A   1      32.867  32.400  27.272  1.00  0.00     0.118 C 
BRANCH   5   6
ATOM      6  C   UNL A   1      31.637  31.844  26.578  1.00  0.00     0.042 C 
BRANCH   6   7
ATOM      7  C   UNL A   1      31.798  30.388  26.146  1.00  0.00     0.118 C 
BRANCH   7   8
ATOM      8  N   UNL A   1      33.067  29.861  26.578  1.00  0.00    -0.352 N 
ATOM      9  C   UNL A   1      33.877  28.805  26.286  1.00  0.00     0.251 C 
ATOM     10  O   UNL A   1      34.926  28.835  26.949  1.00  0.00    -0.269 OA
ATOM     11  H   UNL A   1      33.461  30.422  27.286  1.00  0.00     0.163 HD
BRANCH   9  12
ATOM     12  C   UNL A   1      33.711  27.675  25.287  1.00  0.00     0.044 A 
ATOM     13  C   UNL A   1      32.889  23.908  23.174  1.00  0.00     0.046 C 
ATOM     14  C   UNL A   1      33.190  25.192  23.906  1.00  0.00    -0.034 A 
ATOM     15  C   UNL A   1      33.293  25.235  25.297  1.00  0.00     0.021 A 
ATOM     16  C   UNL A   1      33.328  26.409  23.189  1.00  0.00    -0.043 A 
ATOM     17  Br  UNL A   1      33.048  23.711  26.414  1.00  0.00    -0.051 Br
ATOM     18  C   UNL A   1      33.559  26.438  25.953  1.00  0.00     0.030 A 
ATOM     19  C   UNL A   1      33.585  27.655  23.874  1.00  0.00    -0.035 A 
ATOM     20  C   UNL A   1      33.162  26.414  21.677  1.00  0.00     0.045 C 
ATOM     21  C   UNL A   1      33.681  28.888  23.028  1.00  0.00     0.045 C 
ENDBRANCH   9  12
ENDBRANCH   7   8
ENDBRANCH   6   7
ENDBRANCH   5   6
ENDBRANCH   1   5
BRANCH   2  22
ATOM     22  C   UNL A   1      34.461  33.965  29.317  1.00  0.00     0.039 A 
ATOM     23  C   UNL A   1      35.725  34.336  28.848  1.00  0.00     0.014 A 
ATOM     24  C   UNL A   1      34.333  33.081  30.392  1.00  0.00     0.014 A 
ATOM     25  C   UNL A   1      36.864  33.847  29.487  1.00  0.00     0.010 A 
ATOM     26  C   UNL A   1      35.463  32.660  31.075  1.00  0.00     0.010 A 
ATOM     27  C   UNL A   1      36.736  33.017  30.613  1.00  0.00    -0.014 A 
BRANCH  27  28
ATOM     28  C   UNL A   1      37.915  32.442  31.296  1.00  0.00     0.031 A 
ATOM     29  C   UNL A   1      38.603  31.259  30.683  1.00  0.00     0.074 A 
ATOM     30  C   UNL A   1      38.297  32.920  32.492  1.00  0.00     0.049 A 
ATOM     31  N   UNL A   1      39.563  30.521  31.171  1.00  0.00    -0.248 NA
ATOM     32  C   UNL A   1      38.128  30.830  29.355  1.00  0.00     0.031 C 
ATOM     33  C   UNL A   1      37.666  34.040  33.190  1.00  0.00     0.029 A 
ATOM     34  N   UNL A   1      39.288  32.506  33.346  1.00  0.00    -0.354 N 
ATOM     35  C   UNL A   1      39.804  29.542  30.215  1.00  0.00     0.074 A 
ATOM     36  C   UNL A   1      38.845  29.736  29.151  1.00  0.00     0.031 C 
ATOM     37  C   UNL A   1      38.283  34.222  34.369  1.00  0.00     0.029 A 
ATOM     38  C   UNL A   1      39.324  33.208  34.526  1.00  0.00     0.049 A 
ATOM     39  H   UNL A   1      39.913  31.775  33.133  1.00  0.00     0.167 HD
ATOM     40  C   UNL A   1      40.762  28.590  30.212  1.00  0.00     0.034 A 
ATOM     41  C   UNL A   1      40.096  33.042  35.620  1.00  0.00     0.034 A 
ATOM     42  C   UNL A   1      41.717  28.424  31.274  1.00  0.00     0.049 A 
ATOM     43  C   UNL A   1      41.147  31.962  35.611  1.00  0.00     0.074 A 
ATOM     44  C   UNL A   1      42.758  27.518  31.351  1.00  0.00     0.029 A 
ATOM     45  N   UNL A   1      41.751  29.180  32.438  1.00  0.00    -0.354 N 
ATOM     46  N   UNL A   1      41.417  31.090  34.667  1.00  0.00    -0.248 NA
ATOM     47  C   UNL A   1      42.004  31.845  36.798  1.00  0.00     0.031 C 
ATOM     48  C   UNL A   1      43.391  27.692  32.581  1.00  0.00     0.029 A 
ATOM     49  C   UNL A   1      42.785  28.746  33.248  1.00  0.00     0.049 A 
ATOM     50  H   UNL A   1      41.132  29.913  32.654  1.00  0.00     0.167 HD
ATOM     51  C   UNL A   1      42.485  30.332  35.137  1.00  0.00     0.074 A 
ATOM     52  C   UNL A   1      42.823  30.860  36.444  1.00  0.00     0.031 C 
ATOM     53  C   UNL A   1      43.123  29.296  34.539  1.00  0.00     0.034 A 
BRANCH  40  54
ATOM     54  C   UNL A   1      40.863  27.681  29.018  1.00  0.00     0.023 A 
ATOM     55  C   UNL A   1      41.845  27.907  28.037  1.00  0.00     0.031 A 
ATOM     56  C   UNL A   1      39.920  26.661  28.799  1.00  0.00     0.131 A 
ATOM     57  C   UNL A   1      41.840  27.141  26.865  1.00  0.00     0.055 A 
ATOM     58  C   UNL A   1      39.945  25.875  27.648  1.00  0.00     0.041 A 
ATOM     59  F   UNL A   1      38.969  26.405  29.712  1.00  0.00    -0.206 F 
ATOM     60  C   UNL A   1      40.902  26.122  26.669  1.00  0.00     0.022 A 
BRANCH  57  61
ATOM     61  S   UNL A   1      43.026  27.463  25.532  1.00  0.00     0.124 S 
ATOM     62  O   UNL A   1      42.252  28.326  24.642  1.00  0.00    -0.237 OA
ATOM     63  O   UNL A   1      44.115  28.121  26.248  1.00  0.00    -0.237 OA
ATOM     64  O   UNL A   1      43.326  26.138  25.001  1.00  0.00    -0.744 OA
ENDBRANCH  57  61
ENDBRANCH  40  54
BRANCH  41  65
ATOM     65  C   UNL A   1      39.910  33.968  36.771  1.00  0.00     0.023 A 
ATOM     66  C   UNL A   1      40.831  35.003  37.016  1.00  0.00     0.031 A 
ATOM     67  C   UNL A   1      38.903  33.738  37.721  1.00  0.00     0.131 A 
ATOM     68  C   UNL A   1      40.769  35.718  38.219  1.00  0.00     0.055 A 
ATOM     69  C   UNL A   1      38.807  34.495  38.889  1.00  0.00     0.041 A 
ATOM     70  F   UNL A   1      38.012  32.751  37.533  1.00  0.00    -0.206 F 
ATOM     71  C   UNL A   1      39.755  35.481  39.151  1.00  0.00     0.022 A 
BRANCH  68  72
ATOM     72  S   UNL A   1      42.074  36.898  38.666  1.00  0.00     0.124 S 
ATOM     73  O   UNL A   1      41.315  37.975  39.292  1.00  0.00    -0.237 OA
ATOM     74  O   UNL A   1      42.896  36.096  39.570  1.00  0.00    -0.237 OA
ATOM     75  O   UNL A   1      42.695  37.226  37.386  1.00  0.00    -0.744 OA
ENDBRANCH  68  72
ENDBRANCH  41  65
BRANCH  53  76
ATOM     76  C   UNL A   1      44.268  28.633  35.261  1.00  0.00     0.023 A 
ATOM     77  C   UNL A   1      44.006  27.597  36.178  1.00  0.00     0.031 A 
ATOM     78  C   UNL A   1      45.567  29.161  35.198  1.00  0.00     0.131 A 
ATOM     79  C   UNL A   1      45.018  27.165  37.043  1.00  0.00     0.055 A 
ATOM     80  C   UNL A   1      46.584  28.694  36.031  1.00  0.00     0.041 A 
ATOM     81  F   UNL A   1      45.857  30.156  34.345  1.00  0.00    -0.206 F 
ATOM     82  C   UNL A   1      46.307  27.704  36.971  1.00  0.00     0.022 A 
BRANCH  79  83
ATOM     83  S   UNL A   1      44.676  25.951  38.347  1.00  0.00     0.124 S 
ATOM     84  O   UNL A   1      45.884  26.034  39.165  1.00  0.00    -0.237 OA
ATOM     85  O   UNL A   1      43.468  26.494  38.959  1.00  0.00    -0.237 OA
ATOM     86  O   UNL A   1      44.506  24.695  37.622  1.00  0.00    -0.744 OA
ENDBRANCH  79  83
ENDBRANCH  53  76
ENDBRANCH  27  28
ENDBRANCH   2  22
TORSDOF 13
ENDMDL
