MODEL 1
REMARK VINA RESULT:      -9.7      0.000      0.000
REMARK SMILES C[C@@H](C(=O)NCCCNC(=O)c1ccc(-c2c3nc(c(-c4cc(S(=O)(=O)[O-])ccc4F)c4ccc([nH]4)c(-c4cc(S(=O)(=O)[O-])ccc4F)c4nc(c(-c5cc(S(=O)(=O)[O-])ccc5F)c5ccc2[nH]5)C=C4)C=C3)cc1)c1ccc(C(=O)c2cccs2)cc1
REMARK SMILES IDX 7 1 6 2 5 3 3 4 4 5 2 7 1 8 75 9 76 10 87 11 77 12 86 13
REMARK SMILES IDX 78 14 79 15 80 16 81 17 82 18 85 19 83 20 84 21 8 22 9 23
REMARK SMILES IDX 10 24 11 26 12 27 13 28 74 29 14 30 73 31 15 32 16 33 17 34
REMARK SMILES IDX 67 35 18 36 72 37 66 38 68 39 19 40 71 41 65 42 64 43 20 45
REMARK SMILES IDX 52 46 32 47 51 48 33 49 36 50 50 51 69 52 34 53 35 54 49 56
REMARK SMILES IDX 70 57 37 58 21 59 22 60 30 61 23 62 29 63 31 64 28 65 24 66
REMARK SMILES IDX 25 67 26 68 27 69 53 70 54 71 62 72 55 73 61 74 63 75 60 76
REMARK SMILES IDX 56 77 57 78 58 79 59 80 38 81 39 82 47 83 40 84 46 85 48 86
REMARK SMILES IDX 45 87 41 88 42 89 43 90 44 91
REMARK H PARENT 5 6 9 25 68 44 36 55
REMARK Flexibility Score: inf
ROOT
ATOM      1  C   UNL A   1      34.386  34.954  28.678  1.00  0.00     0.042 C 
ENDROOT
BRANCH   1   2
ATOM      2  C   UNL A   1      33.625  34.642  29.964  1.00  0.00     0.117 C 
BRANCH   2   3
ATOM      3  N   UNL A   1      34.192  35.342  31.100  1.00  0.00    -0.356 N 
ATOM      4  C   UNL A   1      35.094  34.932  32.036  1.00  0.00     0.227 C 
ATOM      5  O   UNL A   1      35.319  35.710  32.965  1.00  0.00    -0.274 OA
ATOM      6  H   UNL A   1      33.873  36.267  31.214  1.00  0.00     0.163 HD
BRANCH   4   7
ATOM      7  C   UNL A   1      35.818  33.582  31.881  1.00  0.00     0.105 C 
ATOM      8  C   UNL A   1      35.795  32.774  33.183  1.00  0.00     0.023 C 
BRANCH   7   9
ATOM      9  C   UNL A   1      37.233  33.783  31.330  1.00  0.00    -0.036 A 
ATOM     10  C   UNL A   1      37.598  33.413  30.028  1.00  0.00     0.005 A 
ATOM     11  C   UNL A   1      38.224  34.315  32.171  1.00  0.00     0.005 A 
ATOM     12  C   UNL A   1      38.909  33.587  29.575  1.00  0.00     0.012 A 
ATOM     13  C   UNL A   1      39.538  34.488  31.719  1.00  0.00     0.012 A 
ATOM     14  C   UNL A   1      39.893  34.121  30.415  1.00  0.00     0.023 A 
BRANCH  14  15
ATOM     15  C   UNL A   1      41.270  34.317  29.855  1.00  0.00     0.202 C 
ATOM     16  O   UNL A   1      41.459  35.264  29.093  1.00  0.00    -0.288 OA
BRANCH  15  17
ATOM     17  C   UNL A   1      42.337  33.416  30.249  1.00  0.00     0.075 A 
ATOM     18  C   UNL A   1      42.544  32.092  29.913  1.00  0.00     0.024 A 
ATOM     19  S   UNL A   1      43.584  34.018  31.256  1.00  0.00    -0.140 S 
ATOM     20  C   UNL A   1      43.719  31.560  30.525  1.00  0.00     0.012 A 
ATOM     21  C   UNL A   1      44.372  32.501  31.291  1.00  0.00     0.065 A 
ENDBRANCH  15  17
ENDBRANCH  14  15
ENDBRANCH   7   9
ENDBRANCH   4   7
ENDBRANCH   2   3
ENDBRANCH   1   2
BRANCH   1  22
ATOM     22  C   UNL A   1      35.025  33.735  28.019  1.00  0.00     0.118 C 
BRANCH  22  23
ATOM     23  N   UNL A   1      34.075  32.655  27.810  1.00  0.00    -0.352 N 
ATOM     24  C   UNL A   1      34.267  31.298  27.836  1.00  0.00     0.251 C 
ATOM     25  H   UNL A   1      33.152  32.942  27.622  1.00  0.00     0.163 HD
ATOM     26  O   UNL A   1      33.368  30.564  27.418  1.00  0.00    -0.269 OA
BRANCH  24  27
ATOM     27  C   UNL A   1      35.532  30.714  28.334  1.00  0.00     0.039 A 
ATOM     28  C   UNL A   1      35.547  30.120  29.601  1.00  0.00     0.014 A 
ATOM     29  C   UNL A   1      36.714  30.788  27.591  1.00  0.00     0.014 A 
ATOM     30  C   UNL A   1      36.731  29.568  30.100  1.00  0.00     0.010 A 
ATOM     31  C   UNL A   1      37.873  30.169  28.056  1.00  0.00     0.010 A 
ATOM     32  C   UNL A   1      37.900  29.567  29.323  1.00  0.00    -0.014 A 
BRANCH  32  33
ATOM     33  C   UNL A   1      39.168  28.987  29.839  1.00  0.00     0.031 A 
ATOM     34  C   UNL A   1      39.811  29.564  31.073  1.00  0.00     0.074 A 
ATOM     35  C   UNL A   1      39.767  27.978  29.176  1.00  0.00     0.049 A 
ATOM     36  N   UNL A   1      40.947  29.251  31.643  1.00  0.00    -0.248 NA
ATOM     37  C   UNL A   1      39.093  30.664  31.735  1.00  0.00     0.031 C 
ATOM     38  C   UNL A   1      39.260  27.355  27.951  1.00  0.00     0.029 A 
ATOM     39  N   UNL A   1      40.933  27.303  29.433  1.00  0.00    -0.354 N 
ATOM     40  C   UNL A   1      41.090  30.128  32.715  1.00  0.00     0.074 A 
ATOM     41  C   UNL A   1      39.954  31.024  32.674  1.00  0.00     0.031 C 
ATOM     42  C   UNL A   1      40.096  26.373  27.580  1.00  0.00     0.029 A 
ATOM     43  C   UNL A   1      41.220  26.323  28.510  1.00  0.00     0.049 A 
ATOM     44  H   UNL A   1      41.512  27.501  30.204  1.00  0.00     0.167 HD
ATOM     45  C   UNL A   1      42.066  30.168  33.657  1.00  0.00     0.034 A 
ATOM     46  C   UNL A   1      42.271  25.483  28.421  1.00  0.00     0.034 A 
ATOM     47  C   UNL A   1      43.182  29.253  33.693  1.00  0.00     0.049 A 
ATOM     48  C   UNL A   1      43.348  25.551  29.475  1.00  0.00     0.074 A 
ATOM     49  C   UNL A   1      44.198  29.169  34.630  1.00  0.00     0.029 A 
ATOM     50  N   UNL A   1      43.432  28.265  32.748  1.00  0.00    -0.354 N 
ATOM     51  N   UNL A   1      43.446  26.356  30.508  1.00  0.00    -0.248 NA
ATOM     52  C   UNL A   1      44.449  24.585  29.359  1.00  0.00     0.031 C 
ATOM     53  C   UNL A   1      45.095  28.177  34.216  1.00  0.00     0.029 A 
ATOM     54  C   UNL A   1      44.598  27.585  33.066  1.00  0.00     0.049 A 
ATOM     55  H   UNL A   1      42.864  28.076  31.967  1.00  0.00     0.167 HD
ATOM     56  C   UNL A   1      44.596  25.962  31.188  1.00  0.00     0.074 A 
ATOM     57  C   UNL A   1      45.150  24.844  30.452  1.00  0.00     0.031 C 
ATOM     58  C   UNL A   1      45.140  26.472  32.323  1.00  0.00     0.034 A 
BRANCH  45  59
ATOM     59  C   UNL A   1      41.978  31.258  34.702  1.00  0.00     0.023 A 
ATOM     60  C   UNL A   1      42.519  32.538  34.485  1.00  0.00     0.031 A 
ATOM     61  C   UNL A   1      41.379  31.004  35.948  1.00  0.00     0.131 A 
ATOM     62  C   UNL A   1      42.530  33.482  35.524  1.00  0.00     0.055 A 
ATOM     63  C   UNL A   1      41.312  31.978  36.947  1.00  0.00     0.041 A 
ATOM     64  F   UNL A   1      40.863  29.796  36.225  1.00  0.00    -0.206 F 
ATOM     65  C   UNL A   1      41.906  33.219  36.744  1.00  0.00     0.022 A 
BRANCH  62  66
ATOM     66  S   UNL A   1      43.511  34.991  35.310  1.00  0.00     0.124 S 
ATOM     67  O   UNL A   1      43.555  35.511  36.675  1.00  0.00    -0.237 OA
ATOM     68  O   UNL A   1      44.770  34.479  34.781  1.00  0.00    -0.237 OA
ATOM     69  O   UNL A   1      42.719  35.787  34.375  1.00  0.00    -0.744 OA
ENDBRANCH  62  66
ENDBRANCH  45  59
BRANCH  46  70
ATOM     70  C   UNL A   1      42.365  24.502  27.303  1.00  0.00     0.023 A 
ATOM     71  C   UNL A   1      41.669  23.283  27.353  1.00  0.00     0.031 A 
ATOM     72  C   UNL A   1      43.184  24.747  26.187  1.00  0.00     0.131 A 
ATOM     73  C   UNL A   1      41.845  22.333  26.335  1.00  0.00     0.055 A 
ATOM     74  C   UNL A   1      43.314  23.821  25.150  1.00  0.00     0.041 A 
ATOM     75  F   UNL A   1      43.865  25.899  26.085  1.00  0.00    -0.206 F 
ATOM     76  C   UNL A   1      42.653  22.600  25.228  1.00  0.00     0.022 A 
BRANCH  73  77
ATOM     77  S   UNL A   1      41.069  20.705  26.523  1.00  0.00     0.124 S 
ATOM     78  O   UNL A   1      39.685  20.993  26.164  1.00  0.00    -0.237 OA
ATOM     79  O   UNL A   1      41.825  19.898  25.572  1.00  0.00    -0.237 OA
ATOM     80  O   UNL A   1      41.296  20.381  27.930  1.00  0.00    -0.744 OA
ENDBRANCH  73  77
ENDBRANCH  46  70
BRANCH  58  81
ATOM     81  C   UNL A   1      46.363  25.774  32.872  1.00  0.00     0.023 A 
ATOM     82  C   UNL A   1      47.632  25.916  32.283  1.00  0.00     0.031 A 
ATOM     83  C   UNL A   1      46.247  24.936  33.996  1.00  0.00     0.131 A 
ATOM     84  C   UNL A   1      48.719  25.182  32.780  1.00  0.00     0.055 A 
ATOM     85  C   UNL A   1      47.346  24.260  34.526  1.00  0.00     0.041 A 
ATOM     86  F   UNL A   1      45.060  24.761  34.599  1.00  0.00    -0.206 F 
ATOM     87  C   UNL A   1      48.588  24.369  33.909  1.00  0.00     0.022 A 
BRANCH  84  88
ATOM     88  S   UNL A   1      50.287  25.222  31.869  1.00  0.00     0.124 S 
ATOM     89  O   UNL A   1      50.759  23.849  32.017  1.00  0.00    -0.237 OA
ATOM     90  O   UNL A   1      49.859  25.608  30.528  1.00  0.00    -0.237 OA
ATOM     91  O   UNL A   1      51.073  26.228  32.581  1.00  0.00    -0.744 OA
ENDBRANCH  84  88
ENDBRANCH  58  81
ENDBRANCH  32  33
ENDBRANCH  24  27
ENDBRANCH  22  23
ENDBRANCH   1  22
TORSDOF 16
ENDMDL
MODEL 2
REMARK VINA RESULT:      -9.7      1.314      1.634
REMARK SMILES C[C@@H](C(=O)NCCCNC(=O)c1ccc(-c2c3nc(c(-c4cc(S(=O)(=O)[O-])ccc4F)c4ccc([nH]4)c(-c4cc(S(=O)(=O)[O-])ccc4F)c4nc(c(-c5cc(S(=O)(=O)[O-])ccc5F)c5ccc2[nH]5)C=C4)C=C3)cc1)c1ccc(C(=O)c2cccs2)cc1
REMARK SMILES IDX 7 1 6 2 5 3 3 4 4 5 2 7 1 8 75 9 76 10 87 11 77 12 86 13
REMARK SMILES IDX 78 14 79 15 80 16 81 17 82 18 85 19 83 20 84 21 8 22 9 23
REMARK SMILES IDX 10 24 11 26 12 27 13 28 74 29 14 30 73 31 15 32 16 33 17 34
REMARK SMILES IDX 67 35 18 36 72 37 66 38 68 39 19 40 71 41 65 42 64 43 20 45
REMARK SMILES IDX 52 46 32 47 51 48 33 49 36 50 50 51 69 52 34 53 35 54 49 56
REMARK SMILES IDX 70 57 37 58 21 59 22 60 30 61 23 62 29 63 31 64 28 65 24 66
REMARK SMILES IDX 25 67 26 68 27 69 53 70 54 71 62 72 55 73 61 74 63 75 60 76
REMARK SMILES IDX 56 77 57 78 58 79 59 80 38 81 39 82 47 83 40 84 46 85 48 86
REMARK SMILES IDX 45 87 41 88 42 89 43 90 44 91
REMARK H PARENT 5 6 9 25 68 44 36 55
REMARK Flexibility Score: inf
ROOT
ATOM      1  C   UNL A   1      34.538  34.966  28.692  1.00  0.00     0.042 C 
ENDROOT
BRANCH   1   2
ATOM      2  C   UNL A   1      33.692  34.646  29.922  1.00  0.00     0.117 C 
BRANCH   2   3
ATOM      3  N   UNL A   1      34.190  35.328  31.101  1.00  0.00    -0.356 N 
ATOM      4  C   UNL A   1      35.044  34.906  32.077  1.00  0.00     0.227 C 
ATOM      5  O   UNL A   1      35.211  35.668  33.032  1.00  0.00    -0.274 OA
ATOM      6  H   UNL A   1      33.856  36.248  31.215  1.00  0.00     0.163 HD
BRANCH   4   7
ATOM      7  C   UNL A   1      35.789  33.566  31.934  1.00  0.00     0.105 C 
ATOM      8  C   UNL A   1      35.804  32.784  33.252  1.00  0.00     0.023 C 
BRANCH   7   9
ATOM      9  C   UNL A   1      37.189  33.780  31.353  1.00  0.00    -0.036 A 
ATOM     10  C   UNL A   1      37.543  33.371  30.060  1.00  0.00     0.005 A 
ATOM     11  C   UNL A   1      38.179  34.367  32.157  1.00  0.00     0.005 A 
ATOM     12  C   UNL A   1      38.842  33.559  29.579  1.00  0.00     0.012 A 
ATOM     13  C   UNL A   1      39.482  34.554  31.678  1.00  0.00     0.012 A 
ATOM     14  C   UNL A   1      39.826  34.147  30.383  1.00  0.00     0.023 A 
BRANCH  14  15
ATOM     15  C   UNL A   1      41.189  34.355  29.793  1.00  0.00     0.202 C 
ATOM     16  O   UNL A   1      41.377  35.355  29.102  1.00  0.00    -0.288 OA
BRANCH  15  17
ATOM     17  C   UNL A   1      42.244  33.402  30.079  1.00  0.00     0.075 A 
ATOM     18  C   UNL A   1      42.298  32.043  29.832  1.00  0.00     0.024 A 
ATOM     19  S   UNL A   1      43.687  33.974  30.802  1.00  0.00    -0.140 S 
ATOM     20  C   UNL A   1      43.523  31.465  30.281  1.00  0.00     0.012 A 
ATOM     21  C   UNL A   1      44.363  32.404  30.838  1.00  0.00     0.065 A 
ENDBRANCH  15  17
ENDBRANCH  14  15
ENDBRANCH   7   9
ENDBRANCH   4   7
ENDBRANCH   2   3
ENDBRANCH   1   2
BRANCH   1  22
ATOM     22  C   UNL A   1      35.119  33.738  27.997  1.00  0.00     0.118 C 
BRANCH  22  23
ATOM     23  N   UNL A   1      34.145  32.669  27.854  1.00  0.00    -0.352 N 
ATOM     24  C   UNL A   1      34.315  31.310  27.927  1.00  0.00     0.251 C 
ATOM     25  H   UNL A   1      33.223  32.965  27.678  1.00  0.00     0.163 HD
ATOM     26  O   UNL A   1      33.392  30.577  27.561  1.00  0.00    -0.269 OA
BRANCH  24  27
ATOM     27  C   UNL A   1      35.582  30.722  28.415  1.00  0.00     0.039 A 
ATOM     28  C   UNL A   1      35.624  30.192  29.709  1.00  0.00     0.014 A 
ATOM     29  C   UNL A   1      36.740  30.732  27.633  1.00  0.00     0.014 A 
ATOM     30  C   UNL A   1      36.811  29.639  30.198  1.00  0.00     0.010 A 
ATOM     31  C   UNL A   1      37.900  30.110  28.092  1.00  0.00     0.010 A 
ATOM     32  C   UNL A   1      37.954  29.572  29.387  1.00  0.00    -0.014 A 
BRANCH  32  33
ATOM     33  C   UNL A   1      39.226  28.989  29.892  1.00  0.00     0.031 A 
ATOM     34  C   UNL A   1      39.882  29.566  31.119  1.00  0.00     0.074 A 
ATOM     35  C   UNL A   1      39.815  27.976  29.225  1.00  0.00     0.049 A 
ATOM     36  N   UNL A   1      41.022  29.250  31.678  1.00  0.00    -0.248 NA
ATOM     37  C   UNL A   1      39.173  30.669  31.785  1.00  0.00     0.031 C 
ATOM     38  C   UNL A   1      39.295  27.353  28.006  1.00  0.00     0.029 A 
ATOM     39  N   UNL A   1      40.981  27.298  29.472  1.00  0.00    -0.354 N 
ATOM     40  C   UNL A   1      41.178  30.129  32.748  1.00  0.00     0.074 A 
ATOM     41  C   UNL A   1      40.045  31.028  32.715  1.00  0.00     0.031 C 
ATOM     42  C   UNL A   1      40.124  26.367  27.629  1.00  0.00     0.029 A 
ATOM     43  C   UNL A   1      41.257  26.315  28.549  1.00  0.00     0.049 A 
ATOM     44  H   UNL A   1      41.568  27.495  30.237  1.00  0.00     0.167 HD
ATOM     45  C   UNL A   1      42.162  30.168  33.681  1.00  0.00     0.034 A 
ATOM     46  C   UNL A   1      42.304  25.472  28.452  1.00  0.00     0.034 A 
ATOM     47  C   UNL A   1      43.276  29.249  33.708  1.00  0.00     0.049 A 
ATOM     48  C   UNL A   1      43.392  25.539  29.496  1.00  0.00     0.074 A 
ATOM     49  C   UNL A   1      44.301  29.164  34.635  1.00  0.00     0.029 A 
ATOM     50  N   UNL A   1      43.514  28.259  32.763  1.00  0.00    -0.354 N 
ATOM     51  N   UNL A   1      43.501  26.345  30.526  1.00  0.00    -0.248 NA
ATOM     52  C   UNL A   1      44.487  24.569  29.371  1.00  0.00     0.031 C 
ATOM     53  C   UNL A   1      45.190  28.168  34.215  1.00  0.00     0.029 A 
ATOM     54  C   UNL A   1      44.681  27.575  33.071  1.00  0.00     0.049 A 
ATOM     55  H   UNL A   1      42.938  28.069  31.987  1.00  0.00     0.167 HD
ATOM     56  C   UNL A   1      44.657  25.949  31.196  1.00  0.00     0.074 A 
ATOM     57  C   UNL A   1      45.200  24.828  30.457  1.00  0.00     0.031 C 
ATOM     58  C   UNL A   1      45.213  26.459  32.325  1.00  0.00     0.034 A 
BRANCH  45  59
ATOM     59  C   UNL A   1      42.088  31.259  34.724  1.00  0.00     0.023 A 
ATOM     60  C   UNL A   1      42.739  32.495  34.552  1.00  0.00     0.031 A 
ATOM     61  C   UNL A   1      41.389  31.051  35.926  1.00  0.00     0.131 A 
ATOM     62  C   UNL A   1      42.752  33.433  35.595  1.00  0.00     0.055 A 
ATOM     63  C   UNL A   1      41.329  32.026  36.923  1.00  0.00     0.041 A 
ATOM     64  F   UNL A   1      40.763  29.886  36.159  1.00  0.00    -0.206 F 
ATOM     65  C   UNL A   1      42.029  33.218  36.769  1.00  0.00     0.022 A 
BRANCH  62  66
ATOM     66  S   UNL A   1      43.858  34.864  35.458  1.00  0.00     0.124 S 
ATOM     67  O   UNL A   1      44.270  34.785  34.058  1.00  0.00    -0.237 OA
ATOM     68  O   UNL A   1      42.982  35.976  35.805  1.00  0.00    -0.237 OA
ATOM     69  O   UNL A   1      44.914  34.574  36.426  1.00  0.00    -0.744 OA
ENDBRANCH  62  66
ENDBRANCH  45  59
BRANCH  46  70
ATOM     70  C   UNL A   1      42.384  24.488  27.335  1.00  0.00     0.023 A 
ATOM     71  C   UNL A   1      41.612  23.315  27.350  1.00  0.00     0.031 A 
ATOM     72  C   UNL A   1      43.265  24.683  26.256  1.00  0.00     0.131 A 
ATOM     73  C   UNL A   1      41.772  22.358  26.337  1.00  0.00     0.055 A 
ATOM     74  C   UNL A   1      43.381  23.752  25.222  1.00  0.00     0.041 A 
ATOM     75  F   UNL A   1      44.021  25.790  26.188  1.00  0.00    -0.206 F 
ATOM     76  C   UNL A   1      42.642  22.574  25.266  1.00  0.00     0.022 A 
BRANCH  73  77
ATOM     77  S   UNL A   1      40.887  20.782  26.484  1.00  0.00     0.124 S 
ATOM     78  O   UNL A   1      41.772  19.875  25.764  1.00  0.00    -0.237 OA
ATOM     79  O   UNL A   1      40.825  20.604  27.931  1.00  0.00    -0.237 OA
ATOM     80  O   UNL A   1      39.604  21.051  25.837  1.00  0.00    -0.744 OA
ENDBRANCH  73  77
ENDBRANCH  46  70
BRANCH  58  81
ATOM     81  C   UNL A   1      46.439  25.759  32.863  1.00  0.00     0.023 A 
ATOM     82  C   UNL A   1      46.350  24.691  33.774  1.00  0.00     0.031 A 
ATOM     83  C   UNL A   1      47.720  26.185  32.468  1.00  0.00     0.131 A 
ATOM     84  C   UNL A   1      47.519  24.129  34.308  1.00  0.00     0.055 A 
ATOM     85  C   UNL A   1      48.879  25.578  32.953  1.00  0.00     0.041 A 
ATOM     86  F   UNL A   1      47.866  27.201  31.602  1.00  0.00    -0.206 F 
ATOM     87  C   UNL A   1      48.783  24.553  33.890  1.00  0.00     0.022 A 
BRANCH  84  88
ATOM     88  S   UNL A   1      47.369  22.904  35.637  1.00  0.00     0.124 S 
ATOM     89  O   UNL A   1      45.947  22.576  35.589  1.00  0.00    -0.237 OA
ATOM     90  O   UNL A   1      48.281  21.853  35.198  1.00  0.00    -0.237 OA
ATOM     91  O   UNL A   1      47.796  23.636  36.828  1.00  0.00    -0.744 OA
ENDBRANCH  84  88
ENDBRANCH  58  81
ENDBRANCH  32  33
ENDBRANCH  24  27
ENDBRANCH  22  23
ENDBRANCH   1  22
TORSDOF 16
ENDMDL
MODEL 3
REMARK VINA RESULT:      -9.6      4.369      7.206
REMARK SMILES C[C@@H](C(=O)NCCCNC(=O)c1ccc(-c2c3nc(c(-c4cc(S(=O)(=O)[O-])ccc4F)c4ccc([nH]4)c(-c4cc(S(=O)(=O)[O-])ccc4F)c4nc(c(-c5cc(S(=O)(=O)[O-])ccc5F)c5ccc2[nH]5)C=C4)C=C3)cc1)c1ccc(C(=O)c2cccs2)cc1
REMARK SMILES IDX 7 1 6 2 5 3 3 4 4 5 2 7 1 8 75 9 76 10 87 11 77 12 86 13
REMARK SMILES IDX 78 14 79 15 80 16 81 17 82 18 85 19 83 20 84 21 8 22 9 23
REMARK SMILES IDX 10 24 11 26 12 27 13 28 74 29 14 30 73 31 15 32 16 33 17 34
REMARK SMILES IDX 67 35 18 36 72 37 66 38 68 39 19 40 71 41 65 42 64 43 20 45
REMARK SMILES IDX 52 46 32 47 51 48 33 49 36 50 50 51 69 52 34 53 35 54 49 56
REMARK SMILES IDX 70 57 37 58 21 59 22 60 30 61 23 62 29 63 31 64 28 65 24 66
REMARK SMILES IDX 25 67 26 68 27 69 53 70 54 71 62 72 55 73 61 74 63 75 60 76
REMARK SMILES IDX 56 77 57 78 58 79 59 80 38 81 39 82 47 83 40 84 46 85 48 86
REMARK SMILES IDX 45 87 41 88 42 89 43 90 44 91
REMARK H PARENT 5 6 9 25 68 44 36 55
REMARK Flexibility Score: inf
ROOT
ATOM      1  C   UNL A   1      33.283  27.792  26.880  1.00  0.00     0.042 C 
ENDROOT
BRANCH   1   2
ATOM      2  C   UNL A   1      31.983  27.143  26.410  1.00  0.00     0.117 C 
BRANCH   2   3
ATOM      3  N   UNL A   1      32.097  25.698  26.363  1.00  0.00    -0.356 N 
ATOM      4  C   UNL A   1      32.060  24.838  25.305  1.00  0.00     0.227 C 
ATOM      5  O   UNL A   1      32.075  23.635  25.570  1.00  0.00    -0.274 OA
ATOM      6  H   UNL A   1      32.223  25.267  27.239  1.00  0.00     0.163 HD
BRANCH   4   7
ATOM      7  C   UNL A   1      32.057  25.378  23.863  1.00  0.00     0.105 C 
ATOM      8  C   UNL A   1      33.418  25.965  23.474  1.00  0.00     0.023 C 
BRANCH   7   9
ATOM      9  C   UNL A   1      30.902  26.362  23.652  1.00  0.00    -0.036 A 
ATOM     10  C   UNL A   1      29.583  26.072  24.025  1.00  0.00     0.005 A 
ATOM     11  C   UNL A   1      31.159  27.589  23.019  1.00  0.00     0.005 A 
ATOM     12  C   UNL A   1      28.554  26.988  23.787  1.00  0.00     0.012 A 
ATOM     13  C   UNL A   1      30.129  28.506  22.778  1.00  0.00     0.012 A 
ATOM     14  C   UNL A   1      28.814  28.211  23.158  1.00  0.00     0.023 A 
BRANCH  14  15
ATOM     15  C   UNL A   1      27.672  29.165  22.968  1.00  0.00     0.202 C 
ATOM     16  O   UNL A   1      26.528  28.741  23.126  1.00  0.00    -0.288 OA
BRANCH  15  17
ATOM     17  C   UNL A   1      27.945  30.552  22.642  1.00  0.00     0.075 A 
ATOM     18  C   UNL A   1      28.189  31.624  23.478  1.00  0.00     0.024 A 
ATOM     19  S   UNL A   1      28.028  31.002  20.992  1.00  0.00    -0.140 S 
ATOM     20  C   UNL A   1      28.404  32.833  22.752  1.00  0.00     0.012 A 
ATOM     21  C   UNL A   1      28.333  32.636  21.390  1.00  0.00     0.065 A 
ENDBRANCH  15  17
ENDBRANCH  14  15
ENDBRANCH   7   9
ENDBRANCH   4   7
ENDBRANCH   2   3
ENDBRANCH   1   2
BRANCH   1  22
ATOM     22  C   UNL A   1      33.815  28.872  25.944  1.00  0.00     0.118 C 
BRANCH  22  23
ATOM     23  N   UNL A   1      33.638  30.210  26.483  1.00  0.00    -0.352 N 
ATOM     24  C   UNL A   1      34.348  30.867  27.455  1.00  0.00     0.251 C 
ATOM     25  H   UNL A   1      32.896  30.723  26.090  1.00  0.00     0.163 HD
ATOM     26  O   UNL A   1      33.894  31.919  27.912  1.00  0.00    -0.269 OA
BRANCH  24  27
ATOM     27  C   UNL A   1      35.626  30.325  27.968  1.00  0.00     0.039 A 
ATOM     28  C   UNL A   1      35.640  29.705  29.222  1.00  0.00     0.014 A 
ATOM     29  C   UNL A   1      36.819  30.464  27.252  1.00  0.00     0.014 A 
ATOM     30  C   UNL A   1      36.835  29.192  29.734  1.00  0.00     0.010 A 
ATOM     31  C   UNL A   1      37.993  29.883  27.728  1.00  0.00     0.010 A 
ATOM     32  C   UNL A   1      38.018  29.256  28.983  1.00  0.00    -0.014 A 
BRANCH  32  33
ATOM     33  C   UNL A   1      39.299  28.718  29.514  1.00  0.00     0.031 A 
ATOM     34  C   UNL A   1      39.977  29.398  30.675  1.00  0.00     0.074 A 
ATOM     35  C   UNL A   1      39.878  27.652  28.925  1.00  0.00     0.049 A 
ATOM     36  N   UNL A   1      41.127  29.130  31.239  1.00  0.00    -0.248 NA
ATOM     37  C   UNL A   1      39.278  30.555  31.257  1.00  0.00     0.031 C 
ATOM     38  C   UNL A   1      39.337  26.927  27.773  1.00  0.00     0.029 A 
ATOM     39  N   UNL A   1      41.049  26.997  29.209  1.00  0.00    -0.354 N 
ATOM     40  C   UNL A   1      41.301  30.097  32.226  1.00  0.00     0.074 A 
ATOM     41  C   UNL A   1      40.166  30.991  32.137  1.00  0.00     0.031 C 
ATOM     42  C   UNL A   1      40.161  25.912  27.468  1.00  0.00     0.029 A 
ATOM     43  C   UNL A   1      41.309  25.938  28.369  1.00  0.00     0.049 A 
ATOM     44  H   UNL A   1      41.649  27.258  29.944  1.00  0.00     0.167 HD
ATOM     45  C   UNL A   1      42.301  30.215  33.135  1.00  0.00     0.034 A 
ATOM     46  C   UNL A   1      42.356  25.089  28.325  1.00  0.00     0.034 A 
ATOM     47  C   UNL A   1      43.416  29.302  33.221  1.00  0.00     0.049 A 
ATOM     48  C   UNL A   1      43.461  25.245  29.340  1.00  0.00     0.074 A 
ATOM     49  C   UNL A   1      44.457  29.296  34.133  1.00  0.00     0.029 A 
ATOM     50  N   UNL A   1      43.638  28.234  32.360  1.00  0.00    -0.354 N 
ATOM     51  N   UNL A   1      43.588  26.136  30.296  1.00  0.00    -0.248 NA
ATOM     52  C   UNL A   1      44.556  24.267  29.279  1.00  0.00     0.031 C 
ATOM     53  C   UNL A   1      45.340  28.267  33.785  1.00  0.00     0.029 A 
ATOM     54  C   UNL A   1      44.811  27.579  32.704  1.00  0.00     0.049 A 
ATOM     55  H   UNL A   1      43.049  27.980  31.613  1.00  0.00     0.167 HD
ATOM     56  C   UNL A   1      44.756  25.798  30.976  1.00  0.00     0.074 A 
ATOM     57  C   UNL A   1      45.287  24.618  30.326  1.00  0.00     0.031 C 
ATOM     58  C   UNL A   1      45.331  26.403  32.048  1.00  0.00     0.034 A 
BRANCH  45  59
ATOM     59  C   UNL A   1      42.244  31.392  34.082  1.00  0.00     0.023 A 
ATOM     60  C   UNL A   1      41.435  31.379  35.233  1.00  0.00     0.031 A 
ATOM     61  C   UNL A   1      42.980  32.560  33.813  1.00  0.00     0.131 A 
ATOM     62  C   UNL A   1      41.312  32.535  36.019  1.00  0.00     0.055 A 
ATOM     63  C   UNL A   1      42.923  33.676  34.650  1.00  0.00     0.041 A 
ATOM     64  F   UNL A   1      43.755  32.643  32.721  1.00  0.00    -0.206 F 
ATOM     65  C   UNL A   1      42.071  33.675  35.750  1.00  0.00     0.022 A 
BRANCH  62  66
ATOM     66  S   UNL A   1      40.026  32.580  37.296  1.00  0.00     0.124 S 
ATOM     67  O   UNL A   1      39.513  33.940  37.152  1.00  0.00    -0.237 OA
ATOM     68  O   UNL A   1      39.127  31.510  36.878  1.00  0.00    -0.237 OA
ATOM     69  O   UNL A   1      40.762  32.328  38.533  1.00  0.00    -0.744 OA
ENDBRANCH  62  66
ENDBRANCH  45  59
BRANCH  46  70
ATOM     70  C   UNL A   1      42.417  24.013  27.295  1.00  0.00     0.023 A 
ATOM     71  C   UNL A   1      41.823  22.762  27.524  1.00  0.00     0.031 A 
ATOM     72  C   UNL A   1      43.106  24.205  26.085  1.00  0.00     0.131 A 
ATOM     73  C   UNL A   1      41.974  21.732  26.582  1.00  0.00     0.055 A 
ATOM     74  C   UNL A   1      43.207  23.194  25.126  1.00  0.00     0.041 A 
ATOM     75  F   UNL A   1      43.685  25.384  25.812  1.00  0.00    -0.206 F 
ATOM     76  C   UNL A   1      42.651  21.944  25.379  1.00  0.00     0.022 A 
BRANCH  73  77
ATOM     77  S   UNL A   1      41.344  20.082  26.992  1.00  0.00     0.124 S 
ATOM     78  O   UNL A   1      42.558  19.277  26.933  1.00  0.00    -0.237 OA
ATOM     79  O   UNL A   1      40.778  20.295  28.319  1.00  0.00    -0.237 OA
ATOM     80  O   UNL A   1      40.368  19.819  25.936  1.00  0.00    -0.744 OA
ENDBRANCH  73  77
ENDBRANCH  46  70
BRANCH  58  81
ATOM     81  C   UNL A   1      46.567  25.751  32.622  1.00  0.00     0.023 A 
ATOM     82  C   UNL A   1      46.496  24.777  33.634  1.00  0.00     0.031 A 
ATOM     83  C   UNL A   1      47.840  26.129  32.158  1.00  0.00     0.131 A 
ATOM     84  C   UNL A   1      47.676  24.262  34.192  1.00  0.00     0.055 A 
ATOM     85  C   UNL A   1      49.008  25.565  32.671  1.00  0.00     0.041 A 
ATOM     86  F   UNL A   1      47.969  27.056  31.194  1.00  0.00    -0.206 F 
ATOM     87  C   UNL A   1      48.931  24.636  33.705  1.00  0.00     0.022 A 
BRANCH  84  88
ATOM     88  S   UNL A   1      47.553  23.172  35.637  1.00  0.00     0.124 S 
ATOM     89  O   UNL A   1      48.588  23.713  36.514  1.00  0.00    -0.237 OA
ATOM     90  O   UNL A   1      46.176  23.384  36.071  1.00  0.00    -0.237 OA
ATOM     91  O   UNL A   1      47.834  21.846  35.091  1.00  0.00    -0.744 OA
ENDBRANCH  84  88
ENDBRANCH  58  81
ENDBRANCH  32  33
ENDBRANCH  24  27
ENDBRANCH  22  23
ENDBRANCH   1  22
TORSDOF 16
ENDMDL
