MODEL 1
REMARK VINA RESULT:     -13.2      0.000      0.000
REMARK SMILES Cc1nc(C(=O)NCCCNC(=O)c2ccc(-c3c4nc(c(-c5cc(S(=O)(=O)[O-])ccc5F)c5ccc([nH]5)c(-c5cc(S(=O)(=O)[O-])ccc5F)c5nc(c(-c6cc(S(=O)(=O)[O-])ccc6F)c6ccc3[nH]6)C=C5)C=C4)cc2)nn1-c1cccc(C(F)(F)F)c1
REMARK SMILES IDX 9 1 8 2 7 3 5 4 6 5 4 7 1 8 2 9 3 10 78 11 77 12 79 13 80 14
REMARK SMILES IDX 88 15 81 16 83 17 82 18 84 19 85 20 86 21 87 22 10 23 11 24
REMARK SMILES IDX 12 25 13 27 14 28 15 29 76 30 16 31 75 32 17 33 18 34 19 35
REMARK SMILES IDX 69 36 20 37 74 38 68 39 70 40 21 41 73 42 67 43 66 44 22 46
REMARK SMILES IDX 54 47 34 48 53 49 35 50 38 51 52 52 71 53 36 54 37 55 51 57
REMARK SMILES IDX 72 58 39 59 23 60 24 61 32 62 25 63 31 64 33 65 30 66 26 67
REMARK SMILES IDX 27 68 28 69 29 70 55 71 56 72 64 73 57 74 63 75 65 76 62 77
REMARK SMILES IDX 58 78 59 79 60 80 61 81 40 82 41 83 49 84 42 85 48 86 50 87
REMARK SMILES IDX 47 88 43 89 44 90 45 91 46 92
REMARK H PARENT 7 6 11 26 70 45 38 56
REMARK Flexibility Score: inf
ROOT
ATOM      1  C   UNL A   1      33.492  29.152  27.279  1.00  0.00     0.042 C 
ENDROOT
BRANCH   1   2
ATOM      2  C   UNL A   1      32.823  30.070  26.252  1.00  0.00     0.118 C 
BRANCH   2   3
ATOM      3  N   UNL A   1      33.306  29.846  24.894  1.00  0.00    -0.349 N 
ATOM      4  C   UNL A   1      32.949  28.914  23.935  1.00  0.00     0.290 C 
ATOM      5  O   UNL A   1      33.573  28.940  22.871  1.00  0.00    -0.266 OA
ATOM      6  H   UNL A   1      34.012  30.470  24.608  1.00  0.00     0.163 HD
BRANCH   4   7
ATOM      7  C   UNL A   1      31.889  27.914  24.196  1.00  0.00     0.239 A 
ATOM      8  C   UNL A   1      28.597  26.543  23.880  1.00  0.00     0.090 C 
ATOM      9  C   UNL A   1      30.031  26.878  24.031  1.00  0.00     0.130 A 
ATOM     10  N   UNL A   1      30.612  28.004  23.668  1.00  0.00    -0.207 NA
ATOM     11  N   UNL A   1      30.957  26.094  24.684  1.00  0.00    -0.217 N 
ATOM     12  N   UNL A   1      32.039  26.835  24.981  1.00  0.00    -0.140 NA
BRANCH  11  13
ATOM     13  C   UNL A   1      30.985  24.704  24.944  1.00  0.00     0.067 A 
ATOM     14  C   UNL A   1      30.503  24.240  26.176  1.00  0.00     0.028 A 
ATOM     15  C   UNL A   1      31.617  23.825  24.058  1.00  0.00     0.041 A 
ATOM     16  C   UNL A   1      30.618  22.891  26.507  1.00  0.00     0.003 A 
ATOM     17  C   UNL A   1      31.790  22.477  24.415  1.00  0.00     0.058 A 
ATOM     18  C   UNL A   1      31.262  22.017  25.635  1.00  0.00     0.013 A 
BRANCH  17  19
ATOM     19  C   UNL A   1      32.577  21.531  23.540  1.00  0.00     0.416 C 
ATOM     20  F   UNL A   1      32.503  21.857  22.221  1.00  0.00    -0.166 F 
ATOM     21  F   UNL A   1      33.902  21.519  23.851  1.00  0.00    -0.166 F 
ATOM     22  F   UNL A   1      32.160  20.237  23.629  1.00  0.00    -0.166 F 
ENDBRANCH  17  19
ENDBRANCH  11  13
ENDBRANCH   4   7
ENDBRANCH   2   3
ENDBRANCH   1   2
BRANCH   1  23
ATOM     23  C   UNL A   1      34.980  29.456  27.422  1.00  0.00     0.118 C 
BRANCH  23  24
ATOM     24  N   UNL A   1      35.266  30.245  28.618  1.00  0.00    -0.352 N 
ATOM     25  C   UNL A   1      36.330  30.142  29.491  1.00  0.00     0.251 C 
ATOM     26  H   UNL A   1      34.611  30.949  28.829  1.00  0.00     0.163 HD
ATOM     27  O   UNL A   1      36.261  30.669  30.591  1.00  0.00    -0.269 OA
BRANCH  25  28
ATOM     28  C   UNL A   1      37.523  29.362  29.099  1.00  0.00     0.039 A 
ATOM     29  C   UNL A   1      38.180  29.662  27.904  1.00  0.00     0.014 A 
ATOM     30  C   UNL A   1      37.996  28.342  29.925  1.00  0.00     0.014 A 
ATOM     31  C   UNL A   1      39.372  29.003  27.602  1.00  0.00     0.010 A 
ATOM     32  C   UNL A   1      39.221  27.754  29.671  1.00  0.00     0.010 A 
ATOM     33  C   UNL A   1      39.916  28.077  28.508  1.00  0.00    -0.014 A 
BRANCH  33  34
ATOM     34  C   UNL A   1      41.304  27.625  28.334  1.00  0.00     0.031 A 
ATOM     35  C   UNL A   1      41.426  26.330  27.610  1.00  0.00     0.074 A 
ATOM     36  C   UNL A   1      42.408  28.365  28.579  1.00  0.00     0.049 A 
ATOM     37  N   UNL A   1      41.840  25.199  28.078  1.00  0.00    -0.248 NA
ATOM     38  C   UNL A   1      40.877  26.239  26.246  1.00  0.00     0.031 C 
ATOM     39  C   UNL A   1      42.467  29.759  29.021  1.00  0.00     0.029 A 
ATOM     40  N   UNL A   1      43.725  28.055  28.377  1.00  0.00    -0.354 N 
ATOM     41  C   UNL A   1      41.849  24.319  27.000  1.00  0.00     0.074 A 
ATOM     42  C   UNL A   1      41.055  24.945  25.978  1.00  0.00     0.031 C 
ATOM     43  C   UNL A   1      43.718  30.240  28.843  1.00  0.00     0.029 A 
ATOM     44  C   UNL A   1      44.586  29.151  28.424  1.00  0.00     0.049 A 
ATOM     45  H   UNL A   1      44.039  27.136  28.212  1.00  0.00     0.167 HD
ATOM     46  C   UNL A   1      42.724  23.276  26.956  1.00  0.00     0.034 A 
ATOM     47  C   UNL A   1      45.915  29.186  28.137  1.00  0.00     0.034 A 
ATOM     48  C   UNL A   1      43.269  23.009  28.272  1.00  0.00     0.049 A 
ATOM     49  C   UNL A   1      46.428  27.808  28.304  1.00  0.00     0.074 A 
ATOM     50  C   UNL A   1      42.728  22.708  29.507  1.00  0.00     0.029 A 
ATOM     51  N   UNL A   1      44.561  23.412  28.526  1.00  0.00    -0.354 N 
ATOM     52  N   UNL A   1      46.474  27.196  29.453  1.00  0.00    -0.248 NA
ATOM     53  C   UNL A   1      46.500  26.940  27.139  1.00  0.00     0.031 C 
ATOM     54  C   UNL A   1      43.541  23.407  30.449  1.00  0.00     0.029 A 
ATOM     55  C   UNL A   1      44.581  24.025  29.753  1.00  0.00     0.049 A 
ATOM     56  H   UNL A   1      45.336  23.283  27.931  1.00  0.00     0.167 HD
ATOM     57  C   UNL A   1      46.121  25.888  29.172  1.00  0.00     0.074 A 
ATOM     58  C   UNL A   1      46.286  25.760  27.726  1.00  0.00     0.031 C 
ATOM     59  C   UNL A   1      45.459  25.129  30.095  1.00  0.00     0.034 A 
BRANCH  46  60
ATOM     60  C   UNL A   1      43.405  22.771  25.693  1.00  0.00     0.023 A 
ATOM     61  C   UNL A   1      43.579  21.376  25.579  1.00  0.00     0.031 A 
ATOM     62  C   UNL A   1      44.150  23.550  24.779  1.00  0.00     0.131 A 
ATOM     63  C   UNL A   1      44.551  20.833  24.722  1.00  0.00     0.055 A 
ATOM     64  C   UNL A   1      45.064  22.997  23.875  1.00  0.00     0.041 A 
ATOM     65  F   UNL A   1      44.110  24.885  24.755  1.00  0.00    -0.206 F 
ATOM     66  C   UNL A   1      45.301  21.635  23.871  1.00  0.00     0.022 A 
BRANCH  63  67
ATOM     67  S   UNL A   1      44.955  19.077  24.898  1.00  0.00     0.124 S 
ATOM     68  O   UNL A   1      43.863  18.616  25.747  1.00  0.00    -0.237 OA
ATOM     69  O   UNL A   1      44.932  18.624  23.512  1.00  0.00    -0.237 OA
ATOM     70  O   UNL A   1      46.274  19.096  25.526  1.00  0.00    -0.744 OA
ENDBRANCH  63  67
ENDBRANCH  46  60
BRANCH  47  71
ATOM     71  C   UNL A   1      46.715  30.285  27.529  1.00  0.00     0.023 A 
ATOM     72  C   UNL A   1      46.124  31.412  26.912  1.00  0.00     0.031 A 
ATOM     73  C   UNL A   1      48.101  30.360  27.784  1.00  0.00     0.131 A 
ATOM     74  C   UNL A   1      46.909  32.545  26.590  1.00  0.00     0.055 A 
ATOM     75  C   UNL A   1      48.872  31.479  27.460  1.00  0.00     0.041 A 
ATOM     76  F   UNL A   1      48.740  29.380  28.442  1.00  0.00    -0.206 F 
ATOM     77  C   UNL A   1      48.276  32.583  26.872  1.00  0.00     0.022 A 
BRANCH  74  78
ATOM     78  S   UNL A   1      46.137  34.043  25.895  1.00  0.00     0.124 S 
ATOM     79  O   UNL A   1      44.964  33.504  25.216  1.00  0.00    -0.237 OA
ATOM     80  O   UNL A   1      45.887  34.850  27.083  1.00  0.00    -0.237 OA
ATOM     81  O   UNL A   1      47.169  34.577  25.004  1.00  0.00    -0.744 OA
ENDBRANCH  74  78
ENDBRANCH  47  71
BRANCH  59  82
ATOM     82  C   UNL A   1      45.473  25.583  31.542  1.00  0.00     0.023 A 
ATOM     83  C   UNL A   1      46.490  25.293  32.480  1.00  0.00     0.031 A 
ATOM     84  C   UNL A   1      44.430  26.431  31.954  1.00  0.00     0.131 A 
ATOM     85  C   UNL A   1      46.425  25.834  33.780  1.00  0.00     0.055 A 
ATOM     86  C   UNL A   1      44.381  26.984  33.233  1.00  0.00     0.041 A 
ATOM     87  F   UNL A   1      43.445  26.764  31.104  1.00  0.00    -0.206 F 
ATOM     88  C   UNL A   1      45.376  26.681  34.154  1.00  0.00     0.022 A 
BRANCH  85  89
ATOM     89  S   UNL A   1      47.693  25.428  35.025  1.00  0.00     0.124 S 
ATOM     90  O   UNL A   1      46.951  25.419  36.281  1.00  0.00    -0.237 OA
ATOM     91  O   UNL A   1      48.186  24.133  34.564  1.00  0.00    -0.237 OA
ATOM     92  O   UNL A   1      48.657  26.523  34.897  1.00  0.00    -0.744 OA
ENDBRANCH  85  89
ENDBRANCH  59  82
ENDBRANCH  33  34
ENDBRANCH  25  28
ENDBRANCH  23  24
ENDBRANCH   1  23
TORSDOF 15
ENDMDL
MODEL 2
REMARK VINA RESULT:     -13.2      5.483     10.431
REMARK SMILES Cc1nc(C(=O)NCCCNC(=O)c2ccc(-c3c4nc(c(-c5cc(S(=O)(=O)[O-])ccc5F)c5ccc([nH]5)c(-c5cc(S(=O)(=O)[O-])ccc5F)c5nc(c(-c6cc(S(=O)(=O)[O-])ccc6F)c6ccc3[nH]6)C=C5)C=C4)cc2)nn1-c1cccc(C(F)(F)F)c1
REMARK SMILES IDX 9 1 8 2 7 3 5 4 6 5 4 7 1 8 2 9 3 10 78 11 77 12 79 13 80 14
REMARK SMILES IDX 88 15 81 16 83 17 82 18 84 19 85 20 86 21 87 22 10 23 11 24
REMARK SMILES IDX 12 25 13 27 14 28 15 29 76 30 16 31 75 32 17 33 18 34 19 35
REMARK SMILES IDX 69 36 20 37 74 38 68 39 70 40 21 41 73 42 67 43 66 44 22 46
REMARK SMILES IDX 54 47 34 48 53 49 35 50 38 51 52 52 71 53 36 54 37 55 51 57
REMARK SMILES IDX 72 58 39 59 23 60 24 61 32 62 25 63 31 64 33 65 30 66 26 67
REMARK SMILES IDX 27 68 28 69 29 70 55 71 56 72 64 73 57 74 63 75 65 76 62 77
REMARK SMILES IDX 58 78 59 79 60 80 61 81 40 82 41 83 49 84 42 85 48 86 50 87
REMARK SMILES IDX 47 88 43 89 44 90 45 91 46 92
REMARK H PARENT 7 6 11 26 70 45 38 56
REMARK Flexibility Score: inf
ROOT
ATOM      1  C   UNL A   1      42.463  19.285  27.426  1.00  0.00     0.042 C 
ENDROOT
BRANCH   1   2
ATOM      2  C   UNL A   1      42.470  18.767  25.984  1.00  0.00     0.118 C 
BRANCH   2   3
ATOM      3  N   UNL A   1      43.806  18.421  25.514  1.00  0.00    -0.349 N 
ATOM      4  C   UNL A   1      44.891  19.209  25.172  1.00  0.00     0.290 C 
ATOM      5  O   UNL A   1      45.897  18.627  24.760  1.00  0.00    -0.266 OA
ATOM      6  H   UNL A   1      43.965  17.454  25.424  1.00  0.00     0.163 HD
BRANCH   4   7
ATOM      7  C   UNL A   1      44.827  20.685  25.270  1.00  0.00     0.239 A 
ATOM      8  C   UNL A   1      43.378  23.901  24.654  1.00  0.00     0.090 C 
ATOM      9  C   UNL A   1      44.056  22.669  25.117  1.00  0.00     0.130 A 
ATOM     10  N   UNL A   1      43.816  21.442  24.701  1.00  0.00    -0.207 NA
ATOM     11  N   UNL A   1      45.129  22.640  25.982  1.00  0.00    -0.217 N 
ATOM     12  N   UNL A   1      45.740  21.446  25.894  1.00  0.00    -0.140 NA
BRANCH  11  13
ATOM     13  C   UNL A   1      45.560  23.561  26.964  1.00  0.00     0.067 A 
ATOM     14  C   UNL A   1      46.770  24.241  26.766  1.00  0.00     0.028 A 
ATOM     15  C   UNL A   1      44.875  23.682  28.179  1.00  0.00     0.041 A 
ATOM     16  C   UNL A   1      47.277  25.071  27.763  1.00  0.00     0.003 A 
ATOM     17  C   UNL A   1      45.415  24.469  29.210  1.00  0.00     0.058 A 
ATOM     18  C   UNL A   1      46.606  25.179  28.980  1.00  0.00     0.013 A 
BRANCH  17  19
ATOM     19  C   UNL A   1      44.769  24.521  30.574  1.00  0.00     0.416 C 
ATOM     20  F   UNL A   1      45.669  24.748  31.569  1.00  0.00    -0.166 F 
ATOM     21  F   UNL A   1      43.843  25.515  30.671  1.00  0.00    -0.166 F 
ATOM     22  F   UNL A   1      44.120  23.372  30.911  1.00  0.00    -0.166 F 
ENDBRANCH  17  19
ENDBRANCH  11  13
ENDBRANCH   4   7
ENDBRANCH   2   3
ENDBRANCH   1   2
BRANCH   1  23
ATOM     23  C   UNL A   1      41.898  20.698  27.515  1.00  0.00     0.118 C 
BRANCH  23  24
ATOM     24  N   UNL A   1      40.879  20.947  26.497  1.00  0.00    -0.352 N 
ATOM     25  C   UNL A   1      39.970  21.982  26.417  1.00  0.00     0.251 C 
ATOM     26  H   UNL A   1      40.836  20.286  25.769  1.00  0.00     0.163 HD
ATOM     27  O   UNL A   1      39.003  21.879  25.677  1.00  0.00    -0.269 OA
BRANCH  25  28
ATOM     28  C   UNL A   1      40.158  23.187  27.254  1.00  0.00     0.039 A 
ATOM     29  C   UNL A   1      41.378  23.393  27.900  1.00  0.00     0.014 A 
ATOM     30  C   UNL A   1      39.126  24.116  27.384  1.00  0.00     0.014 A 
ATOM     31  C   UNL A   1      41.587  24.588  28.588  1.00  0.00     0.010 A 
ATOM     32  C   UNL A   1      39.364  25.337  27.988  1.00  0.00     0.010 A 
ATOM     33  C   UNL A   1      40.593  25.581  28.596  1.00  0.00    -0.014 A 
BRANCH  33  34
ATOM     34  C   UNL A   1      40.930  26.938  29.049  1.00  0.00     0.031 A 
ATOM     35  C   UNL A   1      42.109  27.525  28.353  1.00  0.00     0.074 A 
ATOM     36  C   UNL A   1      40.162  27.716  29.843  1.00  0.00     0.049 A 
ATOM     37  N   UNL A   1      43.264  27.809  28.858  1.00  0.00    -0.248 NA
ATOM     38  C   UNL A   1      42.053  27.671  26.889  1.00  0.00     0.031 C 
ATOM     39  C   UNL A   1      38.837  27.405  30.383  1.00  0.00     0.029 A 
ATOM     40  N   UNL A   1      40.360  29.007  30.251  1.00  0.00    -0.354 N 
ATOM     41  C   UNL A   1      43.992  28.409  27.835  1.00  0.00     0.074 A 
ATOM     42  C   UNL A   1      43.286  28.100  26.621  1.00  0.00     0.031 C 
ATOM     43  C   UNL A   1      38.261  28.536  30.850  1.00  0.00     0.029 A 
ATOM     44  C   UNL A   1      39.228  29.619  30.789  1.00  0.00     0.049 A 
ATOM     45  H   UNL A   1      41.228  29.466  30.170  1.00  0.00     0.167 HD
ATOM     46  C   UNL A   1      44.964  29.323  28.112  1.00  0.00     0.034 A 
ATOM     47  C   UNL A   1      39.074  30.919  31.157  1.00  0.00     0.034 A 
ATOM     48  C   UNL A   1      45.367  29.237  29.501  1.00  0.00     0.049 A 
ATOM     49  C   UNL A   1      40.428  31.456  31.421  1.00  0.00     0.074 A 
ATOM     50  C   UNL A   1      45.862  28.232  30.311  1.00  0.00     0.029 A 
ATOM     51  N   UNL A   1      44.921  30.216  30.361  1.00  0.00    -0.354 N 
ATOM     52  N   UNL A   1      41.182  31.045  32.401  1.00  0.00    -0.248 NA
ATOM     53  C   UNL A   1      41.128  32.150  30.352  1.00  0.00     0.031 C 
ATOM     54  C   UNL A   1      45.244  28.441  31.580  1.00  0.00     0.029 A 
ATOM     55  C   UNL A   1      44.475  29.604  31.505  1.00  0.00     0.049 A 
ATOM     56  H   UNL A   1      44.923  31.185  30.186  1.00  0.00     0.167 HD
ATOM     57  C   UNL A   1      42.460  31.013  31.874  1.00  0.00     0.074 A 
ATOM     58  C   UNL A   1      42.386  31.830  30.665  1.00  0.00     0.031 C 
ATOM     59  C   UNL A   1      43.374  30.096  32.312  1.00  0.00     0.034 A 
BRANCH  46  60
ATOM     60  C   UNL A   1      45.254  30.557  27.272  1.00  0.00     0.023 A 
ATOM     61  C   UNL A   1      46.611  30.867  27.046  1.00  0.00     0.031 A 
ATOM     62  C   UNL A   1      44.338  31.586  26.956  1.00  0.00     0.131 A 
ATOM     63  C   UNL A   1      47.010  32.167  26.690  1.00  0.00     0.055 A 
ATOM     64  C   UNL A   1      44.738  32.858  26.531  1.00  0.00     0.041 A 
ATOM     65  F   UNL A   1      43.018  31.464  27.118  1.00  0.00    -0.206 F 
ATOM     66  C   UNL A   1      46.082  33.169  26.436  1.00  0.00     0.022 A 
BRANCH  63  67
ATOM     67  S   UNL A   1      48.774  32.568  26.772  1.00  0.00     0.124 S 
ATOM     68  O   UNL A   1      49.373  31.242  26.686  1.00  0.00    -0.237 OA
ATOM     69  O   UNL A   1      48.939  33.429  25.607  1.00  0.00    -0.237 OA
ATOM     70  O   UNL A   1      48.908  33.235  28.064  1.00  0.00    -0.744 OA
ENDBRANCH  63  67
ENDBRANCH  46  60
BRANCH  47  71
ATOM     71  C   UNL A   1      37.857  31.774  31.090  1.00  0.00     0.023 A 
ATOM     72  C   UNL A   1      37.160  32.207  32.241  1.00  0.00     0.031 A 
ATOM     73  C   UNL A   1      37.512  32.398  29.872  1.00  0.00     0.131 A 
ATOM     74  C   UNL A   1      36.180  33.224  32.144  1.00  0.00     0.055 A 
ATOM     75  C   UNL A   1      36.541  33.398  29.781  1.00  0.00     0.041 A 
ATOM     76  F   UNL A   1      38.174  32.121  28.737  1.00  0.00    -0.206 F 
ATOM     77  C   UNL A   1      35.878  33.824  30.920  1.00  0.00     0.022 A 
BRANCH  74  78
ATOM     78  S   UNL A   1      35.353  33.863  33.638  1.00  0.00     0.124 S 
ATOM     79  O   UNL A   1      33.948  33.590  33.358  1.00  0.00    -0.237 OA
ATOM     80  O   UNL A   1      35.969  33.078  34.700  1.00  0.00    -0.237 OA
ATOM     81  O   UNL A   1      35.711  35.282  33.645  1.00  0.00    -0.744 OA
ENDBRANCH  74  78
ENDBRANCH  47  71
BRANCH  59  82
ATOM     82  C   UNL A   1      43.115  29.398  33.633  1.00  0.00     0.023 A 
ATOM     83  C   UNL A   1      42.863  28.016  33.794  1.00  0.00     0.031 A 
ATOM     84  C   UNL A   1      43.219  30.180  34.797  1.00  0.00     0.131 A 
ATOM     85  C   UNL A   1      42.709  27.473  35.086  1.00  0.00     0.055 A 
ATOM     86  C   UNL A   1      43.091  29.636  36.074  1.00  0.00     0.041 A 
ATOM     87  F   UNL A   1      43.480  31.496  34.715  1.00  0.00    -0.206 F 
ATOM     88  C   UNL A   1      42.827  28.280  36.222  1.00  0.00     0.022 A 
BRANCH  85  89
ATOM     89  S   UNL A   1      42.327  25.706  35.316  1.00  0.00     0.124 S 
ATOM     90  O   UNL A   1      40.873  25.654  35.222  1.00  0.00    -0.237 OA
ATOM     91  O   UNL A   1      43.061  25.078  34.220  1.00  0.00    -0.237 OA
ATOM     92  O   UNL A   1      42.861  25.414  36.647  1.00  0.00    -0.744 OA
ENDBRANCH  85  89
ENDBRANCH  59  82
ENDBRANCH  33  34
ENDBRANCH  25  28
ENDBRANCH  23  24
ENDBRANCH   1  23
TORSDOF 15
ENDMDL
MODEL 3
REMARK VINA RESULT:     -13.1      4.635     10.077
REMARK SMILES Cc1nc(C(=O)NCCCNC(=O)c2ccc(-c3c4nc(c(-c5cc(S(=O)(=O)[O-])ccc5F)c5ccc([nH]5)c(-c5cc(S(=O)(=O)[O-])ccc5F)c5nc(c(-c6cc(S(=O)(=O)[O-])ccc6F)c6ccc3[nH]6)C=C5)C=C4)cc2)nn1-c1cccc(C(F)(F)F)c1
REMARK SMILES IDX 9 1 8 2 7 3 5 4 6 5 4 7 1 8 2 9 3 10 78 11 77 12 79 13 80 14
REMARK SMILES IDX 88 15 81 16 83 17 82 18 84 19 85 20 86 21 87 22 10 23 11 24
REMARK SMILES IDX 12 25 13 27 14 28 15 29 76 30 16 31 75 32 17 33 18 34 19 35
REMARK SMILES IDX 69 36 20 37 74 38 68 39 70 40 21 41 73 42 67 43 66 44 22 46
REMARK SMILES IDX 54 47 34 48 53 49 35 50 38 51 52 52 71 53 36 54 37 55 51 57
REMARK SMILES IDX 72 58 39 59 23 60 24 61 32 62 25 63 31 64 33 65 30 66 26 67
REMARK SMILES IDX 27 68 28 69 29 70 55 71 56 72 64 73 57 74 63 75 65 76 62 77
REMARK SMILES IDX 58 78 59 79 60 80 61 81 40 82 41 83 49 84 42 85 48 86 50 87
REMARK SMILES IDX 47 88 43 89 44 90 45 91 46 92
REMARK H PARENT 7 6 11 26 70 45 38 56
REMARK Flexibility Score: inf
ROOT
ATOM      1  C   UNL A   1      34.386  35.708  28.446  1.00  0.00     0.042 C 
ENDROOT
BRANCH   1   2
ATOM      2  C   UNL A   1      32.987  35.609  29.062  1.00  0.00     0.118 C 
BRANCH   2   3
ATOM      3  N   UNL A   1      32.808  36.497  30.204  1.00  0.00    -0.349 N 
ATOM      4  C   UNL A   1      33.317  36.451  31.492  1.00  0.00     0.290 C 
ATOM      5  O   UNL A   1      32.950  37.335  32.269  1.00  0.00    -0.266 OA
ATOM      6  H   UNL A   1      32.221  37.267  30.029  1.00  0.00     0.163 HD
BRANCH   4   7
ATOM      7  C   UNL A   1      34.233  35.368  31.915  1.00  0.00     0.239 A 
ATOM      8  C   UNL A   1      35.265  31.954  32.235  1.00  0.00     0.090 C 
ATOM      9  C   UNL A   1      35.077  33.416  32.093  1.00  0.00     0.130 A 
ATOM     10  N   UNL A   1      33.983  34.025  31.681  1.00  0.00    -0.207 NA
ATOM     11  N   UNL A   1      35.993  34.369  32.482  1.00  0.00    -0.217 N 
ATOM     12  N   UNL A   1      35.381  35.561  32.582  1.00  0.00    -0.140 NA
BRANCH  11  13
ATOM     13  C   UNL A   1      37.396  34.301  32.645  1.00  0.00     0.067 A 
ATOM     14  C   UNL A   1      37.940  34.555  33.912  1.00  0.00     0.028 A 
ATOM     15  C   UNL A   1      38.236  34.135  31.538  1.00  0.00     0.041 A 
ATOM     16  C   UNL A   1      39.322  34.605  34.082  1.00  0.00     0.003 A 
ATOM     17  C   UNL A   1      39.629  34.247  31.694  1.00  0.00     0.058 A 
ATOM     18  C   UNL A   1      40.161  34.457  32.979  1.00  0.00     0.013 A 
BRANCH  17  19
ATOM     19  C   UNL A   1      40.556  34.198  30.503  1.00  0.00     0.416 C 
ATOM     20  F   UNL A   1      40.965  32.933  30.212  1.00  0.00    -0.166 F 
ATOM     21  F   UNL A   1      39.969  34.673  29.371  1.00  0.00    -0.166 F 
ATOM     22  F   UNL A   1      41.692  34.930  30.671  1.00  0.00    -0.166 F 
ENDBRANCH  17  19
ENDBRANCH  11  13
ENDBRANCH   4   7
ENDBRANCH   2   3
ENDBRANCH   1   2
BRANCH   1  23
ATOM     23  C   UNL A   1      35.116  34.370  28.483  1.00  0.00     0.118 C 
BRANCH  23  24
ATOM     24  N   UNL A   1      34.265  33.268  28.038  1.00  0.00    -0.352 N 
ATOM     25  C   UNL A   1      34.574  31.929  27.917  1.00  0.00     0.251 C 
ATOM     26  H   UNL A   1      33.344  33.516  27.791  1.00  0.00     0.163 HD
ATOM     27  O   UNL A   1      33.852  31.201  27.254  1.00  0.00    -0.269 OA
BRANCH  25  28
ATOM     28  C   UNL A   1      35.796  31.400  28.563  1.00  0.00     0.039 A 
ATOM     29  C   UNL A   1      35.825  30.075  29.000  1.00  0.00     0.014 A 
ATOM     30  C   UNL A   1      36.914  32.218  28.719  1.00  0.00     0.014 A 
ATOM     31  C   UNL A   1      37.019  29.552  29.497  1.00  0.00     0.010 A 
ATOM     32  C   UNL A   1      38.119  31.677  29.127  1.00  0.00     0.010 A 
ATOM     33  C   UNL A   1      38.181  30.343  29.521  1.00  0.00    -0.014 A 
BRANCH  33  34
ATOM     34  C   UNL A   1      39.485  29.705  29.748  1.00  0.00     0.031 A 
ATOM     35  C   UNL A   1      39.875  29.633  31.184  1.00  0.00     0.074 A 
ATOM     36  C   UNL A   1      40.203  29.030  28.823  1.00  0.00     0.049 A 
ATOM     37  N   UNL A   1      40.845  30.252  31.771  1.00  0.00    -0.248 NA
ATOM     38  C   UNL A   1      38.989  28.910  32.111  1.00  0.00     0.031 C 
ATOM     39  C   UNL A   1      39.831  28.755  27.433  1.00  0.00     0.029 A 
ATOM     40  N   UNL A   1      41.379  28.347  28.963  1.00  0.00    -0.354 N 
ATOM     41  C   UNL A   1      40.850  29.796  33.086  1.00  0.00     0.074 A 
ATOM     42  C   UNL A   1      39.578  29.156  33.282  1.00  0.00     0.031 C 
ATOM     43  C   UNL A   1      40.637  27.794  26.930  1.00  0.00     0.029 A 
ATOM     44  C   UNL A   1      41.679  27.495  27.899  1.00  0.00     0.049 A 
ATOM     45  H   UNL A   1      41.966  28.447  29.747  1.00  0.00     0.167 HD
ATOM     46  C   UNL A   1      42.005  29.760  33.808  1.00  0.00     0.034 A 
ATOM     47  C   UNL A   1      42.696  26.598  27.805  1.00  0.00     0.034 A 
ATOM     48  C   UNL A   1      43.018  30.597  33.197  1.00  0.00     0.049 A 
ATOM     49  C   UNL A   1      43.750  27.042  28.744  1.00  0.00     0.074 A 
ATOM     50  C   UNL A   1      43.096  31.931  32.845  1.00  0.00     0.029 A 
ATOM     51  N   UNL A   1      44.035  29.975  32.508  1.00  0.00    -0.354 N 
ATOM     52  N   UNL A   1      44.425  28.146  28.592  1.00  0.00    -0.248 NA
ATOM     53  C   UNL A   1      43.775  26.483  30.086  1.00  0.00     0.031 C 
ATOM     54  C   UNL A   1      43.816  31.948  31.613  1.00  0.00     0.029 A 
ATOM     55  C   UNL A   1      44.213  30.642  31.322  1.00  0.00     0.049 A 
ATOM     56  H   UNL A   1      44.546  29.190  32.813  1.00  0.00     0.167 HD
ATOM     57  C   UNL A   1      44.565  28.654  29.871  1.00  0.00     0.074 A 
ATOM     58  C   UNL A   1      44.272  27.527  30.754  1.00  0.00     0.031 C 
ATOM     59  C   UNL A   1      44.622  30.002  30.085  1.00  0.00     0.034 A 
BRANCH  46  60
ATOM     60  C   UNL A   1      42.365  28.670  34.806  1.00  0.00     0.023 A 
ATOM     61  C   UNL A   1      43.055  29.076  35.967  1.00  0.00     0.031 A 
ATOM     62  C   UNL A   1      42.362  27.279  34.560  1.00  0.00     0.131 A 
ATOM     63  C   UNL A   1      43.814  28.162  36.718  1.00  0.00     0.055 A 
ATOM     64  C   UNL A   1      43.061  26.363  35.355  1.00  0.00     0.041 A 
ATOM     65  F   UNL A   1      41.764  26.725  33.501  1.00  0.00    -0.206 F 
ATOM     66  C   UNL A   1      43.827  26.806  36.417  1.00  0.00     0.022 A 
BRANCH  63  67
ATOM     67  S   UNL A   1      44.947  28.821  37.968  1.00  0.00     0.124 S 
ATOM     68  O   UNL A   1      44.872  27.787  38.994  1.00  0.00    -0.237 OA
ATOM     69  O   UNL A   1      46.198  28.903  37.224  1.00  0.00    -0.237 OA
ATOM     70  O   UNL A   1      44.347  30.104  38.324  1.00  0.00    -0.744 OA
ENDBRANCH  63  67
ENDBRANCH  46  60
BRANCH  47  71
ATOM     71  C   UNL A   1      42.722  25.278  27.116  1.00  0.00     0.023 A 
ATOM     72  C   UNL A   1      43.724  24.919  26.185  1.00  0.00     0.031 A 
ATOM     73  C   UNL A   1      41.883  24.239  27.572  1.00  0.00     0.131 A 
ATOM     74  C   UNL A   1      43.858  23.575  25.762  1.00  0.00     0.055 A 
ATOM     75  C   UNL A   1      42.017  22.915  27.148  1.00  0.00     0.041 A 
ATOM     76  F   UNL A   1      40.957  24.459  28.519  1.00  0.00    -0.206 F 
ATOM     77  C   UNL A   1      43.015  22.574  26.249  1.00  0.00     0.022 A 
BRANCH  74  78
ATOM     78  S   UNL A   1      45.214  23.082  24.646  1.00  0.00     0.124 S 
ATOM     79  O   UNL A   1      45.778  24.369  24.254  1.00  0.00    -0.237 OA
ATOM     80  O   UNL A   1      46.041  22.245  25.506  1.00  0.00    -0.237 OA
ATOM     81  O   UNL A   1      44.528  22.361  23.573  1.00  0.00    -0.744 OA
ENDBRANCH  74  78
ENDBRANCH  47  71
BRANCH  59  82
ATOM     82  C   UNL A   1      44.934  30.904  28.907  1.00  0.00     0.023 A 
ATOM     83  C   UNL A   1      46.227  31.324  28.518  1.00  0.00     0.031 A 
ATOM     84  C   UNL A   1      43.854  31.282  28.090  1.00  0.00     0.131 A 
ATOM     85  C   UNL A   1      46.394  32.107  27.357  1.00  0.00     0.055 A 
ATOM     86  C   UNL A   1      44.026  32.034  26.929  1.00  0.00     0.041 A 
ATOM     87  F   UNL A   1      42.603  30.896  28.391  1.00  0.00    -0.206 F 
ATOM     88  C   UNL A   1      45.298  32.457  26.563  1.00  0.00     0.022 A 
BRANCH  85  89
ATOM     89  S   UNL A   1      48.044  32.708  26.867  1.00  0.00     0.124 S 
ATOM     90  O   UNL A   1      48.763  31.489  26.515  1.00  0.00    -0.237 OA
ATOM     91  O   UNL A   1      47.736  33.611  25.761  1.00  0.00    -0.237 OA
ATOM     92  O   UNL A   1      48.535  33.376  28.073  1.00  0.00    -0.744 OA
ENDBRANCH  85  89
ENDBRANCH  59  82
ENDBRANCH  33  34
ENDBRANCH  25  28
ENDBRANCH  23  24
ENDBRANCH   1  23
TORSDOF 15
ENDMDL
