MODEL 1
REMARK VINA RESULT:     -12.2      0.000      0.000
REMARK SMILES O=C(NCCCNC(=O)[C@H]1C[C@H](O)CN1C(=O)[C@@H]1CC(=O)N(C2CC2)C1)c1ccc(-c2c3nc(c(-c4cc(S(=O)(=O)[O-])ccc4F)c4ccc([nH]4)c(-c4cc(S(=O)(=O)[O-])ccc4F)c4nc(c(-c5cc(S(=O)(=O)[O-])ccc5F)c5ccc2[nH]5)C=C4)C=C3)cc1
REMARK SMILES IDX 5 1 4 2 3 3 1 4 2 5 27 7 28 8 89 9 29 10 88 11 30 12 31 13
REMARK SMILES IDX 32 14 82 15 33 16 87 17 81 18 83 19 34 20 86 21 80 22 79 23
REMARK SMILES IDX 35 25 67 26 47 27 66 28 48 29 51 30 65 31 84 32 49 33 50 34
REMARK SMILES IDX 64 36 85 37 52 38 36 39 37 40 45 41 38 42 44 43 46 44 43 45
REMARK SMILES IDX 39 46 40 47 41 48 42 49 68 50 69 51 77 52 70 53 76 54 78 55
REMARK SMILES IDX 75 56 71 57 72 58 73 59 74 60 53 61 54 62 62 63 55 64 61 65
REMARK SMILES IDX 63 66 60 67 56 68 57 69 58 70 59 71 6 72 7 73 8 74 9 76
REMARK SMILES IDX 10 77 11 78 15 79 12 80 14 81 16 82 17 83 18 84 19 85 26 86
REMARK SMILES IDX 20 87 22 88 21 89 23 90 24 91 25 92 13 93
REMARK H PARENT 3 6 83 24 51 35 7 75 13 94
REMARK Flexibility Score: inf
ROOT
ATOM      1  C   UNL A   1      31.632  31.953  26.875  1.00  0.00     0.042 C 
ENDROOT
BRANCH   1   2
ATOM      2  C   UNL A   1      32.882  32.777  27.118  1.00  0.00     0.118 C 
BRANCH   2   3
ATOM      3  N   UNL A   1      32.599  34.076  27.715  1.00  0.00    -0.352 N 
ATOM      4  O   UNL A   1      32.656  35.717  29.254  1.00  0.00    -0.269 OA
ATOM      5  C   UNL A   1      33.163  34.691  28.807  1.00  0.00     0.251 C 
ATOM      6  H   UNL A   1      31.892  34.595  27.265  1.00  0.00     0.163 HD
BRANCH   5   7
ATOM      7  C   UNL A   1      34.361  34.109  29.449  1.00  0.00     0.039 A 
ATOM      8  C   UNL A   1      34.227  33.187  30.487  1.00  0.00     0.014 A 
ATOM      9  C   UNL A   1      35.634  34.471  28.996  1.00  0.00     0.014 A 
ATOM     10  C   UNL A   1      35.347  32.766  31.188  1.00  0.00     0.010 A 
ATOM     11  C   UNL A   1      36.768  33.942  29.620  1.00  0.00     0.010 A 
ATOM     12  C   UNL A   1      36.631  33.099  30.733  1.00  0.00    -0.014 A 
BRANCH  12  13
ATOM     13  C   UNL A   1      37.798  32.433  31.360  1.00  0.00     0.031 A 
ATOM     14  C   UNL A   1      38.527  31.315  30.672  1.00  0.00     0.074 A 
ATOM     15  C   UNL A   1      38.199  32.880  32.569  1.00  0.00     0.049 A 
ATOM     16  N   UNL A   1      39.553  30.625  31.097  1.00  0.00    -0.248 NA
ATOM     17  C   UNL A   1      38.042  30.913  29.343  1.00  0.00     0.031 C 
ATOM     18  C   UNL A   1      37.548  33.959  33.322  1.00  0.00     0.029 A 
ATOM     19  N   UNL A   1      39.243  32.506  33.372  1.00  0.00    -0.354 N 
ATOM     20  C   UNL A   1      39.824  29.690  30.105  1.00  0.00     0.074 A 
ATOM     21  C   UNL A   1      38.845  29.894  29.058  1.00  0.00     0.031 C 
ATOM     22  C   UNL A   1      38.231  34.187  34.451  1.00  0.00     0.029 A 
ATOM     23  C   UNL A   1      39.307  33.213  34.551  1.00  0.00     0.049 A 
ATOM     24  H   UNL A   1      39.885  31.800  33.130  1.00  0.00     0.167 HD
ATOM     25  C   UNL A   1      40.800  28.750  30.083  1.00  0.00     0.034 A 
ATOM     26  C   UNL A   1      40.112  33.065  35.620  1.00  0.00     0.034 A 
ATOM     27  C   UNL A   1      41.774  28.581  31.136  1.00  0.00     0.049 A 
ATOM     28  C   UNL A   1      41.153  31.983  35.578  1.00  0.00     0.074 A 
ATOM     29  C   UNL A   1      42.854  27.716  31.178  1.00  0.00     0.029 A 
ATOM     30  N   UNL A   1      41.777  29.276  32.339  1.00  0.00    -0.354 N 
ATOM     31  N   UNL A   1      41.426  31.140  34.609  1.00  0.00    -0.248 NA
ATOM     32  C   UNL A   1      41.990  31.825  36.772  1.00  0.00     0.031 C 
ATOM     33  C   UNL A   1      43.462  27.834  32.433  1.00  0.00     0.029 A 
ATOM     34  C   UNL A   1      42.807  28.823  33.149  1.00  0.00     0.049 A 
ATOM     35  H   UNL A   1      41.140  29.988  32.581  1.00  0.00     0.167 HD
ATOM     36  C   UNL A   1      42.470  30.352  35.078  1.00  0.00     0.074 A 
ATOM     37  C   UNL A   1      42.801  30.846  36.399  1.00  0.00     0.031 C 
ATOM     38  C   UNL A   1      43.096  29.310  34.476  1.00  0.00     0.034 A 
BRANCH  25  39
ATOM     39  C   UNL A   1      40.841  27.792  28.919  1.00  0.00     0.023 A 
ATOM     40  C   UNL A   1      41.783  27.911  27.883  1.00  0.00     0.031 A 
ATOM     41  C   UNL A   1      39.940  26.712  28.871  1.00  0.00     0.131 A 
ATOM     42  C   UNL A   1      41.780  26.986  26.826  1.00  0.00     0.055 A 
ATOM     43  C   UNL A   1      39.980  25.762  27.849  1.00  0.00     0.041 A 
ATOM     44  F   UNL A   1      39.007  26.561  29.824  1.00  0.00    -0.206 F 
ATOM     45  C   UNL A   1      40.901  25.899  26.815  1.00  0.00     0.022 A 
BRANCH  42  46
ATOM     46  S   UNL A   1      42.893  27.262  25.420  1.00  0.00     0.124 S 
ATOM     47  O   UNL A   1      44.138  27.623  26.094  1.00  0.00    -0.237 OA
ATOM     48  O   UNL A   1      42.883  25.967  24.749  1.00  0.00    -0.237 OA
ATOM     49  O   UNL A   1      42.253  28.350  24.684  1.00  0.00    -0.744 OA
ENDBRANCH  42  46
ENDBRANCH  25  39
BRANCH  26  50
ATOM     50  C   UNL A   1      39.913  33.903  36.837  1.00  0.00     0.023 A 
ATOM     51  C   UNL A   1      39.283  33.389  37.979  1.00  0.00     0.031 A 
ATOM     52  C   UNL A   1      40.313  35.253  36.855  1.00  0.00     0.131 A 
ATOM     53  C   UNL A   1      39.026  34.230  39.072  1.00  0.00     0.055 A 
ATOM     54  C   UNL A   1      40.114  36.068  37.969  1.00  0.00     0.041 A 
ATOM     55  F   UNL A   1      40.921  35.798  35.789  1.00  0.00    -0.206 F 
ATOM     56  C   UNL A   1      39.451  35.561  39.082  1.00  0.00     0.022 A 
BRANCH  53  57
ATOM     57  S   UNL A   1      38.024  33.589  40.440  1.00  0.00     0.124 S 
ATOM     58  O   UNL A   1      38.913  32.587  41.017  1.00  0.00    -0.237 OA
ATOM     59  O   UNL A   1      37.805  34.789  41.240  1.00  0.00    -0.237 OA
ATOM     60  O   UNL A   1      36.836  33.060  39.773  1.00  0.00    -0.744 OA
ENDBRANCH  53  57
ENDBRANCH  26  50
BRANCH  38  61
ATOM     61  C   UNL A   1      44.204  28.656  35.257  1.00  0.00     0.023 A 
ATOM     62  C   UNL A   1      43.945  27.582  36.127  1.00  0.00     0.031 A 
ATOM     63  C   UNL A   1      45.524  29.128  35.157  1.00  0.00     0.131 A 
ATOM     64  C   UNL A   1      44.981  27.053  36.908  1.00  0.00     0.055 A 
ATOM     65  C   UNL A   1      46.562  28.557  35.892  1.00  0.00     0.041 A 
ATOM     66  F   UNL A   1      45.822  30.154  34.344  1.00  0.00    -0.206 F 
ATOM     67  C   UNL A   1      46.292  27.522  36.784  1.00  0.00     0.022 A 
BRANCH  64  68
ATOM     68  S   UNL A   1      44.577  25.797  38.152  1.00  0.00     0.124 S 
ATOM     69  O   UNL A   1      43.790  26.564  39.111  1.00  0.00    -0.237 OA
ATOM     70  O   UNL A   1      43.844  24.806  37.370  1.00  0.00    -0.237 OA
ATOM     71  O   UNL A   1      45.886  25.359  38.633  1.00  0.00    -0.744 OA
ENDBRANCH  64  68
ENDBRANCH  38  61
ENDBRANCH  12  13
ENDBRANCH   5   7
ENDBRANCH   2   3
ENDBRANCH   1   2
BRANCH   1  72
ATOM     72  C   UNL A   1      31.871  30.459  26.860  1.00  0.00     0.117 C 
BRANCH  72  73
ATOM     73  N   UNL A   1      32.792  30.014  25.827  1.00  0.00    -0.354 N 
ATOM     74  C   UNL A   1      32.519  29.341  24.667  1.00  0.00     0.242 C 
ATOM     75  H   UNL A   1      33.741  30.226  25.983  1.00  0.00     0.163 HD
ATOM     76  O   UNL A   1      33.410  29.241  23.822  1.00  0.00    -0.273 OA
BRANCH  74  77
ATOM     77  C   UNL A   1      31.104  28.765  24.470  1.00  0.00     0.177 C 
ATOM     78  C   UNL A   1      30.217  29.728  23.675  1.00  0.00     0.069 C 
ATOM     79  N   UNL A   1      31.104  27.532  23.670  1.00  0.00    -0.328 N 
ATOM     80  C   UNL A   1      30.418  29.299  22.235  1.00  0.00     0.136 C 
ATOM     81  C   UNL A   1      30.547  27.789  22.355  1.00  0.00     0.152 C 
BRANCH  79  82
ATOM     82  C   UNL A   1      31.517  26.345  24.224  1.00  0.00     0.228 C 
ATOM     83  O   UNL A   1      32.708  26.182  24.515  1.00  0.00    -0.274 OA
BRANCH  82  84
ATOM     84  C   UNL A   1      30.534  25.232  24.589  1.00  0.00     0.107 C 
ATOM     85  C   UNL A   1      30.209  25.025  26.061  1.00  0.00     0.115 C 
ATOM     86  C   UNL A   1      30.991  23.882  24.083  1.00  0.00     0.133 C 
ATOM     87  C   UNL A   1      30.918  23.741  26.428  1.00  0.00     0.223 C 
ATOM     88  N   UNL A   1      31.430  23.174  25.261  1.00  0.00    -0.339 N 
ATOM     89  O   UNL A   1      31.044  23.335  27.574  1.00  0.00    -0.275 OA
BRANCH  88  90
ATOM     90  C   UNL A   1      32.405  22.128  25.158  1.00  0.00     0.085 C 
ATOM     91  C   UNL A   1      32.268  21.034  24.125  1.00  0.00     0.027 C 
ATOM     92  C   UNL A   1      33.409  22.007  24.050  1.00  0.00     0.027 C 
ENDBRANCH  88  90
ENDBRANCH  82  84
ENDBRANCH  79  82
BRANCH  80  93
ATOM     93  O   UNL A   1      29.319  29.699  21.431  1.00  0.00    -0.391 OA
ATOM     94  H   UNL A   1      28.745  30.293  21.940  1.00  0.00     0.211 HD
ENDBRANCH  80  93
ENDBRANCH  74  77
ENDBRANCH  72  73
ENDBRANCH   1  72
TORSDOF 17
ENDMDL
MODEL 2
REMARK VINA RESULT:     -12.2      5.751     11.817
REMARK SMILES O=C(NCCCNC(=O)[C@H]1C[C@H](O)CN1C(=O)[C@@H]1CC(=O)N(C2CC2)C1)c1ccc(-c2c3nc(c(-c4cc(S(=O)(=O)[O-])ccc4F)c4ccc([nH]4)c(-c4cc(S(=O)(=O)[O-])ccc4F)c4nc(c(-c5cc(S(=O)(=O)[O-])ccc5F)c5ccc2[nH]5)C=C4)C=C3)cc1
REMARK SMILES IDX 5 1 4 2 3 3 1 4 2 5 27 7 28 8 89 9 29 10 88 11 30 12 31 13
REMARK SMILES IDX 32 14 82 15 33 16 87 17 81 18 83 19 34 20 86 21 80 22 79 23
REMARK SMILES IDX 35 25 67 26 47 27 66 28 48 29 51 30 65 31 84 32 49 33 50 34
REMARK SMILES IDX 64 36 85 37 52 38 36 39 37 40 45 41 38 42 44 43 46 44 43 45
REMARK SMILES IDX 39 46 40 47 41 48 42 49 68 50 69 51 77 52 70 53 76 54 78 55
REMARK SMILES IDX 75 56 71 57 72 58 73 59 74 60 53 61 54 62 62 63 55 64 61 65
REMARK SMILES IDX 63 66 60 67 56 68 57 69 58 70 59 71 6 72 7 73 8 74 9 76
REMARK SMILES IDX 10 77 11 78 15 79 12 80 14 81 16 82 17 83 18 84 19 85 26 86
REMARK SMILES IDX 20 87 22 88 21 89 23 90 24 91 25 92 13 93
REMARK H PARENT 3 6 83 24 51 35 7 75 13 94
REMARK Flexibility Score: inf
ROOT
ATOM      1  C   UNL A   1      38.229  19.922  25.008  1.00  0.00     0.042 C 
ENDROOT
BRANCH   1   2
ATOM      2  C   UNL A   1      39.277  20.138  26.084  1.00  0.00     0.118 C 
BRANCH   2   3
ATOM      3  N   UNL A   1      40.394  19.208  25.982  1.00  0.00    -0.352 N 
ATOM      4  O   UNL A   1      42.527  18.535  25.730  1.00  0.00    -0.269 OA
ATOM      5  C   UNL A   1      41.749  19.442  26.010  1.00  0.00     0.251 C 
ATOM      6  H   UNL A   1      40.140  18.261  25.878  1.00  0.00     0.163 HD
BRANCH   5   7
ATOM      7  C   UNL A   1      42.261  20.785  26.357  1.00  0.00     0.039 A 
ATOM      8  C   UNL A   1      42.457  21.744  25.363  1.00  0.00     0.014 A 
ATOM      9  C   UNL A   1      42.528  21.100  27.693  1.00  0.00     0.014 A 
ATOM     10  C   UNL A   1      43.083  22.942  25.669  1.00  0.00     0.010 A 
ATOM     11  C   UNL A   1      43.038  22.361  28.019  1.00  0.00     0.010 A 
ATOM     12  C   UNL A   1      43.336  23.284  27.005  1.00  0.00    -0.014 A 
BRANCH  12  13
ATOM     13  C   UNL A   1      43.778  24.667  27.310  1.00  0.00     0.031 A 
ATOM     14  C   UNL A   1      42.824  25.697  27.842  1.00  0.00     0.074 A 
ATOM     15  C   UNL A   1      45.079  24.965  27.111  1.00  0.00     0.049 A 
ATOM     16  N   UNL A   1      43.055  26.948  28.141  1.00  0.00    -0.248 NA
ATOM     17  C   UNL A   1      41.431  25.276  28.059  1.00  0.00     0.031 C 
ATOM     18  C   UNL A   1      46.084  24.031  26.589  1.00  0.00     0.029 A 
ATOM     19  N   UNL A   1      45.787  26.117  27.329  1.00  0.00    -0.354 N 
ATOM     20  C   UNL A   1      41.839  27.476  28.557  1.00  0.00     0.074 A 
ATOM     21  C   UNL A   1      40.865  26.408  28.462  1.00  0.00     0.031 C 
ATOM     22  C   UNL A   1      47.280  24.632  26.569  1.00  0.00     0.029 A 
ATOM     23  C   UNL A   1      47.116  26.017  26.983  1.00  0.00     0.049 A 
ATOM     24  H   UNL A   1      45.385  26.937  27.697  1.00  0.00     0.167 HD
ATOM     25  C   UNL A   1      41.570  28.736  28.974  1.00  0.00     0.034 A 
ATOM     26  C   UNL A   1      48.087  26.948  26.955  1.00  0.00     0.034 A 
ATOM     27  C   UNL A   1      42.567  29.776  29.076  1.00  0.00     0.049 A 
ATOM     28  C   UNL A   1      47.742  28.346  27.383  1.00  0.00     0.074 A 
ATOM     29  C   UNL A   1      42.420  31.064  29.563  1.00  0.00     0.029 A 
ATOM     30  N   UNL A   1      43.889  29.656  28.667  1.00  0.00    -0.354 N 
ATOM     31  N   UNL A   1      46.595  28.813  27.820  1.00  0.00    -0.248 NA
ATOM     32  C   UNL A   1      48.813  29.344  27.307  1.00  0.00     0.031 C 
ATOM     33  C   UNL A   1      43.630  31.743  29.379  1.00  0.00     0.029 A 
ATOM     34  C   UNL A   1      44.553  30.861  28.842  1.00  0.00     0.049 A 
ATOM     35  H   UNL A   1      44.296  28.835  28.305  1.00  0.00     0.167 HD
ATOM     36  C   UNL A   1      46.811  30.162  28.075  1.00  0.00     0.074 A 
ATOM     37  C   UNL A   1      48.205  30.422  27.777  1.00  0.00     0.031 C 
ATOM     38  C   UNL A   1      45.936  31.104  28.509  1.00  0.00     0.034 A 
BRANCH  25  39
ATOM     39  C   UNL A   1      40.141  29.089  29.303  1.00  0.00     0.023 A 
ATOM     40  C   UNL A   1      39.669  29.150  30.624  1.00  0.00     0.031 A 
ATOM     41  C   UNL A   1      39.246  29.411  28.266  1.00  0.00     0.131 A 
ATOM     42  C   UNL A   1      38.329  29.493  30.872  1.00  0.00     0.055 A 
ATOM     43  C   UNL A   1      37.932  29.806  28.522  1.00  0.00     0.041 A 
ATOM     44  F   UNL A   1      39.638  29.349  26.984  1.00  0.00    -0.206 F 
ATOM     45  C   UNL A   1      37.464  29.844  29.832  1.00  0.00     0.022 A 
BRANCH  42  46
ATOM     46  S   UNL A   1      37.704  29.399  32.574  1.00  0.00     0.124 S 
ATOM     47  O   UNL A   1      37.773  27.964  32.836  1.00  0.00    -0.237 OA
ATOM     48  O   UNL A   1      38.653  30.228  33.306  1.00  0.00    -0.237 OA
ATOM     49  O   UNL A   1      36.350  29.942  32.472  1.00  0.00    -0.744 OA
ENDBRANCH  42  46
ENDBRANCH  25  39
BRANCH  26  50
ATOM     50  C   UNL A   1      49.443  26.609  26.436  1.00  0.00     0.023 A 
ATOM     51  C   UNL A   1      49.892  27.096  25.201  1.00  0.00     0.031 A 
ATOM     52  C   UNL A   1      50.295  25.748  27.155  1.00  0.00     0.131 A 
ATOM     53  C   UNL A   1      51.134  26.682  24.697  1.00  0.00     0.055 A 
ATOM     54  C   UNL A   1      51.557  25.392  26.680  1.00  0.00     0.041 A 
ATOM     55  F   UNL A   1      49.917  25.252  28.344  1.00  0.00    -0.206 F 
ATOM     56  C   UNL A   1      51.977  25.846  25.435  1.00  0.00     0.022 A 
BRANCH  53  57
ATOM     57  S   UNL A   1      51.586  27.161  23.008  1.00  0.00     0.124 S 
ATOM     58  O   UNL A   1      51.881  28.580  23.170  1.00  0.00    -0.237 OA
ATOM     59  O   UNL A   1      52.729  26.294  22.745  1.00  0.00    -0.237 OA
ATOM     60  O   UNL A   1      50.383  26.858  22.235  1.00  0.00    -0.744 OA
ENDBRANCH  53  57
ENDBRANCH  26  50
BRANCH  38  61
ATOM     61  C   UNL A   1      46.486  32.493  28.688  1.00  0.00     0.023 A 
ATOM     62  C   UNL A   1      46.473  33.422  27.633  1.00  0.00     0.031 A 
ATOM     63  C   UNL A   1      47.058  32.883  29.911  1.00  0.00     0.131 A 
ATOM     64  C   UNL A   1      47.073  34.678  27.803  1.00  0.00     0.055 A 
ATOM     65  C   UNL A   1      47.600  34.154  30.092  1.00  0.00     0.041 A 
ATOM     66  F   UNL A   1      47.100  32.030  30.947  1.00  0.00    -0.206 F 
ATOM     67  C   UNL A   1      47.622  35.056  29.031  1.00  0.00     0.022 A 
BRANCH  64  68
ATOM     68  S   UNL A   1      47.202  35.780  26.369  1.00  0.00     0.124 S 
ATOM     69  O   UNL A   1      45.815  35.861  25.924  1.00  0.00    -0.237 OA
ATOM     70  O   UNL A   1      47.757  36.995  26.956  1.00  0.00    -0.237 OA
ATOM     71  O   UNL A   1      48.102  35.063  25.467  1.00  0.00    -0.744 OA
ENDBRANCH  64  68
ENDBRANCH  38  61
ENDBRANCH  12  13
ENDBRANCH   5   7
ENDBRANCH   2   3
ENDBRANCH   1   2
BRANCH   1  72
ATOM     72  C   UNL A   1      37.387  21.144  24.713  1.00  0.00     0.117 C 
BRANCH  72  73
ATOM     73  N   UNL A   1      36.554  21.574  25.824  1.00  0.00    -0.354 N 
ATOM     74  C   UNL A   1      35.196  21.471  25.967  1.00  0.00     0.242 C 
ATOM     75  H   UNL A   1      37.030  21.998  26.574  1.00  0.00     0.163 HD
ATOM     76  O   UNL A   1      34.704  21.703  27.072  1.00  0.00    -0.273 OA
BRANCH  74  77
ATOM     77  C   UNL A   1      34.361  21.046  24.746  1.00  0.00     0.177 C 
ATOM     78  C   UNL A   1      34.111  19.534  24.741  1.00  0.00     0.069 C 
ATOM     79  N   UNL A   1      33.014  21.633  24.752  1.00  0.00    -0.328 N 
ATOM     80  C   UNL A   1      32.801  19.382  25.488  1.00  0.00     0.136 C 
ATOM     81  C   UNL A   1      32.024  20.613  25.048  1.00  0.00     0.152 C 
BRANCH  79  82
ATOM     82  C   UNL A   1      32.831  22.954  24.426  1.00  0.00     0.228 C 
ATOM     83  O   UNL A   1      33.218  23.840  25.198  1.00  0.00    -0.274 OA
BRANCH  82  84
ATOM     84  C   UNL A   1      32.244  23.387  23.081  1.00  0.00     0.107 C 
ATOM     85  C   UNL A   1      33.203  23.913  22.023  1.00  0.00     0.115 C 
ATOM     86  C   UNL A   1      31.190  24.459  23.240  1.00  0.00     0.133 C 
ATOM     87  C   UNL A   1      32.932  25.400  21.975  1.00  0.00     0.223 C 
ATOM     88  N   UNL A   1      31.819  25.670  22.770  1.00  0.00    -0.339 N 
ATOM     89  O   UNL A   1      33.632  26.201  21.372  1.00  0.00    -0.275 OA
BRANCH  88  90
ATOM     90  C   UNL A   1      31.380  26.948  23.247  1.00  0.00     0.085 C 
ATOM     91  C   UNL A   1      30.407  27.786  22.451  1.00  0.00     0.027 C 
ATOM     92  C   UNL A   1      30.010  27.230  23.788  1.00  0.00     0.027 C 
ENDBRANCH  88  90
ENDBRANCH  82  84
ENDBRANCH  79  82
BRANCH  80  93
ATOM     93  O   UNL A   1      32.158  18.167  25.137  1.00  0.00    -0.391 OA
ATOM     94  H   UNL A   1      31.266  18.151  25.519  1.00  0.00     0.211 HD
ENDBRANCH  80  93
ENDBRANCH  74  77
ENDBRANCH  72  73
ENDBRANCH   1  72
TORSDOF 17
ENDMDL
MODEL 3
REMARK VINA RESULT:     -12.1      1.317      1.626
REMARK SMILES O=C(NCCCNC(=O)[C@H]1C[C@H](O)CN1C(=O)[C@@H]1CC(=O)N(C2CC2)C1)c1ccc(-c2c3nc(c(-c4cc(S(=O)(=O)[O-])ccc4F)c4ccc([nH]4)c(-c4cc(S(=O)(=O)[O-])ccc4F)c4nc(c(-c5cc(S(=O)(=O)[O-])ccc5F)c5ccc2[nH]5)C=C4)C=C3)cc1
REMARK SMILES IDX 5 1 4 2 3 3 1 4 2 5 27 7 28 8 89 9 29 10 88 11 30 12 31 13
REMARK SMILES IDX 32 14 82 15 33 16 87 17 81 18 83 19 34 20 86 21 80 22 79 23
REMARK SMILES IDX 35 25 67 26 47 27 66 28 48 29 51 30 65 31 84 32 49 33 50 34
REMARK SMILES IDX 64 36 85 37 52 38 36 39 37 40 45 41 38 42 44 43 46 44 43 45
REMARK SMILES IDX 39 46 40 47 41 48 42 49 68 50 69 51 77 52 70 53 76 54 78 55
REMARK SMILES IDX 75 56 71 57 72 58 73 59 74 60 53 61 54 62 62 63 55 64 61 65
REMARK SMILES IDX 63 66 60 67 56 68 57 69 58 70 59 71 6 72 7 73 8 74 9 76
REMARK SMILES IDX 10 77 11 78 15 79 12 80 14 81 16 82 17 83 18 84 19 85 26 86
REMARK SMILES IDX 20 87 22 88 21 89 23 90 24 91 25 92 13 93
REMARK H PARENT 3 6 83 24 51 35 7 75 13 94
REMARK Flexibility Score: inf
ROOT
ATOM      1  C   UNL A   1      31.723  31.661  26.925  1.00  0.00     0.042 C 
ENDROOT
BRANCH   1   2
ATOM      2  C   UNL A   1      32.934  32.570  27.010  1.00  0.00     0.118 C 
BRANCH   2   3
ATOM      3  N   UNL A   1      32.637  33.854  27.631  1.00  0.00    -0.352 N 
ATOM      4  O   UNL A   1      32.664  35.459  29.208  1.00  0.00    -0.269 OA
ATOM      5  C   UNL A   1      33.180  34.446  28.747  1.00  0.00     0.251 C 
ATOM      6  H   UNL A   1      31.938  34.382  27.181  1.00  0.00     0.163 HD
BRANCH   5   7
ATOM      7  C   UNL A   1      34.368  33.851  29.397  1.00  0.00     0.039 A 
ATOM      8  C   UNL A   1      34.221  32.834  30.340  1.00  0.00     0.014 A 
ATOM      9  C   UNL A   1      35.646  34.299  29.046  1.00  0.00     0.014 A 
ATOM     10  C   UNL A   1      35.321  32.391  31.058  1.00  0.00     0.010 A 
ATOM     11  C   UNL A   1      36.768  33.756  29.679  1.00  0.00     0.010 A 
ATOM     12  C   UNL A   1      36.612  32.811  30.704  1.00  0.00    -0.014 A 
BRANCH  12  13
ATOM     13  C   UNL A   1      37.773  32.132  31.329  1.00  0.00     0.031 A 
ATOM     14  C   UNL A   1      38.513  31.033  30.624  1.00  0.00     0.074 A 
ATOM     15  C   UNL A   1      38.157  32.552  32.553  1.00  0.00     0.049 A 
ATOM     16  N   UNL A   1      39.535  30.336  31.045  1.00  0.00    -0.248 NA
ATOM     17  C   UNL A   1      38.046  30.661  29.280  1.00  0.00     0.031 C 
ATOM     18  C   UNL A   1      37.494  33.611  33.323  1.00  0.00     0.029 A 
ATOM     19  N   UNL A   1      39.192  32.162  33.360  1.00  0.00    -0.354 N 
ATOM     20  C   UNL A   1      39.822  29.425  30.035  1.00  0.00     0.074 A 
ATOM     21  C   UNL A   1      38.855  29.652  28.980  1.00  0.00     0.031 C 
ATOM     22  C   UNL A   1      38.162  33.814  34.465  1.00  0.00     0.029 A 
ATOM     23  C   UNL A   1      39.240  32.841  34.557  1.00  0.00     0.049 A 
ATOM     24  H   UNL A   1      39.839  31.463  33.109  1.00  0.00     0.167 HD
ATOM     25  C   UNL A   1      40.800  28.488  30.003  1.00  0.00     0.034 A 
ATOM     26  C   UNL A   1      40.031  32.669  35.631  1.00  0.00     0.034 A 
ATOM     27  C   UNL A   1      41.762  28.297  31.064  1.00  0.00     0.049 A 
ATOM     28  C   UNL A   1      41.076  31.591  35.577  1.00  0.00     0.074 A 
ATOM     29  C   UNL A   1      42.843  27.434  31.099  1.00  0.00     0.029 A 
ATOM     30  N   UNL A   1      41.747  28.964  32.282  1.00  0.00    -0.354 N 
ATOM     31  N   UNL A   1      41.363  30.772  34.591  1.00  0.00    -0.248 NA
ATOM     32  C   UNL A   1      41.899  31.407  36.777  1.00  0.00     0.031 C 
ATOM     33  C   UNL A   1      43.435  27.524  32.363  1.00  0.00     0.029 A 
ATOM     34  C   UNL A   1      42.769  28.493  33.095  1.00  0.00     0.049 A 
ATOM     35  H   UNL A   1      41.106  29.668  32.533  1.00  0.00     0.167 HD
ATOM     36  C   UNL A   1      42.404  29.976  35.054  1.00  0.00     0.074 A 
ATOM     37  C   UNL A   1      42.716  30.439  36.392  1.00  0.00     0.031 C 
ATOM     38  C   UNL A   1      43.040  28.950  34.436  1.00  0.00     0.034 A 
BRANCH  25  39
ATOM     39  C   UNL A   1      40.859  27.559  28.817  1.00  0.00     0.023 A 
ATOM     40  C   UNL A   1      41.810  27.707  27.794  1.00  0.00     0.031 A 
ATOM     41  C   UNL A   1      39.964  26.475  28.735  1.00  0.00     0.131 A 
ATOM     42  C   UNL A   1      41.823  26.807  26.716  1.00  0.00     0.055 A 
ATOM     43  C   UNL A   1      40.020  25.550  27.691  1.00  0.00     0.041 A 
ATOM     44  F   UNL A   1      39.023  26.297  29.674  1.00  0.00    -0.206 F 
ATOM     45  C   UNL A   1      40.951  25.716  26.670  1.00  0.00     0.022 A 
BRANCH  42  46
ATOM     46  S   UNL A   1      42.949  27.122  25.328  1.00  0.00     0.124 S 
ATOM     47  O   UNL A   1      42.932  25.837  24.634  1.00  0.00    -0.237 OA
ATOM     48  O   UNL A   1      42.298  28.229  24.637  1.00  0.00    -0.237 OA
ATOM     49  O   UNL A   1      44.215  27.453  25.981  1.00  0.00    -0.744 OA
ENDBRANCH  42  46
ENDBRANCH  25  39
BRANCH  26  50
ATOM     50  C   UNL A   1      39.815  33.477  36.865  1.00  0.00     0.023 A 
ATOM     51  C   UNL A   1      39.160  32.940  37.981  1.00  0.00     0.031 A 
ATOM     52  C   UNL A   1      40.224  34.824  36.925  1.00  0.00     0.131 A 
ATOM     53  C   UNL A   1      38.888  33.755  39.091  1.00  0.00     0.055 A 
ATOM     54  C   UNL A   1      40.009  35.612  38.056  1.00  0.00     0.041 A 
ATOM     55  F   UNL A   1      40.856  35.391  35.885  1.00  0.00    -0.206 F 
ATOM     56  C   UNL A   1      39.321  35.082  39.142  1.00  0.00     0.022 A 
BRANCH  53  57
ATOM     57  S   UNL A   1      37.856  33.086  40.423  1.00  0.00     0.124 S 
ATOM     58  O   UNL A   1      37.920  34.154  41.414  1.00  0.00    -0.237 OA
ATOM     59  O   UNL A   1      36.573  32.911  39.750  1.00  0.00    -0.237 OA
ATOM     60  O   UNL A   1      38.539  31.848  40.793  1.00  0.00    -0.744 OA
ENDBRANCH  53  57
ENDBRANCH  26  50
BRANCH  38  61
ATOM     61  C   UNL A   1      44.140  28.280  35.215  1.00  0.00     0.023 A 
ATOM     62  C   UNL A   1      45.451  28.786  35.205  1.00  0.00     0.031 A 
ATOM     63  C   UNL A   1      43.884  27.108  35.947  1.00  0.00     0.131 A 
ATOM     64  C   UNL A   1      46.472  28.089  35.867  1.00  0.00     0.055 A 
ATOM     65  C   UNL A   1      44.892  26.452  36.653  1.00  0.00     0.041 A 
ATOM     66  F   UNL A   1      42.649  26.582  35.984  1.00  0.00    -0.206 F 
ATOM     67  C   UNL A   1      46.197  26.934  36.605  1.00  0.00     0.022 A 
BRANCH  64  68
ATOM     68  S   UNL A   1      48.180  28.666  35.680  1.00  0.00     0.124 S 
ATOM     69  O   UNL A   1      48.680  27.792  34.623  1.00  0.00    -0.237 OA
ATOM     70  O   UNL A   1      48.000  30.068  35.317  1.00  0.00    -0.237 OA
ATOM     71  O   UNL A   1      48.764  28.439  37.001  1.00  0.00    -0.744 OA
ENDBRANCH  64  68
ENDBRANCH  38  61
ENDBRANCH  12  13
ENDBRANCH   5   7
ENDBRANCH   2   3
ENDBRANCH   1   2
BRANCH   1  72
ATOM     72  C   UNL A   1      32.061  30.188  26.844  1.00  0.00     0.117 C 
BRANCH  72  73
ATOM     73  N   UNL A   1      32.910  29.833  25.719  1.00  0.00    -0.354 N 
ATOM     74  C   UNL A   1      32.561  29.243  24.534  1.00  0.00     0.242 C 
ATOM     75  H   UNL A   1      33.866  30.046  25.823  1.00  0.00     0.163 HD
ATOM     76  O   UNL A   1      33.391  29.218  23.624  1.00  0.00    -0.273 OA
BRANCH  74  77
ATOM     77  C   UNL A   1      31.141  28.664  24.395  1.00  0.00     0.177 C 
ATOM     78  C   UNL A   1      30.203  29.652  23.695  1.00  0.00     0.069 C 
ATOM     79  N   UNL A   1      31.102  27.466  23.544  1.00  0.00    -0.328 N 
ATOM     80  C   UNL A   1      30.322  29.288  22.229  1.00  0.00     0.136 C 
ATOM     81  C   UNL A   1      30.468  27.775  22.275  1.00  0.00     0.152 C 
BRANCH  79  82
ATOM     82  C   UNL A   1      31.554  26.260  24.021  1.00  0.00     0.228 C 
ATOM     83  O   UNL A   1      32.768  26.070  24.164  1.00  0.00    -0.274 OA
BRANCH  82  84
ATOM     84  C   UNL A   1      30.600  25.157  24.480  1.00  0.00     0.107 C 
ATOM     85  C   UNL A   1      30.318  25.036  25.970  1.00  0.00     0.115 C 
ATOM     86  C   UNL A   1      31.065  23.786  24.044  1.00  0.00     0.133 C 
ATOM     87  C   UNL A   1      31.056  23.787  26.394  1.00  0.00     0.223 C 
ATOM     88  N   UNL A   1      31.547  23.158  25.250  1.00  0.00    -0.339 N 
ATOM     89  O   UNL A   1      31.220  23.453  27.558  1.00  0.00    -0.275 OA
BRANCH  88  90
ATOM     90  C   UNL A   1      32.535  22.121  25.183  1.00  0.00     0.085 C 
ATOM     91  C   UNL A   1      32.144  20.685  24.926  1.00  0.00     0.027 C 
ATOM     92  C   UNL A   1      32.967  21.437  23.920  1.00  0.00     0.027 C 
ENDBRANCH  88  90
ENDBRANCH  82  84
ENDBRANCH  79  82
BRANCH  80  93
ATOM     93  O   UNL A   1      29.176  29.712  21.509  1.00  0.00    -0.391 OA
ATOM     94  H   UNL A   1      29.445  30.316  20.799  1.00  0.00     0.211 HD
ENDBRANCH  80  93
ENDBRANCH  74  77
ENDBRANCH  72  73
ENDBRANCH   1  72
TORSDOF 17
ENDMDL
