MODEL 1
REMARK VINA RESULT:     -12.5      0.000      0.000
REMARK SMILES CS(=O)(=O)c1ccc(/C=C(/C(=O)NCCCNC(=O)c2ccc(-c3c4nc(c(-c5cc(S(=O)(=O)[O-])ccc5F)c5ccc([nH]5)c(-c5cc(S(=O)(=O)[O-])ccc5F)c5nc(c(-c6cc(S(=O)(=O)[O-])ccc6F)c6ccc3[nH]6)C=C5)C=C4)cc2)c2ccccc2)cc1
REMARK SMILES IDX 15 1 14 2 13 3 11 4 12 5 10 7 9 8 8 9 5 10 6 11 90 12 7 13
REMARK SMILES IDX 89 14 2 15 1 16 3 17 4 18 83 19 84 20 88 21 85 22 87 23
REMARK SMILES IDX 86 24 16 25 17 26 18 27 19 29 20 30 21 31 82 32 22 33 81 34
REMARK SMILES IDX 23 35 24 36 25 37 75 38 26 39 80 40 74 41 76 42 27 43 79 44
REMARK SMILES IDX 73 45 72 46 28 48 60 49 40 50 59 51 41 52 44 53 58 54 77 55
REMARK SMILES IDX 42 56 43 57 57 59 78 60 45 61 29 62 30 63 38 64 31 65 37 66
REMARK SMILES IDX 39 67 36 68 32 69 33 70 34 71 35 72 61 73 62 74 70 75 63 76
REMARK SMILES IDX 69 77 71 78 68 79 64 80 65 81 66 82 67 83 46 84 47 85 55 86
REMARK SMILES IDX 48 87 54 88 56 89 53 90 49 91 50 92 51 93 52 94
REMARK H PARENT 13 6 17 28 76 47 44 58
REMARK Flexibility Score: inf
ROOT
ATOM      1  C   UNL A   1      35.734  23.895  25.791  1.00  0.00     0.042 C 
ENDROOT
BRANCH   1   2
ATOM      2  C   UNL A   1      34.354  23.811  25.134  1.00  0.00     0.118 C 
BRANCH   2   3
ATOM      3  N   UNL A   1      33.322  23.569  26.127  1.00  0.00    -0.352 N 
ATOM      4  C   UNL A   1      32.226  24.255  26.543  1.00  0.00     0.251 C 
ATOM      5  O   UNL A   1      31.569  23.728  27.444  1.00  0.00    -0.269 OA
ATOM      6  H   UNL A   1      33.444  22.716  26.604  1.00  0.00     0.163 HD
BRANCH   4   7
ATOM      7  C   UNL A   1      31.754  25.544  25.907  1.00  0.00     0.047 C 
ATOM      8  C   UNL A   1      30.957  25.548  24.814  1.00  0.00     0.022 C 
BRANCH   8   9
ATOM      9  C   UNL A   1      30.314  26.686  24.117  1.00  0.00    -0.025 A 
ATOM     10  C   UNL A   1      28.933  28.840  22.964  1.00  0.00     0.067 A 
ATOM     11  C   UNL A   1      30.322  28.887  23.078  1.00  0.00     0.021 A 
ATOM     12  C   UNL A   1      28.224  27.716  23.385  1.00  0.00     0.021 A 
ATOM     13  C   UNL A   1      31.007  27.795  23.618  1.00  0.00     0.009 A 
ATOM     14  C   UNL A   1      28.918  26.646  23.960  1.00  0.00     0.009 A 
BRANCH  10  15
ATOM     15  S   UNL A   1      28.077  30.245  22.298  1.00  0.00     0.175 S 
ATOM     16  C   UNL A   1      29.255  31.563  22.427  1.00  0.00     0.163 C 
ATOM     17  O   UNL A   1      26.971  30.529  23.188  1.00  0.00    -0.224 OA
ATOM     18  O   UNL A   1      27.849  29.998  20.883  1.00  0.00    -0.224 OA
ENDBRANCH  10  15
ENDBRANCH   8   9
BRANCH   7  19
ATOM     19  C   UNL A   1      32.353  26.800  26.425  1.00  0.00    -0.013 A 
ATOM     20  C   UNL A   1      33.668  27.127  26.046  1.00  0.00     0.009 A 
ATOM     21  C   UNL A   1      31.628  27.713  27.201  1.00  0.00     0.009 A 
ATOM     22  C   UNL A   1      34.236  28.346  26.408  1.00  0.00     0.001 A 
ATOM     23  C   UNL A   1      32.195  28.944  27.551  1.00  0.00     0.001 A 
ATOM     24  C   UNL A   1      33.494  29.261  27.150  1.00  0.00     0.000 A 
ENDBRANCH   7  19
ENDBRANCH   4   7
ENDBRANCH   2   3
ENDBRANCH   1   2
BRANCH   1  25
ATOM     25  C   UNL A   1      36.881  23.460  24.877  1.00  0.00     0.118 C 
BRANCH  25  26
ATOM     26  N   UNL A   1      37.745  22.477  25.514  1.00  0.00    -0.352 N 
ATOM     27  C   UNL A   1      38.902  22.650  26.233  1.00  0.00     0.251 C 
ATOM     28  H   UNL A   1      37.453  21.542  25.414  1.00  0.00     0.163 HD
ATOM     29  O   UNL A   1      39.598  21.669  26.481  1.00  0.00    -0.269 OA
BRANCH  27  30
ATOM     30  C   UNL A   1      39.322  23.994  26.694  1.00  0.00     0.039 A 
ATOM     31  C   UNL A   1      38.955  24.408  27.977  1.00  0.00     0.014 A 
ATOM     32  C   UNL A   1      40.021  24.868  25.855  1.00  0.00     0.014 A 
ATOM     33  C   UNL A   1      39.331  25.674  28.438  1.00  0.00     0.010 A 
ATOM     34  C   UNL A   1      40.448  26.104  26.337  1.00  0.00     0.010 A 
ATOM     35  C   UNL A   1      40.105  26.524  27.632  1.00  0.00    -0.014 A 
BRANCH  35  36
ATOM     36  C   UNL A   1      40.562  27.851  28.126  1.00  0.00     0.031 A 
ATOM     37  C   UNL A   1      42.033  28.138  28.274  1.00  0.00     0.074 A 
ATOM     38  C   UNL A   1      39.651  28.770  28.505  1.00  0.00     0.049 A 
ATOM     39  N   UNL A   1      42.624  29.192  28.775  1.00  0.00    -0.248 NA
ATOM     40  C   UNL A   1      42.959  27.086  27.829  1.00  0.00     0.031 C 
ATOM     41  C   UNL A   1      38.199  28.591  28.446  1.00  0.00     0.029 A 
ATOM     42  N   UNL A   1      39.807  30.028  29.033  1.00  0.00    -0.354 N 
ATOM     43  C   UNL A   1      43.989  28.922  28.730  1.00  0.00     0.074 A 
ATOM     44  C   UNL A   1      44.132  27.586  28.190  1.00  0.00     0.031 C 
ATOM     45  C   UNL A   1      37.600  29.699  28.913  1.00  0.00     0.029 A 
ATOM     46  C   UNL A   1      38.620  30.650  29.345  1.00  0.00     0.049 A 
ATOM     47  H   UNL A   1      40.687  30.446  29.175  1.00  0.00     0.167 HD
ATOM     48  C   UNL A   1      45.024  29.720  29.094  1.00  0.00     0.034 A 
ATOM     49  C   UNL A   1      38.378  31.838  29.931  1.00  0.00     0.034 A 
ATOM     50  C   UNL A   1      44.863  31.060  29.603  1.00  0.00     0.049 A 
ATOM     51  C   UNL A   1      39.547  32.712  30.315  1.00  0.00     0.074 A 
ATOM     52  C   UNL A   1      45.845  31.983  29.923  1.00  0.00     0.029 A 
ATOM     53  N   UNL A   1      43.644  31.669  29.877  1.00  0.00    -0.354 N 
ATOM     54  N   UNL A   1      40.832  32.466  30.203  1.00  0.00    -0.248 NA
ATOM     55  C   UNL A   1      39.233  34.025  30.891  1.00  0.00     0.031 C 
ATOM     56  C   UNL A   1      45.224  33.120  30.451  1.00  0.00     0.029 A 
ATOM     57  C   UNL A   1      43.851  32.939  30.391  1.00  0.00     0.049 A 
ATOM     58  H   UNL A   1      42.763  31.257  29.727  1.00  0.00     0.167 HD
ATOM     59  C   UNL A   1      41.478  33.609  30.666  1.00  0.00     0.074 A 
ATOM     60  C   UNL A   1      40.441  34.548  31.042  1.00  0.00     0.031 C 
ATOM     61  C   UNL A   1      42.807  33.863  30.768  1.00  0.00     0.034 A 
BRANCH  48  62
ATOM     62  C   UNL A   1      46.420  29.153  28.985  1.00  0.00     0.023 A 
ATOM     63  C   UNL A   1      47.104  29.092  27.759  1.00  0.00     0.031 A 
ATOM     64  C   UNL A   1      47.075  28.663  30.130  1.00  0.00     0.131 A 
ATOM     65  C   UNL A   1      48.373  28.496  27.694  1.00  0.00     0.055 A 
ATOM     66  C   UNL A   1      48.369  28.141  30.071  1.00  0.00     0.041 A 
ATOM     67  F   UNL A   1      46.465  28.678  31.325  1.00  0.00    -0.206 F 
ATOM     68  C   UNL A   1      49.021  28.043  28.845  1.00  0.00     0.022 A 
BRANCH  65  69
ATOM     69  S   UNL A   1      49.115  28.208  26.064  1.00  0.00     0.124 S 
ATOM     70  O   UNL A   1      49.558  26.821  26.182  1.00  0.00    -0.237 OA
ATOM     71  O   UNL A   1      47.995  28.446  25.161  1.00  0.00    -0.237 OA
ATOM     72  O   UNL A   1      50.191  29.195  25.997  1.00  0.00    -0.744 OA
ENDBRANCH  65  69
ENDBRANCH  48  62
BRANCH  49  73
ATOM     73  C   UNL A   1      36.979  32.273  30.214  1.00  0.00     0.023 A 
ATOM     74  C   UNL A   1      36.229  32.977  29.259  1.00  0.00     0.031 A 
ATOM     75  C   UNL A   1      36.389  32.033  31.468  1.00  0.00     0.131 A 
ATOM     76  C   UNL A   1      34.954  33.462  29.589  1.00  0.00     0.055 A 
ATOM     77  C   UNL A   1      35.098  32.469  31.773  1.00  0.00     0.041 A 
ATOM     78  F   UNL A   1      37.059  31.358  32.417  1.00  0.00    -0.206 F 
ATOM     79  C   UNL A   1      34.379  33.203  30.835  1.00  0.00     0.022 A 
BRANCH  76  80
ATOM     80  S   UNL A   1      34.094  34.525  28.397  1.00  0.00     0.124 S 
ATOM     81  O   UNL A   1      34.046  35.796  29.112  1.00  0.00    -0.237 OA
ATOM     82  O   UNL A   1      34.988  34.470  27.246  1.00  0.00    -0.237 OA
ATOM     83  O   UNL A   1      32.807  33.859  28.217  1.00  0.00    -0.744 OA
ENDBRANCH  76  80
ENDBRANCH  49  73
BRANCH  61  84
ATOM     84  C   UNL A   1      43.208  35.231  31.261  1.00  0.00     0.023 A 
ATOM     85  C   UNL A   1      43.441  36.298  30.376  1.00  0.00     0.031 A 
ATOM     86  C   UNL A   1      43.367  35.466  32.639  1.00  0.00     0.131 A 
ATOM     87  C   UNL A   1      43.876  37.536  30.874  1.00  0.00     0.055 A 
ATOM     88  C   UNL A   1      43.742  36.717  33.133  1.00  0.00     0.041 A 
ATOM     89  F   UNL A   1      43.159  34.482  33.529  1.00  0.00    -0.206 F 
ATOM     90  C   UNL A   1      44.012  37.756  32.248  1.00  0.00     0.022 A 
BRANCH  87  91
ATOM     91  S   UNL A   1      44.349  38.831  29.697  1.00  0.00     0.124 S 
ATOM     92  O   UNL A   1      45.704  38.432  29.333  1.00  0.00    -0.237 OA
ATOM     93  O   UNL A   1      43.339  38.688  28.652  1.00  0.00    -0.237 OA
ATOM     94  O   UNL A   1      44.255  40.061  30.483  1.00  0.00    -0.744 OA
ENDBRANCH  87  91
ENDBRANCH  61  84
ENDBRANCH  35  36
ENDBRANCH  27  30
ENDBRANCH  25  26
ENDBRANCH   1  25
TORSDOF 16
ENDMDL
MODEL 2
REMARK VINA RESULT:     -12.2      4.952      9.999
REMARK SMILES CS(=O)(=O)c1ccc(/C=C(/C(=O)NCCCNC(=O)c2ccc(-c3c4nc(c(-c5cc(S(=O)(=O)[O-])ccc5F)c5ccc([nH]5)c(-c5cc(S(=O)(=O)[O-])ccc5F)c5nc(c(-c6cc(S(=O)(=O)[O-])ccc6F)c6ccc3[nH]6)C=C5)C=C4)cc2)c2ccccc2)cc1
REMARK SMILES IDX 15 1 14 2 13 3 11 4 12 5 10 7 9 8 8 9 5 10 6 11 90 12 7 13
REMARK SMILES IDX 89 14 2 15 1 16 3 17 4 18 83 19 84 20 88 21 85 22 87 23
REMARK SMILES IDX 86 24 16 25 17 26 18 27 19 29 20 30 21 31 82 32 22 33 81 34
REMARK SMILES IDX 23 35 24 36 25 37 75 38 26 39 80 40 74 41 76 42 27 43 79 44
REMARK SMILES IDX 73 45 72 46 28 48 60 49 40 50 59 51 41 52 44 53 58 54 77 55
REMARK SMILES IDX 42 56 43 57 57 59 78 60 45 61 29 62 30 63 38 64 31 65 37 66
REMARK SMILES IDX 39 67 36 68 32 69 33 70 34 71 35 72 61 73 62 74 70 75 63 76
REMARK SMILES IDX 69 77 71 78 68 79 64 80 65 81 66 82 67 83 46 84 47 85 55 86
REMARK SMILES IDX 48 87 54 88 56 89 53 90 49 91 50 92 51 93 52 94
REMARK H PARENT 13 6 17 28 76 47 44 58
REMARK Flexibility Score: inf
ROOT
ATOM      1  C   UNL A   1      32.119  27.765  26.751  1.00  0.00     0.042 C 
ENDROOT
BRANCH   1   2
ATOM      2  C   UNL A   1      31.932  26.454  25.984  1.00  0.00     0.118 C 
BRANCH   2   3
ATOM      3  N   UNL A   1      32.253  26.627  24.578  1.00  0.00    -0.352 N 
ATOM      4  C   UNL A   1      32.795  25.826  23.623  1.00  0.00     0.251 C 
ATOM      5  O   UNL A   1      32.932  26.334  22.508  1.00  0.00    -0.269 OA
ATOM      6  H   UNL A   1      32.028  27.525  24.243  1.00  0.00     0.163 HD
BRANCH   4   7
ATOM      7  C   UNL A   1      33.137  24.370  23.848  1.00  0.00     0.047 C 
ATOM      8  C   UNL A   1      32.179  23.421  23.952  1.00  0.00     0.022 C 
BRANCH   8   9
ATOM      9  C   UNL A   1      32.313  21.950  24.066  1.00  0.00    -0.025 A 
ATOM     10  C   UNL A   1      32.698  19.170  24.089  1.00  0.00     0.067 A 
ATOM     11  C   UNL A   1      32.829  19.899  25.271  1.00  0.00     0.021 A 
ATOM     12  C   UNL A   1      32.342  19.804  22.900  1.00  0.00     0.021 A 
ATOM     13  C   UNL A   1      32.598  21.278  25.260  1.00  0.00     0.009 A 
ATOM     14  C   UNL A   1      32.153  21.190  22.894  1.00  0.00     0.009 A 
BRANCH  10  15
ATOM     15  S   UNL A   1      33.018  17.425  24.116  1.00  0.00     0.175 S 
ATOM     16  C   UNL A   1      34.712  17.309  24.626  1.00  0.00     0.163 C 
ATOM     17  O   UNL A   1      32.917  16.953  22.751  1.00  0.00    -0.224 OA
ATOM     18  O   UNL A   1      32.203  16.839  25.169  1.00  0.00    -0.224 OA
ENDBRANCH  10  15
ENDBRANCH   8   9
BRANCH   7  19
ATOM     19  C   UNL A   1      34.561  24.057  24.131  1.00  0.00    -0.013 A 
ATOM     20  C   UNL A   1      35.098  24.428  25.377  1.00  0.00     0.009 A 
ATOM     21  C   UNL A   1      35.361  23.329  23.241  1.00  0.00     0.009 A 
ATOM     22  C   UNL A   1      36.391  24.057  25.739  1.00  0.00     0.001 A 
ATOM     23  C   UNL A   1      36.655  22.945  23.612  1.00  0.00     0.001 A 
ATOM     24  C   UNL A   1      37.166  23.303  24.862  1.00  0.00     0.000 A 
ENDBRANCH   7  19
ENDBRANCH   4   7
ENDBRANCH   2   3
ENDBRANCH   1   2
BRANCH   1  25
ATOM     25  C   UNL A   1      33.489  28.413  26.542  1.00  0.00     0.118 C 
BRANCH  25  26
ATOM     26  N   UNL A   1      33.445  29.857  26.725  1.00  0.00    -0.352 N 
ATOM     27  C   UNL A   1      34.265  30.681  27.455  1.00  0.00     0.251 C 
ATOM     28  H   UNL A   1      32.713  30.312  26.251  1.00  0.00     0.163 HD
ATOM     29  O   UNL A   1      33.910  31.839  27.662  1.00  0.00    -0.269 OA
BRANCH  27  30
ATOM     30  C   UNL A   1      35.552  30.190  28.000  1.00  0.00     0.039 A 
ATOM     31  C   UNL A   1      35.592  29.741  29.323  1.00  0.00     0.014 A 
ATOM     32  C   UNL A   1      36.726  30.222  27.241  1.00  0.00     0.014 A 
ATOM     33  C   UNL A   1      36.795  29.277  29.869  1.00  0.00     0.010 A 
ATOM     34  C   UNL A   1      37.910  29.703  27.765  1.00  0.00     0.010 A 
ATOM     35  C   UNL A   1      37.959  29.229  29.086  1.00  0.00    -0.014 A 
BRANCH  35  36
ATOM     36  C   UNL A   1      39.234  28.687  29.631  1.00  0.00     0.031 A 
ATOM     37  C   UNL A   1      39.908  29.366  30.794  1.00  0.00     0.074 A 
ATOM     38  C   UNL A   1      39.817  27.630  29.032  1.00  0.00     0.049 A 
ATOM     39  N   UNL A   1      41.065  29.105  31.346  1.00  0.00    -0.248 NA
ATOM     40  C   UNL A   1      39.199  30.506  31.395  1.00  0.00     0.031 C 
ATOM     41  C   UNL A   1      39.280  26.916  27.871  1.00  0.00     0.029 A 
ATOM     42  N   UNL A   1      40.998  26.982  29.300  1.00  0.00    -0.354 N 
ATOM     43  C   UNL A   1      41.237  30.064  32.341  1.00  0.00     0.074 A 
ATOM     44  C   UNL A   1      40.082  30.934  32.285  1.00  0.00     0.031 C 
ATOM     45  C   UNL A   1      40.124  25.927  27.534  1.00  0.00     0.029 A 
ATOM     46  C   UNL A   1      41.283  25.962  28.421  1.00  0.00     0.049 A 
ATOM     47  H   UNL A   1      41.586  27.225  30.051  1.00  0.00     0.167 HD
ATOM     48  C   UNL A   1      42.258  30.195  33.225  1.00  0.00     0.034 A 
ATOM     49  C   UNL A   1      42.361  25.160  28.326  1.00  0.00     0.034 A 
ATOM     50  C   UNL A   1      43.387  29.299  33.284  1.00  0.00     0.049 A 
ATOM     51  C   UNL A   1      43.477  25.319  29.328  1.00  0.00     0.074 A 
ATOM     52  C   UNL A   1      44.433  29.292  34.192  1.00  0.00     0.029 A 
ATOM     53  N   UNL A   1      43.627  28.257  32.396  1.00  0.00    -0.354 N 
ATOM     54  N   UNL A   1      43.591  26.190  30.304  1.00  0.00    -0.248 NA
ATOM     55  C   UNL A   1      44.602  24.381  29.224  1.00  0.00     0.031 C 
ATOM     56  C   UNL A   1      45.336  28.292  33.814  1.00  0.00     0.029 A 
ATOM     57  C   UNL A   1      44.818  27.624  32.716  1.00  0.00     0.049 A 
ATOM     58  H   UNL A   1      43.037  28.007  31.650  1.00  0.00     0.167 HD
ATOM     59  C   UNL A   1      44.786  25.881  30.950  1.00  0.00     0.074 A 
ATOM     60  C   UNL A   1      45.345  24.735  30.261  1.00  0.00     0.031 C 
ATOM     61  C   UNL A   1      45.367  26.486  32.016  1.00  0.00     0.034 A 
BRANCH  48  62
ATOM     62  C   UNL A   1      42.216  31.366  34.177  1.00  0.00     0.023 A 
ATOM     63  C   UNL A   1      41.360  31.390  35.291  1.00  0.00     0.031 A 
ATOM     64  C   UNL A   1      43.048  32.481  33.964  1.00  0.00     0.131 A 
ATOM     65  C   UNL A   1      41.306  32.528  36.111  1.00  0.00     0.055 A 
ATOM     66  C   UNL A   1      43.046  33.578  34.827  1.00  0.00     0.041 A 
ATOM     67  F   UNL A   1      43.874  32.524  32.907  1.00  0.00    -0.206 F 
ATOM     68  C   UNL A   1      42.162  33.611  35.902  1.00  0.00     0.022 A 
BRANCH  65  69
ATOM     69  S   UNL A   1      40.016  32.622  37.382  1.00  0.00     0.124 S 
ATOM     70  O   UNL A   1      39.514  33.981  37.192  1.00  0.00    -0.237 OA
ATOM     71  O   UNL A   1      39.111  31.547  36.994  1.00  0.00    -0.237 OA
ATOM     72  O   UNL A   1      40.746  32.405  38.629  1.00  0.00    -0.744 OA
ENDBRANCH  65  69
ENDBRANCH  48  62
BRANCH  49  73
ATOM     73  C   UNL A   1      42.458  24.148  27.234  1.00  0.00     0.023 A 
ATOM     74  C   UNL A   1      41.868  22.881  27.363  1.00  0.00     0.031 A 
ATOM     75  C   UNL A   1      43.189  24.417  26.063  1.00  0.00     0.131 A 
ATOM     76  C   UNL A   1      42.062  21.913  26.364  1.00  0.00     0.055 A 
ATOM     77  C   UNL A   1      43.333  23.471  25.047  1.00  0.00     0.041 A 
ATOM     78  F   UNL A   1      43.769  25.616  25.884  1.00  0.00    -0.206 F 
ATOM     79  C   UNL A   1      42.780  22.204  25.202  1.00  0.00     0.022 A 
BRANCH  76  80
ATOM     80  S   UNL A   1      41.443  20.233  26.653  1.00  0.00     0.124 S 
ATOM     81  O   UNL A   1      40.037  20.481  26.950  1.00  0.00    -0.237 OA
ATOM     82  O   UNL A   1      41.725  19.586  25.376  1.00  0.00    -0.237 OA
ATOM     83  O   UNL A   1      42.247  19.764  27.779  1.00  0.00    -0.744 OA
ENDBRANCH  76  80
ENDBRANCH  49  73
BRANCH  61  84
ATOM     84  C   UNL A   1      46.651  25.883  32.531  1.00  0.00     0.023 A 
ATOM     85  C   UNL A   1      46.654  24.871  33.507  1.00  0.00     0.031 A 
ATOM     86  C   UNL A   1      47.889  26.336  32.042  1.00  0.00     0.131 A 
ATOM     87  C   UNL A   1      47.873  24.385  34.004  1.00  0.00     0.055 A 
ATOM     88  C   UNL A   1      49.098  25.806  32.497  1.00  0.00     0.041 A 
ATOM     89  F   UNL A   1      47.944  27.302  31.110  1.00  0.00    -0.206 F 
ATOM     90  C   UNL A   1      49.094  24.835  33.494  1.00  0.00     0.022 A 
BRANCH  87  91
ATOM     91  S   UNL A   1      47.845  23.219  35.393  1.00  0.00     0.124 S 
ATOM     92  O   UNL A   1      48.125  21.950  34.731  1.00  0.00    -0.237 OA
ATOM     93  O   UNL A   1      48.902  23.736  36.256  1.00  0.00    -0.237 OA
ATOM     94  O   UNL A   1      46.490  23.354  35.927  1.00  0.00    -0.744 OA
ENDBRANCH  87  91
ENDBRANCH  61  84
ENDBRANCH  35  36
ENDBRANCH  27  30
ENDBRANCH  25  26
ENDBRANCH   1  25
TORSDOF 16
ENDMDL
MODEL 3
REMARK VINA RESULT:     -12.2      2.203      7.700
REMARK SMILES CS(=O)(=O)c1ccc(/C=C(/C(=O)NCCCNC(=O)c2ccc(-c3c4nc(c(-c5cc(S(=O)(=O)[O-])ccc5F)c5ccc([nH]5)c(-c5cc(S(=O)(=O)[O-])ccc5F)c5nc(c(-c6cc(S(=O)(=O)[O-])ccc6F)c6ccc3[nH]6)C=C5)C=C4)cc2)c2ccccc2)cc1
REMARK SMILES IDX 15 1 14 2 13 3 11 4 12 5 10 7 9 8 8 9 5 10 6 11 90 12 7 13
REMARK SMILES IDX 89 14 2 15 1 16 3 17 4 18 83 19 84 20 88 21 85 22 87 23
REMARK SMILES IDX 86 24 16 25 17 26 18 27 19 29 20 30 21 31 82 32 22 33 81 34
REMARK SMILES IDX 23 35 24 36 25 37 75 38 26 39 80 40 74 41 76 42 27 43 79 44
REMARK SMILES IDX 73 45 72 46 28 48 60 49 40 50 59 51 41 52 44 53 58 54 77 55
REMARK SMILES IDX 42 56 43 57 57 59 78 60 45 61 29 62 30 63 38 64 31 65 37 66
REMARK SMILES IDX 39 67 36 68 32 69 33 70 34 71 35 72 61 73 62 74 70 75 63 76
REMARK SMILES IDX 69 77 71 78 68 79 64 80 65 81 66 82 67 83 46 84 47 85 55 86
REMARK SMILES IDX 48 87 54 88 56 89 53 90 49 91 50 92 51 93 52 94
REMARK H PARENT 13 6 17 28 76 47 44 58
REMARK Flexibility Score: inf
ROOT
ATOM      1  C   UNL A   1      35.662  22.937  24.331  1.00  0.00     0.042 C 
ENDROOT
BRANCH   1   2
ATOM      2  C   UNL A   1      34.331  23.684  24.223  1.00  0.00     0.118 C 
BRANCH   2   3
ATOM      3  N   UNL A   1      33.503  23.437  25.391  1.00  0.00    -0.352 N 
ATOM      4  C   UNL A   1      32.512  24.127  26.013  1.00  0.00     0.251 C 
ATOM      5  O   UNL A   1      32.032  23.594  27.017  1.00  0.00    -0.269 OA
ATOM      6  H   UNL A   1      33.706  22.579  25.828  1.00  0.00     0.163 HD
BRANCH   4   7
ATOM      7  C   UNL A   1      31.940  25.426  25.491  1.00  0.00     0.047 C 
ATOM      8  C   UNL A   1      31.206  25.475  24.355  1.00  0.00     0.022 C 
BRANCH   8   9
ATOM      9  C   UNL A   1      30.484  26.615  23.745  1.00  0.00    -0.025 A 
ATOM     10  C   UNL A   1      28.990  28.789  22.787  1.00  0.00     0.067 A 
ATOM     11  C   UNL A   1      30.373  28.763  22.606  1.00  0.00     0.021 A 
ATOM     12  C   UNL A   1      28.336  27.728  23.408  1.00  0.00     0.021 A 
ATOM     13  C   UNL A   1      31.106  27.659  23.051  1.00  0.00     0.009 A 
ATOM     14  C   UNL A   1      29.085  26.648  23.885  1.00  0.00     0.009 A 
BRANCH  10  15
ATOM     15  S   UNL A   1      28.079  30.210  22.237  1.00  0.00     0.175 S 
ATOM     16  C   UNL A   1      29.151  31.573  22.602  1.00  0.00     0.163 C 
ATOM     17  O   UNL A   1      26.905  30.312  23.076  1.00  0.00    -0.224 OA
ATOM     18  O   UNL A   1      27.955  30.126  20.790  1.00  0.00    -0.224 OA
ENDBRANCH  10  15
ENDBRANCH   8   9
BRANCH   7  19
ATOM     19  C   UNL A   1      32.373  26.669  26.179  1.00  0.00    -0.013 A 
ATOM     20  C   UNL A   1      33.644  27.196  25.882  1.00  0.00     0.009 A 
ATOM     21  C   UNL A   1      31.531  27.381  27.042  1.00  0.00     0.009 A 
ATOM     22  C   UNL A   1      34.053  28.419  26.410  1.00  0.00     0.001 A 
ATOM     23  C   UNL A   1      31.938  28.617  27.559  1.00  0.00     0.001 A 
ATOM     24  C   UNL A   1      33.194  29.136  27.239  1.00  0.00     0.000 A 
ENDBRANCH   7  19
ENDBRANCH   4   7
ENDBRANCH   2   3
ENDBRANCH   1   2
BRANCH   1  25
ATOM     25  C   UNL A   1      36.006  22.488  25.753  1.00  0.00     0.118 C 
BRANCH  25  26
ATOM     26  N   UNL A   1      36.885  21.328  25.764  1.00  0.00    -0.352 N 
ATOM     27  C   UNL A   1      38.252  21.256  25.862  1.00  0.00     0.251 C 
ATOM     28  H   UNL A   1      36.427  20.460  25.689  1.00  0.00     0.163 HD
ATOM     29  O   UNL A   1      38.809  20.189  25.615  1.00  0.00    -0.269 OA
BRANCH  27  30
ATOM     30  C   UNL A   1      39.055  22.441  26.244  1.00  0.00     0.039 A 
ATOM     31  C   UNL A   1      38.684  23.693  25.745  1.00  0.00     0.014 A 
ATOM     32  C   UNL A   1      40.198  22.322  27.041  1.00  0.00     0.014 A 
ATOM     33  C   UNL A   1      39.425  24.830  26.083  1.00  0.00     0.010 A 
ATOM     34  C   UNL A   1      40.900  23.463  27.427  1.00  0.00     0.010 A 
ATOM     35  C   UNL A   1      40.525  24.730  26.950  1.00  0.00    -0.014 A 
BRANCH  35  36
ATOM     36  C   UNL A   1      41.293  25.934  27.366  1.00  0.00     0.031 A 
ATOM     37  C   UNL A   1      40.630  27.008  28.188  1.00  0.00     0.074 A 
ATOM     38  C   UNL A   1      42.563  26.092  26.943  1.00  0.00     0.049 A 
ATOM     39  N   UNL A   1      41.099  28.170  28.565  1.00  0.00    -0.248 NA
ATOM     40  C   UNL A   1      39.246  26.752  28.615  1.00  0.00     0.031 C 
ATOM     41  C   UNL A   1      43.299  25.140  26.108  1.00  0.00     0.029 A 
ATOM     42  N   UNL A   1      43.456  27.117  27.139  1.00  0.00    -0.354 N 
ATOM     43  C   UNL A   1      40.062  28.796  29.250  1.00  0.00     0.074 A 
ATOM     44  C   UNL A   1      38.927  27.898  29.199  1.00  0.00     0.031 C 
ATOM     45  C   UNL A   1      44.529  25.622  25.870  1.00  0.00     0.029 A 
ATOM     46  C   UNL A   1      44.659  26.935  26.495  1.00  0.00     0.049 A 
ATOM     47  H   UNL A   1      43.255  27.908  27.688  1.00  0.00     0.167 HD
ATOM     48  C   UNL A   1      40.063  30.001  29.874  1.00  0.00     0.034 A 
ATOM     49  C   UNL A   1      45.735  27.740  26.400  1.00  0.00     0.034 A 
ATOM     50  C   UNL A   1      41.213  30.869  29.940  1.00  0.00     0.049 A 
ATOM     51  C   UNL A   1      45.715  29.069  27.112  1.00  0.00     0.074 A 
ATOM     52  C   UNL A   1      41.347  32.070  30.615  1.00  0.00     0.029 A 
ATOM     53  N   UNL A   1      42.425  30.637  29.301  1.00  0.00    -0.354 N 
ATOM     54  N   UNL A   1      44.747  29.616  27.812  1.00  0.00    -0.248 NA
ATOM     55  C   UNL A   1      46.934  29.883  27.033  1.00  0.00     0.031 C 
ATOM     56  C   UNL A   1      42.613  32.595  30.330  1.00  0.00     0.029 A 
ATOM     57  C   UNL A   1      43.298  31.687  29.539  1.00  0.00     0.049 A 
ATOM     58  H   UNL A   1      42.632  29.842  28.758  1.00  0.00     0.167 HD
ATOM     59  C   UNL A   1      45.256  30.823  28.282  1.00  0.00     0.074 A 
ATOM     60  C   UNL A   1      46.619  30.916  27.800  1.00  0.00     0.031 C 
ATOM     61  C   UNL A   1      44.653  31.769  29.046  1.00  0.00     0.034 A 
BRANCH  48  62
ATOM     62  C   UNL A   1      38.772  30.464  30.507  1.00  0.00     0.023 A 
ATOM     63  C   UNL A   1      37.788  31.150  29.774  1.00  0.00     0.031 A 
ATOM     64  C   UNL A   1      38.524  30.217  31.869  1.00  0.00     0.131 A 
ATOM     65  C   UNL A   1      36.634  31.620  30.419  1.00  0.00     0.055 A 
ATOM     66  C   UNL A   1      37.340  30.620  32.488  1.00  0.00     0.041 A 
ATOM     67  F   UNL A   1      39.434  29.583  32.625  1.00  0.00    -0.206 F 
ATOM     68  C   UNL A   1      36.391  31.338  31.765  1.00  0.00     0.022 A 
BRANCH  65  69
ATOM     69  S   UNL A   1      35.512  32.713  29.504  1.00  0.00     0.124 S 
ATOM     70  O   UNL A   1      34.322  32.690  30.352  1.00  0.00    -0.237 OA
ATOM     71  O   UNL A   1      36.250  33.970  29.474  1.00  0.00    -0.237 OA
ATOM     72  O   UNL A   1      35.361  32.046  28.212  1.00  0.00    -0.744 OA
ENDBRANCH  65  69
ENDBRANCH  48  62
BRANCH  49  73
ATOM     73  C   UNL A   1      46.917  27.331  25.585  1.00  0.00     0.023 A 
ATOM     74  C   UNL A   1      47.100  27.812  24.279  1.00  0.00     0.031 A 
ATOM     75  C   UNL A   1      47.855  26.412  26.086  1.00  0.00     0.131 A 
ATOM     76  C   UNL A   1      48.165  27.331  23.500  1.00  0.00     0.055 A 
ATOM     77  C   UNL A   1      48.944  25.979  25.328  1.00  0.00     0.041 A 
ATOM     78  F   UNL A   1      47.732  25.925  27.333  1.00  0.00    -0.206 F 
ATOM     79  C   UNL A   1      49.095  26.428  24.020  1.00  0.00     0.022 A 
BRANCH  76  80
ATOM     80  S   UNL A   1      48.261  27.831  21.759  1.00  0.00     0.124 S 
ATOM     81  O   UNL A   1      46.942  28.414  21.544  1.00  0.00    -0.237 OA
ATOM     82  O   UNL A   1      49.381  28.766  21.776  1.00  0.00    -0.237 OA
ATOM     83  O   UNL A   1      48.511  26.574  21.059  1.00  0.00    -0.744 OA
ENDBRANCH  76  80
ENDBRANCH  49  73
BRANCH  61  84
ATOM     84  C   UNL A   1      45.487  32.960  29.447  1.00  0.00     0.023 A 
ATOM     85  C   UNL A   1      45.522  34.134  28.674  1.00  0.00     0.031 A 
ATOM     86  C   UNL A   1      46.267  32.914  30.618  1.00  0.00     0.131 A 
ATOM     87  C   UNL A   1      46.363  35.192  29.051  1.00  0.00     0.055 A 
ATOM     88  C   UNL A   1      47.055  33.994  31.019  1.00  0.00     0.041 A 
ATOM     89  F   UNL A   1      46.272  31.817  31.392  1.00  0.00    -0.206 F 
ATOM     90  C   UNL A   1      47.117  35.136  30.226  1.00  0.00     0.022 A 
BRANCH  87  91
ATOM     91  S   UNL A   1      46.529  36.612  27.934  1.00  0.00     0.124 S 
ATOM     92  O   UNL A   1      47.470  37.460  28.658  1.00  0.00    -0.237 OA
ATOM     93  O   UNL A   1      47.035  35.993  26.713  1.00  0.00    -0.237 OA
ATOM     94  O   UNL A   1      45.167  37.137  27.842  1.00  0.00    -0.744 OA
ENDBRANCH  87  91
ENDBRANCH  61  84
ENDBRANCH  35  36
ENDBRANCH  27  30
ENDBRANCH  25  26
ENDBRANCH   1  25
TORSDOF 16
ENDMDL
