MODEL 1
REMARK VINA RESULT:     -13.0      0.000      0.000
REMARK SMILES O=C(NCCCNC(=O)[C@@H](Cc1ccccc1)N1C(=O)/C(=C/c2ccncc2)SC1=S)c1ccc(-c2c3nc(c(-c4cc(S(=O)(=O)[O-])ccc4F)c4ccc([nH]4)c(-c4cc(S(=O)(=O)[O-])ccc4F)c4nc(c(-c5cc(S(=O)(=O)[O-])ccc5F)c5ccc2[nH]5)C=C4)C=C3)cc1
REMARK SMILES IDX 4 1 3 2 1 3 2 4 32 6 33 7 94 8 34 9 93 10 35 11 36 12 37 13
REMARK SMILES IDX 87 14 38 15 92 16 86 17 88 18 39 19 91 20 85 21 84 22 40 24
REMARK SMILES IDX 72 25 52 26 71 27 53 28 56 29 70 30 89 31 54 32 55 33 69 35
REMARK SMILES IDX 90 36 57 37 41 38 42 39 50 40 43 41 49 42 51 43 48 44 44 45
REMARK SMILES IDX 45 46 46 47 47 48 73 49 74 50 82 51 75 52 81 53 83 54 80 55
REMARK SMILES IDX 76 56 77 57 78 58 79 59 58 60 59 61 67 62 60 63 66 64 68 65
REMARK SMILES IDX 65 66 61 67 62 68 63 69 64 70 5 71 6 72 7 73 8 74 9 76 10 77
REMARK SMILES IDX 11 78 12 79 13 80 17 81 14 82 16 83 15 84 18 85 19 86 30 87
REMARK SMILES IDX 20 88 21 89 29 90 31 91 22 92 23 93 24 94 28 95 25 96 27 97
REMARK SMILES IDX 26 98
REMARK H PARENT 3 5 88 23 56 34 7 75
REMARK Flexibility Score: inf
ROOT
ATOM      1  C   UNL A   1      32.611  32.400  27.260  1.00  0.00     0.118 C 
ENDROOT
BRANCH   1   2
ATOM      2  N   UNL A   1      32.541  33.817  27.582  1.00  0.00    -0.352 N 
ATOM      3  O   UNL A   1      32.720  35.709  28.755  1.00  0.00    -0.269 OA
ATOM      4  C   UNL A   1      33.149  34.571  28.560  1.00  0.00     0.251 C 
ATOM      5  H   UNL A   1      31.948  34.333  26.990  1.00  0.00     0.163 HD
BRANCH   4   6
ATOM      6  C   UNL A   1      34.283  34.069  29.381  1.00  0.00     0.039 A 
ATOM      7  C   UNL A   1      34.100  33.198  30.451  1.00  0.00     0.014 A 
ATOM      8  C   UNL A   1      35.594  34.384  28.991  1.00  0.00     0.014 A 
ATOM      9  C   UNL A   1      35.184  32.760  31.207  1.00  0.00     0.010 A 
ATOM     10  C   UNL A   1      36.692  33.834  29.668  1.00  0.00     0.010 A 
ATOM     11  C   UNL A   1      36.496  33.020  30.793  1.00  0.00    -0.014 A 
BRANCH  11  12
ATOM     12  C   UNL A   1      37.616  32.328  31.489  1.00  0.00     0.031 A 
ATOM     13  C   UNL A   1      38.380  31.214  30.831  1.00  0.00     0.074 A 
ATOM     14  C   UNL A   1      37.967  32.751  32.723  1.00  0.00     0.049 A 
ATOM     15  N   UNL A   1      39.398  30.532  31.290  1.00  0.00    -0.248 NA
ATOM     16  C   UNL A   1      37.937  30.804  29.491  1.00  0.00     0.031 C 
ATOM     17  C   UNL A   1      37.285  33.814  33.471  1.00  0.00     0.029 A 
ATOM     18  N   UNL A   1      38.991  32.374  33.554  1.00  0.00    -0.354 N 
ATOM     19  C   UNL A   1      39.709  29.598  30.306  1.00  0.00     0.074 A 
ATOM     20  C   UNL A   1      38.746  29.785  29.239  1.00  0.00     0.031 C 
ATOM     21  C   UNL A   1      37.949  34.050  34.611  1.00  0.00     0.029 A 
ATOM     22  C   UNL A   1      39.050  33.102  34.722  1.00  0.00     0.049 A 
ATOM     23  H   UNL A   1      39.623  31.652  33.336  1.00  0.00     0.167 HD
ATOM     24  C   UNL A   1      40.708  28.681  30.294  1.00  0.00     0.034 A 
ATOM     25  C   UNL A   1      39.878  33.006  35.779  1.00  0.00     0.034 A 
ATOM     26  C   UNL A   1      41.661  28.513  31.368  1.00  0.00     0.049 A 
ATOM     27  C   UNL A   1      40.957  31.959  35.753  1.00  0.00     0.074 A 
ATOM     28  C   UNL A   1      42.728  27.633  31.446  1.00  0.00     0.029 A 
ATOM     29  N   UNL A   1      41.659  29.234  32.557  1.00  0.00    -0.354 N 
ATOM     30  N   UNL A   1      41.242  31.093  34.807  1.00  0.00    -0.248 NA
ATOM     31  C   UNL A   1      41.821  31.871  36.935  1.00  0.00     0.031 C 
ATOM     32  C   UNL A   1      43.326  27.776  32.703  1.00  0.00     0.029 A 
ATOM     33  C   UNL A   1      42.685  28.797  33.385  1.00  0.00     0.049 A 
ATOM     34  H   UNL A   1      41.022  29.951  32.780  1.00  0.00     0.167 HD
ATOM     35  C   UNL A   1      42.329  30.366  35.277  1.00  0.00     0.074 A 
ATOM     36  C   UNL A   1      42.664  30.913  36.577  1.00  0.00     0.031 C 
ATOM     37  C   UNL A   1      42.991  29.338  34.688  1.00  0.00     0.034 A 
BRANCH  24  38
ATOM     38  C   UNL A   1      40.790  27.757  29.101  1.00  0.00     0.023 A 
ATOM     39  C   UNL A   1      41.730  27.952  28.074  1.00  0.00     0.031 A 
ATOM     40  C   UNL A   1      39.895  26.678  28.977  1.00  0.00     0.131 A 
ATOM     41  C   UNL A   1      41.709  27.127  26.939  1.00  0.00     0.055 A 
ATOM     42  C   UNL A   1      39.931  25.813  27.880  1.00  0.00     0.041 A 
ATOM     43  F   UNL A   1      38.962  26.452  29.915  1.00  0.00    -0.206 F 
ATOM     44  C   UNL A   1      40.832  26.044  26.846  1.00  0.00     0.022 A 
BRANCH  41  45
ATOM     45  S   UNL A   1      42.748  27.577  25.523  1.00  0.00     0.124 S 
ATOM     46  O   UNL A   1      42.054  28.756  25.010  1.00  0.00    -0.237 OA
ATOM     47  O   UNL A   1      44.044  27.818  26.146  1.00  0.00    -0.237 OA
ATOM     48  O   UNL A   1      42.680  26.400  24.658  1.00  0.00    -0.744 OA
ENDBRANCH  41  45
ENDBRANCH  24  38
BRANCH  25  49
ATOM     49  C   UNL A   1      39.694  33.893  36.964  1.00  0.00     0.023 A 
ATOM     50  C   UNL A   1      39.094  33.422  38.142  1.00  0.00     0.031 A 
ATOM     51  C   UNL A   1      40.101  35.240  36.924  1.00  0.00     0.131 A 
ATOM     52  C   UNL A   1      38.885  34.298  39.218  1.00  0.00     0.055 A 
ATOM     53  C   UNL A   1      39.942  36.092  38.017  1.00  0.00     0.041 A 
ATOM     54  F   UNL A   1      40.683  35.741  35.823  1.00  0.00    -0.206 F 
ATOM     55  C   UNL A   1      39.319  35.626  39.170  1.00  0.00     0.022 A 
BRANCH  52  56
ATOM     56  S   UNL A   1      37.966  33.700  40.663  1.00  0.00     0.124 S 
ATOM     57  O   UNL A   1      36.841  33.014  40.037  1.00  0.00    -0.237 OA
ATOM     58  O   UNL A   1      38.954  32.847  41.317  1.00  0.00    -0.237 OA
ATOM     59  O   UNL A   1      37.628  34.924  41.384  1.00  0.00    -0.744 OA
ENDBRANCH  52  56
ENDBRANCH  25  49
BRANCH  37  60
ATOM     60  C   UNL A   1      44.163  28.767  35.447  1.00  0.00     0.023 A 
ATOM     61  C   UNL A   1      44.008  27.700  36.348  1.00  0.00     0.031 A 
ATOM     62  C   UNL A   1      45.445  29.320  35.287  1.00  0.00     0.131 A 
ATOM     63  C   UNL A   1      45.106  27.257  37.102  1.00  0.00     0.055 A 
ATOM     64  C   UNL A   1      46.546  28.836  35.996  1.00  0.00     0.041 A 
ATOM     65  F   UNL A   1      45.648  30.345  34.443  1.00  0.00    -0.206 F 
ATOM     66  C   UNL A   1      46.377  27.808  36.920  1.00  0.00     0.022 A 
BRANCH  63  67
ATOM     67  S   UNL A   1      44.831  26.015  38.394  1.00  0.00     0.124 S 
ATOM     68  O   UNL A   1      44.367  24.868  37.619  1.00  0.00    -0.237 OA
ATOM     69  O   UNL A   1      46.156  25.887  38.992  1.00  0.00    -0.237 OA
ATOM     70  O   UNL A   1      43.821  26.632  39.253  1.00  0.00    -0.744 OA
ENDBRANCH  63  67
ENDBRANCH  37  60
ENDBRANCH  11  12
ENDBRANCH   4   6
ENDBRANCH   1   2
BRANCH   1  71
ATOM     71  C   UNL A   1      31.380  31.927  26.516  1.00  0.00     0.042 C 
BRANCH  71  72
ATOM     72  C   UNL A   1      31.463  30.466  26.130  1.00  0.00     0.117 C 
BRANCH  72  73
ATOM     73  N   UNL A   1      32.168  30.254  24.889  1.00  0.00    -0.354 N 
ATOM     74  C   UNL A   1      32.051  29.232  24.002  1.00  0.00     0.243 C 
ATOM     75  H   UNL A   1      32.824  30.949  24.653  1.00  0.00     0.163 HD
ATOM     76  O   UNL A   1      32.828  29.258  23.041  1.00  0.00    -0.273 OA
BRANCH  74  77
ATOM     77  C   UNL A   1      30.954  28.143  24.100  1.00  0.00     0.185 C 
BRANCH  77  78
ATOM     78  C   UNL A   1      29.616  28.369  23.344  1.00  0.00     0.071 C 
BRANCH  78  79
ATOM     79  C   UNL A   1      29.118  29.704  22.858  1.00  0.00    -0.045 A 
ATOM     80  C   UNL A   1      29.218  30.082  21.510  1.00  0.00     0.004 A 
ATOM     81  C   UNL A   1      28.636  30.653  23.766  1.00  0.00     0.004 A 
ATOM     82  C   UNL A   1      28.744  31.328  21.078  1.00  0.00     0.000 A 
ATOM     83  C   UNL A   1      28.112  31.871  23.330  1.00  0.00     0.000 A 
ATOM     84  C   UNL A   1      28.155  32.206  21.983  1.00  0.00     0.000 A 
ENDBRANCH  78  79
ENDBRANCH  77  78
BRANCH  77  85
ATOM     85  N   UNL A   1      31.552  26.799  24.380  1.00  0.00    -0.280 N 
ATOM     86  C   UNL A   1      31.404  26.304  25.690  1.00  0.00     0.266 C 
ATOM     87  C   UNL A   1      32.353  25.994  23.595  1.00  0.00     0.149 C 
ATOM     88  O   UNL A   1      30.678  26.729  26.570  1.00  0.00    -0.268 OA
ATOM     89  C   UNL A   1      32.207  25.057  25.848  1.00  0.00     0.081 C 
ATOM     90  S   UNL A   1      33.397  25.038  24.627  1.00  0.00    -0.054 SA
ATOM     91  S   UNL A   1      32.427  25.656  21.973  1.00  0.00    -0.052 S 
ATOM     92  C   UNL A   1      31.824  24.038  26.631  1.00  0.00     0.029 C 
BRANCH  92  93
ATOM     93  C   UNL A   1      32.281  22.645  26.451  1.00  0.00    -0.021 A 
ATOM     94  C   UNL A   1      33.352  22.080  27.145  1.00  0.00     0.028 A 
ATOM     95  C   UNL A   1      31.673  21.890  25.445  1.00  0.00     0.028 A 
ATOM     96  C   UNL A   1      33.822  20.838  26.748  1.00  0.00     0.111 A 
ATOM     97  C   UNL A   1      32.196  20.643  25.141  1.00  0.00     0.111 A 
ATOM     98  N   UNL A   1      33.264  20.103  25.763  1.00  0.00    -0.265 NA
ENDBRANCH  92  93
ENDBRANCH  77  85
ENDBRANCH  74  77
ENDBRANCH  72  73
ENDBRANCH  71  72
ENDBRANCH   1  71
TORSDOF 17
ENDMDL
MODEL 2
REMARK VINA RESULT:     -12.9      2.305      7.657
REMARK SMILES O=C(NCCCNC(=O)[C@@H](Cc1ccccc1)N1C(=O)/C(=C/c2ccncc2)SC1=S)c1ccc(-c2c3nc(c(-c4cc(S(=O)(=O)[O-])ccc4F)c4ccc([nH]4)c(-c4cc(S(=O)(=O)[O-])ccc4F)c4nc(c(-c5cc(S(=O)(=O)[O-])ccc5F)c5ccc2[nH]5)C=C4)C=C3)cc1
REMARK SMILES IDX 4 1 3 2 1 3 2 4 32 6 33 7 94 8 34 9 93 10 35 11 36 12 37 13
REMARK SMILES IDX 87 14 38 15 92 16 86 17 88 18 39 19 91 20 85 21 84 22 40 24
REMARK SMILES IDX 72 25 52 26 71 27 53 28 56 29 70 30 89 31 54 32 55 33 69 35
REMARK SMILES IDX 90 36 57 37 41 38 42 39 50 40 43 41 49 42 51 43 48 44 44 45
REMARK SMILES IDX 45 46 46 47 47 48 73 49 74 50 82 51 75 52 81 53 83 54 80 55
REMARK SMILES IDX 76 56 77 57 78 58 79 59 58 60 59 61 67 62 60 63 66 64 68 65
REMARK SMILES IDX 65 66 61 67 62 68 63 69 64 70 5 71 6 72 7 73 8 74 9 76 10 77
REMARK SMILES IDX 11 78 12 79 13 80 17 81 14 82 16 83 15 84 18 85 19 86 30 87
REMARK SMILES IDX 20 88 21 89 29 90 31 91 22 92 23 93 24 94 28 95 25 96 27 97
REMARK SMILES IDX 26 98
REMARK H PARENT 3 5 88 23 56 34 7 75
REMARK Flexibility Score: inf
ROOT
ATOM      1  C   UNL A   1      31.776  31.247  27.060  1.00  0.00     0.118 C 
ENDROOT
BRANCH   1   2
ATOM      2  N   UNL A   1      32.096  32.666  27.019  1.00  0.00    -0.352 N 
ATOM      3  O   UNL A   1      33.041  34.615  27.561  1.00  0.00    -0.269 OA
ATOM      4  C   UNL A   1      33.147  33.389  27.536  1.00  0.00     0.251 C 
ATOM      5  H   UNL A   1      31.438  33.211  26.531  1.00  0.00     0.163 HD
BRANCH   4   6
ATOM      6  C   UNL A   1      34.385  32.753  28.061  1.00  0.00     0.039 A 
ATOM      7  C   UNL A   1      35.581  33.453  28.199  1.00  0.00     0.014 A 
ATOM      8  C   UNL A   1      34.319  31.439  28.549  1.00  0.00     0.014 A 
ATOM      9  C   UNL A   1      36.725  32.822  28.681  1.00  0.00     0.010 A 
ATOM     10  C   UNL A   1      35.434  30.846  29.159  1.00  0.00     0.010 A 
ATOM     11  C   UNL A   1      36.654  31.533  29.223  1.00  0.00    -0.014 A 
BRANCH  11  12
ATOM     12  C   UNL A   1      37.841  30.997  29.947  1.00  0.00     0.031 A 
ATOM     13  C   UNL A   1      38.123  31.370  31.375  1.00  0.00     0.074 A 
ATOM     14  C   UNL A   1      38.648  30.125  29.304  1.00  0.00     0.049 A 
ATOM     15  N   UNL A   1      39.095  30.966  32.154  1.00  0.00    -0.248 NA
ATOM     16  C   UNL A   1      37.205  32.327  32.007  1.00  0.00     0.031 C 
ATOM     17  C   UNL A   1      38.484  29.702  27.908  1.00  0.00     0.029 A 
ATOM     18  N   UNL A   1      39.740  29.414  29.732  1.00  0.00    -0.354 N 
ATOM     19  C   UNL A   1      38.919  31.632  33.362  1.00  0.00     0.074 A 
ATOM     20  C   UNL A   1      37.764  32.491  33.198  1.00  0.00     0.031 C 
ATOM     21  C   UNL A   1      39.390  28.758  27.621  1.00  0.00     0.029 A 
ATOM     22  C   UNL A   1      40.257  28.569  28.777  1.00  0.00     0.049 A 
ATOM     23  H   UNL A   1      40.117  29.500  30.637  1.00  0.00     0.167 HD
ATOM     24  C   UNL A   1      39.650  31.528  34.501  1.00  0.00     0.034 A 
ATOM     25  C   UNL A   1      41.325  27.748  28.810  1.00  0.00     0.034 A 
ATOM     26  C   UNL A   1      40.797  30.662  34.646  1.00  0.00     0.049 A 
ATOM     27  C   UNL A   1      42.135  27.676  30.075  1.00  0.00     0.074 A 
ATOM     28  C   UNL A   1      41.591  30.460  35.762  1.00  0.00     0.029 A 
ATOM     29  N   UNL A   1      41.323  29.858  33.640  1.00  0.00    -0.354 N 
ATOM     30  N   UNL A   1      41.945  28.306  31.212  1.00  0.00    -0.248 NA
ATOM     31  C   UNL A   1      43.304  26.790  30.061  1.00  0.00     0.031 C 
ATOM     32  C   UNL A   1      42.630  29.590  35.413  1.00  0.00     0.029 A 
ATOM     33  C   UNL A   1      42.446  29.185  34.102  1.00  0.00     0.049 A 
ATOM     34  H   UNL A   1      40.951  29.777  32.732  1.00  0.00     0.167 HD
ATOM     35  C   UNL A   1      42.966  27.880  32.053  1.00  0.00     0.074 A 
ATOM     36  C   UNL A   1      43.750  26.920  31.302  1.00  0.00     0.031 C 
ATOM     37  C   UNL A   1      43.231  28.249  33.332  1.00  0.00     0.034 A 
BRANCH  24  38
ATOM     38  C   UNL A   1      39.255  32.409  35.663  1.00  0.00     0.023 A 
ATOM     39  C   UNL A   1      39.666  33.751  35.751  1.00  0.00     0.031 A 
ATOM     40  C   UNL A   1      38.474  31.892  36.713  1.00  0.00     0.131 A 
ATOM     41  C   UNL A   1      39.356  34.506  36.893  1.00  0.00     0.055 A 
ATOM     42  C   UNL A   1      38.103  32.672  37.811  1.00  0.00     0.041 A 
ATOM     43  F   UNL A   1      38.067  30.613  36.696  1.00  0.00    -0.206 F 
ATOM     44  C   UNL A   1      38.557  33.983  37.912  1.00  0.00     0.022 A 
BRANCH  41  45
ATOM     45  S   UNL A   1      40.132  36.133  37.092  1.00  0.00     0.124 S 
ATOM     46  O   UNL A   1      41.509  35.765  37.417  1.00  0.00    -0.237 OA
ATOM     47  O   UNL A   1      39.926  36.744  35.784  1.00  0.00    -0.237 OA
ATOM     48  O   UNL A   1      39.382  36.740  38.190  1.00  0.00    -0.744 OA
ENDBRANCH  41  45
ENDBRANCH  24  38
BRANCH  25  49
ATOM     49  C   UNL A   1      41.713  26.966  27.601  1.00  0.00     0.023 A 
ATOM     50  C   UNL A   1      41.494  25.581  27.527  1.00  0.00     0.031 A 
ATOM     51  C   UNL A   1      42.331  27.595  26.505  1.00  0.00     0.131 A 
ATOM     52  C   UNL A   1      41.922  24.866  26.398  1.00  0.00     0.055 A 
ATOM     53  C   UNL A   1      42.704  26.889  25.361  1.00  0.00     0.041 A 
ATOM     54  F   UNL A   1      42.561  28.918  26.522  1.00  0.00    -0.206 F 
ATOM     55  C   UNL A   1      42.511  25.512  25.308  1.00  0.00     0.022 A 
BRANCH  52  56
ATOM     56  S   UNL A   1      41.768  23.058  26.402  1.00  0.00     0.124 S 
ATOM     57  O   UNL A   1      42.448  22.699  25.163  1.00  0.00    -0.237 OA
ATOM     58  O   UNL A   1      42.455  22.700  27.639  1.00  0.00    -0.237 OA
ATOM     59  O   UNL A   1      40.324  22.839  26.409  1.00  0.00    -0.744 OA
ENDBRANCH  52  56
ENDBRANCH  25  49
BRANCH  37  60
ATOM     60  C   UNL A   1      44.408  27.579  33.997  1.00  0.00     0.023 A 
ATOM     61  C   UNL A   1      44.253  26.418  34.774  1.00  0.00     0.031 A 
ATOM     62  C   UNL A   1      45.695  28.129  33.876  1.00  0.00     0.131 A 
ATOM     63  C   UNL A   1      45.358  25.877  35.450  1.00  0.00     0.055 A 
ATOM     64  C   UNL A   1      46.802  27.553  34.501  1.00  0.00     0.041 A 
ATOM     65  F   UNL A   1      45.898  29.241  33.149  1.00  0.00    -0.206 F 
ATOM     66  C   UNL A   1      46.634  26.429  35.305  1.00  0.00     0.022 A 
BRANCH  63  67
ATOM     67  S   UNL A   1      45.088  24.500  36.597  1.00  0.00     0.124 S 
ATOM     68  O   UNL A   1      43.747  24.783  37.101  1.00  0.00    -0.237 OA
ATOM     69  O   UNL A   1      45.209  23.337  35.725  1.00  0.00    -0.237 OA
ATOM     70  O   UNL A   1      46.163  24.655  37.577  1.00  0.00    -0.744 OA
ENDBRANCH  63  67
ENDBRANCH  37  60
ENDBRANCH  11  12
ENDBRANCH   4   6
ENDBRANCH   1   2
BRANCH   1  71
ATOM     71  C   UNL A   1      31.928  30.593  25.703  1.00  0.00     0.042 C 
BRANCH  71  72
ATOM     72  C   UNL A   1      32.939  29.466  25.714  1.00  0.00     0.117 C 
BRANCH  72  73
ATOM     73  N   UNL A   1      33.611  29.307  24.448  1.00  0.00    -0.354 N 
ATOM     74  C   UNL A   1      33.232  28.583  23.362  1.00  0.00     0.243 C 
ATOM     75  H   UNL A   1      34.464  29.791  24.358  1.00  0.00     0.163 HD
ATOM     76  O   UNL A   1      34.031  28.561  22.419  1.00  0.00    -0.273 OA
BRANCH  74  77
ATOM     77  C   UNL A   1      31.846  27.903  23.237  1.00  0.00     0.185 C 
BRANCH  77  78
ATOM     78  C   UNL A   1      30.802  28.521  22.268  1.00  0.00     0.071 C 
BRANCH  78  79
ATOM     79  C   UNL A   1      29.570  29.274  22.697  1.00  0.00    -0.045 A 
ATOM     80  C   UNL A   1      28.337  28.629  22.877  1.00  0.00     0.004 A 
ATOM     81  C   UNL A   1      29.601  30.666  22.824  1.00  0.00     0.004 A 
ATOM     82  C   UNL A   1      27.204  29.348  23.280  1.00  0.00     0.000 A 
ATOM     83  C   UNL A   1      28.489  31.377  23.280  1.00  0.00     0.000 A 
ATOM     84  C   UNL A   1      27.291  30.716  23.519  1.00  0.00     0.000 A 
ENDBRANCH  78  79
ENDBRANCH  77  78
BRANCH  77  85
ATOM     85  N   UNL A   1      31.927  26.447  23.577  1.00  0.00    -0.280 N 
ATOM     86  C   UNL A   1      32.232  25.568  22.520  1.00  0.00     0.266 C 
ATOM     87  C   UNL A   1      31.623  25.783  24.749  1.00  0.00     0.149 C 
ATOM     88  O   UNL A   1      32.641  25.852  21.409  1.00  0.00    -0.268 OA
ATOM     89  C   UNL A   1      32.091  24.157  22.984  1.00  0.00     0.081 C 
ATOM     90  S   UNL A   1      31.097  24.155  24.370  1.00  0.00    -0.054 SA
ATOM     91  S   UNL A   1      31.782  26.137  26.361  1.00  0.00    -0.052 S 
ATOM     92  C   UNL A   1      32.868  23.162  22.535  1.00  0.00     0.029 C 
BRANCH  92  93
ATOM     93  C   UNL A   1      33.115  21.910  23.281  1.00  0.00    -0.021 A 
ATOM     94  C   UNL A   1      32.298  20.782  23.201  1.00  0.00     0.028 A 
ATOM     95  C   UNL A   1      34.165  21.903  24.202  1.00  0.00     0.028 A 
ATOM     96  C   UNL A   1      32.507  19.745  24.097  1.00  0.00     0.111 A 
ATOM     97  C   UNL A   1      34.312  20.805  25.034  1.00  0.00     0.111 A 
ATOM     98  N   UNL A   1      33.500  19.729  25.010  1.00  0.00    -0.265 NA
ENDBRANCH  92  93
ENDBRANCH  77  85
ENDBRANCH  74  77
ENDBRANCH  72  73
ENDBRANCH  71  72
ENDBRANCH   1  71
TORSDOF 17
ENDMDL
MODEL 3
REMARK VINA RESULT:     -12.8      1.049      1.545
REMARK SMILES O=C(NCCCNC(=O)[C@@H](Cc1ccccc1)N1C(=O)/C(=C/c2ccncc2)SC1=S)c1ccc(-c2c3nc(c(-c4cc(S(=O)(=O)[O-])ccc4F)c4ccc([nH]4)c(-c4cc(S(=O)(=O)[O-])ccc4F)c4nc(c(-c5cc(S(=O)(=O)[O-])ccc5F)c5ccc2[nH]5)C=C4)C=C3)cc1
REMARK SMILES IDX 4 1 3 2 1 3 2 4 32 6 33 7 94 8 34 9 93 10 35 11 36 12 37 13
REMARK SMILES IDX 87 14 38 15 92 16 86 17 88 18 39 19 91 20 85 21 84 22 40 24
REMARK SMILES IDX 72 25 52 26 71 27 53 28 56 29 70 30 89 31 54 32 55 33 69 35
REMARK SMILES IDX 90 36 57 37 41 38 42 39 50 40 43 41 49 42 51 43 48 44 44 45
REMARK SMILES IDX 45 46 46 47 47 48 73 49 74 50 82 51 75 52 81 53 83 54 80 55
REMARK SMILES IDX 76 56 77 57 78 58 79 59 58 60 59 61 67 62 60 63 66 64 68 65
REMARK SMILES IDX 65 66 61 67 62 68 63 69 64 70 5 71 6 72 7 73 8 74 9 76 10 77
REMARK SMILES IDX 11 78 12 79 13 80 17 81 14 82 16 83 15 84 18 85 19 86 30 87
REMARK SMILES IDX 20 88 21 89 29 90 31 91 22 92 23 93 24 94 28 95 25 96 27 97
REMARK SMILES IDX 26 98
REMARK H PARENT 3 5 88 23 56 34 7 75
REMARK Flexibility Score: inf
ROOT
ATOM      1  C   UNL A   1      32.710  31.916  27.131  1.00  0.00     0.118 C 
ENDROOT
BRANCH   1   2
ATOM      2  N   UNL A   1      32.635  33.344  27.399  1.00  0.00    -0.352 N 
ATOM      3  O   UNL A   1      32.805  35.280  28.499  1.00  0.00    -0.269 OA
ATOM      4  C   UNL A   1      33.237  34.137  28.349  1.00  0.00     0.251 C 
ATOM      5  H   UNL A   1      32.043  33.836  26.785  1.00  0.00     0.163 HD
BRANCH   4   6
ATOM      6  C   UNL A   1      34.370  33.669  29.193  1.00  0.00     0.039 A 
ATOM      7  C   UNL A   1      34.206  32.724  30.202  1.00  0.00     0.014 A 
ATOM      8  C   UNL A   1      35.669  34.102  28.884  1.00  0.00     0.014 A 
ATOM      9  C   UNL A   1      35.286  32.320  30.982  1.00  0.00     0.010 A 
ATOM     10  C   UNL A   1      36.775  33.592  29.581  1.00  0.00     0.010 A 
ATOM     11  C   UNL A   1      36.592  32.700  30.646  1.00  0.00    -0.014 A 
BRANCH  11  12
ATOM     12  C   UNL A   1      37.729  32.049  31.354  1.00  0.00     0.031 A 
ATOM     13  C   UNL A   1      38.547  30.972  30.700  1.00  0.00     0.074 A 
ATOM     14  C   UNL A   1      38.045  32.478  32.595  1.00  0.00     0.049 A 
ATOM     15  N   UNL A   1      39.586  30.329  31.169  1.00  0.00    -0.248 NA
ATOM     16  C   UNL A   1      38.141  30.553  29.351  1.00  0.00     0.031 C 
ATOM     17  C   UNL A   1      37.310  33.507  33.341  1.00  0.00     0.029 A 
ATOM     18  N   UNL A   1      39.072  32.138  33.439  1.00  0.00    -0.354 N 
ATOM     19  C   UNL A   1      39.949  29.416  30.184  1.00  0.00     0.074 A 
ATOM     20  C   UNL A   1      38.994  29.570  29.105  1.00  0.00     0.031 C 
ATOM     21  C   UNL A   1      37.947  33.763  34.491  1.00  0.00     0.029 A 
ATOM     22  C   UNL A   1      39.084  32.859  34.612  1.00  0.00     0.049 A 
ATOM     23  H   UNL A   1      39.736  31.444  33.226  1.00  0.00     0.167 HD
ATOM     24  C   UNL A   1      40.986  28.541  30.181  1.00  0.00     0.034 A 
ATOM     25  C   UNL A   1      39.900  32.790  35.681  1.00  0.00     0.034 A 
ATOM     26  C   UNL A   1      41.929  28.404  31.267  1.00  0.00     0.049 A 
ATOM     27  C   UNL A   1      41.022  31.788  35.664  1.00  0.00     0.074 A 
ATOM     28  C   UNL A   1      43.030  27.569  31.355  1.00  0.00     0.029 A 
ATOM     29  N   UNL A   1      41.881  29.117  32.461  1.00  0.00    -0.354 N 
ATOM     30  N   UNL A   1      41.356  30.942  34.716  1.00  0.00    -0.248 NA
ATOM     31  C   UNL A   1      41.872  31.728  36.857  1.00  0.00     0.031 C 
ATOM     32  C   UNL A   1      43.604  27.727  32.622  1.00  0.00     0.029 A 
ATOM     33  C   UNL A   1      42.911  28.717  33.300  1.00  0.00     0.049 A 
ATOM     34  H   UNL A   1      41.212  29.806  32.679  1.00  0.00     0.167 HD
ATOM     35  C   UNL A   1      42.465  30.256  35.198  1.00  0.00     0.074 A 
ATOM     36  C   UNL A   1      42.759  30.808  36.505  1.00  0.00     0.031 C 
ATOM     37  C   UNL A   1      43.177  29.261  34.611  1.00  0.00     0.034 A 
BRANCH  24  38
ATOM     38  C   UNL A   1      41.122  27.629  28.984  1.00  0.00     0.023 A 
ATOM     39  C   UNL A   1      42.105  27.837  28.000  1.00  0.00     0.031 A 
ATOM     40  C   UNL A   1      40.238  26.548  28.810  1.00  0.00     0.131 A 
ATOM     41  C   UNL A   1      42.136  27.023  26.857  1.00  0.00     0.055 A 
ATOM     42  C   UNL A   1      40.324  25.694  27.708  1.00  0.00     0.041 A 
ATOM     43  F   UNL A   1      39.266  26.310  29.705  1.00  0.00    -0.206 F 
ATOM     44  C   UNL A   1      41.267  25.939  26.716  1.00  0.00     0.022 A 
BRANCH  41  45
ATOM     45  S   UNL A   1      43.233  27.491  25.491  1.00  0.00     0.124 S 
ATOM     46  O   UNL A   1      42.304  28.156  24.580  1.00  0.00    -0.237 OA
ATOM     47  O   UNL A   1      44.209  28.352  26.150  1.00  0.00    -0.237 OA
ATOM     48  O   UNL A   1      43.752  26.211  25.013  1.00  0.00    -0.744 OA
ENDBRANCH  41  45
ENDBRANCH  24  38
BRANCH  25  49
ATOM     49  C   UNL A   1      39.663  33.660  36.868  1.00  0.00     0.023 A 
ATOM     50  C   UNL A   1      39.035  33.166  38.022  1.00  0.00     0.031 A 
ATOM     51  C   UNL A   1      40.047  35.015  36.855  1.00  0.00     0.131 A 
ATOM     52  C   UNL A   1      38.777  34.027  39.100  1.00  0.00     0.055 A 
ATOM     53  C   UNL A   1      39.838  35.852  37.951  1.00  0.00     0.041 A 
ATOM     54  F   UNL A   1      40.654  35.539  35.778  1.00  0.00    -0.206 F 
ATOM     55  C   UNL A   1      39.188  35.362  39.079  1.00  0.00     0.022 A 
BRANCH  52  56
ATOM     56  S   UNL A   1      37.824  33.396  40.509  1.00  0.00     0.124 S 
ATOM     57  O   UNL A   1      38.808  32.557  41.182  1.00  0.00    -0.237 OA
ATOM     58  O   UNL A   1      37.452  34.628  41.197  1.00  0.00    -0.237 OA
ATOM     59  O   UNL A   1      36.719  32.679  39.879  1.00  0.00    -0.744 OA
ENDBRANCH  52  56
ENDBRANCH  25  49
BRANCH  37  60
ATOM     60  C   UNL A   1      44.361  28.733  35.383  1.00  0.00     0.023 A 
ATOM     61  C   UNL A   1      44.221  27.713  36.341  1.00  0.00     0.031 A 
ATOM     62  C   UNL A   1      45.639  29.280  35.179  1.00  0.00     0.131 A 
ATOM     63  C   UNL A   1      45.330  27.314  37.102  1.00  0.00     0.055 A 
ATOM     64  C   UNL A   1      46.751  28.837  35.897  1.00  0.00     0.041 A 
ATOM     65  F   UNL A   1      45.827  30.260  34.279  1.00  0.00    -0.206 F 
ATOM     66  C   UNL A   1      46.596  27.858  36.875  1.00  0.00     0.022 A 
BRANCH  63  67
ATOM     67  S   UNL A   1      45.076  26.140  38.461  1.00  0.00     0.124 S 
ATOM     68  O   UNL A   1      46.369  26.176  39.138  1.00  0.00    -0.237 OA
ATOM     69  O   UNL A   1      43.960  26.738  39.186  1.00  0.00    -0.237 OA
ATOM     70  O   UNL A   1      44.770  24.885  37.777  1.00  0.00    -0.744 OA
ENDBRANCH  63  67
ENDBRANCH  37  60
ENDBRANCH  11  12
ENDBRANCH   4   6
ENDBRANCH   1   2
BRANCH   1  71
ATOM     71  C   UNL A   1      31.598  31.454  26.214  1.00  0.00     0.042 C 
BRANCH  71  72
ATOM     72  C   UNL A   1      31.748  30.003  25.809  1.00  0.00     0.117 C 
BRANCH  72  73
ATOM     73  N   UNL A   1      32.599  29.829  24.657  1.00  0.00    -0.354 N 
ATOM     74  C   UNL A   1      32.456  28.977  23.608  1.00  0.00     0.243 C 
ATOM     75  H   UNL A   1      33.393  30.410  24.627  1.00  0.00     0.163 HD
ATOM     76  O   UNL A   1      33.372  28.982  22.778  1.00  0.00    -0.273 OA
BRANCH  74  77
ATOM     77  C   UNL A   1      31.189  28.117  23.379  1.00  0.00     0.185 C 
BRANCH  77  78
ATOM     78  C   UNL A   1      30.127  28.618  22.363  1.00  0.00     0.071 C 
BRANCH  78  79
ATOM     79  C   UNL A   1      29.437  29.954  22.429  1.00  0.00    -0.045 A 
ATOM     80  C   UNL A   1      29.036  30.518  23.649  1.00  0.00     0.004 A 
ATOM     81  C   UNL A   1      29.077  30.623  21.254  1.00  0.00     0.004 A 
ATOM     82  C   UNL A   1      28.398  31.765  23.688  1.00  0.00     0.000 A 
ATOM     83  C   UNL A   1      28.493  31.890  21.292  1.00  0.00     0.000 A 
ATOM     84  C   UNL A   1      28.162  32.469  22.511  1.00  0.00     0.000 A 
ENDBRANCH  78  79
ENDBRANCH  77  78
BRANCH  77  85
ATOM     85  N   UNL A   1      31.453  26.675  23.686  1.00  0.00    -0.280 N 
ATOM     86  C   UNL A   1      31.720  25.835  22.588  1.00  0.00     0.266 C 
ATOM     87  C   UNL A   1      31.353  25.981  24.875  1.00  0.00     0.149 C 
ATOM     88  O   UNL A   1      31.969  26.163  21.443  1.00  0.00    -0.268 OA
ATOM     89  C   UNL A   1      31.774  24.416  23.045  1.00  0.00     0.081 C 
ATOM     90  S   UNL A   1      30.951  24.309  24.535  1.00  0.00    -0.054 SA
ATOM     91  S   UNL A   1      31.660  26.344  26.464  1.00  0.00    -0.052 S 
ATOM     92  C   UNL A   1      32.589  23.505  22.495  1.00  0.00     0.029 C 
BRANCH  92  93
ATOM     93  C   UNL A   1      33.044  22.282  23.189  1.00  0.00    -0.021 A 
ATOM     94  C   UNL A   1      32.306  21.099  23.247  1.00  0.00     0.028 A 
ATOM     95  C   UNL A   1      34.230  22.358  23.923  1.00  0.00     0.028 A 
ATOM     96  C   UNL A   1      32.732  20.089  24.095  1.00  0.00     0.111 A 
ATOM     97  C   UNL A   1      34.589  21.282  24.719  1.00  0.00     0.111 A 
ATOM     98  N   UNL A   1      33.862  20.152  24.831  1.00  0.00    -0.265 NA
ENDBRANCH  92  93
ENDBRANCH  77  85
ENDBRANCH  74  77
ENDBRANCH  72  73
ENDBRANCH  71  72
ENDBRANCH   1  71
TORSDOF 17
ENDMDL
