MODEL 1
REMARK VINA RESULT:     -12.6      0.000      0.000
REMARK SMILES O=C(NCCCNC(=O)[C@H]1CC[C@@H]2CCCC[C@H]2N1C(=O)N1CCSCC1)c1ccc(-c2c3nc(c(-c4cc(S(=O)(=O)[O-])ccc4F)c4ccc([nH]4)c(-c4cc(S(=O)(=O)[O-])ccc4F)c4nc(c(-c5cc(S(=O)(=O)[O-])ccc5F)c5ccc2[nH]5)C=C4)C=C3)cc1
REMARK SMILES IDX 4 1 3 2 1 3 2 4 28 6 29 7 90 8 30 9 89 10 31 11 32 12 33 13
REMARK SMILES IDX 83 14 34 15 88 16 82 17 84 18 35 19 87 20 81 21 80 22 36 24
REMARK SMILES IDX 68 25 48 26 67 27 49 28 52 29 66 30 85 31 50 32 51 33 65 35
REMARK SMILES IDX 86 36 53 37 37 38 38 39 46 40 39 41 45 42 47 43 44 44 40 45
REMARK SMILES IDX 41 46 42 47 43 48 69 49 70 50 78 51 71 52 77 53 79 54 76 55
REMARK SMILES IDX 72 56 73 57 74 58 75 59 54 60 55 61 63 62 56 63 62 64 64 65
REMARK SMILES IDX 61 66 57 67 58 68 59 69 60 70 5 71 6 72 7 73 8 74 9 76 10 77
REMARK SMILES IDX 11 78 19 79 12 80 18 81 13 82 17 83 14 84 16 85 15 86 20 87
REMARK SMILES IDX 21 88 22 89 23 90 27 91 24 92 26 93 25 94
REMARK H PARENT 3 5 84 23 52 34 7 75
REMARK Flexibility Score: inf
ROOT
ATOM      1  C   UNL A   1      32.595  29.825  25.953  1.00  0.00     0.118 C 
ENDROOT
BRANCH   1   2
ATOM      2  N   UNL A   1      32.262  31.195  26.323  1.00  0.00    -0.352 N 
ATOM      3  O   UNL A   1      32.328  33.131  27.462  1.00  0.00    -0.269 OA
ATOM      4  C   UNL A   1      32.876  32.062  27.196  1.00  0.00     0.251 C 
ATOM      5  H   UNL A   1      31.466  31.559  25.874  1.00  0.00     0.163 HD
BRANCH   4   6
ATOM      6  C   UNL A   1      34.168  31.714  27.826  1.00  0.00     0.039 A 
ATOM      7  C   UNL A   1      34.401  30.433  28.322  1.00  0.00     0.014 A 
ATOM      8  C   UNL A   1      35.178  32.681  27.897  1.00  0.00     0.014 A 
ATOM      9  C   UNL A   1      35.565  30.168  29.034  1.00  0.00     0.010 A 
ATOM     10  C   UNL A   1      36.395  32.379  28.520  1.00  0.00     0.010 A 
ATOM     11  C   UNL A   1      36.586  31.128  29.126  1.00  0.00    -0.014 A 
BRANCH  11  12
ATOM     12  C   UNL A   1      37.856  30.755  29.804  1.00  0.00     0.031 A 
ATOM     13  C   UNL A   1      38.156  31.200  31.210  1.00  0.00     0.074 A 
ATOM     14  C   UNL A   1      38.712  29.940  29.154  1.00  0.00     0.049 A 
ATOM     15  N   UNL A   1      39.178  30.894  31.969  1.00  0.00    -0.248 NA
ATOM     16  C   UNL A   1      37.193  32.111  31.844  1.00  0.00     0.031 C 
ATOM     17  C   UNL A   1      38.533  29.465  27.778  1.00  0.00     0.029 A 
ATOM     18  N   UNL A   1      39.875  29.340  29.560  1.00  0.00    -0.354 N 
ATOM     19  C   UNL A   1      38.985  31.572  33.168  1.00  0.00     0.074 A 
ATOM     20  C   UNL A   1      37.768  32.342  33.017  1.00  0.00     0.031 C 
ATOM     21  C   UNL A   1      39.511  28.599  27.480  1.00  0.00     0.029 A 
ATOM     22  C   UNL A   1      40.428  28.511  28.610  1.00  0.00     0.049 A 
ATOM     23  H   UNL A   1      40.278  29.488  30.446  1.00  0.00     0.167 HD
ATOM     24  C   UNL A   1      39.746  31.543  34.293  1.00  0.00     0.034 A 
ATOM     25  C   UNL A   1      41.553  27.773  28.635  1.00  0.00     0.034 A 
ATOM     26  C   UNL A   1      40.962  30.775  34.422  1.00  0.00     0.049 A 
ATOM     27  C   UNL A   1      42.386  27.777  29.888  1.00  0.00     0.074 A 
ATOM     28  C   UNL A   1      41.808  30.673  35.515  1.00  0.00     0.029 A 
ATOM     29  N   UNL A   1      41.513  29.976  33.426  1.00  0.00    -0.354 N 
ATOM     30  N   UNL A   1      42.177  28.416  31.016  1.00  0.00    -0.248 NA
ATOM     31  C   UNL A   1      43.600  26.953  29.875  1.00  0.00     0.031 C 
ATOM     32  C   UNL A   1      42.895  29.866  35.160  1.00  0.00     0.029 A 
ATOM     33  C   UNL A   1      42.695  29.401  33.872  1.00  0.00     0.049 A 
ATOM     34  H   UNL A   1      41.121  29.840  32.533  1.00  0.00     0.167 HD
ATOM     35  C   UNL A   1      43.233  28.064  31.850  1.00  0.00     0.074 A 
ATOM     36  C   UNL A   1      44.049  27.123  31.108  1.00  0.00     0.031 C 
ATOM     37  C   UNL A   1      43.512  28.487  33.109  1.00  0.00     0.034 A 
BRANCH  24  38
ATOM     38  C   UNL A   1      39.299  32.394  35.460  1.00  0.00     0.023 A 
ATOM     39  C   UNL A   1      39.729  33.724  35.610  1.00  0.00     0.031 A 
ATOM     40  C   UNL A   1      38.429  31.869  36.431  1.00  0.00     0.131 A 
ATOM     41  C   UNL A   1      39.332  34.466  36.735  1.00  0.00     0.055 A 
ATOM     42  C   UNL A   1      37.980  32.636  37.509  1.00  0.00     0.041 A 
ATOM     43  F   UNL A   1      38.000  30.600  36.352  1.00  0.00    -0.206 F 
ATOM     44  C   UNL A   1      38.441  33.938  37.672  1.00  0.00     0.022 A 
BRANCH  41  45
ATOM     45  S   UNL A   1      40.089  36.090  37.016  1.00  0.00     0.124 S 
ATOM     46  O   UNL A   1      39.871  36.746  35.729  1.00  0.00    -0.237 OA
ATOM     47  O   UNL A   1      39.315  36.611  38.137  1.00  0.00    -0.237 OA
ATOM     48  O   UNL A   1      41.484  35.772  37.316  1.00  0.00    -0.744 OA
ENDBRANCH  41  45
ENDBRANCH  24  38
BRANCH  25  49
ATOM     49  C   UNL A   1      41.978  27.005  27.429  1.00  0.00     0.023 A 
ATOM     50  C   UNL A   1      41.775  25.620  27.335  1.00  0.00     0.031 A 
ATOM     51  C   UNL A   1      42.638  27.648  26.366  1.00  0.00     0.131 A 
ATOM     52  C   UNL A   1      42.272  24.916  26.226  1.00  0.00     0.055 A 
ATOM     53  C   UNL A   1      43.073  26.953  25.237  1.00  0.00     0.041 A 
ATOM     54  F   UNL A   1      42.857  28.973  26.402  1.00  0.00    -0.206 F 
ATOM     55  C   UNL A   1      42.905  25.576  25.170  1.00  0.00     0.022 A 
BRANCH  52  56
ATOM     56  S   UNL A   1      42.175  23.105  26.234  1.00  0.00     0.124 S 
ATOM     57  O   UNL A   1      42.727  22.770  24.927  1.00  0.00    -0.237 OA
ATOM     58  O   UNL A   1      43.003  22.764  27.386  1.00  0.00    -0.237 OA
ATOM     59  O   UNL A   1      40.746  22.842  26.395  1.00  0.00    -0.744 OA
ENDBRANCH  52  56
ENDBRANCH  25  49
BRANCH  37  60
ATOM     60  C   UNL A   1      44.750  27.910  33.751  1.00  0.00     0.023 A 
ATOM     61  C   UNL A   1      44.694  26.737  34.527  1.00  0.00     0.031 A 
ATOM     62  C   UNL A   1      45.986  28.568  33.635  1.00  0.00     0.131 A 
ATOM     63  C   UNL A   1      45.833  26.303  35.220  1.00  0.00     0.055 A 
ATOM     64  C   UNL A   1      47.133  28.093  34.274  1.00  0.00     0.041 A 
ATOM     65  F   UNL A   1      46.097  29.692  32.910  1.00  0.00    -0.206 F 
ATOM     66  C   UNL A   1      47.055  26.965  35.087  1.00  0.00     0.022 A 
BRANCH  63  67
ATOM     67  S   UNL A   1      45.662  24.932  36.395  1.00  0.00     0.124 S 
ATOM     68  O   UNL A   1      44.493  24.230  35.876  1.00  0.00    -0.237 OA
ATOM     69  O   UNL A   1      46.938  24.238  36.251  1.00  0.00    -0.237 OA
ATOM     70  O   UNL A   1      45.464  25.603  37.679  1.00  0.00    -0.744 OA
ENDBRANCH  63  67
ENDBRANCH  37  60
ENDBRANCH  11  12
ENDBRANCH   4   6
ENDBRANCH   1   2
BRANCH   1  71
ATOM     71  C   UNL A   1      31.679  28.784  26.591  1.00  0.00     0.042 C 
BRANCH  71  72
ATOM     72  C   UNL A   1      32.338  27.429  26.807  1.00  0.00     0.117 C 
BRANCH  72  73
ATOM     73  N   UNL A   1      31.377  26.343  26.922  1.00  0.00    -0.354 N 
ATOM     74  C   UNL A   1      31.533  24.991  26.759  1.00  0.00     0.242 C 
ATOM     75  H   UNL A   1      30.464  26.626  27.157  1.00  0.00     0.163 HD
ATOM     76  O   UNL A   1      30.573  24.278  27.065  1.00  0.00    -0.273 OA
BRANCH  74  77
ATOM     77  C   UNL A   1      32.903  24.421  26.324  1.00  0.00     0.176 C 
ATOM     78  C   UNL A   1      32.963  23.085  27.096  1.00  0.00     0.036 C 
ATOM     79  N   UNL A   1      33.354  24.204  24.918  1.00  0.00    -0.309 N 
ATOM     80  C   UNL A   1      34.350  22.478  27.067  1.00  0.00     0.008 C 
ATOM     81  C   UNL A   1      34.744  23.632  24.835  1.00  0.00     0.091 C 
ATOM     82  C   UNL A   1      34.823  22.295  25.624  1.00  0.00     0.012 C 
ATOM     83  C   UNL A   1      35.372  23.433  23.438  1.00  0.00     0.025 C 
ATOM     84  C   UNL A   1      36.237  21.699  25.645  1.00  0.00     0.006 C 
ATOM     85  C   UNL A   1      36.781  22.843  23.491  1.00  0.00     0.002 C 
ATOM     86  C   UNL A   1      36.800  21.522  24.245  1.00  0.00     0.000 C 
BRANCH  79  87
ATOM     87  C   UNL A   1      32.640  24.515  23.767  1.00  0.00     0.321 C 
ATOM     88  O   UNL A   1      32.247  23.683  22.952  1.00  0.00    -0.248 OA
ATOM     89  N   UNL A   1      32.272  25.833  23.571  1.00  0.00    -0.323 N 
ATOM     90  C   UNL A   1      30.853  25.990  23.245  1.00  0.00     0.132 C 
ATOM     91  C   UNL A   1      33.165  26.658  22.754  1.00  0.00     0.132 C 
ATOM     92  C   UNL A   1      30.317  27.402  23.444  1.00  0.00     0.091 C 
ATOM     93  C   UNL A   1      32.872  28.163  22.814  1.00  0.00     0.091 C 
ATOM     94  S   UNL A   1      31.162  28.590  22.355  1.00  0.00    -0.158 SA
ENDBRANCH  79  87
ENDBRANCH  74  77
ENDBRANCH  72  73
ENDBRANCH  71  72
ENDBRANCH   1  71
TORSDOF 14
ENDMDL
MODEL 2
REMARK VINA RESULT:     -12.4      4.884     10.089
REMARK SMILES O=C(NCCCNC(=O)[C@H]1CC[C@@H]2CCCC[C@H]2N1C(=O)N1CCSCC1)c1ccc(-c2c3nc(c(-c4cc(S(=O)(=O)[O-])ccc4F)c4ccc([nH]4)c(-c4cc(S(=O)(=O)[O-])ccc4F)c4nc(c(-c5cc(S(=O)(=O)[O-])ccc5F)c5ccc2[nH]5)C=C4)C=C3)cc1
REMARK SMILES IDX 4 1 3 2 1 3 2 4 28 6 29 7 90 8 30 9 89 10 31 11 32 12 33 13
REMARK SMILES IDX 83 14 34 15 88 16 82 17 84 18 35 19 87 20 81 21 80 22 36 24
REMARK SMILES IDX 68 25 48 26 67 27 49 28 52 29 66 30 85 31 50 32 51 33 65 35
REMARK SMILES IDX 86 36 53 37 37 38 38 39 46 40 39 41 45 42 47 43 44 44 40 45
REMARK SMILES IDX 41 46 42 47 43 48 69 49 70 50 78 51 71 52 77 53 79 54 76 55
REMARK SMILES IDX 72 56 73 57 74 58 75 59 54 60 55 61 63 62 56 63 62 64 64 65
REMARK SMILES IDX 61 66 57 67 58 68 59 69 60 70 5 71 6 72 7 73 8 74 9 76 10 77
REMARK SMILES IDX 11 78 19 79 12 80 18 81 13 82 17 83 14 84 16 85 15 86 20 87
REMARK SMILES IDX 21 88 22 89 23 90 27 91 24 92 26 93 25 94
REMARK H PARENT 3 5 84 23 52 34 7 75
REMARK Flexibility Score: inf
ROOT
ATOM      1  C   UNL A   1      36.572  21.862  25.590  1.00  0.00     0.118 C 
ENDROOT
BRANCH   1   2
ATOM      2  N   UNL A   1      37.563  20.796  25.675  1.00  0.00    -0.352 N 
ATOM      3  O   UNL A   1      39.581  19.822  25.836  1.00  0.00    -0.269 OA
ATOM      4  C   UNL A   1      38.906  20.842  25.965  1.00  0.00     0.251 C 
ATOM      5  H   UNL A   1      37.212  19.894  25.496  1.00  0.00     0.163 HD
BRANCH   4   6
ATOM      6  C   UNL A   1      39.543  22.101  26.408  1.00  0.00     0.039 A 
ATOM      7  C   UNL A   1      39.099  23.334  25.933  1.00  0.00     0.014 A 
ATOM      8  C   UNL A   1      40.586  22.050  27.341  1.00  0.00     0.014 A 
ATOM      9  C   UNL A   1      39.800  24.491  26.253  1.00  0.00     0.010 A 
ATOM     10  C   UNL A   1      41.223  23.230  27.745  1.00  0.00     0.010 A 
ATOM     11  C   UNL A   1      40.857  24.459  27.177  1.00  0.00    -0.014 A 
BRANCH  11  12
ATOM     12  C   UNL A   1      41.501  25.742  27.567  1.00  0.00     0.031 A 
ATOM     13  C   UNL A   1      42.862  26.126  27.053  1.00  0.00     0.074 A 
ATOM     14  C   UNL A   1      40.803  26.599  28.341  1.00  0.00     0.049 A 
ATOM     15  N   UNL A   1      43.526  27.241  27.234  1.00  0.00    -0.248 NA
ATOM     16  C   UNL A   1      43.577  25.131  26.241  1.00  0.00     0.031 C 
ATOM     17  C   UNL A   1      39.482  26.321  28.915  1.00  0.00     0.029 A 
ATOM     18  N   UNL A   1      41.077  27.877  28.751  1.00  0.00    -0.354 N 
ATOM     19  C   UNL A   1      44.733  27.084  26.561  1.00  0.00     0.074 A 
ATOM     20  C   UNL A   1      44.728  25.747  26.006  1.00  0.00     0.031 C 
ATOM     21  C   UNL A   1      39.035  27.416  29.545  1.00  0.00     0.029 A 
ATOM     22  C   UNL A   1      40.062  28.449  29.486  1.00  0.00     0.049 A 
ATOM     23  H   UNL A   1      41.919  28.342  28.543  1.00  0.00     0.167 HD
ATOM     24  C   UNL A   1      45.744  27.979  26.411  1.00  0.00     0.034 A 
ATOM     25  C   UNL A   1      39.971  29.661  30.063  1.00  0.00     0.034 A 
ATOM     26  C   UNL A   1      45.735  29.306  26.980  1.00  0.00     0.049 A 
ATOM     27  C   UNL A   1      41.115  30.624  29.896  1.00  0.00     0.074 A 
ATOM     28  C   UNL A   1      46.704  30.292  26.889  1.00  0.00     0.029 A 
ATOM     29  N   UNL A   1      44.707  29.839  27.751  1.00  0.00    -0.354 N 
ATOM     30  N   UNL A   1      42.243  30.459  29.243  1.00  0.00    -0.248 NA
ATOM     31  C   UNL A   1      40.971  31.937  30.534  1.00  0.00     0.031 C 
ATOM     32  C   UNL A   1      46.291  31.391  27.651  1.00  0.00     0.029 A 
ATOM     33  C   UNL A   1      45.031  31.126  28.158  1.00  0.00     0.049 A 
ATOM     34  H   UNL A   1      43.871  29.370  27.975  1.00  0.00     0.167 HD
ATOM     35  C   UNL A   1      42.940  31.654  29.389  1.00  0.00     0.074 A 
ATOM     36  C   UNL A   1      42.084  32.541  30.151  1.00  0.00     0.031 C 
ATOM     37  C   UNL A   1      44.178  31.987  28.944  1.00  0.00     0.034 A 
BRANCH  24  38
ATOM     38  C   UNL A   1      46.957  27.536  25.627  1.00  0.00     0.023 A 
ATOM     39  C   UNL A   1      47.134  27.891  24.278  1.00  0.00     0.031 A 
ATOM     40  C   UNL A   1      47.953  26.753  26.237  1.00  0.00     0.131 A 
ATOM     41  C   UNL A   1      48.251  27.418  23.569  1.00  0.00     0.055 A 
ATOM     42  C   UNL A   1      49.097  26.346  25.547  1.00  0.00     0.041 A 
ATOM     43  F   UNL A   1      47.830  26.366  27.517  1.00  0.00    -0.206 F 
ATOM     44  C   UNL A   1      49.245  26.669  24.202  1.00  0.00     0.022 A 
BRANCH  41  45
ATOM     45  S   UNL A   1      48.327  27.699  21.779  1.00  0.00     0.124 S 
ATOM     46  O   UNL A   1      49.428  28.654  21.674  1.00  0.00    -0.237 OA
ATOM     47  O   UNL A   1      48.590  26.363  21.259  1.00  0.00    -0.237 OA
ATOM     48  O   UNL A   1      47.008  28.244  21.460  1.00  0.00    -0.744 OA
ENDBRANCH  41  45
ENDBRANCH  24  38
BRANCH  25  49
ATOM     49  C   UNL A   1      38.776  30.019  30.881  1.00  0.00     0.023 A 
ATOM     50  C   UNL A   1      37.726  30.781  30.347  1.00  0.00     0.031 A 
ATOM     51  C   UNL A   1      38.691  29.635  32.232  1.00  0.00     0.131 A 
ATOM     52  C   UNL A   1      36.662  31.178  31.173  1.00  0.00     0.055 A 
ATOM     53  C   UNL A   1      37.600  29.978  33.031  1.00  0.00     0.041 A 
ATOM     54  F   UNL A   1      39.668  28.903  32.794  1.00  0.00    -0.206 F 
ATOM     55  C   UNL A   1      36.585  30.768  32.506  1.00  0.00     0.022 A 
BRANCH  52  56
ATOM     56  S   UNL A   1      35.430  32.331  30.508  1.00  0.00     0.124 S 
ATOM     57  O   UNL A   1      36.182  33.581  30.467  1.00  0.00    -0.237 OA
ATOM     58  O   UNL A   1      35.119  31.728  29.217  1.00  0.00    -0.237 OA
ATOM     59  O   UNL A   1      34.352  32.283  31.494  1.00  0.00    -0.744 OA
ENDBRANCH  52  56
ENDBRANCH  25  49
BRANCH  37  60
ATOM     60  C   UNL A   1      44.656  33.381  29.270  1.00  0.00     0.023 A 
ATOM     61  C   UNL A   1      44.359  34.472  28.434  1.00  0.00     0.031 A 
ATOM     62  C   UNL A   1      45.464  33.611  30.396  1.00  0.00     0.131 A 
ATOM     63  C   UNL A   1      44.930  35.726  28.691  1.00  0.00     0.055 A 
ATOM     64  C   UNL A   1      45.975  34.878  30.686  1.00  0.00     0.041 A 
ATOM     65  F   UNL A   1      45.782  32.607  31.228  1.00  0.00    -0.206 F 
ATOM     66  C   UNL A   1      45.723  35.940  29.820  1.00  0.00     0.022 A 
BRANCH  63  67
ATOM     67  S   UNL A   1      44.719  37.044  27.463  1.00  0.00     0.124 S 
ATOM     68  O   UNL A   1      44.654  38.235  28.303  1.00  0.00    -0.237 OA
ATOM     69  O   UNL A   1      45.922  36.905  26.647  1.00  0.00    -0.237 OA
ATOM     70  O   UNL A   1      43.470  36.690  26.790  1.00  0.00    -0.744 OA
ENDBRANCH  63  67
ENDBRANCH  37  60
ENDBRANCH  11  12
ENDBRANCH   4   6
ENDBRANCH   1   2
BRANCH   1  71
ATOM     71  C   UNL A   1      36.177  22.210  24.158  1.00  0.00     0.042 C 
BRANCH  71  72
ATOM     72  C   UNL A   1      35.711  23.648  23.976  1.00  0.00     0.117 C 
BRANCH  72  73
ATOM     73  N   UNL A   1      34.791  23.809  22.860  1.00  0.00    -0.354 N 
ATOM     74  C   UNL A   1      33.873  24.791  22.594  1.00  0.00     0.242 C 
ATOM     75  H   UNL A   1      34.838  23.096  22.184  1.00  0.00     0.163 HD
ATOM     76  O   UNL A   1      33.324  24.756  21.489  1.00  0.00    -0.273 OA
BRANCH  74  77
ATOM     77  C   UNL A   1      33.653  25.936  23.611  1.00  0.00     0.176 C 
ATOM     78  C   UNL A   1      33.366  27.142  22.690  1.00  0.00     0.036 C 
ATOM     79  N   UNL A   1      32.677  25.928  24.740  1.00  0.00    -0.309 N 
ATOM     80  C   UNL A   1      33.412  28.453  23.446  1.00  0.00     0.008 C 
ATOM     81  C   UNL A   1      32.710  27.199  25.545  1.00  0.00     0.091 C 
ATOM     82  C   UNL A   1      32.439  28.424  24.626  1.00  0.00     0.012 C 
ATOM     83  C   UNL A   1      31.810  27.297  26.796  1.00  0.00     0.025 C 
ATOM     84  C   UNL A   1      32.537  29.761  25.372  1.00  0.00     0.006 C 
ATOM     85  C   UNL A   1      31.932  28.638  27.521  1.00  0.00     0.002 C 
ATOM     86  C   UNL A   1      31.627  29.800  26.589  1.00  0.00     0.000 C 
BRANCH  79  87
ATOM     87  C   UNL A   1      31.836  24.880  25.093  1.00  0.00     0.321 C 
ATOM     88  O   UNL A   1      30.608  24.932  25.042  1.00  0.00    -0.248 OA
ATOM     89  N   UNL A   1      32.415  23.674  25.441  1.00  0.00    -0.323 N 
ATOM     90  C   UNL A   1      31.832  22.532  24.733  1.00  0.00     0.132 C 
ATOM     91  C   UNL A   1      32.648  23.435  26.867  1.00  0.00     0.132 C 
ATOM     92  C   UNL A   1      32.696  21.278  24.750  1.00  0.00     0.091 C 
ATOM     93  C   UNL A   1      33.550  22.232  27.171  1.00  0.00     0.091 C 
ATOM     94  S   UNL A   1      32.951  20.672  26.446  1.00  0.00    -0.158 SA
ENDBRANCH  79  87
ENDBRANCH  74  77
ENDBRANCH  72  73
ENDBRANCH  71  72
ENDBRANCH   1  71
TORSDOF 14
ENDMDL
MODEL 3
REMARK VINA RESULT:     -12.3      1.894      2.192
REMARK SMILES O=C(NCCCNC(=O)[C@H]1CC[C@@H]2CCCC[C@H]2N1C(=O)N1CCSCC1)c1ccc(-c2c3nc(c(-c4cc(S(=O)(=O)[O-])ccc4F)c4ccc([nH]4)c(-c4cc(S(=O)(=O)[O-])ccc4F)c4nc(c(-c5cc(S(=O)(=O)[O-])ccc5F)c5ccc2[nH]5)C=C4)C=C3)cc1
REMARK SMILES IDX 4 1 3 2 1 3 2 4 28 6 29 7 90 8 30 9 89 10 31 11 32 12 33 13
REMARK SMILES IDX 83 14 34 15 88 16 82 17 84 18 35 19 87 20 81 21 80 22 36 24
REMARK SMILES IDX 68 25 48 26 67 27 49 28 52 29 66 30 85 31 50 32 51 33 65 35
REMARK SMILES IDX 86 36 53 37 37 38 38 39 46 40 39 41 45 42 47 43 44 44 40 45
REMARK SMILES IDX 41 46 42 47 43 48 69 49 70 50 78 51 71 52 77 53 79 54 76 55
REMARK SMILES IDX 72 56 73 57 74 58 75 59 54 60 55 61 63 62 56 63 62 64 64 65
REMARK SMILES IDX 61 66 57 67 58 68 59 69 60 70 5 71 6 72 7 73 8 74 9 76 10 77
REMARK SMILES IDX 11 78 19 79 12 80 18 81 13 82 17 83 14 84 16 85 15 86 20 87
REMARK SMILES IDX 21 88 22 89 23 90 27 91 24 92 26 93 25 94
REMARK H PARENT 3 5 84 23 52 34 7 75
REMARK Flexibility Score: inf
ROOT
ATOM      1  C   UNL A   1      32.947  29.729  26.114  1.00  0.00     0.118 C 
ENDROOT
BRANCH   1   2
ATOM      2  N   UNL A   1      32.695  31.113  26.492  1.00  0.00    -0.352 N 
ATOM      3  O   UNL A   1      32.887  33.041  27.629  1.00  0.00    -0.269 OA
ATOM      4  C   UNL A   1      33.373  31.946  27.350  1.00  0.00     0.251 C 
ATOM      5  H   UNL A   1      31.908  31.519  26.062  1.00  0.00     0.163 HD
BRANCH   4   6
ATOM      6  C   UNL A   1      34.660  31.531  27.950  1.00  0.00     0.039 A 
ATOM      7  C   UNL A   1      34.826  30.250  28.474  1.00  0.00     0.014 A 
ATOM      8  C   UNL A   1      35.732  32.432  27.962  1.00  0.00     0.014 A 
ATOM      9  C   UNL A   1      35.994  29.928  29.156  1.00  0.00     0.010 A 
ATOM     10  C   UNL A   1      36.947  32.067  28.555  1.00  0.00     0.010 A 
ATOM     11  C   UNL A   1      37.076  30.822  29.189  1.00  0.00    -0.014 A 
BRANCH  11  12
ATOM     12  C   UNL A   1      38.341  30.385  29.838  1.00  0.00     0.031 A 
ATOM     13  C   UNL A   1      38.703  30.824  31.231  1.00  0.00     0.074 A 
ATOM     14  C   UNL A   1      39.133  29.518  29.175  1.00  0.00     0.049 A 
ATOM     15  N   UNL A   1      39.727  30.468  31.967  1.00  0.00    -0.248 NA
ATOM     16  C   UNL A   1      37.809  31.793  31.881  1.00  0.00     0.031 C 
ATOM     17  C   UNL A   1      38.892  29.041  27.808  1.00  0.00     0.029 A 
ATOM     18  N   UNL A   1      40.271  28.857  29.556  1.00  0.00    -0.354 N 
ATOM     19  C   UNL A   1      39.603  31.167  33.163  1.00  0.00     0.074 A 
ATOM     20  C   UNL A   1      38.427  32.002  33.037  1.00  0.00     0.031 C 
ATOM     21  C   UNL A   1      39.812  28.120  27.493  1.00  0.00     0.029 A 
ATOM     22  C   UNL A   1      40.752  27.990  28.600  1.00  0.00     0.049 A 
ATOM     23  H   UNL A   1      40.705  28.989  30.430  1.00  0.00     0.167 HD
ATOM     24  C   UNL A   1      40.391  31.105  34.268  1.00  0.00     0.034 A 
ATOM     25  C   UNL A   1      41.834  27.191  28.603  1.00  0.00     0.034 A 
ATOM     26  C   UNL A   1      41.565  30.271  34.373  1.00  0.00     0.049 A 
ATOM     27  C   UNL A   1      42.699  27.158  29.834  1.00  0.00     0.074 A 
ATOM     28  C   UNL A   1      42.433  30.131  35.445  1.00  0.00     0.029 A 
ATOM     29  N   UNL A   1      42.044  29.434  33.371  1.00  0.00    -0.354 N 
ATOM     30  N   UNL A   1      42.556  27.818  30.960  1.00  0.00    -0.248 NA
ATOM     31  C   UNL A   1      43.865  26.268  29.797  1.00  0.00     0.031 C 
ATOM     32  C   UNL A   1      43.463  29.262  35.070  1.00  0.00     0.029 A 
ATOM     33  C   UNL A   1      43.204  28.797  33.792  1.00  0.00     0.049 A 
ATOM     34  H   UNL A   1      41.622  29.312  32.490  1.00  0.00     0.167 HD
ATOM     35  C   UNL A   1      43.613  27.415  31.770  1.00  0.00     0.074 A 
ATOM     36  C   UNL A   1      44.355  26.424  31.017  1.00  0.00     0.031 C 
ATOM     37  C   UNL A   1      43.949  27.833  33.017  1.00  0.00     0.034 A 
BRANCH  24  38
ATOM     38  C   UNL A   1      40.024  31.989  35.437  1.00  0.00     0.023 A 
ATOM     39  C   UNL A   1      39.118  31.566  36.426  1.00  0.00     0.031 A 
ATOM     40  C   UNL A   1      40.590  33.269  35.568  1.00  0.00     0.131 A 
ATOM     41  C   UNL A   1      38.764  32.436  37.471  1.00  0.00     0.055 A 
ATOM     42  C   UNL A   1      40.289  34.101  36.648  1.00  0.00     0.041 A 
ATOM     43  F   UNL A   1      41.446  33.735  34.645  1.00  0.00    -0.206 F 
ATOM     44  C   UNL A   1      39.362  33.691  37.602  1.00  0.00     0.022 A 
BRANCH  41  45
ATOM     45  S   UNL A   1      37.424  31.948  38.591  1.00  0.00     0.124 S 
ATOM     46  O   UNL A   1      37.160  30.577  38.160  1.00  0.00    -0.237 OA
ATOM     47  O   UNL A   1      38.039  32.096  39.905  1.00  0.00    -0.237 OA
ATOM     48  O   UNL A   1      36.359  32.903  38.290  1.00  0.00    -0.744 OA
ENDBRANCH  41  45
ENDBRANCH  24  38
BRANCH  25  49
ATOM     49  C   UNL A   1      42.184  26.390  27.394  1.00  0.00     0.023 A 
ATOM     50  C   UNL A   1      41.863  25.027  27.302  1.00  0.00     0.031 A 
ATOM     51  C   UNL A   1      42.889  26.975  26.326  1.00  0.00     0.131 A 
ATOM     52  C   UNL A   1      42.291  24.283  26.190  1.00  0.00     0.055 A 
ATOM     53  C   UNL A   1      43.254  26.246  25.194  1.00  0.00     0.041 A 
ATOM     54  F   UNL A   1      43.220  28.276  26.361  1.00  0.00    -0.206 F 
ATOM     55  C   UNL A   1      42.970  24.888  25.130  1.00  0.00     0.022 A 
BRANCH  52  56
ATOM     56  S   UNL A   1      42.040  22.487  26.199  1.00  0.00     0.124 S 
ATOM     57  O   UNL A   1      42.619  22.111  27.485  1.00  0.00    -0.237 OA
ATOM     58  O   UNL A   1      40.588  22.385  26.095  1.00  0.00    -0.237 OA
ATOM     59  O   UNL A   1      42.782  22.035  25.024  1.00  0.00    -0.744 OA
ENDBRANCH  52  56
ENDBRANCH  25  49
BRANCH  37  60
ATOM     60  C   UNL A   1      45.169  27.193  33.633  1.00  0.00     0.023 A 
ATOM     61  C   UNL A   1      46.450  27.750  33.471  1.00  0.00     0.031 A 
ATOM     62  C   UNL A   1      45.058  25.984  34.341  1.00  0.00     0.131 A 
ATOM     63  C   UNL A   1      47.577  27.061  33.939  1.00  0.00     0.055 A 
ATOM     64  C   UNL A   1      46.178  25.335  34.864  1.00  0.00     0.041 A 
ATOM     65  F   UNL A   1      43.861  25.405  34.524  1.00  0.00    -0.206 F 
ATOM     66  C   UNL A   1      47.448  25.865  34.648  1.00  0.00     0.022 A 
BRANCH  63  67
ATOM     67  S   UNL A   1      49.222  27.688  33.502  1.00  0.00     0.124 S 
ATOM     68  O   UNL A   1      49.380  27.199  32.136  1.00  0.00    -0.237 OA
ATOM     69  O   UNL A   1      49.053  29.131  33.646  1.00  0.00    -0.237 OA
ATOM     70  O   UNL A   1      50.101  27.065  34.490  1.00  0.00    -0.744 OA
ENDBRANCH  63  67
ENDBRANCH  37  60
ENDBRANCH  11  12
ENDBRANCH   4   6
ENDBRANCH   1   2
BRANCH   1  71
ATOM     71  C   UNL A   1      31.878  28.760  26.607  1.00  0.00     0.042 C 
BRANCH  71  72
ATOM     72  C   UNL A   1      32.407  27.373  26.946  1.00  0.00     0.117 C 
BRANCH  72  73
ATOM     73  N   UNL A   1      31.379  26.343  26.887  1.00  0.00    -0.354 N 
ATOM     74  C   UNL A   1      31.474  25.001  26.630  1.00  0.00     0.242 C 
ATOM     75  H   UNL A   1      30.466  26.665  27.062  1.00  0.00     0.163 HD
ATOM     76  O   UNL A   1      30.451  24.329  26.790  1.00  0.00    -0.273 OA
BRANCH  74  77
ATOM     77  C   UNL A   1      32.846  24.380  26.273  1.00  0.00     0.176 C 
ATOM     78  C   UNL A   1      32.788  23.019  27.000  1.00  0.00     0.036 C 
ATOM     79  N   UNL A   1      33.387  24.187  24.896  1.00  0.00    -0.309 N 
ATOM     80  C   UNL A   1      34.145  22.347  27.048  1.00  0.00     0.008 C 
ATOM     81  C   UNL A   1      34.752  23.552  24.893  1.00  0.00     0.091 C 
ATOM     82  C   UNL A   1      34.712  22.188  25.638  1.00  0.00     0.012 C 
ATOM     83  C   UNL A   1      35.471  23.368  23.538  1.00  0.00     0.025 C 
ATOM     84  C   UNL A   1      36.093  21.524  25.738  1.00  0.00     0.006 C 
ATOM     85  C   UNL A   1      36.844  22.710  23.671  1.00  0.00     0.002 C 
ATOM     86  C   UNL A   1      36.747  21.366  24.376  1.00  0.00     0.000 C 
BRANCH  79  87
ATOM     87  C   UNL A   1      32.774  24.568  23.709  1.00  0.00     0.321 C 
ATOM     88  O   UNL A   1      32.410  23.783  22.836  1.00  0.00    -0.248 OA
ATOM     89  N   UNL A   1      32.474  25.907  23.537  1.00  0.00    -0.323 N 
ATOM     90  C   UNL A   1      31.090  26.135  23.115  1.00  0.00     0.132 C 
ATOM     91  C   UNL A   1      33.457  26.722  22.821  1.00  0.00     0.132 C 
ATOM     92  C   UNL A   1      30.598  27.561  23.328  1.00  0.00     0.091 C 
ATOM     93  C   UNL A   1      33.221  28.234  22.916  1.00  0.00     0.091 C 
ATOM     94  S   UNL A   1      31.568  28.749  22.350  1.00  0.00    -0.158 SA
ENDBRANCH  79  87
ENDBRANCH  74  77
ENDBRANCH  72  73
ENDBRANCH  71  72
ENDBRANCH   1  71
TORSDOF 14
ENDMDL
