MODEL 1
REMARK VINA RESULT:     -12.0      0.000      0.000
REMARK SMILES C[C@@H](C(=O)NCCCNC(=O)c1ccc(-c2c3nc(c(-c4cc(S(=O)(=O)[O-])ccc4F)c4ccc([nH]4)c(-c4cc(S(=O)(=O)[O-])ccc4F)c4nc(c(-c5cc(S(=O)(=O)[O-])ccc5F)c5ccc2[nH]5)C=C4)C=C3)cc1)c1cc(/C=C/S(C)(=O)=O)cc(C(=O)c2ccccc2)c1
REMARK SMILES IDX 7 1 6 2 5 3 3 4 4 5 2 7 1 8 75 9 76 10 94 11 77 12 85 13
REMARK SMILES IDX 84 14 78 15 79 16 80 17 81 18 82 19 83 20 86 21 87 22 88 23
REMARK SMILES IDX 89 24 93 25 90 26 92 27 91 28 8 29 9 30 10 31 11 33 12 34
REMARK SMILES IDX 13 35 74 36 14 37 73 38 15 39 16 40 17 41 67 42 18 43 72 44
REMARK SMILES IDX 66 45 68 46 19 47 71 48 65 49 64 50 20 52 52 53 32 54 51 55
REMARK SMILES IDX 33 56 36 57 50 58 69 59 34 60 35 61 49 63 70 64 37 65 21 66
REMARK SMILES IDX 22 67 30 68 23 69 29 70 31 71 28 72 24 73 25 74 26 75 27 76
REMARK SMILES IDX 53 77 54 78 62 79 55 80 61 81 63 82 60 83 56 84 57 85 58 86
REMARK SMILES IDX 59 87 38 88 39 89 47 90 40 91 46 92 48 93 45 94 41 95 42 96
REMARK SMILES IDX 43 97 44 98
REMARK H PARENT 5 6 9 32 68 51 36 62
REMARK Flexibility Score: inf
ROOT
ATOM      1  C   UNL A   1      36.259  22.845  24.043  1.00  0.00     0.042 C 
ENDROOT
BRANCH   1   2
ATOM      2  C   UNL A   1      34.801  23.199  23.762  1.00  0.00     0.117 C 
BRANCH   2   3
ATOM      3  N   UNL A   1      34.696  24.407  22.966  1.00  0.00    -0.356 N 
ATOM      4  C   UNL A   1      33.621  25.217  22.745  1.00  0.00     0.227 C 
ATOM      5  O   UNL A   1      33.763  26.141  21.942  1.00  0.00    -0.274 OA
ATOM      6  H   UNL A   1      35.527  24.686  22.518  1.00  0.00     0.163 HD
BRANCH   4   7
ATOM      7  C   UNL A   1      32.322  24.977  23.523  1.00  0.00     0.105 C 
ATOM      8  C   UNL A   1      31.228  24.330  22.660  1.00  0.00     0.023 C 
BRANCH   7   9
ATOM      9  C   UNL A   1      31.793  26.255  24.164  1.00  0.00    -0.035 A 
ATOM     10  C   UNL A   1      30.950  27.115  23.447  1.00  0.00     0.012 A 
ATOM     11  C   UNL A   1      32.169  26.612  25.463  1.00  0.00     0.016 A 
ATOM     12  C   UNL A   1      30.539  28.349  23.978  1.00  0.00    -0.024 A 
ATOM     13  C   UNL A   1      31.845  27.865  25.984  1.00  0.00     0.023 A 
ATOM     14  C   UNL A   1      31.014  28.721  25.247  1.00  0.00     0.020 A 
BRANCH  12  15
ATOM     15  C   UNL A   1      29.680  29.291  23.230  1.00  0.00     0.020 C 
ATOM     16  C   UNL A   1      29.463  30.573  23.569  1.00  0.00     0.106 C 
BRANCH  16  17
ATOM     17  S   UNL A   1      28.372  31.559  22.647  1.00  0.00     0.168 S 
ATOM     18  C   UNL A   1      28.085  30.523  21.232  1.00  0.00     0.163 C 
ATOM     19  O   UNL A   1      27.115  31.646  23.367  1.00  0.00    -0.225 OA
ATOM     20  O   UNL A   1      29.036  32.757  22.171  1.00  0.00    -0.225 OA
ENDBRANCH  16  17
ENDBRANCH  12  15
BRANCH  13  21
ATOM     21  C   UNL A   1      32.396  28.304  27.301  1.00  0.00     0.193 C 
ATOM     22  O   UNL A   1      31.909  27.887  28.347  1.00  0.00    -0.289 OA
BRANCH  21  23
ATOM     23  C   UNL A   1      33.545  29.246  27.360  1.00  0.00     0.022 A 
ATOM     24  C   UNL A   1      33.282  30.615  27.460  1.00  0.00     0.012 A 
ATOM     25  C   UNL A   1      34.868  28.782  27.362  1.00  0.00     0.012 A 
ATOM     26  C   UNL A   1      34.340  31.512  27.618  1.00  0.00     0.001 A 
ATOM     27  C   UNL A   1      35.921  29.684  27.527  1.00  0.00     0.001 A 
ATOM     28  C   UNL A   1      35.655  31.047  27.663  1.00  0.00     0.000 A 
ENDBRANCH  21  23
ENDBRANCH  13  21
ENDBRANCH   7   9
ENDBRANCH   4   7
ENDBRANCH   2   3
ENDBRANCH   1   2
BRANCH   1  29
ATOM     29  C   UNL A   1      36.572  22.679  25.526  1.00  0.00     0.118 C 
BRANCH  29  30
ATOM     30  N   UNL A   1      37.538  21.619  25.768  1.00  0.00    -0.352 N 
ATOM     31  C   UNL A   1      38.850  21.697  26.163  1.00  0.00     0.251 C 
ATOM     32  H   UNL A   1      37.200  20.705  25.626  1.00  0.00     0.163 HD
ATOM     33  O   UNL A   1      39.560  20.699  26.079  1.00  0.00    -0.269 OA
BRANCH  31  34
ATOM     34  C   UNL A   1      39.406  22.974  26.663  1.00  0.00     0.039 A 
ATOM     35  C   UNL A   1      40.391  22.939  27.652  1.00  0.00     0.014 A 
ATOM     36  C   UNL A   1      38.946  24.202  26.177  1.00  0.00     0.014 A 
ATOM     37  C   UNL A   1      40.958  24.132  28.108  1.00  0.00     0.010 A 
ATOM     38  C   UNL A   1      39.569  25.383  26.571  1.00  0.00     0.010 A 
ATOM     39  C   UNL A   1      40.579  25.362  27.543  1.00  0.00    -0.014 A 
BRANCH  39  40
ATOM     40  C   UNL A   1      41.230  26.632  27.960  1.00  0.00     0.031 A 
ATOM     41  C   UNL A   1      42.667  26.900  27.599  1.00  0.00     0.074 A 
ATOM     42  C   UNL A   1      40.544  27.516  28.711  1.00  0.00     0.049 A 
ATOM     43  N   UNL A   1      43.428  27.912  27.931  1.00  0.00    -0.248 NA
ATOM     44  C   UNL A   1      43.342  25.884  26.780  1.00  0.00     0.031 C 
ATOM     45  C   UNL A   1      39.156  27.352  29.152  1.00  0.00     0.029 A 
ATOM     46  N   UNL A   1      40.917  28.726  29.243  1.00  0.00    -0.354 N 
ATOM     47  C   UNL A   1      44.674  27.650  27.370  1.00  0.00     0.074 A 
ATOM     48  C   UNL A   1      44.580  26.353  26.734  1.00  0.00     0.031 C 
ATOM     49  C   UNL A   1      38.788  28.432  29.859  1.00  0.00     0.029 A 
ATOM     50  C   UNL A   1      39.925  29.340  29.973  1.00  0.00     0.049 A 
ATOM     51  H   UNL A   1      41.810  29.118  29.113  1.00  0.00     0.167 HD
ATOM     52  C   UNL A   1      45.783  28.430  27.366  1.00  0.00     0.034 A 
ATOM     53  C   UNL A   1      39.933  30.494  30.670  1.00  0.00     0.034 A 
ATOM     54  C   UNL A   1      45.856  29.723  28.002  1.00  0.00     0.049 A 
ATOM     55  C   UNL A   1      41.194  31.322  30.689  1.00  0.00     0.074 A 
ATOM     56  C   UNL A   1      46.914  30.616  28.019  1.00  0.00     0.029 A 
ATOM     57  N   UNL A   1      44.835  30.305  28.744  1.00  0.00    -0.354 N 
ATOM     58  N   UNL A   1      42.349  31.081  30.113  1.00  0.00    -0.248 NA
ATOM     59  C   UNL A   1      41.148  32.582  31.442  1.00  0.00     0.031 C 
ATOM     60  C   UNL A   1      46.564  31.695  28.836  1.00  0.00     0.029 A 
ATOM     61  C   UNL A   1      45.253  31.526  29.252  1.00  0.00     0.049 A 
ATOM     62  H   UNL A   1      43.945  29.910  28.887  1.00  0.00     0.167 HD
ATOM     63  C   UNL A   1      43.155  32.180  30.406  1.00  0.00     0.074 A 
ATOM     64  C   UNL A   1      42.348  33.087  31.195  1.00  0.00     0.031 C 
ATOM     65  C   UNL A   1      44.442  32.420  30.047  1.00  0.00     0.034 A 
BRANCH  52  66
ATOM     66  C   UNL A   1      47.014  27.888  26.677  1.00  0.00     0.023 A 
ATOM     67  C   UNL A   1      47.237  28.078  25.301  1.00  0.00     0.031 A 
ATOM     68  C   UNL A   1      47.972  27.156  27.400  1.00  0.00     0.131 A 
ATOM     69  C   UNL A   1      48.343  27.479  24.680  1.00  0.00     0.055 A 
ATOM     70  C   UNL A   1      49.117  26.637  26.792  1.00  0.00     0.041 A 
ATOM     71  F   UNL A   1      47.806  26.919  28.711  1.00  0.00    -0.206 F 
ATOM     72  C   UNL A   1      49.300  26.784  25.420  1.00  0.00     0.022 A 
BRANCH  69  73
ATOM     73  S   UNL A   1      48.427  27.491  22.867  1.00  0.00     0.124 S 
ATOM     74  O   UNL A   1      48.366  26.065  22.560  1.00  0.00    -0.237 OA
ATOM     75  O   UNL A   1      47.254  28.275  22.502  1.00  0.00    -0.237 OA
ATOM     76  O   UNL A   1      49.714  28.126  22.589  1.00  0.00    -0.744 OA
ENDBRANCH  69  73
ENDBRANCH  52  66
BRANCH  53  77
ATOM     77  C   UNL A   1      38.720  30.934  31.420  1.00  0.00     0.023 A 
ATOM     78  C   UNL A   1      37.777  31.793  30.834  1.00  0.00     0.031 A 
ATOM     79  C   UNL A   1      38.511  30.539  32.754  1.00  0.00     0.131 A 
ATOM     80  C   UNL A   1      36.699  32.272  31.594  1.00  0.00     0.055 A 
ATOM     81  C   UNL A   1      37.403  30.969  33.487  1.00  0.00     0.041 A 
ATOM     82  F   UNL A   1      39.379  29.717  33.365  1.00  0.00    -0.206 F 
ATOM     83  C   UNL A   1      36.497  31.853  32.911  1.00  0.00     0.022 A 
BRANCH  80  84
ATOM     84  S   UNL A   1      35.618  33.534  30.867  1.00  0.00     0.124 S 
ATOM     85  O   UNL A   1      35.735  34.617  31.838  1.00  0.00    -0.237 OA
ATOM     86  O   UNL A   1      36.247  33.761  29.572  1.00  0.00    -0.237 OA
ATOM     87  O   UNL A   1      34.314  32.876  30.819  1.00  0.00    -0.744 OA
ENDBRANCH  80  84
ENDBRANCH  53  77
BRANCH  65  88
ATOM     88  C   UNL A   1      45.038  33.744  30.461  1.00  0.00     0.023 A 
ATOM     89  C   UNL A   1      44.868  34.912  29.696  1.00  0.00     0.031 A 
ATOM     90  C   UNL A   1      45.797  33.836  31.644  1.00  0.00     0.131 A 
ATOM     91  C   UNL A   1      45.495  36.104  30.090  1.00  0.00     0.055 A 
ATOM     92  C   UNL A   1      46.359  35.040  32.067  1.00  0.00     0.041 A 
ATOM     93  F   UNL A   1      45.998  32.753  32.412  1.00  0.00    -0.206 F 
ATOM     94  C   UNL A   1      46.221  36.181  31.280  1.00  0.00     0.022 A 
BRANCH  91  95
ATOM     95  S   UNL A   1      45.433  37.530  28.971  1.00  0.00     0.124 S 
ATOM     96  O   UNL A   1      46.835  37.935  28.920  1.00  0.00    -0.237 OA
ATOM     97  O   UNL A   1      44.893  36.945  27.749  1.00  0.00    -0.237 OA
ATOM     98  O   UNL A   1      44.543  38.465  29.656  1.00  0.00    -0.744 OA
ENDBRANCH  91  95
ENDBRANCH  65  88
ENDBRANCH  39  40
ENDBRANCH  31  34
ENDBRANCH  29  30
ENDBRANCH   1  29
TORSDOF 18
ENDMDL
MODEL 2
REMARK VINA RESULT:     -11.6      1.848      8.062
REMARK SMILES C[C@@H](C(=O)NCCCNC(=O)c1ccc(-c2c3nc(c(-c4cc(S(=O)(=O)[O-])ccc4F)c4ccc([nH]4)c(-c4cc(S(=O)(=O)[O-])ccc4F)c4nc(c(-c5cc(S(=O)(=O)[O-])ccc5F)c5ccc2[nH]5)C=C4)C=C3)cc1)c1cc(/C=C/S(C)(=O)=O)cc(C(=O)c2ccccc2)c1
REMARK SMILES IDX 7 1 6 2 5 3 3 4 4 5 2 7 1 8 75 9 76 10 94 11 77 12 85 13
REMARK SMILES IDX 84 14 78 15 79 16 80 17 81 18 82 19 83 20 86 21 87 22 88 23
REMARK SMILES IDX 89 24 93 25 90 26 92 27 91 28 8 29 9 30 10 31 11 33 12 34
REMARK SMILES IDX 13 35 74 36 14 37 73 38 15 39 16 40 17 41 67 42 18 43 72 44
REMARK SMILES IDX 66 45 68 46 19 47 71 48 65 49 64 50 20 52 52 53 32 54 51 55
REMARK SMILES IDX 33 56 36 57 50 58 69 59 34 60 35 61 49 63 70 64 37 65 21 66
REMARK SMILES IDX 22 67 30 68 23 69 29 70 31 71 28 72 24 73 25 74 26 75 27 76
REMARK SMILES IDX 53 77 54 78 62 79 55 80 61 81 63 82 60 83 56 84 57 85 58 86
REMARK SMILES IDX 59 87 38 88 39 89 47 90 40 91 46 92 48 93 45 94 41 95 42 96
REMARK SMILES IDX 43 97 44 98
REMARK H PARENT 5 6 9 32 68 51 36 62
REMARK Flexibility Score: inf
ROOT
ATOM      1  C   UNL A   1      35.116  21.974  27.112  1.00  0.00     0.042 C 
ENDROOT
BRANCH   1   2
ATOM      2  C   UNL A   1      33.888  22.881  27.065  1.00  0.00     0.117 C 
BRANCH   2   3
ATOM      3  N   UNL A   1      33.059  22.585  25.912  1.00  0.00    -0.356 N 
ATOM      4  C   UNL A   1      31.832  23.073  25.570  1.00  0.00     0.227 C 
ATOM      5  O   UNL A   1      31.286  22.587  24.578  1.00  0.00    -0.274 OA
ATOM      6  H   UNL A   1      33.440  21.933  25.279  1.00  0.00     0.163 HD
BRANCH   4   7
ATOM      7  C   UNL A   1      31.219  24.215  26.389  1.00  0.00     0.105 C 
ATOM      8  C   UNL A   1      29.699  24.071  26.555  1.00  0.00     0.023 C 
BRANCH   7   9
ATOM      9  C   UNL A   1      31.553  25.583  25.805  1.00  0.00    -0.035 A 
ATOM     10  C   UNL A   1      32.392  26.467  26.497  1.00  0.00     0.012 A 
ATOM     11  C   UNL A   1      30.997  25.997  24.590  1.00  0.00     0.016 A 
ATOM     12  C   UNL A   1      32.626  27.771  26.031  1.00  0.00    -0.024 A 
ATOM     13  C   UNL A   1      31.144  27.310  24.145  1.00  0.00     0.023 A 
ATOM     14  C   UNL A   1      31.975  28.188  24.857  1.00  0.00     0.020 A 
BRANCH  12  15
ATOM     15  C   UNL A   1      33.477  28.736  26.759  1.00  0.00     0.020 C 
ATOM     16  C   UNL A   1      34.804  28.616  26.933  1.00  0.00     0.106 C 
BRANCH  16  17
ATOM     17  S   UNL A   1      35.682  29.783  27.872  1.00  0.00     0.168 S 
ATOM     18  C   UNL A   1      34.654  31.220  27.681  1.00  0.00     0.163 C 
ATOM     19  O   UNL A   1      35.608  29.394  29.268  1.00  0.00    -0.225 OA
ATOM     20  O   UNL A   1      36.958  30.087  27.256  1.00  0.00    -0.225 OA
ENDBRANCH  16  17
ENDBRANCH  12  15
BRANCH  13  21
ATOM     21  C   UNL A   1      30.407  27.789  22.938  1.00  0.00     0.193 C 
ATOM     22  O   UNL A   1      30.663  27.328  21.830  1.00  0.00    -0.289 OA
BRANCH  21  23
ATOM     23  C   UNL A   1      29.349  28.827  23.065  1.00  0.00     0.022 A 
ATOM     24  C   UNL A   1      28.015  28.415  23.126  1.00  0.00     0.012 A 
ATOM     25  C   UNL A   1      29.671  30.186  23.171  1.00  0.00     0.012 A 
ATOM     26  C   UNL A   1      27.010  29.359  23.347  1.00  0.00     0.001 A 
ATOM     27  C   UNL A   1      28.662  31.125  23.400  1.00  0.00     0.001 A 
ATOM     28  C   UNL A   1      27.334  30.709  23.495  1.00  0.00     0.000 A 
ENDBRANCH  21  23
ENDBRANCH  13  21
ENDBRANCH   7   9
ENDBRANCH   4   7
ENDBRANCH   2   3
ENDBRANCH   1   2
BRANCH   1  29
ATOM     29  C   UNL A   1      36.142  22.277  26.025  1.00  0.00     0.118 C 
BRANCH  29  30
ATOM     30  N   UNL A   1      37.133  21.221  25.897  1.00  0.00    -0.352 N 
ATOM     31  C   UNL A   1      38.503  21.293  25.926  1.00  0.00     0.251 C 
ATOM     32  H   UNL A   1      36.766  20.316  25.770  1.00  0.00     0.163 HD
ATOM     33  O   UNL A   1      39.161  20.321  25.562  1.00  0.00    -0.269 OA
BRANCH  31  34
ATOM     34  C   UNL A   1      39.179  22.533  26.369  1.00  0.00     0.039 A 
ATOM     35  C   UNL A   1      40.268  22.433  27.238  1.00  0.00     0.014 A 
ATOM     36  C   UNL A   1      38.731  23.789  25.950  1.00  0.00     0.014 A 
ATOM     37  C   UNL A   1      40.943  23.590  27.636  1.00  0.00     0.010 A 
ATOM     38  C   UNL A   1      39.455  24.931  26.279  1.00  0.00     0.010 A 
ATOM     39  C   UNL A   1      40.568  24.845  27.129  1.00  0.00    -0.014 A 
BRANCH  39  40
ATOM     40  C   UNL A   1      41.327  26.075  27.479  1.00  0.00     0.031 A 
ATOM     41  C   UNL A   1      40.687  27.144  28.323  1.00  0.00     0.074 A 
ATOM     42  C   UNL A   1      42.570  26.251  26.989  1.00  0.00     0.049 A 
ATOM     43  N   UNL A   1      41.159  28.313  28.673  1.00  0.00    -0.248 NA
ATOM     44  C   UNL A   1      39.329  26.874  28.815  1.00  0.00     0.031 C 
ATOM     45  C   UNL A   1      43.283  25.299  26.133  1.00  0.00     0.029 A 
ATOM     46  N   UNL A   1      43.455  27.290  27.134  1.00  0.00    -0.354 N 
ATOM     47  C   UNL A   1      40.154  28.922  29.418  1.00  0.00     0.074 A 
ATOM     48  C   UNL A   1      39.024  28.016  29.410  1.00  0.00     0.031 C 
ATOM     49  C   UNL A   1      44.503  25.786  25.854  1.00  0.00     0.029 A 
ATOM     50  C   UNL A   1      44.642  27.105  26.462  1.00  0.00     0.049 A 
ATOM     51  H   UNL A   1      43.260  28.093  27.668  1.00  0.00     0.167 HD
ATOM     52  C   UNL A   1      40.180  30.112  30.066  1.00  0.00     0.034 A 
ATOM     53  C   UNL A   1      45.714  27.913  26.333  1.00  0.00     0.034 A 
ATOM     54  C   UNL A   1      41.318  31.000  30.066  1.00  0.00     0.049 A 
ATOM     55  C   UNL A   1      45.701  29.252  27.026  1.00  0.00     0.074 A 
ATOM     56  C   UNL A   1      41.469  32.207  30.727  1.00  0.00     0.029 A 
ATOM     57  N   UNL A   1      42.496  30.785  29.363  1.00  0.00    -0.354 N 
ATOM     58  N   UNL A   1      44.759  29.792  27.764  1.00  0.00    -0.248 NA
ATOM     59  C   UNL A   1      46.900  30.087  26.876  1.00  0.00     0.031 C 
ATOM     60  C   UNL A   1      42.700  32.758  30.359  1.00  0.00     0.029 A 
ATOM     61  C   UNL A   1      43.362  31.853  29.545  1.00  0.00     0.049 A 
ATOM     62  H   UNL A   1      42.690  29.990  28.816  1.00  0.00     0.167 HD
ATOM     63  C   UNL A   1      45.270  31.014  28.198  1.00  0.00     0.074 A 
ATOM     64  C   UNL A   1      46.605  31.123  27.648  1.00  0.00     0.031 C 
ATOM     65  C   UNL A   1      44.690  31.956  28.984  1.00  0.00     0.034 A 
BRANCH  52  66
ATOM     66  C   UNL A   1      38.929  30.534  30.802  1.00  0.00     0.023 A 
ATOM     67  C   UNL A   1      38.072  31.528  30.297  1.00  0.00     0.031 A 
ATOM     68  C   UNL A   1      38.596  29.947  32.036  1.00  0.00     0.131 A 
ATOM     69  C   UNL A   1      36.973  31.959  31.055  1.00  0.00     0.055 A 
ATOM     70  C   UNL A   1      37.451  30.318  32.744  1.00  0.00     0.041 A 
ATOM     71  F   UNL A   1      39.385  29.009  32.583  1.00  0.00    -0.206 F 
ATOM     72  C   UNL A   1      36.640  31.341  32.262  1.00  0.00     0.022 A 
BRANCH  69  73
ATOM     73  S   UNL A   1      36.078  33.441  30.515  1.00  0.00     0.124 S 
ATOM     74  O   UNL A   1      36.474  34.411  31.532  1.00  0.00    -0.237 OA
ATOM     75  O   UNL A   1      36.613  33.663  29.177  1.00  0.00    -0.237 OA
ATOM     76  O   UNL A   1      34.676  33.032  30.567  1.00  0.00    -0.744 OA
ENDBRANCH  69  73
ENDBRANCH  52  66
BRANCH  53  77
ATOM     77  C   UNL A   1      46.884  27.492  25.507  1.00  0.00     0.023 A 
ATOM     78  C   UNL A   1      47.040  27.946  24.188  1.00  0.00     0.031 A 
ATOM     79  C   UNL A   1      47.840  26.591  26.010  1.00  0.00     0.131 A 
ATOM     80  C   UNL A   1      48.093  27.456  23.399  1.00  0.00     0.055 A 
ATOM     81  C   UNL A   1      48.920  26.155  25.242  1.00  0.00     0.041 A 
ATOM     82  F   UNL A   1      47.741  26.126  27.266  1.00  0.00    -0.206 F 
ATOM     83  C   UNL A   1      49.043  26.577  23.923  1.00  0.00     0.022 A 
BRANCH  80  84
ATOM     84  S   UNL A   1      48.145  27.909  21.644  1.00  0.00     0.124 S 
ATOM     85  O   UNL A   1      48.332  26.608  21.010  1.00  0.00    -0.237 OA
ATOM     86  O   UNL A   1      46.842  28.535  21.454  1.00  0.00    -0.237 OA
ATOM     87  O   UNL A   1      49.289  28.815  21.561  1.00  0.00    -0.744 OA
ENDBRANCH  80  84
ENDBRANCH  53  77
BRANCH  65  88
ATOM     88  C   UNL A   1      45.523  33.164  29.343  1.00  0.00     0.023 A 
ATOM     89  C   UNL A   1      45.539  34.322  28.545  1.00  0.00     0.031 A 
ATOM     90  C   UNL A   1      46.319  33.151  30.503  1.00  0.00     0.131 A 
ATOM     91  C   UNL A   1      46.377  35.394  28.887  1.00  0.00     0.055 A 
ATOM     92  C   UNL A   1      47.097  34.247  30.876  1.00  0.00     0.041 A 
ATOM     93  F   UNL A   1      46.348  32.070  31.300  1.00  0.00    -0.206 F 
ATOM     94  C   UNL A   1      47.141  35.373  30.057  1.00  0.00     0.022 A 
BRANCH  91  95
ATOM     95  S   UNL A   1      46.537  36.779  27.727  1.00  0.00     0.124 S 
ATOM     96  O   UNL A   1      46.786  36.089  26.465  1.00  0.00    -0.237 OA
ATOM     97  O   UNL A   1      45.242  37.439  27.848  1.00  0.00    -0.237 OA
ATOM     98  O   UNL A   1      47.671  37.538  28.252  1.00  0.00    -0.744 OA
ENDBRANCH  91  95
ENDBRANCH  65  88
ENDBRANCH  39  40
ENDBRANCH  31  34
ENDBRANCH  29  30
ENDBRANCH   1  29
TORSDOF 18
ENDMDL
MODEL 3
REMARK VINA RESULT:     -11.5      1.693      3.390
REMARK SMILES C[C@@H](C(=O)NCCCNC(=O)c1ccc(-c2c3nc(c(-c4cc(S(=O)(=O)[O-])ccc4F)c4ccc([nH]4)c(-c4cc(S(=O)(=O)[O-])ccc4F)c4nc(c(-c5cc(S(=O)(=O)[O-])ccc5F)c5ccc2[nH]5)C=C4)C=C3)cc1)c1cc(/C=C/S(C)(=O)=O)cc(C(=O)c2ccccc2)c1
REMARK SMILES IDX 7 1 6 2 5 3 3 4 4 5 2 7 1 8 75 9 76 10 94 11 77 12 85 13
REMARK SMILES IDX 84 14 78 15 79 16 80 17 81 18 82 19 83 20 86 21 87 22 88 23
REMARK SMILES IDX 89 24 93 25 90 26 92 27 91 28 8 29 9 30 10 31 11 33 12 34
REMARK SMILES IDX 13 35 74 36 14 37 73 38 15 39 16 40 17 41 67 42 18 43 72 44
REMARK SMILES IDX 66 45 68 46 19 47 71 48 65 49 64 50 20 52 52 53 32 54 51 55
REMARK SMILES IDX 33 56 36 57 50 58 69 59 34 60 35 61 49 63 70 64 37 65 21 66
REMARK SMILES IDX 22 67 30 68 23 69 29 70 31 71 28 72 24 73 25 74 26 75 27 76
REMARK SMILES IDX 53 77 54 78 62 79 55 80 61 81 63 82 60 83 56 84 57 85 58 86
REMARK SMILES IDX 59 87 38 88 39 89 47 90 40 91 46 92 48 93 45 94 41 95 42 96
REMARK SMILES IDX 43 97 44 98
REMARK H PARENT 5 6 9 32 68 51 36 62
REMARK Flexibility Score: inf
ROOT
ATOM      1  C   UNL A   1      35.454  22.343  26.657  1.00  0.00     0.042 C 
ENDROOT
BRANCH   1   2
ATOM      2  C   UNL A   1      34.350  23.368  26.403  1.00  0.00     0.117 C 
BRANCH   2   3
ATOM      3  N   UNL A   1      33.315  22.826  25.543  1.00  0.00    -0.356 N 
ATOM      4  C   UNL A   1      31.984  23.116  25.489  1.00  0.00     0.227 C 
ATOM      5  O   UNL A   1      31.288  22.442  24.727  1.00  0.00    -0.274 OA
ATOM      6  H   UNL A   1      33.621  22.146  24.899  1.00  0.00     0.163 HD
BRANCH   4   7
ATOM      7  C   UNL A   1      31.429  24.275  26.324  1.00  0.00     0.105 C 
ATOM      8  C   UNL A   1      29.921  24.146  26.585  1.00  0.00     0.023 C 
BRANCH   7   9
ATOM      9  C   UNL A   1      31.736  25.632  25.698  1.00  0.00    -0.035 A 
ATOM     10  C   UNL A   1      32.473  26.592  26.404  1.00  0.00     0.012 A 
ATOM     11  C   UNL A   1      31.254  25.957  24.426  1.00  0.00     0.016 A 
ATOM     12  C   UNL A   1      32.673  27.884  25.892  1.00  0.00    -0.024 A 
ATOM     13  C   UNL A   1      31.366  27.254  23.928  1.00  0.00     0.023 A 
ATOM     14  C   UNL A   1      32.093  28.209  24.654  1.00  0.00     0.020 A 
BRANCH  12  15
ATOM     15  C   UNL A   1      33.415  28.927  26.631  1.00  0.00     0.020 C 
ATOM     16  C   UNL A   1      34.684  28.816  27.058  1.00  0.00     0.106 C 
BRANCH  16  17
ATOM     17  S   UNL A   1      35.422  30.088  27.982  1.00  0.00     0.168 S 
ATOM     18  C   UNL A   1      37.057  30.112  27.288  1.00  0.00     0.163 C 
ATOM     19  O   UNL A   1      34.790  31.342  27.617  1.00  0.00    -0.225 OA
ATOM     20  O   UNL A   1      35.554  29.705  29.374  1.00  0.00    -0.225 OA
ENDBRANCH  16  17
ENDBRANCH  12  15
BRANCH  13  21
ATOM     21  C   UNL A   1      30.700  27.635  22.646  1.00  0.00     0.193 C 
ATOM     22  O   UNL A   1      31.024  27.095  21.594  1.00  0.00    -0.289 OA
BRANCH  21  23
ATOM     23  C   UNL A   1      29.631  28.670  22.633  1.00  0.00     0.022 A 
ATOM     24  C   UNL A   1      28.369  28.331  23.128  1.00  0.00     0.012 A 
ATOM     25  C   UNL A   1      29.884  29.972  22.181  1.00  0.00     0.012 A 
ATOM     26  C   UNL A   1      27.378  29.310  23.220  1.00  0.00     0.001 A 
ATOM     27  C   UNL A   1      28.891  30.948  22.282  1.00  0.00     0.001 A 
ATOM     28  C   UNL A   1      27.642  30.618  22.810  1.00  0.00     0.000 A 
ENDBRANCH  21  23
ENDBRANCH  13  21
ENDBRANCH   7   9
ENDBRANCH   4   7
ENDBRANCH   2   3
ENDBRANCH   1   2
BRANCH   1  29
ATOM     29  C   UNL A   1      36.599  22.418  25.653  1.00  0.00     0.118 C 
BRANCH  29  30
ATOM     30  N   UNL A   1      37.595  21.383  25.879  1.00  0.00    -0.352 N 
ATOM     31  C   UNL A   1      38.924  21.497  26.203  1.00  0.00     0.251 C 
ATOM     32  H   UNL A   1      37.267  20.460  25.786  1.00  0.00     0.163 HD
ATOM     33  O   UNL A   1      39.647  20.508  26.116  1.00  0.00    -0.269 OA
BRANCH  31  34
ATOM     34  C   UNL A   1      39.482  22.799  26.629  1.00  0.00     0.039 A 
ATOM     35  C   UNL A   1      40.485  22.817  27.601  1.00  0.00     0.014 A 
ATOM     36  C   UNL A   1      39.006  23.999  26.092  1.00  0.00     0.014 A 
ATOM     37  C   UNL A   1      41.052  24.034  27.987  1.00  0.00     0.010 A 
ATOM     38  C   UNL A   1      39.630  25.201  26.416  1.00  0.00     0.010 A 
ATOM     39  C   UNL A   1      40.657  25.233  27.370  1.00  0.00    -0.014 A 
BRANCH  39  40
ATOM     40  C   UNL A   1      41.308  26.525  27.712  1.00  0.00     0.031 A 
ATOM     41  C   UNL A   1      42.719  26.802  27.268  1.00  0.00     0.074 A 
ATOM     42  C   UNL A   1      40.648  27.422  28.471  1.00  0.00     0.049 A 
ATOM     43  N   UNL A   1      43.481  27.835  27.527  1.00  0.00    -0.248 NA
ATOM     44  C   UNL A   1      43.368  25.770  26.446  1.00  0.00     0.031 C 
ATOM     45  C   UNL A   1      39.288  27.253  28.988  1.00  0.00     0.029 A 
ATOM     46  N   UNL A   1      41.028  28.654  28.944  1.00  0.00    -0.354 N 
ATOM     47  C   UNL A   1      44.699  27.574  26.910  1.00  0.00     0.074 A 
ATOM     48  C   UNL A   1      44.594  26.255  26.321  1.00  0.00     0.031 C 
ATOM     49  C   UNL A   1      38.940  28.349  29.680  1.00  0.00     0.029 A 
ATOM     50  C   UNL A   1      40.066  29.276  29.705  1.00  0.00     0.049 A 
ATOM     51  H   UNL A   1      41.907  29.055  28.755  1.00  0.00     0.167 HD
ATOM     52  C   UNL A   1      45.794  28.369  26.824  1.00  0.00     0.034 A 
ATOM     53  C   UNL A   1      40.092  30.452  30.365  1.00  0.00     0.034 A 
ATOM     54  C   UNL A   1      45.879  29.683  27.415  1.00  0.00     0.049 A 
ATOM     55  C   UNL A   1      41.338  31.298  30.292  1.00  0.00     0.074 A 
ATOM     56  C   UNL A   1      46.922  30.591  27.348  1.00  0.00     0.029 A 
ATOM     57  N   UNL A   1      44.890  30.273  28.190  1.00  0.00    -0.354 N 
ATOM     58  N   UNL A   1      42.466  31.056  29.664  1.00  0.00    -0.248 NA
ATOM     59  C   UNL A   1      41.311  32.581  31.007  1.00  0.00     0.031 C 
ATOM     60  C   UNL A   1      46.598  31.690  28.148  1.00  0.00     0.029 A 
ATOM     61  C   UNL A   1      45.313  31.516  28.638  1.00  0.00     0.049 A 
ATOM     62  H   UNL A   1      44.015  29.869  28.392  1.00  0.00     0.167 HD
ATOM     63  C   UNL A   1      43.268  32.175  29.879  1.00  0.00     0.074 A 
ATOM     64  C   UNL A   1      42.489  33.095  30.682  1.00  0.00     0.031 C 
ATOM     65  C   UNL A   1      44.530  32.422  29.446  1.00  0.00     0.034 A 
BRANCH  52  66
ATOM     66  C   UNL A   1      46.997  27.823  26.088  1.00  0.00     0.023 A 
ATOM     67  C   UNL A   1      47.234  28.121  24.734  1.00  0.00     0.031 A 
ATOM     68  C   UNL A   1      47.911  26.979  26.743  1.00  0.00     0.131 A 
ATOM     69  C   UNL A   1      48.307  27.519  24.061  1.00  0.00     0.055 A 
ATOM     70  C   UNL A   1      49.028  26.454  26.090  1.00  0.00     0.041 A 
ATOM     71  F   UNL A   1      47.728  26.638  28.028  1.00  0.00    -0.206 F 
ATOM     72  C   UNL A   1      49.223  26.711  24.736  1.00  0.00     0.022 A 
BRANCH  69  73
ATOM     73  S   UNL A   1      48.399  27.686  22.256  1.00  0.00     0.124 S 
ATOM     74  O   UNL A   1      48.499  26.291  21.837  1.00  0.00    -0.237 OA
ATOM     75  O   UNL A   1      47.147  28.361  21.938  1.00  0.00    -0.237 OA
ATOM     76  O   UNL A   1      49.608  28.480  22.047  1.00  0.00    -0.744 OA
ENDBRANCH  69  73
ENDBRANCH  52  66
BRANCH  53  77
ATOM     77  C   UNL A   1      38.913  30.898  31.164  1.00  0.00     0.023 A 
ATOM     78  C   UNL A   1      37.912  31.699  30.593  1.00  0.00     0.031 A 
ATOM     79  C   UNL A   1      38.794  30.568  32.527  1.00  0.00     0.131 A 
ATOM     80  C   UNL A   1      36.867  32.189  31.392  1.00  0.00     0.055 A 
ATOM     81  C   UNL A   1      37.720  31.006  33.302  1.00  0.00     0.041 A 
ATOM     82  F   UNL A   1      39.722  29.803  33.124  1.00  0.00    -0.206 F 
ATOM     83  C   UNL A   1      36.755  31.834  32.738  1.00  0.00     0.022 A 
BRANCH  80  84
ATOM     84  S   UNL A   1      35.707  33.381  30.669  1.00  0.00     0.124 S 
ATOM     85  O   UNL A   1      36.335  33.659  29.382  1.00  0.00    -0.237 OA
ATOM     86  O   UNL A   1      34.469  32.611  30.628  1.00  0.00    -0.237 OA
ATOM     87  O   UNL A   1      35.720  34.488  31.623  1.00  0.00    -0.744 OA
ENDBRANCH  80  84
ENDBRANCH  53  77
BRANCH  65  88
ATOM     88  C   UNL A   1      45.126  33.768  29.787  1.00  0.00     0.023 A 
ATOM     89  C   UNL A   1      44.969  34.887  28.950  1.00  0.00     0.031 A 
ATOM     90  C   UNL A   1      45.870  33.929  30.971  1.00  0.00     0.131 A 
ATOM     91  C   UNL A   1      45.595  36.099  29.279  1.00  0.00     0.055 A 
ATOM     92  C   UNL A   1      46.430  35.155  31.328  1.00  0.00     0.041 A 
ATOM     93  F   UNL A   1      46.058  32.894  31.806  1.00  0.00    -0.206 F 
ATOM     94  C   UNL A   1      46.307  36.247  30.472  1.00  0.00     0.022 A 
BRANCH  91  95
ATOM     95  S   UNL A   1      45.553  37.455  28.076  1.00  0.00     0.124 S 
ATOM     96  O   UNL A   1      44.735  36.888  27.009  1.00  0.00    -0.237 OA
ATOM     97  O   UNL A   1      44.941  38.535  28.843  1.00  0.00    -0.237 OA
ATOM     98  O   UNL A   1      46.960  37.657  27.737  1.00  0.00    -0.744 OA
ENDBRANCH  91  95
ENDBRANCH  65  88
ENDBRANCH  39  40
ENDBRANCH  31  34
ENDBRANCH  29  30
ENDBRANCH   1  29
TORSDOF 18
ENDMDL
