MODEL 1
REMARK VINA RESULT:     -12.1      0.000      0.000
REMARK SMILES O=C(NCCCNC(=O)C1(NC(=O)c2ccncc2Cl)CCCCC1)c1ccc(-c2c3nc(c(-c4cc(S(=O)(=O)[O-])ccc4F)c4ccc([nH]4)c(-c4cc(S(=O)(=O)[O-])ccc4F)c4nc(c(-c5cc(S(=O)(=O)[O-])ccc5F)c5ccc2[nH]5)C=C4)C=C3)cc1
REMARK SMILES IDX 4 1 3 2 1 3 2 4 26 6 27 7 88 8 28 9 87 10 29 11 30 12 31 13
REMARK SMILES IDX 81 14 32 15 86 16 80 17 82 18 33 19 85 20 79 21 78 22 34 24
REMARK SMILES IDX 66 25 46 26 65 27 47 28 50 29 64 30 83 31 48 32 49 33 63 35
REMARK SMILES IDX 84 36 51 37 35 38 36 39 44 40 37 41 43 42 45 43 42 44 38 45
REMARK SMILES IDX 39 46 40 47 41 48 67 49 68 50 76 51 69 52 75 53 77 54 74 55
REMARK SMILES IDX 70 56 71 57 72 58 73 59 52 60 53 61 61 62 54 63 60 64 62 65
REMARK SMILES IDX 59 66 55 67 56 68 57 69 58 70 5 71 6 72 7 73 8 74 9 76 10 77
REMARK SMILES IDX 21 78 25 79 22 80 24 81 23 82 11 83 12 84 13 86 14 87 15 88
REMARK SMILES IDX 19 89 16 90 18 91 20 92 17 93
REMARK H PARENT 3 5 82 23 50 34 7 75 11 85
REMARK Flexibility Score: inf
ROOT
ATOM      1  C   UNL A   1      32.795  29.505  25.499  1.00  0.00     0.118 C 
ENDROOT
BRANCH   1   2
ATOM      2  N   UNL A   1      32.403  30.831  25.950  1.00  0.00    -0.352 N 
ATOM      3  O   UNL A   1      32.229  32.547  27.378  1.00  0.00    -0.269 OA
ATOM      4  C   UNL A   1      32.894  31.595  26.978  1.00  0.00     0.251 C 
ATOM      5  H   UNL A   1      31.672  31.246  25.436  1.00  0.00     0.163 HD
BRANCH   4   6
ATOM      6  C   UNL A   1      34.207  31.297  27.592  1.00  0.00     0.039 A 
ATOM      7  C   UNL A   1      35.160  32.301  27.792  1.00  0.00     0.014 A 
ATOM      8  C   UNL A   1      34.442  30.007  28.078  1.00  0.00     0.014 A 
ATOM      9  C   UNL A   1      36.376  32.000  28.406  1.00  0.00     0.010 A 
ATOM     10  C   UNL A   1      35.637  29.720  28.743  1.00  0.00     0.010 A 
ATOM     11  C   UNL A   1      36.617  30.712  28.905  1.00  0.00    -0.014 A 
BRANCH  11  12
ATOM     12  C   UNL A   1      37.867  30.411  29.649  1.00  0.00     0.031 A 
ATOM     13  C   UNL A   1      38.892  29.482  29.068  1.00  0.00     0.074 A 
ATOM     14  C   UNL A   1      38.046  30.939  30.875  1.00  0.00     0.049 A 
ATOM     15  N   UNL A   1      39.990  29.017  29.609  1.00  0.00    -0.248 NA
ATOM     16  C   UNL A   1      38.639  29.002  27.704  1.00  0.00     0.031 C 
ATOM     17  C   UNL A   1      37.112  31.847  31.543  1.00  0.00     0.029 A 
ATOM     18  N   UNL A   1      39.060  30.774  31.784  1.00  0.00    -0.354 N 
ATOM     19  C   UNL A   1      40.553  28.173  28.658  1.00  0.00     0.074 A 
ATOM     20  C   UNL A   1      39.651  28.166  27.523  1.00  0.00     0.031 C 
ATOM     21  C   UNL A   1      37.591  32.153  32.758  1.00  0.00     0.029 A 
ATOM     22  C   UNL A   1      38.835  31.420  32.977  1.00  0.00     0.049 A 
ATOM     23  H   UNL A   1      39.869  30.244  31.600  1.00  0.00     0.167 HD
ATOM     24  C   UNL A   1      41.718  27.478  28.726  1.00  0.00     0.034 A 
ATOM     25  C   UNL A   1      39.527  31.396  34.133  1.00  0.00     0.034 A 
ATOM     26  C   UNL A   1      42.593  27.493  29.874  1.00  0.00     0.049 A 
ATOM     27  C   UNL A   1      40.786  30.578  34.212  1.00  0.00     0.074 A 
ATOM     28  C   UNL A   1      43.815  26.863  30.038  1.00  0.00     0.029 A 
ATOM     29  N   UNL A   1      42.330  28.158  31.068  1.00  0.00    -0.354 N 
ATOM     30  N   UNL A   1      41.325  29.809  33.295  1.00  0.00    -0.248 NA
ATOM     31  C   UNL A   1      41.532  30.628  35.474  1.00  0.00     0.031 C 
ATOM     32  C   UNL A   1      44.255  27.087  31.348  1.00  0.00     0.029 A 
ATOM     33  C   UNL A   1      43.348  27.922  31.980  1.00  0.00     0.049 A 
ATOM     34  H   UNL A   1      41.537  28.714  31.238  1.00  0.00     0.167 HD
ATOM     35  C   UNL A   1      42.490  29.301  33.863  1.00  0.00     0.074 A 
ATOM     36  C   UNL A   1      42.574  29.852  35.201  1.00  0.00     0.031 C 
ATOM     37  C   UNL A   1      43.412  28.467  33.318  1.00  0.00     0.034 A 
BRANCH  24  38
ATOM     38  C   UNL A   1      42.069  26.606  27.542  1.00  0.00     0.023 A 
ATOM     39  C   UNL A   1      41.668  25.261  27.469  1.00  0.00     0.031 A 
ATOM     40  C   UNL A   1      42.866  27.109  26.498  1.00  0.00     0.131 A 
ATOM     41  C   UNL A   1      42.145  24.441  26.434  1.00  0.00     0.055 A 
ATOM     42  C   UNL A   1      43.263  26.311  25.423  1.00  0.00     0.041 A 
ATOM     43  F   UNL A   1      43.298  28.380  26.519  1.00  0.00    -0.206 F 
ATOM     44  C   UNL A   1      42.921  24.962  25.398  1.00  0.00     0.022 A 
BRANCH  41  45
ATOM     45  S   UNL A   1      41.892  22.649  26.567  1.00  0.00     0.124 S 
ATOM     46  O   UNL A   1      40.448  22.566  26.771  1.00  0.00    -0.237 OA
ATOM     47  O   UNL A   1      42.386  22.165  25.283  1.00  0.00    -0.237 OA
ATOM     48  O   UNL A   1      42.697  22.275  27.728  1.00  0.00    -0.744 OA
ENDBRANCH  41  45
ENDBRANCH  24  38
BRANCH  25  49
ATOM     49  C   UNL A   1      39.004  32.136  35.314  1.00  0.00     0.023 A 
ATOM     50  C   UNL A   1      38.373  31.468  36.373  1.00  0.00     0.031 A 
ATOM     51  C   UNL A   1      39.163  33.530  35.408  1.00  0.00     0.131 A 
ATOM     52  C   UNL A   1      37.907  32.200  37.477  1.00  0.00     0.055 A 
ATOM     53  C   UNL A   1      38.734  34.248  36.525  1.00  0.00     0.041 A 
ATOM     54  F   UNL A   1      39.772  34.211  34.423  1.00  0.00    -0.206 F 
ATOM     55  C   UNL A   1      38.097  33.582  37.566  1.00  0.00     0.022 A 
BRANCH  52  56
ATOM     56  S   UNL A   1      37.021  31.322  38.793  1.00  0.00     0.124 S 
ATOM     57  O   UNL A   1      37.932  31.478  39.921  1.00  0.00    -0.237 OA
ATOM     58  O   UNL A   1      35.771  32.071  38.869  1.00  0.00    -0.237 OA
ATOM     59  O   UNL A   1      36.897  29.962  38.273  1.00  0.00    -0.744 OA
ENDBRANCH  52  56
ENDBRANCH  25  49
BRANCH  37  60
ATOM     60  C   UNL A   1      44.622  28.140  34.156  1.00  0.00     0.023 A 
ATOM     61  C   UNL A   1      44.665  27.013  34.994  1.00  0.00     0.031 A 
ATOM     62  C   UNL A   1      45.759  28.966  34.091  1.00  0.00     0.131 A 
ATOM     63  C   UNL A   1      45.814  26.759  35.759  1.00  0.00     0.055 A 
ATOM     64  C   UNL A   1      46.914  28.682  34.819  1.00  0.00     0.041 A 
ATOM     65  F   UNL A   1      45.767  30.056  33.306  1.00  0.00    -0.206 F 
ATOM     66  C   UNL A   1      46.944  27.578  35.664  1.00  0.00     0.022 A 
BRANCH  63  67
ATOM     67  S   UNL A   1      45.803  25.366  36.922  1.00  0.00     0.124 S 
ATOM     68  O   UNL A   1      44.378  25.219  37.202  1.00  0.00    -0.237 OA
ATOM     69  O   UNL A   1      46.414  24.298  36.139  1.00  0.00    -0.237 OA
ATOM     70  O   UNL A   1      46.607  25.849  38.043  1.00  0.00    -0.744 OA
ENDBRANCH  63  67
ENDBRANCH  37  60
ENDBRANCH  11  12
ENDBRANCH   4   6
ENDBRANCH   1   2
BRANCH   1  71
ATOM     71  C   UNL A   1      31.903  28.417  26.094  1.00  0.00     0.042 C 
BRANCH  71  72
ATOM     72  C   UNL A   1      32.669  27.202  26.618  1.00  0.00     0.117 C 
BRANCH  72  73
ATOM     73  N   UNL A   1      31.812  26.057  26.864  1.00  0.00    -0.354 N 
ATOM     74  C   UNL A   1      31.945  24.725  26.647  1.00  0.00     0.245 C 
ATOM     75  H   UNL A   1      30.952  26.299  27.276  1.00  0.00     0.163 HD
ATOM     76  O   UNL A   1      31.127  24.034  27.272  1.00  0.00    -0.272 OA
BRANCH  74  77
ATOM     77  C   UNL A   1      33.110  24.043  25.846  1.00  0.00     0.119 C 
ATOM     78  C   UNL A   1      34.313  24.911  25.415  1.00  0.00     0.038 C 
ATOM     79  C   UNL A   1      33.556  22.918  26.829  1.00  0.00     0.038 C 
ATOM     80  C   UNL A   1      35.582  24.122  25.073  1.00  0.00     0.003 C 
ATOM     81  C   UNL A   1      34.836  22.186  26.448  1.00  0.00     0.003 C 
ATOM     82  C   UNL A   1      35.967  23.167  26.193  1.00  0.00     0.000 C 
BRANCH  77  83
ATOM     83  N   UNL A   1      32.588  23.388  24.601  1.00  0.00    -0.338 N 
ATOM     84  C   UNL A   1      32.262  23.915  23.371  1.00  0.00     0.253 C 
ATOM     85  H   UNL A   1      32.455  22.415  24.677  1.00  0.00     0.164 HD
ATOM     86  O   UNL A   1      32.391  23.224  22.361  1.00  0.00    -0.269 OA
BRANCH  84  87
ATOM     87  C   UNL A   1      31.516  25.179  23.250  1.00  0.00     0.061 A 
ATOM     88  C   UNL A   1      30.189  25.141  23.699  1.00  0.00     0.035 A 
ATOM     89  C   UNL A   1      32.021  26.345  22.689  1.00  0.00     0.072 A 
ATOM     90  C   UNL A   1      29.440  26.302  23.635  1.00  0.00     0.112 A 
ATOM     91  C   UNL A   1      31.186  27.455  22.676  1.00  0.00     0.132 A 
ATOM     92  Cl  UNL A   1      33.586  26.486  22.004  1.00  0.00    -0.082 Cl
ATOM     93  N   UNL A   1      29.912  27.465  23.141  1.00  0.00    -0.263 NA
ENDBRANCH  84  87
ENDBRANCH  77  83
ENDBRANCH  74  77
ENDBRANCH  72  73
ENDBRANCH  71  72
ENDBRANCH   1  71
TORSDOF 15
ENDMDL
MODEL 2
REMARK VINA RESULT:     -11.9      4.985      9.930
REMARK SMILES O=C(NCCCNC(=O)C1(NC(=O)c2ccncc2Cl)CCCCC1)c1ccc(-c2c3nc(c(-c4cc(S(=O)(=O)[O-])ccc4F)c4ccc([nH]4)c(-c4cc(S(=O)(=O)[O-])ccc4F)c4nc(c(-c5cc(S(=O)(=O)[O-])ccc5F)c5ccc2[nH]5)C=C4)C=C3)cc1
REMARK SMILES IDX 4 1 3 2 1 3 2 4 26 6 27 7 88 8 28 9 87 10 29 11 30 12 31 13
REMARK SMILES IDX 81 14 32 15 86 16 80 17 82 18 33 19 85 20 79 21 78 22 34 24
REMARK SMILES IDX 66 25 46 26 65 27 47 28 50 29 64 30 83 31 48 32 49 33 63 35
REMARK SMILES IDX 84 36 51 37 35 38 36 39 44 40 37 41 43 42 45 43 42 44 38 45
REMARK SMILES IDX 39 46 40 47 41 48 67 49 68 50 76 51 69 52 75 53 77 54 74 55
REMARK SMILES IDX 70 56 71 57 72 58 73 59 52 60 53 61 61 62 54 63 60 64 62 65
REMARK SMILES IDX 59 66 55 67 56 68 57 69 58 70 5 71 6 72 7 73 8 74 9 76 10 77
REMARK SMILES IDX 21 78 25 79 22 80 24 81 23 82 11 83 12 84 13 86 14 87 15 88
REMARK SMILES IDX 19 89 16 90 18 91 20 92 17 93
REMARK H PARENT 3 5 82 23 50 34 7 75 11 85
REMARK Flexibility Score: inf
ROOT
ATOM      1  C   UNL A   1      35.954  22.178  26.004  1.00  0.00     0.118 C 
ENDROOT
BRANCH   1   2
ATOM      2  N   UNL A   1      36.950  21.139  25.797  1.00  0.00    -0.352 N 
ATOM      3  O   UNL A   1      38.957  20.293  25.276  1.00  0.00    -0.269 OA
ATOM      4  C   UNL A   1      38.318  21.224  25.761  1.00  0.00     0.251 C 
ATOM      5  H   UNL A   1      36.586  20.234  25.663  1.00  0.00     0.163 HD
BRANCH   4   6
ATOM      6  C   UNL A   1      39.027  22.403  26.306  1.00  0.00     0.039 A 
ATOM      7  C   UNL A   1      40.109  22.260  27.181  1.00  0.00     0.014 A 
ATOM      8  C   UNL A   1      38.668  23.673  25.844  1.00  0.00     0.014 A 
ATOM      9  C   UNL A   1      40.781  23.388  27.653  1.00  0.00     0.010 A 
ATOM     10  C   UNL A   1      39.378  24.797  26.273  1.00  0.00     0.010 A 
ATOM     11  C   UNL A   1      40.435  24.664  27.187  1.00  0.00    -0.014 A 
BRANCH  11  12
ATOM     12  C   UNL A   1      41.212  25.858  27.608  1.00  0.00     0.031 A 
ATOM     13  C   UNL A   1      40.570  26.930  28.438  1.00  0.00     0.074 A 
ATOM     14  C   UNL A   1      42.485  25.995  27.190  1.00  0.00     0.049 A 
ATOM     15  N   UNL A   1      41.050  28.089  28.811  1.00  0.00    -0.248 NA
ATOM     16  C   UNL A   1      39.199  26.667  28.894  1.00  0.00     0.031 C 
ATOM     17  C   UNL A   1      43.210  25.022  26.370  1.00  0.00     0.029 A 
ATOM     18  N   UNL A   1      43.387  27.012  27.376  1.00  0.00    -0.354 N 
ATOM     19  C   UNL A   1      40.034  28.706  29.534  1.00  0.00     0.074 A 
ATOM     20  C   UNL A   1      38.901  27.802  29.510  1.00  0.00     0.031 C 
ATOM     21  C   UNL A   1      44.441  25.491  26.119  1.00  0.00     0.029 A 
ATOM     22  C   UNL A   1      44.574  26.819  26.709  1.00  0.00     0.049 A 
ATOM     23  H   UNL A   1      43.202  27.802  27.934  1.00  0.00     0.167 HD
ATOM     24  C   UNL A   1      40.053  29.909  30.163  1.00  0.00     0.034 A 
ATOM     25  C   UNL A   1      45.636  27.634  26.552  1.00  0.00     0.034 A 
ATOM     26  C   UNL A   1      41.192  30.797  30.161  1.00  0.00     0.049 A 
ATOM     27  C   UNL A   1      45.620  28.986  27.209  1.00  0.00     0.074 A 
ATOM     28  C   UNL A   1      41.338  32.017  30.797  1.00  0.00     0.029 A 
ATOM     29  N   UNL A   1      42.377  30.569  29.470  1.00  0.00    -0.354 N 
ATOM     30  N   UNL A   1      44.666  29.546  27.916  1.00  0.00    -0.248 NA
ATOM     31  C   UNL A   1      46.822  29.814  27.053  1.00  0.00     0.031 C 
ATOM     32  C   UNL A   1      42.578  32.558  30.436  1.00  0.00     0.029 A 
ATOM     33  C   UNL A   1      43.241  31.641  29.636  1.00  0.00     0.049 A 
ATOM     34  H   UNL A   1      42.573  29.763  28.940  1.00  0.00     0.167 HD
ATOM     35  C   UNL A   1      45.162  30.784  28.311  1.00  0.00     0.074 A 
ATOM     36  C   UNL A   1      46.500  30.888  27.764  1.00  0.00     0.031 C 
ATOM     37  C   UNL A   1      44.569  31.738  29.071  1.00  0.00     0.034 A 
BRANCH  24  38
ATOM     38  C   UNL A   1      38.779  30.344  30.852  1.00  0.00     0.023 A 
ATOM     39  C   UNL A   1      37.729  30.958  30.148  1.00  0.00     0.031 A 
ATOM     40  C   UNL A   1      38.638  30.199  32.244  1.00  0.00     0.131 A 
ATOM     41  C   UNL A   1      36.633  31.490  30.845  1.00  0.00     0.055 A 
ATOM     42  C   UNL A   1      37.502  30.651  32.921  1.00  0.00     0.041 A 
ATOM     43  F   UNL A   1      39.613  29.640  32.977  1.00  0.00    -0.206 F 
ATOM     44  C   UNL A   1      36.501  31.320  32.224  1.00  0.00     0.022 A 
BRANCH  41  45
ATOM     45  S   UNL A   1      35.482  32.569  29.948  1.00  0.00     0.124 S 
ATOM     46  O   UNL A   1      34.407  32.735  30.924  1.00  0.00    -0.237 OA
ATOM     47  O   UNL A   1      36.296  33.750  29.686  1.00  0.00    -0.237 OA
ATOM     48  O   UNL A   1      35.122  31.782  28.770  1.00  0.00    -0.744 OA
ENDBRANCH  41  45
ENDBRANCH  24  38
BRANCH  25  49
ATOM     49  C   UNL A   1      46.772  27.199  25.694  1.00  0.00     0.023 A 
ATOM     50  C   UNL A   1      46.924  27.679  24.386  1.00  0.00     0.031 A 
ATOM     51  C   UNL A   1      47.743  26.312  26.195  1.00  0.00     0.131 A 
ATOM     52  C   UNL A   1      48.019  27.257  23.614  1.00  0.00     0.055 A 
ATOM     53  C   UNL A   1      48.849  25.926  25.438  1.00  0.00     0.041 A 
ATOM     54  F   UNL A   1      47.643  25.835  27.447  1.00  0.00    -0.206 F 
ATOM     55  C   UNL A   1      48.988  26.395  24.137  1.00  0.00     0.022 A 
BRANCH  52  56
ATOM     56  S   UNL A   1      48.147  27.827  21.898  1.00  0.00     0.124 S 
ATOM     57  O   UNL A   1      48.352  26.573  21.182  1.00  0.00    -0.237 OA
ATOM     58  O   UNL A   1      46.856  28.477  21.696  1.00  0.00    -0.237 OA
ATOM     59  O   UNL A   1      49.297  28.728  21.923  1.00  0.00    -0.744 OA
ENDBRANCH  52  56
ENDBRANCH  25  49
BRANCH  37  60
ATOM     60  C   UNL A   1      45.386  32.962  29.399  1.00  0.00     0.023 A 
ATOM     61  C   UNL A   1      45.345  34.120  28.604  1.00  0.00     0.031 A 
ATOM     62  C   UNL A   1      46.203  32.970  30.544  1.00  0.00     0.131 A 
ATOM     63  C   UNL A   1      46.132  35.230  28.950  1.00  0.00     0.055 A 
ATOM     64  C   UNL A   1      46.948  34.091  30.907  1.00  0.00     0.041 A 
ATOM     65  F   UNL A   1      46.279  31.887  31.335  1.00  0.00    -0.206 F 
ATOM     66  C   UNL A   1      46.921  35.227  30.105  1.00  0.00     0.022 A 
BRANCH  63  67
ATOM     67  S   UNL A   1      46.153  36.669  27.845  1.00  0.00     0.124 S 
ATOM     68  O   UNL A   1      46.268  36.040  26.533  1.00  0.00    -0.237 OA
ATOM     69  O   UNL A   1      44.875  37.307  28.137  1.00  0.00    -0.237 OA
ATOM     70  O   UNL A   1      47.331  37.418  28.279  1.00  0.00    -0.744 OA
ENDBRANCH  63  67
ENDBRANCH  37  60
ENDBRANCH  11  12
ENDBRANCH   4   6
ENDBRANCH   1   2
BRANCH   1  71
ATOM     71  C   UNL A   1      35.501  22.802  24.685  1.00  0.00     0.042 C 
BRANCH  71  72
ATOM     72  C   UNL A   1      35.152  24.287  24.787  1.00  0.00     0.117 C 
BRANCH  72  73
ATOM     73  N   UNL A   1      34.358  24.758  23.668  1.00  0.00    -0.354 N 
ATOM     74  C   UNL A   1      33.516  25.806  23.494  1.00  0.00     0.245 C 
ATOM     75  H   UNL A   1      34.452  24.199  22.863  1.00  0.00     0.163 HD
ATOM     76  O   UNL A   1      33.266  26.053  22.304  1.00  0.00    -0.272 OA
BRANCH  74  77
ATOM     77  C   UNL A   1      33.014  26.772  24.625  1.00  0.00     0.119 C 
ATOM     78  C   UNL A   1      33.772  26.783  25.971  1.00  0.00     0.038 C 
ATOM     79  C   UNL A   1      33.103  28.160  23.921  1.00  0.00     0.038 C 
ATOM     80  C   UNL A   1      33.542  28.036  26.824  1.00  0.00     0.003 C 
ATOM     81  C   UNL A   1      32.888  29.367  24.825  1.00  0.00     0.003 C 
ATOM     82  C   UNL A   1      33.805  29.309  26.034  1.00  0.00     0.000 C 
BRANCH  77  83
ATOM     83  N   UNL A   1      31.572  26.510  24.948  1.00  0.00    -0.338 N 
ATOM     84  C   UNL A   1      30.987  25.579  25.778  1.00  0.00     0.253 C 
ATOM     85  H   UNL A   1      30.936  27.104  24.488  1.00  0.00     0.164 HD
ATOM     86  O   UNL A   1      29.925  25.848  26.337  1.00  0.00    -0.269 OA
BRANCH  84  87
ATOM     87  C   UNL A   1      31.448  24.181  25.810  1.00  0.00     0.061 A 
ATOM     88  C   UNL A   1      32.124  23.795  26.975  1.00  0.00     0.035 A 
ATOM     89  C   UNL A   1      31.302  23.276  24.766  1.00  0.00     0.072 A 
ATOM     90  C   UNL A   1      32.563  22.487  27.078  1.00  0.00     0.112 A 
ATOM     91  C   UNL A   1      31.777  21.987  24.974  1.00  0.00     0.132 A 
ATOM     92  Cl  UNL A   1      30.597  23.658  23.251  1.00  0.00    -0.082 Cl
ATOM     93  N   UNL A   1      32.397  21.568  26.105  1.00  0.00    -0.263 NA
ENDBRANCH  84  87
ENDBRANCH  77  83
ENDBRANCH  74  77
ENDBRANCH  72  73
ENDBRANCH  71  72
ENDBRANCH   1  71
TORSDOF 15
ENDMDL
MODEL 3
REMARK VINA RESULT:     -11.9      5.496     10.401
REMARK SMILES O=C(NCCCNC(=O)C1(NC(=O)c2ccncc2Cl)CCCCC1)c1ccc(-c2c3nc(c(-c4cc(S(=O)(=O)[O-])ccc4F)c4ccc([nH]4)c(-c4cc(S(=O)(=O)[O-])ccc4F)c4nc(c(-c5cc(S(=O)(=O)[O-])ccc5F)c5ccc2[nH]5)C=C4)C=C3)cc1
REMARK SMILES IDX 4 1 3 2 1 3 2 4 26 6 27 7 88 8 28 9 87 10 29 11 30 12 31 13
REMARK SMILES IDX 81 14 32 15 86 16 80 17 82 18 33 19 85 20 79 21 78 22 34 24
REMARK SMILES IDX 66 25 46 26 65 27 47 28 50 29 64 30 83 31 48 32 49 33 63 35
REMARK SMILES IDX 84 36 51 37 35 38 36 39 44 40 37 41 43 42 45 43 42 44 38 45
REMARK SMILES IDX 39 46 40 47 41 48 67 49 68 50 76 51 69 52 75 53 77 54 74 55
REMARK SMILES IDX 70 56 71 57 72 58 73 59 52 60 53 61 61 62 54 63 60 64 62 65
REMARK SMILES IDX 59 66 55 67 56 68 57 69 58 70 5 71 6 72 7 73 8 74 9 76 10 77
REMARK SMILES IDX 21 78 25 79 22 80 24 81 23 82 11 83 12 84 13 86 14 87 15 88
REMARK SMILES IDX 19 89 16 90 18 91 20 92 17 93
REMARK H PARENT 3 5 82 23 50 34 7 75 11 85
REMARK Flexibility Score: inf
ROOT
ATOM      1  C   UNL A   1      38.814  20.305  25.722  1.00  0.00     0.118 C 
ENDROOT
BRANCH   1   2
ATOM      2  N   UNL A   1      39.875  19.337  25.944  1.00  0.00    -0.352 N 
ATOM      3  O   UNL A   1      41.975  18.559  25.966  1.00  0.00    -0.269 OA
ATOM      4  C   UNL A   1      41.226  19.525  26.088  1.00  0.00     0.251 C 
ATOM      5  H   UNL A   1      39.578  18.400  26.002  1.00  0.00     0.163 HD
BRANCH   4   6
ATOM      6  C   UNL A   1      41.783  20.860  26.401  1.00  0.00     0.039 A 
ATOM      7  C   UNL A   1      41.964  21.823  25.403  1.00  0.00     0.014 A 
ATOM      8  C   UNL A   1      42.027  21.188  27.738  1.00  0.00     0.014 A 
ATOM      9  C   UNL A   1      42.458  23.086  25.731  1.00  0.00     0.010 A 
ATOM     10  C   UNL A   1      42.469  22.471  28.071  1.00  0.00     0.010 A 
ATOM     11  C   UNL A   1      42.696  23.427  27.070  1.00  0.00    -0.014 A 
BRANCH  11  12
ATOM     12  C   UNL A   1      43.126  24.802  27.434  1.00  0.00     0.031 A 
ATOM     13  C   UNL A   1      42.163  25.754  28.079  1.00  0.00     0.074 A 
ATOM     14  C   UNL A   1      44.376  25.202  27.130  1.00  0.00     0.049 A 
ATOM     15  N   UNL A   1      42.319  27.020  28.372  1.00  0.00    -0.248 NA
ATOM     16  C   UNL A   1      40.843  25.211  28.425  1.00  0.00     0.031 C 
ATOM     17  C   UNL A   1      45.395  24.366  26.494  1.00  0.00     0.029 A 
ATOM     18  N   UNL A   1      44.994  26.416  27.295  1.00  0.00    -0.354 N 
ATOM     19  C   UNL A   1      41.110  27.434  28.923  1.00  0.00     0.074 A 
ATOM     20  C   UNL A   1      40.223  26.288  28.885  1.00  0.00     0.031 C 
ATOM     21  C   UNL A   1      46.509  25.092  26.315  1.00  0.00     0.029 A 
ATOM     22  C   UNL A   1      46.265  26.458  26.771  1.00  0.00     0.049 A 
ATOM     23  H   UNL A   1      44.569  27.182  27.745  1.00  0.00     0.167 HD
ATOM     24  C   UNL A   1      40.780  28.654  29.420  1.00  0.00     0.034 A 
ATOM     25  C   UNL A   1      47.125  27.485  26.632  1.00  0.00     0.034 A 
ATOM     26  C   UNL A   1      41.680  29.783  29.435  1.00  0.00     0.049 A 
ATOM     27  C   UNL A   1      46.724  28.844  27.138  1.00  0.00     0.074 A 
ATOM     28  C   UNL A   1      41.468  31.051  29.949  1.00  0.00     0.029 A 
ATOM     29  N   UNL A   1      42.960  29.788  28.891  1.00  0.00    -0.354 N 
ATOM     30  N   UNL A   1      45.590  29.216  27.685  1.00  0.00    -0.248 NA
ATOM     31  C   UNL A   1      47.716  29.918  27.013  1.00  0.00     0.031 C 
ATOM     32  C   UNL A   1      42.587  31.839  29.655  1.00  0.00     0.029 A 
ATOM     33  C   UNL A   1      43.532  31.045  29.026  1.00  0.00     0.049 A 
ATOM     34  H   UNL A   1      43.396  29.012  28.471  1.00  0.00     0.167 HD
ATOM     35  C   UNL A   1      45.742  30.564  27.993  1.00  0.00     0.074 A 
ATOM     36  C   UNL A   1      47.077  30.939  27.570  1.00  0.00     0.031 C 
ATOM     37  C   UNL A   1      44.861  31.409  28.586  1.00  0.00     0.034 A 
BRANCH  24  38
ATOM     38  C   UNL A   1      39.368  28.829  29.931  1.00  0.00     0.023 A 
ATOM     39  C   UNL A   1      38.350  29.365  29.124  1.00  0.00     0.031 A 
ATOM     40  C   UNL A   1      39.049  28.511  31.264  1.00  0.00     0.131 A 
ATOM     41  C   UNL A   1      37.095  29.659  29.680  1.00  0.00     0.055 A 
ATOM     42  C   UNL A   1      37.771  28.722  31.786  1.00  0.00     0.041 A 
ATOM     43  F   UNL A   1      39.982  28.014  32.091  1.00  0.00    -0.206 F 
ATOM     44  C   UNL A   1      36.791  29.320  31.000  1.00  0.00     0.022 A 
BRANCH  41  45
ATOM     45  S   UNL A   1      35.934  30.661  28.709  1.00  0.00     0.124 S 
ATOM     46  O   UNL A   1      36.840  31.400  27.833  1.00  0.00    -0.237 OA
ATOM     47  O   UNL A   1      35.107  29.648  28.066  1.00  0.00    -0.237 OA
ATOM     48  O   UNL A   1      35.258  31.474  29.717  1.00  0.00    -0.744 OA
ENDBRANCH  41  45
ENDBRANCH  24  38
BRANCH  25  49
ATOM     49  C   UNL A   1      48.424  27.265  25.941  1.00  0.00     0.023 A 
ATOM     50  C   UNL A   1      48.540  27.385  24.549  1.00  0.00     0.031 A 
ATOM     51  C   UNL A   1      49.581  26.959  26.681  1.00  0.00     0.131 A 
ATOM     52  C   UNL A   1      49.787  27.185  23.936  1.00  0.00     0.055 A 
ATOM     53  C   UNL A   1      50.826  26.799  26.071  1.00  0.00     0.041 A 
ATOM     54  F   UNL A   1      49.520  26.845  28.018  1.00  0.00    -0.206 F 
ATOM     55  C   UNL A   1      50.932  26.907  24.689  1.00  0.00     0.022 A 
BRANCH  52  56
ATOM     56  S   UNL A   1      49.892  27.264  22.127  1.00  0.00     0.124 S 
ATOM     57  O   UNL A   1      49.651  28.681  21.877  1.00  0.00    -0.237 OA
ATOM     58  O   UNL A   1      51.250  26.790  21.880  1.00  0.00    -0.237 OA
ATOM     59  O   UNL A   1      48.831  26.363  21.684  1.00  0.00    -0.744 OA
ENDBRANCH  52  56
ENDBRANCH  25  49
BRANCH  37  60
ATOM     60  C   UNL A   1      45.333  32.814  28.860  1.00  0.00     0.023 A 
ATOM     61  C   UNL A   1      45.120  33.862  27.950  1.00  0.00     0.031 A 
ATOM     62  C   UNL A   1      45.991  33.105  30.069  1.00  0.00     0.131 A 
ATOM     63  C   UNL A   1      45.588  35.151  28.250  1.00  0.00     0.055 A 
ATOM     64  C   UNL A   1      46.413  34.397  30.382  1.00  0.00     0.041 A 
ATOM     65  F   UNL A   1      46.221  32.137  30.971  1.00  0.00    -0.206 F 
ATOM     66  C   UNL A   1      46.219  35.428  29.467  1.00  0.00     0.022 A 
BRANCH  63  67
ATOM     67  S   UNL A   1      45.406  36.462  27.009  1.00  0.00     0.124 S 
ATOM     68  O   UNL A   1      46.261  35.978  25.930  1.00  0.00    -0.237 OA
ATOM     69  O   UNL A   1      43.971  36.446  26.744  1.00  0.00    -0.237 OA
ATOM     70  O   UNL A   1      45.893  37.656  27.698  1.00  0.00    -0.744 OA
ENDBRANCH  63  67
ENDBRANCH  37  60
ENDBRANCH  11  12
ENDBRANCH   4   6
ENDBRANCH   1   2
BRANCH   1  71
ATOM     71  C   UNL A   1      37.618  19.683  25.002  1.00  0.00     0.042 C 
BRANCH  71  72
ATOM     72  C   UNL A   1      36.501  20.675  24.681  1.00  0.00     0.117 C 
BRANCH  72  73
ATOM     73  N   UNL A   1      35.886  21.237  25.869  1.00  0.00    -0.354 N 
ATOM     74  C   UNL A   1      34.605  21.329  26.305  1.00  0.00     0.245 C 
ATOM     75  H   UNL A   1      36.537  21.635  26.491  1.00  0.00     0.163 HD
ATOM     76  O   UNL A   1      34.508  21.602  27.511  1.00  0.00    -0.272 OA
BRANCH  74  77
ATOM     77  C   UNL A   1      33.328  20.958  25.472  1.00  0.00     0.119 C 
ATOM     78  C   UNL A   1      33.235  21.453  24.011  1.00  0.00     0.038 C 
ATOM     79  C   UNL A   1      33.347  19.401  25.535  1.00  0.00     0.038 C 
ATOM     80  C   UNL A   1      32.232  20.687  23.139  1.00  0.00     0.003 C 
ATOM     81  C   UNL A   1      32.344  18.697  24.629  1.00  0.00     0.003 C 
ATOM     82  C   UNL A   1      32.470  19.186  23.198  1.00  0.00     0.000 C 
BRANCH  77  83
ATOM     83  N   UNL A   1      32.084  21.433  26.164  1.00  0.00    -0.338 N 
ATOM     84  C   UNL A   1      31.242  22.489  25.888  1.00  0.00     0.253 C 
ATOM     85  H   UNL A   1      31.826  20.900  26.950  1.00  0.00     0.164 HD
ATOM     86  O   UNL A   1      30.049  22.404  26.174  1.00  0.00    -0.269 OA
BRANCH  84  87
ATOM     87  C   UNL A   1      31.768  23.810  25.509  1.00  0.00     0.061 A 
ATOM     88  C   UNL A   1      32.606  24.420  26.453  1.00  0.00     0.035 A 
ATOM     89  C   UNL A   1      31.448  24.483  24.337  1.00  0.00     0.072 A 
ATOM     90  C   UNL A   1      33.153  25.653  26.149  1.00  0.00     0.112 A 
ATOM     91  C   UNL A   1      32.054  25.716  24.127  1.00  0.00     0.132 A 
ATOM     92  Cl  UNL A   1      30.351  23.896  23.158  1.00  0.00    -0.082 Cl
ATOM     93  N   UNL A   1      32.903  26.314  25.000  1.00  0.00    -0.263 NA
ENDBRANCH  84  87
ENDBRANCH  77  83
ENDBRANCH  74  77
ENDBRANCH  72  73
ENDBRANCH  71  72
ENDBRANCH   1  71
TORSDOF 15
ENDMDL
