MODEL 1
REMARK VINA RESULT:     -12.6      0.000      0.000
REMARK SMILES O=C(NCCCNC(=O)[C@@H]1CCCC[C@H]1C(=O)Nc1ccc(NC(=O)c2ccco2)cc1)c1ccc(-c2c3nc(c(-c4cc(S(=O)(=O)[O-])ccc4F)c4ccc([nH]4)c(-c4cc(S(=O)(=O)[O-])ccc4F)c4nc(c(-c5cc(S(=O)(=O)[O-])ccc5F)c5ccc2[nH]5)C=C4)C=C3)cc1
REMARK SMILES IDX 5 1 4 2 3 3 1 4 2 5 33 7 34 8 95 9 35 10 94 11 36 12 37 13
REMARK SMILES IDX 38 14 88 15 39 16 93 17 87 18 89 19 40 20 92 21 86 22 85 23
REMARK SMILES IDX 41 25 73 26 53 27 72 28 54 29 57 30 71 31 90 32 55 33 56 34
REMARK SMILES IDX 70 36 91 37 58 38 42 39 43 40 51 41 44 42 50 43 52 44 49 45
REMARK SMILES IDX 45 46 46 47 47 48 48 49 74 50 75 51 83 52 76 53 82 54 84 55
REMARK SMILES IDX 81 56 77 57 78 58 79 59 80 60 59 61 60 62 68 63 61 64 67 65
REMARK SMILES IDX 69 66 66 67 62 68 63 69 64 70 65 71 6 72 7 73 8 74 9 76
REMARK SMILES IDX 10 77 11 78 15 79 12 80 14 81 13 82 16 83 17 84 18 85 19 87
REMARK SMILES IDX 20 88 32 89 21 90 31 91 22 92 23 93 24 94 25 96 26 97 27 98
REMARK SMILES IDX 30 99 28 100 29 101
REMARK H PARENT 3 6 89 24 57 35 7 75 18 86 23 95
REMARK Flexibility Score: inf
ROOT
ATOM      1  C   UNL A   1      33.140  31.216  26.598  1.00  0.00     0.042 C 
ENDROOT
BRANCH   1   2
ATOM      2  C   UNL A   1      31.970  31.983  27.193  1.00  0.00     0.118 C 
BRANCH   2   3
ATOM      3  N   UNL A   1      32.237  33.416  27.259  1.00  0.00    -0.352 N 
ATOM      4  O   UNL A   1      33.049  35.339  28.081  1.00  0.00    -0.269 OA
ATOM      5  C   UNL A   1      33.165  34.122  27.988  1.00  0.00     0.251 C 
ATOM      6  H   UNL A   1      31.657  33.968  26.686  1.00  0.00     0.163 HD
BRANCH   5   7
ATOM      7  C   UNL A   1      34.293  33.429  28.653  1.00  0.00     0.039 A 
ATOM      8  C   UNL A   1      34.073  32.610  29.759  1.00  0.00     0.014 A 
ATOM      9  C   UNL A   1      35.586  33.561  28.136  1.00  0.00     0.014 A 
ATOM     10  C   UNL A   1      35.151  32.074  30.451  1.00  0.00     0.010 A 
ATOM     11  C   UNL A   1      36.659  32.914  28.761  1.00  0.00     0.010 A 
ATOM     12  C   UNL A   1      36.455  32.192  29.947  1.00  0.00    -0.014 A 
BRANCH  12  13
ATOM     13  C   UNL A   1      37.562  31.503  30.662  1.00  0.00     0.031 A 
ATOM     14  C   UNL A   1      38.443  30.508  29.956  1.00  0.00     0.074 A 
ATOM     15  C   UNL A   1      37.801  31.831  31.948  1.00  0.00     0.049 A 
ATOM     16  N   UNL A   1      39.478  29.852  30.416  1.00  0.00    -0.248 NA
ATOM     17  C   UNL A   1      38.112  30.199  28.558  1.00  0.00     0.031 C 
ATOM     18  C   UNL A   1      37.007  32.783  32.734  1.00  0.00     0.029 A 
ATOM     19  N   UNL A   1      38.790  31.440  32.814  1.00  0.00    -0.354 N 
ATOM     20  C   UNL A   1      39.910  29.037  29.375  1.00  0.00     0.074 A 
ATOM     21  C   UNL A   1      38.997  29.255  28.272  1.00  0.00     0.031 C 
ATOM     22  C   UNL A   1      37.582  32.957  33.931  1.00  0.00     0.029 A 
ATOM     23  C   UNL A   1      38.730  32.066  34.038  1.00  0.00     0.049 A 
ATOM     24  H   UNL A   1      39.478  30.774  32.581  1.00  0.00     0.167 HD
ATOM     25  C   UNL A   1      40.971  28.191  29.345  1.00  0.00     0.034 A 
ATOM     26  C   UNL A   1      39.500  31.928  35.134  1.00  0.00     0.034 A 
ATOM     27  C   UNL A   1      41.869  27.994  30.460  1.00  0.00     0.049 A 
ATOM     28  C   UNL A   1      40.646  30.954  35.084  1.00  0.00     0.074 A 
ATOM     29  C   UNL A   1      42.989  27.183  30.532  1.00  0.00     0.029 A 
ATOM     30  N   UNL A   1      41.745  28.603  31.704  1.00  0.00    -0.354 N 
ATOM     31  N   UNL A   1      41.048  30.201  34.086  1.00  0.00    -0.248 NA
ATOM     32  C   UNL A   1      41.444  30.815  36.306  1.00  0.00     0.031 C 
ATOM     33  C   UNL A   1      43.493  27.242  31.836  1.00  0.00     0.029 A 
ATOM     34  C   UNL A   1      42.747  28.161  32.556  1.00  0.00     0.049 A 
ATOM     35  H   UNL A   1      41.047  29.254  31.945  1.00  0.00     0.167 HD
ATOM     36  C   UNL A   1      42.167  29.521  34.553  1.00  0.00     0.074 A 
ATOM     37  C   UNL A   1      42.386  29.972  35.914  1.00  0.00     0.031 C 
ATOM     38  C   UNL A   1      42.947  28.610  33.915  1.00  0.00     0.034 A 
BRANCH  25  39
ATOM     39  C   UNL A   1      41.180  27.377  28.086  1.00  0.00     0.023 A 
ATOM     40  C   UNL A   1      40.870  26.007  28.021  1.00  0.00     0.031 A 
ATOM     41  C   UNL A   1      41.725  27.979  26.937  1.00  0.00     0.131 A 
ATOM     42  C   UNL A   1      41.178  25.270  26.866  1.00  0.00     0.055 A 
ATOM     43  C   UNL A   1      41.950  27.260  25.762  1.00  0.00     0.041 A 
ATOM     44  F   UNL A   1      42.064  29.279  26.941  1.00  0.00    -0.206 F 
ATOM     45  C   UNL A   1      41.692  25.894  25.726  1.00  0.00     0.022 A 
BRANCH  42  46
ATOM     46  S   UNL A   1      41.041  23.462  26.926  1.00  0.00     0.124 S 
ATOM     47  O   UNL A   1      39.608  23.263  26.722  1.00  0.00    -0.237 OA
ATOM     48  O   UNL A   1      41.903  23.039  25.828  1.00  0.00    -0.237 OA
ATOM     49  O   UNL A   1      41.524  23.123  28.264  1.00  0.00    -0.744 OA
ENDBRANCH  42  46
ENDBRANCH  25  39
BRANCH  26  50
ATOM     50  C   UNL A   1      39.200  32.704  36.372  1.00  0.00     0.023 A 
ATOM     51  C   UNL A   1      38.363  32.182  37.370  1.00  0.00     0.031 A 
ATOM     52  C   UNL A   1      39.720  33.998  36.561  1.00  0.00     0.131 A 
ATOM     53  C   UNL A   1      38.031  32.965  38.485  1.00  0.00     0.055 A 
ATOM     54  C   UNL A   1      39.439  34.748  37.702  1.00  0.00     0.041 A 
ATOM     55  F   UNL A   1      40.528  34.546  35.639  1.00  0.00    -0.206 F 
ATOM     56  C   UNL A   1      38.577  34.238  38.667  1.00  0.00     0.022 A 
BRANCH  53  57
ATOM     57  S   UNL A   1      36.798  32.332  39.654  1.00  0.00     0.124 S 
ATOM     58  O   UNL A   1      37.159  30.921  39.732  1.00  0.00    -0.237 OA
ATOM     59  O   UNL A   1      37.071  33.131  40.845  1.00  0.00    -0.237 OA
ATOM     60  O   UNL A   1      35.527  32.616  38.993  1.00  0.00    -0.744 OA
ENDBRANCH  53  57
ENDBRANCH  26  50
BRANCH  38  61
ATOM     61  C   UNL A   1      44.143  28.088  34.677  1.00  0.00     0.023 A 
ATOM     62  C   UNL A   1      44.025  27.070  35.641  1.00  0.00     0.031 A 
ATOM     63  C   UNL A   1      45.414  28.648  34.461  1.00  0.00     0.131 A 
ATOM     64  C   UNL A   1      45.141  26.700  36.406  1.00  0.00     0.055 A 
ATOM     65  C   UNL A   1      46.536  28.223  35.173  1.00  0.00     0.041 A 
ATOM     66  F   UNL A   1      45.586  29.628  33.559  1.00  0.00    -0.206 F 
ATOM     67  C   UNL A   1      46.399  27.256  36.164  1.00  0.00     0.022 A 
BRANCH  64  68
ATOM     68  S   UNL A   1      44.899  25.573  37.807  1.00  0.00     0.124 S 
ATOM     69  O   UNL A   1      43.983  26.332  38.652  1.00  0.00    -0.237 OA
ATOM     70  O   UNL A   1      44.340  24.389  37.161  1.00  0.00    -0.237 OA
ATOM     71  O   UNL A   1      46.248  25.405  38.348  1.00  0.00    -0.744 OA
ENDBRANCH  64  68
ENDBRANCH  38  61
ENDBRANCH  12  13
ENDBRANCH   5   7
ENDBRANCH   2   3
ENDBRANCH   1   2
BRANCH   1  72
ATOM     72  C   UNL A   1      32.748  29.892  25.946  1.00  0.00     0.117 C 
BRANCH  72  73
ATOM     73  N   UNL A   1      31.607  30.047  25.062  1.00  0.00    -0.356 N 
ATOM     74  C   UNL A   1      31.020  29.298  24.109  1.00  0.00     0.223 C 
ATOM     75  H   UNL A   1      31.152  30.910  25.190  1.00  0.00     0.163 HD
ATOM     76  O   UNL A   1      30.029  29.832  23.584  1.00  0.00    -0.275 OA
BRANCH  74  77
ATOM     77  C   UNL A   1      31.422  27.898  23.620  1.00  0.00     0.091 C 
ATOM     78  C   UNL A   1      32.533  28.050  22.557  1.00  0.00     0.014 C 
ATOM     79  C   UNL A   1      30.404  26.822  23.246  1.00  0.00     0.091 C 
ATOM     80  C   UNL A   1      33.176  26.704  22.230  1.00  0.00     0.001 C 
ATOM     81  C   UNL A   1      31.037  25.511  22.737  1.00  0.00     0.014 C 
ATOM     82  C   UNL A   1      32.130  25.741  21.701  1.00  0.00     0.001 C 
BRANCH  79  83
ATOM     83  C   UNL A   1      29.312  26.438  24.248  1.00  0.00     0.228 C 
ATOM     84  O   UNL A   1      28.137  26.596  23.876  1.00  0.00    -0.274 OA
ATOM     85  N   UNL A   1      29.446  25.809  25.446  1.00  0.00    -0.326 N 
ATOM     86  H   UNL A   1      28.642  25.857  26.012  1.00  0.00     0.169 HD
BRANCH  85  87
ATOM     87  C   UNL A   1      30.504  25.109  26.029  1.00  0.00     0.041 A 
ATOM     88  C   UNL A   1      30.229  23.816  26.454  1.00  0.00     0.028 A 
ATOM     89  C   UNL A   1      31.784  25.594  26.232  1.00  0.00     0.028 A 
ATOM     90  C   UNL A   1      31.273  22.953  26.781  1.00  0.00     0.028 A 
ATOM     91  C   UNL A   1      32.844  24.711  26.467  1.00  0.00     0.028 A 
ATOM     92  C   UNL A   1      32.596  23.349  26.624  1.00  0.00     0.041 A 
BRANCH  92  93
ATOM     93  N   UNL A   1      33.701  22.479  26.577  1.00  0.00    -0.319 N 
ATOM     94  C   UNL A   1      34.231  21.706  25.558  1.00  0.00     0.291 C 
ATOM     95  H   UNL A   1      34.189  22.407  27.429  1.00  0.00     0.170 HD
ATOM     96  O   UNL A   1      35.256  21.067  25.812  1.00  0.00    -0.265 OA
BRANCH  94  97
ATOM     97  C   UNL A   1      33.615  21.700  24.253  1.00  0.00     0.191 A 
ATOM     98  C   UNL A   1      33.671  22.579  23.184  1.00  0.00     0.056 A 
ATOM     99  O   UNL A   1      32.725  20.699  23.975  1.00  0.00    -0.459 OA
ATOM    100  C   UNL A   1      32.701  22.136  22.250  1.00  0.00     0.043 A 
ATOM    101  C   UNL A   1      32.160  20.985  22.774  1.00  0.00     0.196 A 
ENDBRANCH  94  97
ENDBRANCH  92  93
ENDBRANCH  85  87
ENDBRANCH  79  83
ENDBRANCH  74  77
ENDBRANCH  72  73
ENDBRANCH   1  72
TORSDOF 17
ENDMDL
MODEL 2
REMARK VINA RESULT:     -12.6      1.745      2.105
REMARK SMILES O=C(NCCCNC(=O)[C@@H]1CCCC[C@H]1C(=O)Nc1ccc(NC(=O)c2ccco2)cc1)c1ccc(-c2c3nc(c(-c4cc(S(=O)(=O)[O-])ccc4F)c4ccc([nH]4)c(-c4cc(S(=O)(=O)[O-])ccc4F)c4nc(c(-c5cc(S(=O)(=O)[O-])ccc5F)c5ccc2[nH]5)C=C4)C=C3)cc1
REMARK SMILES IDX 5 1 4 2 3 3 1 4 2 5 33 7 34 8 95 9 35 10 94 11 36 12 37 13
REMARK SMILES IDX 38 14 88 15 39 16 93 17 87 18 89 19 40 20 92 21 86 22 85 23
REMARK SMILES IDX 41 25 73 26 53 27 72 28 54 29 57 30 71 31 90 32 55 33 56 34
REMARK SMILES IDX 70 36 91 37 58 38 42 39 43 40 51 41 44 42 50 43 52 44 49 45
REMARK SMILES IDX 45 46 46 47 47 48 48 49 74 50 75 51 83 52 76 53 82 54 84 55
REMARK SMILES IDX 81 56 77 57 78 58 79 59 80 60 59 61 60 62 68 63 61 64 67 65
REMARK SMILES IDX 69 66 66 67 62 68 63 69 64 70 65 71 6 72 7 73 8 74 9 76
REMARK SMILES IDX 10 77 11 78 15 79 12 80 14 81 13 82 16 83 17 84 18 85 19 87
REMARK SMILES IDX 20 88 32 89 21 90 31 91 22 92 23 93 24 94 25 96 26 97 27 98
REMARK SMILES IDX 30 99 28 100 29 101
REMARK H PARENT 3 6 89 24 57 35 7 75 18 86 23 95
REMARK Flexibility Score: inf
ROOT
ATOM      1  C   UNL A   1      31.283  32.159  26.580  1.00  0.00     0.042 C 
ENDROOT
BRANCH   1   2
ATOM      2  C   UNL A   1      32.615  32.606  27.158  1.00  0.00     0.118 C 
BRANCH   2   3
ATOM      3  N   UNL A   1      32.555  33.971  27.669  1.00  0.00    -0.352 N 
ATOM      4  O   UNL A   1      32.808  35.649  29.137  1.00  0.00    -0.269 OA
ATOM      5  C   UNL A   1      33.194  34.557  28.737  1.00  0.00     0.251 C 
ATOM      6  H   UNL A   1      31.961  34.573  27.165  1.00  0.00     0.163 HD
BRANCH   5   7
ATOM      7  C   UNL A   1      34.336  33.883  29.400  1.00  0.00     0.039 A 
ATOM      8  C   UNL A   1      34.120  32.917  30.381  1.00  0.00     0.014 A 
ATOM      9  C   UNL A   1      35.642  34.186  29.002  1.00  0.00     0.014 A 
ATOM     10  C   UNL A   1      35.195  32.391  31.085  1.00  0.00     0.010 A 
ATOM     11  C   UNL A   1      36.726  33.558  29.627  1.00  0.00     0.010 A 
ATOM     12  C   UNL A   1      36.513  32.680  30.700  1.00  0.00    -0.014 A 
BRANCH  12  13
ATOM     13  C   UNL A   1      37.630  32.003  31.411  1.00  0.00     0.031 A 
ATOM     14  C   UNL A   1      38.428  30.914  30.746  1.00  0.00     0.074 A 
ATOM     15  C   UNL A   1      37.954  32.424  32.650  1.00  0.00     0.049 A 
ATOM     16  N   UNL A   1      39.460  30.252  31.204  1.00  0.00    -0.248 NA
ATOM     17  C   UNL A   1      38.006  30.506  29.399  1.00  0.00     0.031 C 
ATOM     18  C   UNL A   1      37.245  33.472  33.393  1.00  0.00     0.029 A 
ATOM     19  N   UNL A   1      38.974  32.061  33.492  1.00  0.00    -0.354 N 
ATOM     20  C   UNL A   1      39.798  29.335  30.215  1.00  0.00     0.074 A 
ATOM     21  C   UNL A   1      38.834  29.503  29.147  1.00  0.00     0.031 C 
ATOM     22  C   UNL A   1      37.894  33.718  34.539  1.00  0.00     0.029 A 
ATOM     23  C   UNL A   1      39.009  32.788  34.661  1.00  0.00     0.049 A 
ATOM     24  H   UNL A   1      39.620  31.348  33.281  1.00  0.00     0.167 HD
ATOM     25  C   UNL A   1      40.820  28.442  30.199  1.00  0.00     0.034 A 
ATOM     26  C   UNL A   1      39.834  32.705  35.722  1.00  0.00     0.034 A 
ATOM     27  C   UNL A   1      41.772  28.297  31.278  1.00  0.00     0.049 A 
ATOM     28  C   UNL A   1      40.934  31.680  35.694  1.00  0.00     0.074 A 
ATOM     29  C   UNL A   1      42.860  27.445  31.359  1.00  0.00     0.029 A 
ATOM     30  N   UNL A   1      41.743  29.011  32.471  1.00  0.00    -0.354 N 
ATOM     31  N   UNL A   1      41.248  30.830  34.743  1.00  0.00    -0.248 NA
ATOM     32  C   UNL A   1      41.793  31.606  36.880  1.00  0.00     0.031 C 
ATOM     33  C   UNL A   1      43.439  27.588  32.624  1.00  0.00     0.029 A 
ATOM     34  C   UNL A   1      42.773  28.596  33.303  1.00  0.00     0.049 A 
ATOM     35  H   UNL A   1      41.087  29.711  32.693  1.00  0.00     0.167 HD
ATOM     36  C   UNL A   1      42.363  30.140  35.206  1.00  0.00     0.074 A 
ATOM     37  C   UNL A   1      42.677  30.691  36.510  1.00  0.00     0.031 C 
ATOM     38  C   UNL A   1      43.067  29.145  34.607  1.00  0.00     0.034 A 
BRANCH  25  39
ATOM     39  C   UNL A   1      40.925  27.520  29.004  1.00  0.00     0.023 A 
ATOM     40  C   UNL A   1      41.884  27.712  27.993  1.00  0.00     0.031 A 
ATOM     41  C   UNL A   1      40.030  26.444  28.861  1.00  0.00     0.131 A 
ATOM     42  C   UNL A   1      41.875  26.893  26.852  1.00  0.00     0.055 A 
ATOM     43  C   UNL A   1      40.081  25.580  27.765  1.00  0.00     0.041 A 
ATOM     44  F   UNL A   1      39.077  26.220  29.780  1.00  0.00    -0.206 F 
ATOM     45  C   UNL A   1      40.998  25.812  26.744  1.00  0.00     0.022 A 
BRANCH  42  46
ATOM     46  S   UNL A   1      42.924  27.354  25.445  1.00  0.00     0.124 S 
ATOM     47  O   UNL A   1      43.049  26.083  24.735  1.00  0.00    -0.237 OA
ATOM     48  O   UNL A   1      42.129  28.379  24.776  1.00  0.00    -0.237 OA
ATOM     49  O   UNL A   1      44.155  27.830  26.072  1.00  0.00    -0.744 OA
ENDBRANCH  42  46
ENDBRANCH  25  39
BRANCH  26  50
ATOM     50  C   UNL A   1      39.636  33.593  36.904  1.00  0.00     0.023 A 
ATOM     51  C   UNL A   1      39.009  33.122  38.067  1.00  0.00     0.031 A 
ATOM     52  C   UNL A   1      40.041  34.940  36.875  1.00  0.00     0.131 A 
ATOM     53  C   UNL A   1      38.761  34.000  39.134  1.00  0.00     0.055 A 
ATOM     54  C   UNL A   1      39.852  35.793  37.962  1.00  0.00     0.041 A 
ATOM     55  F   UNL A   1      40.649  35.444  35.788  1.00  0.00    -0.206 F 
ATOM     56  C   UNL A   1      39.194  35.327  39.096  1.00  0.00     0.022 A 
BRANCH  53  57
ATOM     57  S   UNL A   1      37.780  33.406  40.537  1.00  0.00     0.124 S 
ATOM     58  O   UNL A   1      37.607  34.626  41.317  1.00  0.00    -0.237 OA
ATOM     59  O   UNL A   1      36.586  32.891  39.876  1.00  0.00    -0.237 OA
ATOM     60  O   UNL A   1      38.638  32.393  41.147  1.00  0.00    -0.744 OA
ENDBRANCH  53  57
ENDBRANCH  26  50
BRANCH  38  61
ATOM     61  C   UNL A   1      44.282  28.634  35.346  1.00  0.00     0.023 A 
ATOM     62  C   UNL A   1      44.193  27.609  36.305  1.00  0.00     0.031 A 
ATOM     63  C   UNL A   1      45.542  29.212  35.112  1.00  0.00     0.131 A 
ATOM     64  C   UNL A   1      45.326  27.248  37.049  1.00  0.00     0.055 A 
ATOM     65  C   UNL A   1      46.682  28.796  35.803  1.00  0.00     0.041 A 
ATOM     66  F   UNL A   1      45.687  30.199  34.213  1.00  0.00    -0.206 F 
ATOM     67  C   UNL A   1      46.574  27.822  36.790  1.00  0.00     0.022 A 
BRANCH  64  68
ATOM     68  S   UNL A   1      45.123  26.111  38.447  1.00  0.00     0.124 S 
ATOM     69  O   UNL A   1      44.421  24.991  37.827  1.00  0.00    -0.237 OA
ATOM     70  O   UNL A   1      46.504  25.857  38.845  1.00  0.00    -0.237 OA
ATOM     71  O   UNL A   1      44.333  26.883  39.405  1.00  0.00    -0.744 OA
ENDBRANCH  64  68
ENDBRANCH  38  61
ENDBRANCH  12  13
ENDBRANCH   5   7
ENDBRANCH   2   3
ENDBRANCH   1   2
BRANCH   1  72
ATOM     72  C   UNL A   1      31.360  30.872  25.762  1.00  0.00     0.117 C 
BRANCH  72  73
ATOM     73  N   UNL A   1      31.446  29.699  26.615  1.00  0.00    -0.356 N 
ATOM     74  C   UNL A   1      31.754  28.401  26.436  1.00  0.00     0.223 C 
ATOM     75  H   UNL A   1      31.223  29.904  27.551  1.00  0.00     0.163 HD
ATOM     76  O   UNL A   1      31.702  27.721  27.474  1.00  0.00    -0.275 OA
BRANCH  74  77
ATOM     77  C   UNL A   1      32.159  27.691  25.134  1.00  0.00     0.091 C 
ATOM     78  C   UNL A   1      33.416  28.388  24.566  1.00  0.00     0.014 C 
ATOM     79  C   UNL A   1      31.157  27.319  24.042  1.00  0.00     0.091 C 
ATOM     80  C   UNL A   1      34.037  27.572  23.435  1.00  0.00     0.001 C 
ATOM     81  C   UNL A   1      31.797  26.656  22.806  1.00  0.00     0.014 C 
ATOM     82  C   UNL A   1      33.035  27.392  22.309  1.00  0.00     0.001 C 
BRANCH  79  83
ATOM     83  C   UNL A   1      29.918  26.497  24.406  1.00  0.00     0.228 C 
ATOM     84  O   UNL A   1      28.823  26.942  24.018  1.00  0.00    -0.274 OA
ATOM     85  N   UNL A   1      29.857  25.265  24.977  1.00  0.00    -0.326 N 
ATOM     86  H   UNL A   1      28.962  25.027  25.312  1.00  0.00     0.169 HD
BRANCH  85  87
ATOM     87  C   UNL A   1      30.818  24.273  25.181  1.00  0.00     0.041 A 
ATOM     88  C   UNL A   1      31.111  23.465  24.091  1.00  0.00     0.028 A 
ATOM     89  C   UNL A   1      31.483  24.019  26.368  1.00  0.00     0.028 A 
ATOM     90  C   UNL A   1      32.240  22.649  24.113  1.00  0.00     0.028 A 
ATOM     91  C   UNL A   1      32.669  23.277  26.366  1.00  0.00     0.028 A 
ATOM     92  C   UNL A   1      33.119  22.682  25.190  1.00  0.00     0.041 A 
BRANCH  92  93
ATOM     93  N   UNL A   1      34.437  22.191  25.173  1.00  0.00    -0.319 N 
ATOM     94  C   UNL A   1      34.948  20.904  25.118  1.00  0.00     0.291 C 
ATOM     95  H   UNL A   1      35.125  22.893  25.207  1.00  0.00     0.170 HD
ATOM     96  O   UNL A   1      36.176  20.790  25.071  1.00  0.00    -0.265 OA
BRANCH  94  97
ATOM     97  C   UNL A   1      34.059  19.769  25.077  1.00  0.00     0.191 A 
ATOM     98  C   UNL A   1      32.903  19.457  25.773  1.00  0.00     0.056 A 
ATOM     99  O   UNL A   1      34.404  18.719  24.271  1.00  0.00    -0.459 OA
ATOM    100  C   UNL A   1      32.583  18.116  25.438  1.00  0.00     0.043 A 
ATOM    101  C   UNL A   1      33.521  17.718  24.514  1.00  0.00     0.196 A 
ENDBRANCH  94  97
ENDBRANCH  92  93
ENDBRANCH  85  87
ENDBRANCH  79  83
ENDBRANCH  74  77
ENDBRANCH  72  73
ENDBRANCH   1  72
TORSDOF 17
ENDMDL
MODEL 3
REMARK VINA RESULT:     -12.5      5.656      9.404
REMARK SMILES O=C(NCCCNC(=O)[C@@H]1CCCC[C@H]1C(=O)Nc1ccc(NC(=O)c2ccco2)cc1)c1ccc(-c2c3nc(c(-c4cc(S(=O)(=O)[O-])ccc4F)c4ccc([nH]4)c(-c4cc(S(=O)(=O)[O-])ccc4F)c4nc(c(-c5cc(S(=O)(=O)[O-])ccc5F)c5ccc2[nH]5)C=C4)C=C3)cc1
REMARK SMILES IDX 5 1 4 2 3 3 1 4 2 5 33 7 34 8 95 9 35 10 94 11 36 12 37 13
REMARK SMILES IDX 38 14 88 15 39 16 93 17 87 18 89 19 40 20 92 21 86 22 85 23
REMARK SMILES IDX 41 25 73 26 53 27 72 28 54 29 57 30 71 31 90 32 55 33 56 34
REMARK SMILES IDX 70 36 91 37 58 38 42 39 43 40 51 41 44 42 50 43 52 44 49 45
REMARK SMILES IDX 45 46 46 47 47 48 48 49 74 50 75 51 83 52 76 53 82 54 84 55
REMARK SMILES IDX 81 56 77 57 78 58 79 59 80 60 59 61 60 62 68 63 61 64 67 65
REMARK SMILES IDX 69 66 66 67 62 68 63 69 64 70 65 71 6 72 7 73 8 74 9 76
REMARK SMILES IDX 10 77 11 78 15 79 12 80 14 81 13 82 16 83 17 84 18 85 19 87
REMARK SMILES IDX 20 88 32 89 21 90 31 91 22 92 23 93 24 94 25 96 26 97 27 98
REMARK SMILES IDX 30 99 28 100 29 101
REMARK H PARENT 3 6 89 24 57 35 7 75 18 86 23 95
REMARK Flexibility Score: inf
ROOT
ATOM      1  C   UNL A   1      37.869  19.867  24.979  1.00  0.00     0.042 C 
ENDROOT
BRANCH   1   2
ATOM      2  C   UNL A   1      39.028  20.482  25.746  1.00  0.00     0.118 C 
BRANCH   2   3
ATOM      3  N   UNL A   1      40.128  19.539  25.916  1.00  0.00    -0.352 N 
ATOM      4  O   UNL A   1      42.252  18.816  25.957  1.00  0.00    -0.269 OA
ATOM      5  C   UNL A   1      41.476  19.756  26.082  1.00  0.00     0.251 C 
ATOM      6  H   UNL A   1      39.861  18.592  25.913  1.00  0.00     0.163 HD
BRANCH   5   7
ATOM      7  C   UNL A   1      41.992  21.107  26.410  1.00  0.00     0.039 A 
ATOM      8  C   UNL A   1      42.295  21.453  27.725  1.00  0.00     0.014 A 
ATOM      9  C   UNL A   1      42.221  22.027  25.381  1.00  0.00     0.014 A 
ATOM     10  C   UNL A   1      42.650  22.759  28.034  1.00  0.00     0.010 A 
ATOM     11  C   UNL A   1      42.702  23.307  25.682  1.00  0.00     0.010 A 
ATOM     12  C   UNL A   1      42.887  23.696  27.018  1.00  0.00    -0.014 A 
BRANCH  12  13
ATOM     13  C   UNL A   1      43.378  25.049  27.393  1.00  0.00     0.031 A 
ATOM     14  C   UNL A   1      44.813  25.444  27.173  1.00  0.00     0.074 A 
ATOM     15  C   UNL A   1      42.493  25.941  27.884  1.00  0.00     0.049 A 
ATOM     16  N   UNL A   1      45.394  26.595  27.401  1.00  0.00    -0.248 NA
ATOM     17  C   UNL A   1      45.715  24.413  26.642  1.00  0.00     0.031 C 
ATOM     18  C   UNL A   1      41.076  25.664  28.142  1.00  0.00     0.029 A 
ATOM     19  N   UNL A   1      42.633  27.263  28.221  1.00  0.00    -0.354 N 
ATOM     20  C   UNL A   1      46.733  26.423  27.063  1.00  0.00     0.074 A 
ATOM     21  C   UNL A   1      46.881  25.042  26.651  1.00  0.00     0.031 C 
ATOM     22  C   UNL A   1      40.466  26.795  28.520  1.00  0.00     0.029 A 
ATOM     23  C   UNL A   1      41.458  27.856  28.622  1.00  0.00     0.049 A 
ATOM     24  H   UNL A   1      43.493  27.742  28.179  1.00  0.00     0.167 HD
ATOM     25  C   UNL A   1      47.738  27.333  27.091  1.00  0.00     0.034 A 
ATOM     26  C   UNL A   1      41.206  29.110  29.045  1.00  0.00     0.034 A 
ATOM     27  C   UNL A   1      47.562  28.707  27.504  1.00  0.00     0.049 A 
ATOM     28  C   UNL A   1      42.348  30.087  29.102  1.00  0.00     0.074 A 
ATOM     29  C   UNL A   1      48.504  29.722  27.546  1.00  0.00     0.029 A 
ATOM     30  N   UNL A   1      46.369  29.260  27.958  1.00  0.00    -0.354 N 
ATOM     31  N   UNL A   1      43.605  29.911  28.765  1.00  0.00    -0.248 NA
ATOM     32  C   UNL A   1      42.037  31.434  29.591  1.00  0.00     0.031 C 
ATOM     33  C   UNL A   1      47.901  30.859  28.096  1.00  0.00     0.029 A 
ATOM     34  C   UNL A   1      46.559  30.587  28.311  1.00  0.00     0.049 A 
ATOM     35  H   UNL A   1      45.513  28.777  28.018  1.00  0.00     0.167 HD
ATOM     36  C   UNL A   1      44.228  31.136  28.974  1.00  0.00     0.074 A 
ATOM     37  C   UNL A   1      43.202  32.046  29.444  1.00  0.00     0.031 C 
ATOM     38  C   UNL A   1      45.529  31.481  28.791  1.00  0.00     0.034 A 
BRANCH  25  39
ATOM     39  C   UNL A   1      49.125  26.855  26.717  1.00  0.00     0.023 A 
ATOM     40  C   UNL A   1      49.772  27.284  25.544  1.00  0.00     0.031 A 
ATOM     41  C   UNL A   1      49.800  25.932  27.536  1.00  0.00     0.131 A 
ATOM     42  C   UNL A   1      51.014  26.733  25.185  1.00  0.00     0.055 A 
ATOM     43  C   UNL A   1      51.072  25.452  27.218  1.00  0.00     0.041 A 
ATOM     44  F   UNL A   1      49.226  25.466  28.657  1.00  0.00    -0.206 F 
ATOM     45  C   UNL A   1      51.680  25.841  26.028  1.00  0.00     0.022 A 
BRANCH  42  46
ATOM     46  S   UNL A   1      51.674  27.084  23.532  1.00  0.00     0.124 S 
ATOM     47  O   UNL A   1      50.529  26.770  22.679  1.00  0.00    -0.237 OA
ATOM     48  O   UNL A   1      52.028  28.496  23.623  1.00  0.00    -0.237 OA
ATOM     49  O   UNL A   1      52.803  26.165  23.408  1.00  0.00    -0.744 OA
ENDBRANCH  42  46
ENDBRANCH  25  39
BRANCH  26  50
ATOM     50  C   UNL A   1      39.832  29.503  29.470  1.00  0.00     0.023 A 
ATOM     51  C   UNL A   1      39.494  29.600  30.829  1.00  0.00     0.031 A 
ATOM     52  C   UNL A   1      38.823  29.755  28.522  1.00  0.00     0.131 A 
ATOM     53  C   UNL A   1      38.173  29.892  31.202  1.00  0.00     0.055 A 
ATOM     54  C   UNL A   1      37.527  30.108  28.898  1.00  0.00     0.041 A 
ATOM     55  F   UNL A   1      39.091  29.679  27.209  1.00  0.00    -0.206 F 
ATOM     56  C   UNL A   1      37.192  30.163  30.246  1.00  0.00     0.022 A 
BRANCH  53  57
ATOM     57  S   UNL A   1      37.732  29.819  32.959  1.00  0.00     0.124 S 
ATOM     58  O   UNL A   1      37.325  28.427  33.106  1.00  0.00    -0.237 OA
ATOM     59  O   UNL A   1      38.987  30.193  33.602  1.00  0.00    -0.237 OA
ATOM     60  O   UNL A   1      36.656  30.800  33.080  1.00  0.00    -0.744 OA
ENDBRANCH  53  57
ENDBRANCH  26  50
BRANCH  38  61
ATOM     61  C   UNL A   1      45.892  32.924  29.049  1.00  0.00     0.023 A 
ATOM     62  C   UNL A   1      45.733  33.919  28.067  1.00  0.00     0.031 A 
ATOM     63  C   UNL A   1      46.442  33.301  30.287  1.00  0.00     0.131 A 
ATOM     64  C   UNL A   1      46.192  35.222  28.312  1.00  0.00     0.055 A 
ATOM     65  C   UNL A   1      46.828  34.616  30.551  1.00  0.00     0.041 A 
ATOM     66  F   UNL A   1      46.624  32.393  31.260  1.00  0.00    -0.206 F 
ATOM     67  C   UNL A   1      46.720  35.581  29.555  1.00  0.00     0.022 A 
BRANCH  64  68
ATOM     68  S   UNL A   1      46.206  36.410  26.942  1.00  0.00     0.124 S 
ATOM     69  O   UNL A   1      46.533  35.557  25.804  1.00  0.00    -0.237 OA
ATOM     70  O   UNL A   1      44.846  36.939  26.974  1.00  0.00    -0.237 OA
ATOM     71  O   UNL A   1      47.250  37.361  27.324  1.00  0.00    -0.744 OA
ENDBRANCH  64  68
ENDBRANCH  38  61
ENDBRANCH  12  13
ENDBRANCH   5   7
ENDBRANCH   2   3
ENDBRANCH   1   2
BRANCH   1  72
ATOM     72  C   UNL A   1      36.567  20.658  25.079  1.00  0.00     0.117 C 
BRANCH  72  73
ATOM     73  N   UNL A   1      35.405  19.801  24.919  1.00  0.00    -0.356 N 
ATOM     74  C   UNL A   1      34.071  19.978  24.931  1.00  0.00     0.223 C 
ATOM     75  H   UNL A   1      35.655  18.862  24.764  1.00  0.00     0.163 HD
ATOM     76  O   UNL A   1      33.420  18.937  24.745  1.00  0.00    -0.275 OA
BRANCH  74  77
ATOM     77  C   UNL A   1      33.288  21.285  25.136  1.00  0.00     0.091 C 
ATOM     78  C   UNL A   1      32.925  21.410  26.633  1.00  0.00     0.014 C 
ATOM     79  C   UNL A   1      32.144  21.722  24.222  1.00  0.00     0.091 C 
ATOM     80  C   UNL A   1      32.397  22.804  26.960  1.00  0.00     0.001 C 
ATOM     81  C   UNL A   1      31.474  23.044  24.648  1.00  0.00     0.014 C 
ATOM     82  C   UNL A   1      31.156  23.099  26.136  1.00  0.00     0.001 C 
BRANCH  79  83
ATOM     83  C   UNL A   1      32.374  21.797  22.711  1.00  0.00     0.228 C 
ATOM     84  O   UNL A   1      31.827  20.919  22.022  1.00  0.00    -0.274 OA
ATOM     85  N   UNL A   1      32.982  22.780  21.995  1.00  0.00    -0.326 N 
ATOM     86  H   UNL A   1      33.205  22.519  21.072  1.00  0.00     0.169 HD
BRANCH  85  87
ATOM     87  C   UNL A   1      33.351  24.088  22.315  1.00  0.00     0.041 A 
ATOM     88  C   UNL A   1      32.879  25.087  21.474  1.00  0.00     0.028 A 
ATOM     89  C   UNL A   1      34.152  24.468  23.379  1.00  0.00     0.028 A 
ATOM     90  C   UNL A   1      32.954  26.422  21.867  1.00  0.00     0.028 A 
ATOM     91  C   UNL A   1      34.149  25.793  23.825  1.00  0.00     0.028 A 
ATOM     92  C   UNL A   1      33.438  26.765  23.124  1.00  0.00     0.041 A 
BRANCH  92  93
ATOM     93  N   UNL A   1      33.237  28.005  23.757  1.00  0.00    -0.319 N 
ATOM     94  C   UNL A   1      32.106  28.605  24.287  1.00  0.00     0.291 C 
ATOM     95  H   UNL A   1      34.053  28.549  23.839  1.00  0.00     0.170 HD
ATOM     96  O   UNL A   1      32.255  29.702  24.830  1.00  0.00    -0.265 OA
BRANCH  94  97
ATOM     97  C   UNL A   1      30.831  27.932  24.230  1.00  0.00     0.191 A 
ATOM     98  C   UNL A   1      30.383  26.725  24.741  1.00  0.00     0.056 A 
ATOM     99  O   UNL A   1      29.845  28.501  23.472  1.00  0.00    -0.459 OA
ATOM    100  C   UNL A   1      29.093  26.511  24.192  1.00  0.00     0.043 A 
ATOM    101  C   UNL A   1      28.808  27.624  23.436  1.00  0.00     0.196 A 
ENDBRANCH  94  97
ENDBRANCH  92  93
ENDBRANCH  85  87
ENDBRANCH  79  83
ENDBRANCH  74  77
ENDBRANCH  72  73
ENDBRANCH   1  72
TORSDOF 17
ENDMDL
