MODEL 1
REMARK VINA RESULT:      -9.5      0.000      0.000
REMARK SMILES COCC[NH2+]CC(=O)N1C[C@H](OC)C[C@@H]1C(=O)NCCCNC(=O)c1ccc(-c2c3nc(c(-c4cc(S(=O)(=O)[O-])ccc4F)c4ccc([nH]4)c(-c4cc(S(=O)(=O)[O-])ccc4F)c4nc(c(-c5cc(S(=O)(=O)[O-])ccc5F)c5ccc2[nH]5)C=C4)C=C3)cc1
REMARK SMILES IDX 16 1 17 2 18 3 15 5 9 6 10 7 11 8 14 9 7 10 8 11 6 12 5 13
REMARK SMILES IDX 4 16 3 17 2 18 1 19 12 20 13 21 19 22 20 23 21 24 22 25
REMARK SMILES IDX 23 26 24 28 25 29 26 30 87 31 27 32 86 33 28 34 29 35 30 36
REMARK SMILES IDX 80 37 31 38 85 39 79 40 81 41 32 42 84 43 78 44 77 45 33 47
REMARK SMILES IDX 65 48 45 49 64 50 46 51 49 52 63 53 82 54 47 55 48 56 62 58
REMARK SMILES IDX 83 59 50 60 34 61 35 62 43 63 36 64 42 65 44 66 41 67 37 68
REMARK SMILES IDX 38 69 39 70 40 71 66 72 67 73 75 74 68 75 74 76 76 77 73 78
REMARK SMILES IDX 69 79 70 80 71 81 72 82 51 83 52 84 60 85 53 86 59 87 61 88
REMARK SMILES IDX 58 89 54 90 55 91 56 92 57 93
REMARK H PARENT 18 4 5 14 5 15 22 27 81 46 49 57
REMARK Flexibility Score: inf
ROOT
ATOM      1  C   UNL A   1      33.129  28.470  23.561  1.00  0.00     0.242 C 
ATOM      2  O   UNL A   1      34.068  28.733  22.804  1.00  0.00    -0.273 OA
ATOM      3  N   UNL A   1      32.804  29.412  24.492  1.00  0.00    -0.354 N 
ATOM      4  H   UNL A   1      33.373  30.214  24.500  1.00  0.00     0.163 HD
ENDROOT
BRANCH   1   5
ATOM      5  C   UNL A   1      32.498  27.061  23.560  1.00  0.00     0.177 C 
ATOM      6  N   UNL A   1      33.361  25.880  23.696  1.00  0.00    -0.323 N 
ATOM      7  C   UNL A   1      32.680  24.809  22.995  1.00  0.00     0.152 C 
ATOM      8  C   UNL A   1      32.158  25.447  21.728  1.00  0.00     0.139 C 
ATOM      9  C   UNL A   1      31.710  26.824  22.240  1.00  0.00     0.069 C 
BRANCH   6  10
ATOM     10  C   UNL A   1      34.022  25.597  24.887  1.00  0.00     0.278 C 
ATOM     11  O   UNL A   1      34.671  26.442  25.500  1.00  0.00    -0.268 OA
BRANCH  10  12
ATOM     12  C   UNL A   1      33.946  24.122  25.360  1.00  0.00     0.362 C 
BRANCH  12  13
ATOM     13  N   UNL A   1      33.286  23.912  26.678  1.00  0.00    -0.337 N 
ATOM     14  H   UNL A   1      33.954  23.487  27.321  1.00  0.00     0.346 HD
ATOM     15  H   UNL A   1      32.974  24.815  27.034  1.00  0.00     0.346 HD
BRANCH  13  16
ATOM     16  C   UNL A   1      32.124  23.033  26.544  1.00  0.00     0.289 C 
BRANCH  16  17
ATOM     17  C   UNL A   1      30.857  23.527  25.839  1.00  0.00     0.221 C 
BRANCH  17  18
ATOM     18  O   UNL A   1      30.116  24.453  26.639  1.00  0.00    -0.379 OA
ATOM     19  C   UNL A   1      30.385  25.806  26.313  1.00  0.00     0.195 C 
ENDBRANCH  17  18
ENDBRANCH  16  17
ENDBRANCH  13  16
ENDBRANCH  12  13
ENDBRANCH  10  12
ENDBRANCH   6  10
BRANCH   8  20
ATOM     20  O   UNL A   1      33.130  25.622  20.688  1.00  0.00    -0.380 OA
ATOM     21  C   UNL A   1      32.668  25.602  19.338  1.00  0.00     0.195 C 
ENDBRANCH   8  20
ENDBRANCH   1   5
BRANCH   3  22
ATOM     22  C   UNL A   1      31.741  29.391  25.464  1.00  0.00     0.117 C 
BRANCH  22  23
ATOM     23  C   UNL A   1      32.232  29.483  26.902  1.00  0.00     0.042 C 
BRANCH  23  24
ATOM     24  C   UNL A   1      33.619  30.084  27.030  1.00  0.00     0.118 C 
BRANCH  24  25
ATOM     25  N   UNL A   1      33.618  31.380  27.703  1.00  0.00    -0.352 N 
ATOM     26  C   UNL A   1      34.514  31.958  28.570  1.00  0.00     0.251 C 
ATOM     27  H   UNL A   1      32.835  31.940  27.500  1.00  0.00     0.163 HD
ATOM     28  O   UNL A   1      34.221  33.024  29.091  1.00  0.00    -0.269 OA
BRANCH  26  29
ATOM     29  C   UNL A   1      35.787  31.280  28.901  1.00  0.00     0.039 A 
ATOM     30  C   UNL A   1      36.989  31.898  28.546  1.00  0.00     0.014 A 
ATOM     31  C   UNL A   1      35.808  30.056  29.567  1.00  0.00     0.014 A 
ATOM     32  C   UNL A   1      38.200  31.315  28.921  1.00  0.00     0.010 A 
ATOM     33  C   UNL A   1      37.001  29.562  30.072  1.00  0.00     0.010 A 
ATOM     34  C   UNL A   1      38.215  30.166  29.729  1.00  0.00    -0.014 A 
BRANCH  34  35
ATOM     35  C   UNL A   1      39.489  29.559  30.187  1.00  0.00     0.031 A 
ATOM     36  C   UNL A   1      40.203  30.126  31.387  1.00  0.00     0.074 A 
ATOM     37  C   UNL A   1      40.029  28.540  29.490  1.00  0.00     0.049 A 
ATOM     38  N   UNL A   1      41.345  29.769  31.916  1.00  0.00    -0.248 NA
ATOM     39  C   UNL A   1      39.577  31.283  32.046  1.00  0.00     0.031 C 
ATOM     40  C   UNL A   1      39.472  27.967  28.263  1.00  0.00     0.029 A 
ATOM     41  N   UNL A   1      41.165  27.804  29.712  1.00  0.00    -0.354 N 
ATOM     42  C   UNL A   1      41.574  30.664  32.957  1.00  0.00     0.074 A 
ATOM     43  C   UNL A   1      40.513  31.645  32.907  1.00  0.00     0.031 C 
ATOM     44  C   UNL A   1      40.239  26.939  27.869  1.00  0.00     0.029 A 
ATOM     45  C   UNL A   1      41.368  26.810  28.783  1.00  0.00     0.049 A 
ATOM     46  H   UNL A   1      41.776  27.972  30.465  1.00  0.00     0.167 HD
ATOM     47  C   UNL A   1      42.549  30.644  33.899  1.00  0.00     0.034 A 
ATOM     48  C   UNL A   1      42.355  25.899  28.680  1.00  0.00     0.034 A 
ATOM     49  C   UNL A   1      43.588  29.646  33.935  1.00  0.00     0.049 A 
ATOM     50  C   UNL A   1      43.429  25.883  29.735  1.00  0.00     0.074 A 
ATOM     51  C   UNL A   1      44.603  29.487  34.860  1.00  0.00     0.029 A 
ATOM     52  N   UNL A   1      43.748  28.635  32.992  1.00  0.00    -0.354 N 
ATOM     53  N   UNL A   1      43.596  26.693  30.757  1.00  0.00    -0.248 NA
ATOM     54  C   UNL A   1      44.435  24.821  29.639  1.00  0.00     0.031 C 
ATOM     55  C   UNL A   1      45.417  28.429  34.438  1.00  0.00     0.029 A 
ATOM     56  C   UNL A   1      44.861  27.868  33.299  1.00  0.00     0.049 A 
ATOM     57  H   UNL A   1      43.158  28.488  32.219  1.00  0.00     0.167 HD
ATOM     58  C   UNL A   1      44.711  26.219  31.441  1.00  0.00     0.074 A 
ATOM     59  C   UNL A   1      45.164  25.044  30.722  1.00  0.00     0.031 C 
ATOM     60  C   UNL A   1      45.305  26.707  32.562  1.00  0.00     0.034 A 
BRANCH  47  61
ATOM     61  C   UNL A   1      42.525  31.742  34.941  1.00  0.00     0.023 A 
ATOM     62  C   UNL A   1      41.636  31.698  36.033  1.00  0.00     0.031 A 
ATOM     63  C   UNL A   1      43.341  32.877  34.811  1.00  0.00     0.131 A 
ATOM     64  C   UNL A   1      41.502  32.811  36.876  1.00  0.00     0.055 A 
ATOM     65  C   UNL A   1      43.279  33.939  35.718  1.00  0.00     0.041 A 
ATOM     66  F   UNL A   1      44.195  32.992  33.782  1.00  0.00    -0.206 F 
ATOM     67  C   UNL A   1      42.338  33.921  36.744  1.00  0.00     0.022 A 
BRANCH  64  68
ATOM     68  S   UNL A   1      40.087  32.868  38.011  1.00  0.00     0.124 S 
ATOM     69  O   UNL A   1      40.703  32.445  39.268  1.00  0.00    -0.237 OA
ATOM     70  O   UNL A   1      39.679  34.265  37.939  1.00  0.00    -0.237 OA
ATOM     71  O   UNL A   1      39.147  31.909  37.435  1.00  0.00    -0.744 OA
ENDBRANCH  64  68
ENDBRANCH  47  61
BRANCH  48  72
ATOM     72  C   UNL A   1      42.362  24.934  27.543  1.00  0.00     0.023 A 
ATOM     73  C   UNL A   1      41.668  23.716  27.612  1.00  0.00     0.031 A 
ATOM     74  C   UNL A   1      43.068  25.224  26.361  1.00  0.00     0.131 A 
ATOM     75  C   UNL A   1      41.722  22.817  26.534  1.00  0.00     0.055 A 
ATOM     76  C   UNL A   1      43.075  24.351  25.272  1.00  0.00     0.041 A 
ATOM     77  F   UNL A   1      43.740  26.380  26.238  1.00  0.00    -0.206 F 
ATOM     78  C   UNL A   1      42.408  23.134  25.359  1.00  0.00     0.022 A 
BRANCH  75  79
ATOM     79  S   UNL A   1      40.934  21.193  26.711  1.00  0.00     0.124 S 
ATOM     80  O   UNL A   1      39.780  21.325  25.830  1.00  0.00    -0.237 OA
ATOM     81  O   UNL A   1      41.989  20.293  26.257  1.00  0.00    -0.237 OA
ATOM     82  O   UNL A   1      40.626  21.118  28.138  1.00  0.00    -0.744 OA
ENDBRANCH  75  79
ENDBRANCH  48  72
BRANCH  60  83
ATOM     83  C   UNL A   1      46.485  25.936  33.102  1.00  0.00     0.023 A 
ATOM     84  C   UNL A   1      46.322  24.807  33.922  1.00  0.00     0.031 A 
ATOM     85  C   UNL A   1      47.794  26.345  32.792  1.00  0.00     0.131 A 
ATOM     86  C   UNL A   1      47.449  24.163  34.454  1.00  0.00     0.055 A 
ATOM     87  C   UNL A   1      48.911  25.658  33.266  1.00  0.00     0.041 A 
ATOM     88  F   UNL A   1      48.009  27.420  32.015  1.00  0.00    -0.206 F 
ATOM     89  C   UNL A   1      48.742  24.568  34.114  1.00  0.00     0.022 A 
BRANCH  86  90
ATOM     90  S   UNL A   1      47.201  22.852  35.683  1.00  0.00     0.124 S 
ATOM     91  O   UNL A   1      45.847  23.127  36.148  1.00  0.00    -0.237 OA
ATOM     92  O   UNL A   1      47.370  21.642  34.886  1.00  0.00    -0.237 OA
ATOM     93  O   UNL A   1      48.256  23.100  36.665  1.00  0.00    -0.744 OA
ENDBRANCH  86  90
ENDBRANCH  60  83
ENDBRANCH  34  35
ENDBRANCH  26  29
ENDBRANCH  24  25
ENDBRANCH  23  24
ENDBRANCH  22  23
ENDBRANCH   3  22
TORSDOF 20
ENDMDL
MODEL 2
REMARK VINA RESULT:      -9.4      2.940      8.407
REMARK SMILES COCC[NH2+]CC(=O)N1C[C@H](OC)C[C@@H]1C(=O)NCCCNC(=O)c1ccc(-c2c3nc(c(-c4cc(S(=O)(=O)[O-])ccc4F)c4ccc([nH]4)c(-c4cc(S(=O)(=O)[O-])ccc4F)c4nc(c(-c5cc(S(=O)(=O)[O-])ccc5F)c5ccc2[nH]5)C=C4)C=C3)cc1
REMARK SMILES IDX 16 1 17 2 18 3 15 5 9 6 10 7 11 8 14 9 7 10 8 11 6 12 5 13
REMARK SMILES IDX 4 16 3 17 2 18 1 19 12 20 13 21 19 22 20 23 21 24 22 25
REMARK SMILES IDX 23 26 24 28 25 29 26 30 87 31 27 32 86 33 28 34 29 35 30 36
REMARK SMILES IDX 80 37 31 38 85 39 79 40 81 41 32 42 84 43 78 44 77 45 33 47
REMARK SMILES IDX 65 48 45 49 64 50 46 51 49 52 63 53 82 54 47 55 48 56 62 58
REMARK SMILES IDX 83 59 50 60 34 61 35 62 43 63 36 64 42 65 44 66 41 67 37 68
REMARK SMILES IDX 38 69 39 70 40 71 66 72 67 73 75 74 68 75 74 76 76 77 73 78
REMARK SMILES IDX 69 79 70 80 71 81 72 82 51 83 52 84 60 85 53 86 59 87 61 88
REMARK SMILES IDX 58 89 54 90 55 91 56 92 57 93
REMARK H PARENT 18 4 5 14 5 15 22 27 81 46 49 57
REMARK Flexibility Score: inf
ROOT
ATOM      1  C   UNL A   1      32.776  28.438  25.311  1.00  0.00     0.242 C 
ATOM      2  O   UNL A   1      33.795  27.775  25.523  1.00  0.00    -0.273 OA
ATOM      3  N   UNL A   1      32.716  29.677  25.878  1.00  0.00    -0.354 N 
ATOM      4  H   UNL A   1      33.486  29.924  26.440  1.00  0.00     0.163 HD
ENDROOT
BRANCH   1   5
ATOM      5  C   UNL A   1      31.564  27.800  24.597  1.00  0.00     0.177 C 
ATOM      6  N   UNL A   1      31.333  26.355  24.716  1.00  0.00    -0.323 N 
ATOM      7  C   UNL A   1      30.659  25.959  23.495  1.00  0.00     0.152 C 
ATOM      8  C   UNL A   1      31.381  26.705  22.397  1.00  0.00     0.139 C 
ATOM      9  C   UNL A   1      31.640  28.063  23.066  1.00  0.00     0.069 C 
BRANCH   6  10
ATOM     10  C   UNL A   1      30.943  25.778  25.922  1.00  0.00     0.278 C 
ATOM     11  O   UNL A   1      30.779  26.437  26.947  1.00  0.00    -0.268 OA
BRANCH  10  12
ATOM     12  C   UNL A   1      30.797  24.234  25.907  1.00  0.00     0.362 C 
BRANCH  12  13
ATOM     13  N   UNL A   1      31.677  23.505  26.861  1.00  0.00    -0.337 N 
ATOM     14  H   UNL A   1      31.887  24.113  27.653  1.00  0.00     0.346 HD
ATOM     15  H   UNL A   1      31.191  22.665  27.176  1.00  0.00     0.346 HD
BRANCH  13  16
ATOM     16  C   UNL A   1      32.928  23.108  26.215  1.00  0.00     0.289 C 
BRANCH  16  17
ATOM     17  C   UNL A   1      32.946  22.721  24.733  1.00  0.00     0.221 C 
BRANCH  17  18
ATOM     18  O   UNL A   1      34.271  22.682  24.197  1.00  0.00    -0.379 OA
ATOM     19  C   UNL A   1      34.788  23.969  23.903  1.00  0.00     0.195 C 
ENDBRANCH  17  18
ENDBRANCH  16  17
ENDBRANCH  13  16
ENDBRANCH  12  13
ENDBRANCH  10  12
ENDBRANCH   6  10
BRANCH   8  20
ATOM     20  O   UNL A   1      32.632  26.132  21.990  1.00  0.00    -0.380 OA
ATOM     21  C   UNL A   1      32.683  25.480  20.722  1.00  0.00     0.195 C 
ENDBRANCH   8  20
ENDBRANCH   1   5
BRANCH   3  22
ATOM     22  C   UNL A   1      31.681  30.672  25.766  1.00  0.00     0.117 C 
BRANCH  22  23
ATOM     23  C   UNL A   1      31.591  31.592  26.975  1.00  0.00     0.042 C 
BRANCH  23  24
ATOM     24  C   UNL A   1      32.886  32.323  27.276  1.00  0.00     0.118 C 
BRANCH  24  25
ATOM     25  N   UNL A   1      32.680  33.725  27.631  1.00  0.00    -0.352 N 
ATOM     26  C   UNL A   1      33.282  34.525  28.572  1.00  0.00     0.251 C 
ATOM     27  H   UNL A   1      31.984  34.177  27.102  1.00  0.00     0.163 HD
ATOM     28  O   UNL A   1      32.842  35.651  28.751  1.00  0.00    -0.269 OA
BRANCH  26  29
ATOM     29  C   UNL A   1      34.410  34.017  29.383  1.00  0.00     0.039 A 
ATOM     30  C   UNL A   1      34.136  33.150  30.444  1.00  0.00     0.014 A 
ATOM     31  C   UNL A   1      35.728  34.372  29.102  1.00  0.00     0.014 A 
ATOM     32  C   UNL A   1      35.190  32.595  31.171  1.00  0.00     0.010 A 
ATOM     33  C   UNL A   1      36.773  33.701  29.720  1.00  0.00     0.010 A 
ATOM     34  C   UNL A   1      36.520  32.830  30.784  1.00  0.00    -0.014 A 
BRANCH  34  35
ATOM     35  C   UNL A   1      37.657  32.207  31.506  1.00  0.00     0.031 A 
ATOM     36  C   UNL A   1      38.436  31.090  30.861  1.00  0.00     0.074 A 
ATOM     37  C   UNL A   1      37.949  32.608  32.759  1.00  0.00     0.049 A 
ATOM     38  N   UNL A   1      39.429  30.388  31.342  1.00  0.00    -0.248 NA
ATOM     39  C   UNL A   1      38.005  30.670  29.519  1.00  0.00     0.031 C 
ATOM     40  C   UNL A   1      37.208  33.620  33.517  1.00  0.00     0.029 A 
ATOM     41  N   UNL A   1      38.943  32.215  33.617  1.00  0.00    -0.354 N 
ATOM     42  C   UNL A   1      39.728  29.442  30.367  1.00  0.00     0.074 A 
ATOM     43  C   UNL A   1      38.738  29.587  29.324  1.00  0.00     0.031 C 
ATOM     44  C   UNL A   1      37.803  33.802  34.705  1.00  0.00     0.029 A 
ATOM     45  C   UNL A   1      38.935  32.889  34.816  1.00  0.00     0.049 A 
ATOM     46  H   UNL A   1      39.602  31.518  33.395  1.00  0.00     0.167 HD
ATOM     47  C   UNL A   1      40.762  28.564  30.319  1.00  0.00     0.034 A 
ATOM     48  C   UNL A   1      39.747  32.781  35.885  1.00  0.00     0.034 A 
ATOM     49  C   UNL A   1      41.745  28.449  31.367  1.00  0.00     0.049 A 
ATOM     50  C   UNL A   1      40.895  31.808  35.818  1.00  0.00     0.074 A 
ATOM     51  C   UNL A   1      42.863  27.637  31.418  1.00  0.00     0.029 A 
ATOM     52  N   UNL A   1      41.721  29.168  32.558  1.00  0.00    -0.354 N 
ATOM     53  N   UNL A   1      41.209  30.966  34.859  1.00  0.00    -0.248 NA
ATOM     54  C   UNL A   1      41.809  31.783  36.965  1.00  0.00     0.031 C 
ATOM     55  C   UNL A   1      43.472  27.811  32.666  1.00  0.00     0.029 A 
ATOM     56  C   UNL A   1      42.788  28.798  33.361  1.00  0.00     0.049 A 
ATOM     57  H   UNL A   1      41.044  29.841  32.796  1.00  0.00     0.167 HD
ATOM     58  C   UNL A   1      42.375  30.331  35.276  1.00  0.00     0.074 A 
ATOM     59  C   UNL A   1      42.713  30.901  36.565  1.00  0.00     0.031 C 
ATOM     60  C   UNL A   1      43.102  29.369  34.651  1.00  0.00     0.034 A 
BRANCH  47  61
ATOM     61  C   UNL A   1      40.853  27.671  29.101  1.00  0.00     0.023 A 
ATOM     62  C   UNL A   1      41.789  27.916  28.078  1.00  0.00     0.031 A 
ATOM     63  C   UNL A   1      39.954  26.607  28.919  1.00  0.00     0.131 A 
ATOM     64  C   UNL A   1      41.728  27.192  26.879  1.00  0.00     0.055 A 
ATOM     65  C   UNL A   1      39.968  25.818  27.764  1.00  0.00     0.041 A 
ATOM     66  F   UNL A   1      39.022  26.332  29.844  1.00  0.00    -0.206 F 
ATOM     67  C   UNL A   1      40.843  26.124  26.726  1.00  0.00     0.022 A 
BRANCH  64  68
ATOM     68  S   UNL A   1      42.680  27.796  25.457  1.00  0.00     0.124 S 
ATOM     69  O   UNL A   1      42.706  26.613  24.597  1.00  0.00    -0.237 OA
ATOM     70  O   UNL A   1      41.868  28.910  24.983  1.00  0.00    -0.237 OA
ATOM     71  O   UNL A   1      43.970  28.162  26.037  1.00  0.00    -0.744 OA
ENDBRANCH  64  68
ENDBRANCH  47  61
BRANCH  48  72
ATOM     72  C   UNL A   1      39.503  33.618  37.095  1.00  0.00     0.023 A 
ATOM     73  C   UNL A   1      38.806  33.113  38.205  1.00  0.00     0.031 A 
ATOM     74  C   UNL A   1      39.970  34.943  37.157  1.00  0.00     0.131 A 
ATOM     75  C   UNL A   1      38.567  33.939  39.316  1.00  0.00     0.055 A 
ATOM     76  C   UNL A   1      39.775  35.743  38.284  1.00  0.00     0.041 A 
ATOM     77  F   UNL A   1      40.650  35.471  36.127  1.00  0.00    -0.206 F 
ATOM     78  C   UNL A   1      39.061  35.245  39.369  1.00  0.00     0.022 A 
BRANCH  75  79
ATOM     79  S   UNL A   1      37.543  33.305  40.672  1.00  0.00     0.124 S 
ATOM     80  O   UNL A   1      36.378  32.801  39.953  1.00  0.00    -0.237 OA
ATOM     81  O   UNL A   1      38.416  32.298  41.266  1.00  0.00    -0.237 OA
ATOM     82  O   UNL A   1      37.304  34.486  41.499  1.00  0.00    -0.744 OA
ENDBRANCH  75  79
ENDBRANCH  48  72
BRANCH  60  83
ATOM     83  C   UNL A   1      44.363  28.907  35.339  1.00  0.00     0.023 A 
ATOM     84  C   UNL A   1      44.378  27.789  36.191  1.00  0.00     0.031 A 
ATOM     85  C   UNL A   1      45.569  29.602  35.139  1.00  0.00     0.131 A 
ATOM     86  C   UNL A   1      45.561  27.438  36.859  1.00  0.00     0.055 A 
ATOM     87  C   UNL A   1      46.758  29.204  35.751  1.00  0.00     0.041 A 
ATOM     88  F   UNL A   1      45.613  30.679  34.338  1.00  0.00    -0.206 F 
ATOM     89  C   UNL A   1      46.755  28.125  36.628  1.00  0.00     0.022 A 
BRANCH  86  90
ATOM     90  S   UNL A   1      45.492  26.134  38.118  1.00  0.00     0.124 S 
ATOM     91  O   UNL A   1      44.486  25.233  37.565  1.00  0.00    -0.237 OA
ATOM     92  O   UNL A   1      46.862  25.634  38.125  1.00  0.00    -0.237 OA
ATOM     93  O   UNL A   1      45.086  26.848  39.328  1.00  0.00    -0.744 OA
ENDBRANCH  86  90
ENDBRANCH  60  83
ENDBRANCH  34  35
ENDBRANCH  26  29
ENDBRANCH  24  25
ENDBRANCH  23  24
ENDBRANCH  22  23
ENDBRANCH   3  22
TORSDOF 20
ENDMDL
MODEL 3
REMARK VINA RESULT:      -9.3      1.628      2.259
REMARK SMILES COCC[NH2+]CC(=O)N1C[C@H](OC)C[C@@H]1C(=O)NCCCNC(=O)c1ccc(-c2c3nc(c(-c4cc(S(=O)(=O)[O-])ccc4F)c4ccc([nH]4)c(-c4cc(S(=O)(=O)[O-])ccc4F)c4nc(c(-c5cc(S(=O)(=O)[O-])ccc5F)c5ccc2[nH]5)C=C4)C=C3)cc1
REMARK SMILES IDX 16 1 17 2 18 3 15 5 9 6 10 7 11 8 14 9 7 10 8 11 6 12 5 13
REMARK SMILES IDX 4 16 3 17 2 18 1 19 12 20 13 21 19 22 20 23 21 24 22 25
REMARK SMILES IDX 23 26 24 28 25 29 26 30 87 31 27 32 86 33 28 34 29 35 30 36
REMARK SMILES IDX 80 37 31 38 85 39 79 40 81 41 32 42 84 43 78 44 77 45 33 47
REMARK SMILES IDX 65 48 45 49 64 50 46 51 49 52 63 53 82 54 47 55 48 56 62 58
REMARK SMILES IDX 83 59 50 60 34 61 35 62 43 63 36 64 42 65 44 66 41 67 37 68
REMARK SMILES IDX 38 69 39 70 40 71 66 72 67 73 75 74 68 75 74 76 76 77 73 78
REMARK SMILES IDX 69 79 70 80 71 81 72 82 51 83 52 84 60 85 53 86 59 87 61 88
REMARK SMILES IDX 58 89 54 90 55 91 56 92 57 93
REMARK H PARENT 18 4 5 14 5 15 22 27 81 46 49 57
REMARK Flexibility Score: inf
ROOT
ATOM      1  C   UNL A   1      31.833  29.255  23.688  1.00  0.00     0.242 C 
ATOM      2  O   UNL A   1      32.382  28.898  22.640  1.00  0.00    -0.273 OA
ATOM      3  N   UNL A   1      32.629  29.822  24.639  1.00  0.00    -0.354 N 
ATOM      4  H   UNL A   1      33.587  29.868  24.418  1.00  0.00     0.163 HD
ENDROOT
BRANCH   1   5
ATOM      5  C   UNL A   1      30.357  28.891  23.959  1.00  0.00     0.177 C 
ATOM      6  N   UNL A   1      29.759  27.737  23.277  1.00  0.00    -0.323 N 
ATOM      7  C   UNL A   1      28.347  28.039  23.151  1.00  0.00     0.152 C 
ATOM      8  C   UNL A   1      28.298  29.494  22.745  1.00  0.00     0.139 C 
ATOM      9  C   UNL A   1      29.432  30.087  23.596  1.00  0.00     0.069 C 
BRANCH   6  10
ATOM     10  C   UNL A   1      30.148  26.434  23.575  1.00  0.00     0.278 C 
ATOM     11  O   UNL A   1      30.621  25.676  22.731  1.00  0.00    -0.268 OA
BRANCH  10  12
ATOM     12  C   UNL A   1      29.882  25.974  25.032  1.00  0.00     0.362 C 
BRANCH  12  13
ATOM     13  N   UNL A   1      30.968  25.164  25.649  1.00  0.00    -0.337 N 
ATOM     14  H   UNL A   1      30.594  24.664  26.456  1.00  0.00     0.346 HD
ATOM     15  H   UNL A   1      31.319  24.505  24.954  1.00  0.00     0.346 HD
BRANCH  13  16
ATOM     16  C   UNL A   1      32.072  26.019  26.085  1.00  0.00     0.289 C 
BRANCH  16  17
ATOM     17  C   UNL A   1      33.376  26.070  25.281  1.00  0.00     0.221 C 
BRANCH  17  18
ATOM     18  O   UNL A   1      33.886  24.766  24.990  1.00  0.00    -0.379 OA
ATOM     19  C   UNL A   1      34.075  23.973  26.149  1.00  0.00     0.195 C 
ENDBRANCH  17  18
ENDBRANCH  16  17
ENDBRANCH  13  16
ENDBRANCH  12  13
ENDBRANCH  10  12
ENDBRANCH   6  10
BRANCH   8  20
ATOM     20  O   UNL A   1      28.563  29.752  21.359  1.00  0.00    -0.380 OA
ATOM     21  C   UNL A   1      28.048  30.959  20.799  1.00  0.00     0.195 C 
ENDBRANCH   8  20
ENDBRANCH   1   5
BRANCH   3  22
ATOM     22  C   UNL A   1      32.259  30.362  25.921  1.00  0.00     0.117 C 
BRANCH  22  23
ATOM     23  C   UNL A   1      32.721  29.510  27.095  1.00  0.00     0.042 C 
BRANCH  23  24
ATOM     24  C   UNL A   1      34.098  29.886  27.608  1.00  0.00     0.118 C 
BRANCH  24  25
ATOM     25  N   UNL A   1      34.098  31.121  28.388  1.00  0.00    -0.352 N 
ATOM     26  C   UNL A   1      35.022  31.651  29.256  1.00  0.00     0.251 C 
ATOM     27  H   UNL A   1      33.291  31.672  28.272  1.00  0.00     0.163 HD
ATOM     28  O   UNL A   1      34.728  32.661  29.879  1.00  0.00    -0.269 OA
BRANCH  26  29
ATOM     29  C   UNL A   1      36.327  30.987  29.466  1.00  0.00     0.039 A 
ATOM     30  C   UNL A   1      37.470  31.557  28.900  1.00  0.00     0.014 A 
ATOM     31  C   UNL A   1      36.437  29.822  30.224  1.00  0.00     0.014 A 
ATOM     32  C   UNL A   1      38.720  30.992  29.154  1.00  0.00     0.010 A 
ATOM     33  C   UNL A   1      37.688  29.357  30.602  1.00  0.00     0.010 A 
ATOM     34  C   UNL A   1      38.844  29.914  30.046  1.00  0.00    -0.014 A 
BRANCH  34  35
ATOM     35  C   UNL A   1      40.168  29.331  30.376  1.00  0.00     0.031 A 
ATOM     36  C   UNL A   1      40.999  29.930  31.482  1.00  0.00     0.074 A 
ATOM     37  C   UNL A   1      40.644  28.305  29.643  1.00  0.00     0.049 A 
ATOM     38  N   UNL A   1      42.196  29.596  31.891  1.00  0.00    -0.248 NA
ATOM     39  C   UNL A   1      40.431  31.091  32.184  1.00  0.00     0.031 C 
ATOM     40  C   UNL A   1      39.966  27.702  28.493  1.00  0.00     0.029 A 
ATOM     41  N   UNL A   1      41.807  27.587  29.755  1.00  0.00    -0.354 N 
ATOM     42  C   UNL A   1      42.522  30.513  32.885  1.00  0.00     0.074 A 
ATOM     43  C   UNL A   1      41.449  31.481  32.932  1.00  0.00     0.031 C 
ATOM     44  C   UNL A   1      40.701  26.676  28.037  1.00  0.00     0.029 A 
ATOM     45  C   UNL A   1      41.923  26.578  28.828  1.00  0.00     0.049 A 
ATOM     46  H   UNL A   1      42.493  27.776  30.435  1.00  0.00     0.167 HD
ATOM     47  C   UNL A   1      43.593  30.523  33.717  1.00  0.00     0.034 A 
ATOM     48  C   UNL A   1      42.905  25.676  28.635  1.00  0.00     0.034 A 
ATOM     49  C   UNL A   1      44.644  29.537  33.659  1.00  0.00     0.049 A 
ATOM     50  C   UNL A   1      44.086  25.693  29.570  1.00  0.00     0.074 A 
ATOM     51  C   UNL A   1      45.753  29.408  34.473  1.00  0.00     0.029 A 
ATOM     52  N   UNL A   1      44.715  28.511  32.723  1.00  0.00    -0.354 N 
ATOM     53  N   UNL A   1      44.351  26.524  30.553  1.00  0.00    -0.248 NA
ATOM     54  C   UNL A   1      45.091  24.641  29.384  1.00  0.00     0.031 C 
ATOM     55  C   UNL A   1      46.532  28.352  33.986  1.00  0.00     0.029 A 
ATOM     56  C   UNL A   1      45.864  27.762  32.923  1.00  0.00     0.049 A 
ATOM     57  H   UNL A   1      44.047  28.342  32.021  1.00  0.00     0.167 HD
ATOM     58  C   UNL A   1      45.539  26.076  31.121  1.00  0.00     0.074 A 
ATOM     59  C   UNL A   1      45.928  24.894  30.379  1.00  0.00     0.031 C 
ATOM     60  C   UNL A   1      46.243  26.592  32.163  1.00  0.00     0.034 A 
BRANCH  47  61
ATOM     61  C   UNL A   1      43.665  31.640  34.737  1.00  0.00     0.023 A 
ATOM     62  C   UNL A   1      43.017  31.540  35.983  1.00  0.00     0.031 A 
ATOM     63  C   UNL A   1      44.324  32.844  34.440  1.00  0.00     0.131 A 
ATOM     64  C   UNL A   1      42.942  32.657  36.828  1.00  0.00     0.055 A 
ATOM     65  C   UNL A   1      44.336  33.919  35.334  1.00  0.00     0.041 A 
ATOM     66  F   UNL A   1      44.944  33.014  33.262  1.00  0.00    -0.206 F 
ATOM     67  C   UNL A   1      43.622  33.838  36.526  1.00  0.00     0.022 A 
BRANCH  64  68
ATOM     68  S   UNL A   1      41.779  32.608  38.221  1.00  0.00     0.124 S 
ATOM     69  O   UNL A   1      40.526  32.275  37.545  1.00  0.00    -0.237 OA
ATOM     70  O   UNL A   1      42.344  31.564  39.067  1.00  0.00    -0.237 OA
ATOM     71  O   UNL A   1      41.841  33.961  38.768  1.00  0.00    -0.744 OA
ENDBRANCH  64  68
ENDBRANCH  47  61
BRANCH  48  72
ATOM     72  C   UNL A   1      42.804  24.690  27.522  1.00  0.00     0.023 A 
ATOM     73  C   UNL A   1      41.948  23.580  27.603  1.00  0.00     0.031 A 
ATOM     74  C   UNL A   1      43.567  24.849  26.350  1.00  0.00     0.131 A 
ATOM     75  C   UNL A   1      41.901  22.654  26.547  1.00  0.00     0.055 A 
ATOM     76  C   UNL A   1      43.477  23.956  25.283  1.00  0.00     0.041 A 
ATOM     77  F   UNL A   1      44.393  25.899  26.217  1.00  0.00    -0.206 F 
ATOM     78  C   UNL A   1      42.648  22.844  25.382  1.00  0.00     0.022 A 
BRANCH  75  79
ATOM     79  S   UNL A   1      40.895  21.158  26.743  1.00  0.00     0.124 S 
ATOM     80  O   UNL A   1      40.816  21.040  28.194  1.00  0.00    -0.237 OA
ATOM     81  O   UNL A   1      39.660  21.531  26.061  1.00  0.00    -0.237 OA
ATOM     82  O   UNL A   1      41.686  20.126  26.074  1.00  0.00    -0.744 OA
ENDBRANCH  75  79
ENDBRANCH  48  72
BRANCH  60  83
ATOM     83  C   UNL A   1      47.484  25.846  32.587  1.00  0.00     0.023 A 
ATOM     84  C   UNL A   1      47.467  24.912  33.637  1.00  0.00     0.031 A 
ATOM     85  C   UNL A   1      48.705  26.080  31.930  1.00  0.00     0.131 A 
ATOM     86  C   UNL A   1      48.660  24.292  34.038  1.00  0.00     0.055 A 
ATOM     87  C   UNL A   1      49.873  25.407  32.287  1.00  0.00     0.041 A 
ATOM     88  F   UNL A   1      48.781  26.964  30.922  1.00  0.00    -0.206 F 
ATOM     89  C   UNL A   1      49.858  24.518  33.357  1.00  0.00     0.022 A 
BRANCH  86  90
ATOM     90  S   UNL A   1      48.645  23.266  35.534  1.00  0.00     0.124 S 
ATOM     91  O   UNL A   1      47.771  24.031  36.416  1.00  0.00    -0.237 OA
ATOM     92  O   UNL A   1      48.107  22.003  35.040  1.00  0.00    -0.237 OA
ATOM     93  O   UNL A   1      50.050  23.227  35.936  1.00  0.00    -0.744 OA
ENDBRANCH  86  90
ENDBRANCH  60  83
ENDBRANCH  34  35
ENDBRANCH  26  29
ENDBRANCH  24  25
ENDBRANCH  23  24
ENDBRANCH  22  23
ENDBRANCH   3  22
TORSDOF 20
ENDMDL
