MODEL 1
REMARK VINA RESULT:     -11.4      0.000      0.000
REMARK SMILES COc1cccc([C@@H]2CN(C(=O)CCSC)C[C@H]2C(=O)NCCCNC(=O)c2ccc(-c3c4nc(c(-c5cc(S(=O)(=O)[O-])ccc5F)c5ccc([nH]5)c(-c5cc(S(=O)(=O)[O-])ccc5F)c5nc(c(-c6cc(S(=O)(=O)[O-])ccc6F)c6ccc3[nH]6)C=C5)C=C4)cc2)c1OC
REMARK SMILES IDX 22 1 21 2 19 3 20 4 18 6 8 7 9 8 10 9 17 10 7 11 3 12 4 13
REMARK SMILES IDX 91 14 5 15 6 16 2 17 1 18 92 19 93 20 11 21 12 22 13 23
REMARK SMILES IDX 14 24 15 25 16 26 23 27 24 28 25 29 26 30 27 32 28 33 29 34
REMARK SMILES IDX 90 35 30 36 89 37 31 38 32 39 33 40 83 41 34 42 88 43 82 44
REMARK SMILES IDX 84 45 35 46 87 47 81 48 80 49 36 51 68 52 48 53 67 54 49 55
REMARK SMILES IDX 52 56 66 57 85 58 50 59 51 60 65 62 86 63 53 64 37 65 38 66
REMARK SMILES IDX 46 67 39 68 45 69 47 70 44 71 40 72 41 73 42 74 43 75 69 76
REMARK SMILES IDX 70 77 78 78 71 79 77 80 79 81 76 82 72 83 73 84 74 85 75 86
REMARK SMILES IDX 54 87 55 88 63 89 56 90 62 91 64 92 61 93 57 94 58 95 59 96
REMARK SMILES IDX 60 97
REMARK H PARENT 21 5 25 31 84 50 52 61
REMARK Flexibility Score: inf
ROOT
ATOM      1  C   UNL A   1      34.262  29.857  27.209  1.00  0.00     0.117 C 
ENDROOT
BRANCH   1   2
ATOM      2  N   UNL A   1      33.126  29.225  27.861  1.00  0.00    -0.356 N 
ATOM      3  C   UNL A   1      32.227  28.311  27.416  1.00  0.00     0.225 C 
ATOM      4  O   UNL A   1      31.368  27.928  28.216  1.00  0.00    -0.275 OA
ATOM      5  H   UNL A   1      32.984  29.512  28.791  1.00  0.00     0.163 HD
BRANCH   3   6
ATOM      6  C   UNL A   1      32.244  27.769  26.000  1.00  0.00     0.107 C 
ATOM      7  C   UNL A   1      31.650  26.352  25.887  1.00  0.00     0.057 C 
ATOM      8  C   UNL A   1      30.687  26.395  24.701  1.00  0.00     0.128 C 
ATOM      9  N   UNL A   1      30.499  27.796  24.369  1.00  0.00    -0.341 N 
ATOM     10  C   UNL A   1      31.476  28.649  25.025  1.00  0.00     0.133 C 
BRANCH   7  11
ATOM     11  C   UNL A   1      32.647  25.208  25.775  1.00  0.00     0.004 A 
ATOM     12  C   UNL A   1      33.436  22.962  26.263  1.00  0.00     0.161 A 
ATOM     13  C   UNL A   1      34.592  23.201  25.512  1.00  0.00     0.050 A 
ATOM     14  C   UNL A   1      32.471  23.968  26.430  1.00  0.00     0.164 A 
ATOM     15  C   UNL A   1      34.784  24.433  24.894  1.00  0.00     0.004 A 
ATOM     16  C   UNL A   1      33.814  25.425  25.017  1.00  0.00     0.008 A 
BRANCH  12  17
ATOM     17  O   UNL A   1      33.344  21.760  26.916  1.00  0.00    -0.493 OA
ATOM     18  C   UNL A   1      33.418  20.670  25.994  1.00  0.00     0.278 C 
ENDBRANCH  12  17
BRANCH  14  19
ATOM     19  O   UNL A   1      31.377  23.904  27.254  1.00  0.00    -0.493 OA
ATOM     20  C   UNL A   1      30.282  23.094  26.860  1.00  0.00     0.278 C 
ENDBRANCH  14  19
ENDBRANCH   7  11
BRANCH   9  21
ATOM     21  C   UNL A   1      29.625  28.317  23.443  1.00  0.00     0.223 C 
ATOM     22  O   UNL A   1      28.590  27.726  23.129  1.00  0.00    -0.275 OA
BRANCH  21  23
ATOM     23  C   UNL A   1      29.937  29.672  22.845  1.00  0.00     0.111 C 
BRANCH  23  24
ATOM     24  C   UNL A   1      29.072  30.765  23.467  1.00  0.00     0.079 C 
BRANCH  24  25
ATOM     25  S   UNL A   1      28.407  31.973  22.267  1.00  0.00    -0.165 SA
ATOM     26  C   UNL A   1      28.028  30.869  20.882  1.00  0.00     0.085 C 
ENDBRANCH  24  25
ENDBRANCH  23  24
ENDBRANCH  21  23
ENDBRANCH   9  21
ENDBRANCH   3   6
ENDBRANCH   1   2
BRANCH   1  27
ATOM     27  C   UNL A   1      34.184  31.375  27.242  1.00  0.00     0.042 C 
BRANCH  27  28
ATOM     28  C   UNL A   1      32.788  31.892  27.550  1.00  0.00     0.118 C 
BRANCH  28  29
ATOM     29  N   UNL A   1      32.752  33.347  27.628  1.00  0.00    -0.352 N 
ATOM     30  C   UNL A   1      33.444  34.195  28.457  1.00  0.00     0.251 C 
ATOM     31  H   UNL A   1      32.142  33.787  26.992  1.00  0.00     0.163 HD
ATOM     32  O   UNL A   1      33.079  35.363  28.574  1.00  0.00    -0.269 OA
BRANCH  30  33
ATOM     33  C   UNL A   1      34.603  33.687  29.219  1.00  0.00     0.039 A 
ATOM     34  C   UNL A   1      34.393  32.812  30.286  1.00  0.00     0.014 A 
ATOM     35  C   UNL A   1      35.899  34.065  28.861  1.00  0.00     0.014 A 
ATOM     36  C   UNL A   1      35.491  32.247  30.936  1.00  0.00     0.010 A 
ATOM     37  C   UNL A   1      36.986  33.422  29.436  1.00  0.00     0.010 A 
ATOM     38  C   UNL A   1      36.794  32.506  30.481  1.00  0.00    -0.014 A 
BRANCH  38  39
ATOM     39  C   UNL A   1      37.975  31.830  31.072  1.00  0.00     0.031 A 
ATOM     40  C   UNL A   1      38.702  30.767  30.295  1.00  0.00     0.074 A 
ATOM     41  C   UNL A   1      38.336  32.112  32.340  1.00  0.00     0.049 A 
ATOM     42  N   UNL A   1      39.693  30.001  30.667  1.00  0.00    -0.248 NA
ATOM     43  C   UNL A   1      38.220  30.512  28.929  1.00  0.00     0.031 C 
ATOM     44  C   UNL A   1      37.686  33.100  33.203  1.00  0.00     0.029 A 
ATOM     45  N   UNL A   1      39.335  31.594  33.123  1.00  0.00    -0.354 N 
ATOM     46  C   UNL A   1      39.945  29.161  29.587  1.00  0.00     0.074 A 
ATOM     47  C   UNL A   1      38.950  29.465  28.580  1.00  0.00     0.031 C 
ATOM     48  C   UNL A   1      38.331  33.148  34.379  1.00  0.00     0.029 A 
ATOM     49  C   UNL A   1      39.399  32.154  34.378  1.00  0.00     0.049 A 
ATOM     50  H   UNL A   1      39.949  30.887  32.817  1.00  0.00     0.167 HD
ATOM     51  C   UNL A   1      40.930  28.239  29.441  1.00  0.00     0.034 A 
ATOM     52  C   UNL A   1      40.219  31.889  35.413  1.00  0.00     0.034 A 
ATOM     53  C   UNL A   1      41.910  27.953  30.461  1.00  0.00     0.049 A 
ATOM     54  C   UNL A   1      41.262  30.812  35.256  1.00  0.00     0.074 A 
ATOM     55  C   UNL A   1      42.990  27.091  30.402  1.00  0.00     0.029 A 
ATOM     56  N   UNL A   1      41.917  28.509  31.736  1.00  0.00    -0.354 N 
ATOM     57  N   UNL A   1      41.529  30.067  34.208  1.00  0.00    -0.248 NA
ATOM     58  C   UNL A   1      42.111  30.542  36.422  1.00  0.00     0.031 C 
ATOM     59  C   UNL A   1      43.592  27.056  31.665  1.00  0.00     0.029 A 
ATOM     60  C   UNL A   1      42.948  27.966  32.488  1.00  0.00     0.049 A 
ATOM     61  H   UNL A   1      41.281  29.188  32.059  1.00  0.00     0.167 HD
ATOM     62  C   UNL A   1      42.601  29.260  34.581  1.00  0.00     0.074 A 
ATOM     63  C   UNL A   1      42.934  29.619  35.944  1.00  0.00     0.031 C 
ATOM     64  C   UNL A   1      43.255  28.315  33.857  1.00  0.00     0.034 A 
BRANCH  51  65
ATOM     65  C   UNL A   1      40.957  27.455  28.148  1.00  0.00     0.023 A 
ATOM     66  C   UNL A   1      40.561  26.107  28.093  1.00  0.00     0.031 A 
ATOM     67  C   UNL A   1      41.443  28.042  26.967  1.00  0.00     0.131 A 
ATOM     68  C   UNL A   1      40.762  25.364  26.920  1.00  0.00     0.055 A 
ATOM     69  C   UNL A   1      41.544  27.324  25.773  1.00  0.00     0.041 A 
ATOM     70  F   UNL A   1      41.858  29.319  26.957  1.00  0.00    -0.206 F 
ATOM     71  C   UNL A   1      41.224  25.970  25.751  1.00  0.00     0.022 A 
BRANCH  68  72
ATOM     72  S   UNL A   1      40.604  23.558  27.007  1.00  0.00     0.124 S 
ATOM     73  O   UNL A   1      39.181  23.372  26.727  1.00  0.00    -0.237 OA
ATOM     74  O   UNL A   1      41.523  23.111  25.967  1.00  0.00    -0.237 OA
ATOM     75  O   UNL A   1      41.006  23.244  28.376  1.00  0.00    -0.744 OA
ENDBRANCH  68  72
ENDBRANCH  51  65
BRANCH  52  76
ATOM     76  C   UNL A   1      40.097  32.656  36.684  1.00  0.00     0.023 A 
ATOM     77  C   UNL A   1      39.120  32.315  37.633  1.00  0.00     0.031 A 
ATOM     78  C   UNL A   1      40.936  33.749  36.965  1.00  0.00     0.131 A 
ATOM     79  C   UNL A   1      38.981  33.079  38.801  1.00  0.00     0.055 A 
ATOM     80  C   UNL A   1      40.830  34.473  38.154  1.00  0.00     0.041 A 
ATOM     81  F   UNL A   1      41.889  34.116  36.094  1.00  0.00    -0.206 F 
ATOM     82  C   UNL A   1      39.840  34.146  39.076  1.00  0.00     0.022 A 
BRANCH  79  83
ATOM     83  S   UNL A   1      37.613  32.698  39.927  1.00  0.00     0.124 S 
ATOM     84  O   UNL A   1      37.659  33.833  40.842  1.00  0.00    -0.237 OA
ATOM     85  O   UNL A   1      36.474  32.653  39.016  1.00  0.00    -0.237 OA
ATOM     86  O   UNL A   1      37.996  31.413  40.505  1.00  0.00    -0.744 OA
ENDBRANCH  79  83
ENDBRANCH  52  76
BRANCH  64  87
ATOM     87  C   UNL A   1      44.422  27.627  34.523  1.00  0.00     0.023 A 
ATOM     88  C   UNL A   1      44.285  26.376  35.150  1.00  0.00     0.031 A 
ATOM     89  C   UNL A   1      45.692  28.231  34.528  1.00  0.00     0.131 A 
ATOM     90  C   UNL A   1      45.385  25.795  35.800  1.00  0.00     0.055 A 
ATOM     91  C   UNL A   1      46.798  27.618  35.117  1.00  0.00     0.041 A 
ATOM     92  F   UNL A   1      45.881  29.429  33.949  1.00  0.00    -0.206 F 
ATOM     93  C   UNL A   1      46.645  26.398  35.769  1.00  0.00     0.022 A 
BRANCH  90  94
ATOM     94  S   UNL A   1      45.127  24.282  36.766  1.00  0.00     0.124 S 
ATOM     95  O   UNL A   1      44.588  24.809  38.016  1.00  0.00    -0.237 OA
ATOM     96  O   UNL A   1      44.192  23.533  35.933  1.00  0.00    -0.237 OA
ATOM     97  O   UNL A   1      46.467  23.705  36.864  1.00  0.00    -0.744 OA
ENDBRANCH  90  94
ENDBRANCH  64  87
ENDBRANCH  38  39
ENDBRANCH  30  33
ENDBRANCH  28  29
ENDBRANCH  27  28
ENDBRANCH   1  27
TORSDOF 20
ENDMDL
MODEL 2
REMARK VINA RESULT:     -11.4      2.162      8.392
REMARK SMILES COc1cccc([C@@H]2CN(C(=O)CCSC)C[C@H]2C(=O)NCCCNC(=O)c2ccc(-c3c4nc(c(-c5cc(S(=O)(=O)[O-])ccc5F)c5ccc([nH]5)c(-c5cc(S(=O)(=O)[O-])ccc5F)c5nc(c(-c6cc(S(=O)(=O)[O-])ccc6F)c6ccc3[nH]6)C=C5)C=C4)cc2)c1OC
REMARK SMILES IDX 22 1 21 2 19 3 20 4 18 6 8 7 9 8 10 9 17 10 7 11 3 12 4 13
REMARK SMILES IDX 91 14 5 15 6 16 2 17 1 18 92 19 93 20 11 21 12 22 13 23
REMARK SMILES IDX 14 24 15 25 16 26 23 27 24 28 25 29 26 30 27 32 28 33 29 34
REMARK SMILES IDX 90 35 30 36 89 37 31 38 32 39 33 40 83 41 34 42 88 43 82 44
REMARK SMILES IDX 84 45 35 46 87 47 81 48 80 49 36 51 68 52 48 53 67 54 49 55
REMARK SMILES IDX 52 56 66 57 85 58 50 59 51 60 65 62 86 63 53 64 37 65 38 66
REMARK SMILES IDX 46 67 39 68 45 69 47 70 44 71 40 72 41 73 42 74 43 75 69 76
REMARK SMILES IDX 70 77 78 78 71 79 77 80 79 81 76 82 72 83 73 84 74 85 75 86
REMARK SMILES IDX 54 87 55 88 63 89 56 90 62 91 64 92 61 93 57 94 58 95 59 96
REMARK SMILES IDX 60 97
REMARK H PARENT 21 5 25 31 84 50 52 61
REMARK Flexibility Score: inf
ROOT
ATOM      1  C   UNL A   1      31.960  28.182  27.432  1.00  0.00     0.117 C 
ENDROOT
BRANCH   1   2
ATOM      2  N   UNL A   1      33.133  27.530  26.872  1.00  0.00    -0.356 N 
ATOM      3  C   UNL A   1      33.263  26.428  26.092  1.00  0.00     0.225 C 
ATOM      4  O   UNL A   1      34.405  26.118  25.739  1.00  0.00    -0.275 OA
ATOM      5  H   UNL A   1      33.985  27.966  27.101  1.00  0.00     0.163 HD
BRANCH   3   6
ATOM      6  C   UNL A   1      32.079  25.586  25.659  1.00  0.00     0.107 C 
ATOM      7  C   UNL A   1      31.815  25.644  24.143  1.00  0.00     0.057 C 
ATOM      8  C   UNL A   1      31.624  24.195  23.694  1.00  0.00     0.128 C 
ATOM      9  N   UNL A   1      32.064  23.358  24.797  1.00  0.00    -0.341 N 
ATOM     10  C   UNL A   1      32.238  24.117  26.023  1.00  0.00     0.133 C 
BRANCH   7  11
ATOM     11  C   UNL A   1      30.672  26.540  23.690  1.00  0.00     0.004 A 
ATOM     12  C   UNL A   1      29.740  28.400  22.433  1.00  0.00     0.161 A 
ATOM     13  C   UNL A   1      28.476  28.135  22.972  1.00  0.00     0.050 A 
ATOM     14  C   UNL A   1      30.853  27.631  22.809  1.00  0.00     0.164 A 
ATOM     15  C   UNL A   1      28.302  27.082  23.865  1.00  0.00     0.004 A 
ATOM     16  C   UNL A   1      29.390  26.286  24.214  1.00  0.00     0.008 A 
BRANCH  12  17
ATOM     17  O   UNL A   1      29.864  29.500  21.626  1.00  0.00    -0.493 OA
ATOM     18  C   UNL A   1      28.656  30.264  21.610  1.00  0.00     0.278 C 
ENDBRANCH  12  17
BRANCH  14  19
ATOM     19  O   UNL A   1      32.157  27.883  22.466  1.00  0.00    -0.493 OA
ATOM     20  C   UNL A   1      32.851  28.906  23.160  1.00  0.00     0.278 C 
ENDBRANCH  14  19
ENDBRANCH   7  11
BRANCH   9  21
ATOM     21  C   UNL A   1      32.183  21.988  24.799  1.00  0.00     0.223 C 
ATOM     22  O   UNL A   1      31.371  21.270  25.387  1.00  0.00    -0.275 OA
BRANCH  21  23
ATOM     23  C   UNL A   1      33.319  21.365  24.015  1.00  0.00     0.111 C 
BRANCH  23  24
ATOM     24  C   UNL A   1      34.355  20.740  24.944  1.00  0.00     0.079 C 
BRANCH  24  25
ATOM     25  S   UNL A   1      35.709  21.869  25.429  1.00  0.00    -0.165 SA
ATOM     26  C   UNL A   1      35.626  23.066  24.072  1.00  0.00     0.085 C 
ENDBRANCH  24  25
ENDBRANCH  23  24
ENDBRANCH  21  23
ENDBRANCH   9  21
ENDBRANCH   3   6
ENDBRANCH   1   2
BRANCH   1  27
ATOM     27  C   UNL A   1      31.761  29.590  26.893  1.00  0.00     0.042 C 
BRANCH  27  28
ATOM     28  C   UNL A   1      33.066  30.273  26.517  1.00  0.00     0.118 C 
BRANCH  28  29
ATOM     29  N   UNL A   1      33.077  31.678  26.906  1.00  0.00    -0.352 N 
ATOM     30  C   UNL A   1      33.916  32.340  27.766  1.00  0.00     0.251 C 
ATOM     31  H   UNL A   1      32.379  32.234  26.489  1.00  0.00     0.163 HD
ATOM     32  O   UNL A   1      33.602  33.451  28.187  1.00  0.00    -0.269 OA
BRANCH  30  33
ATOM     33  C   UNL A   1      35.174  31.698  28.197  1.00  0.00     0.039 A 
ATOM     34  C   UNL A   1      36.350  32.449  28.235  1.00  0.00     0.014 A 
ATOM     35  C   UNL A   1      35.182  30.355  28.583  1.00  0.00     0.014 A 
ATOM     36  C   UNL A   1      37.515  31.874  28.745  1.00  0.00     0.010 A 
ATOM     37  C   UNL A   1      36.311  29.820  29.187  1.00  0.00     0.010 A 
ATOM     38  C   UNL A   1      37.491  30.573  29.273  1.00  0.00    -0.014 A 
BRANCH  38  39
ATOM     39  C   UNL A   1      38.680  29.976  29.931  1.00  0.00     0.031 A 
ATOM     40  C   UNL A   1      39.095  30.438  31.300  1.00  0.00     0.074 A 
ATOM     41  C   UNL A   1      39.433  29.083  29.257  1.00  0.00     0.049 A 
ATOM     42  N   UNL A   1      40.147  30.108  32.003  1.00  0.00    -0.248 NA
ATOM     43  C   UNL A   1      38.225  31.432  31.946  1.00  0.00     0.031 C 
ATOM     44  C   UNL A   1      39.148  28.585  27.910  1.00  0.00     0.029 A 
ATOM     45  N   UNL A   1      40.590  28.440  29.611  1.00  0.00    -0.354 N 
ATOM     46  C   UNL A   1      40.074  30.865  33.167  1.00  0.00     0.074 A 
ATOM     47  C   UNL A   1      38.916  31.723  33.036  1.00  0.00     0.031 C 
ATOM     48  C   UNL A   1      40.079  27.680  27.571  1.00  0.00     0.029 A 
ATOM     49  C   UNL A   1      41.060  27.580  28.646  1.00  0.00     0.049 A 
ATOM     50  H   UNL A   1      41.043  28.580  30.474  1.00  0.00     0.167 HD
ATOM     51  C   UNL A   1      40.885  30.829  34.254  1.00  0.00     0.034 A 
ATOM     52  C   UNL A   1      42.162  26.805  28.627  1.00  0.00     0.034 A 
ATOM     53  C   UNL A   1      42.036  29.964  34.360  1.00  0.00     0.049 A 
ATOM     54  C   UNL A   1      43.089  26.831  29.815  1.00  0.00     0.074 A 
ATOM     55  C   UNL A   1      42.890  29.793  35.435  1.00  0.00     0.029 A 
ATOM     56  N   UNL A   1      42.507  29.138  33.346  1.00  0.00    -0.354 N 
ATOM     57  N   UNL A   1      42.977  27.506  30.936  1.00  0.00    -0.248 NA
ATOM     58  C   UNL A   1      44.290  25.992  29.732  1.00  0.00     0.031 C 
ATOM     59  C   UNL A   1      43.925  28.938  35.039  1.00  0.00     0.029 A 
ATOM     60  C   UNL A   1      43.670  28.499  33.750  1.00  0.00     0.049 A 
ATOM     61  H   UNL A   1      42.078  29.024  32.467  1.00  0.00     0.167 HD
ATOM     62  C   UNL A   1      44.079  27.146  31.706  1.00  0.00     0.074 A 
ATOM     63  C   UNL A   1      44.835  26.189  30.925  1.00  0.00     0.031 C 
ATOM     64  C   UNL A   1      44.429  27.564  32.951  1.00  0.00     0.034 A 
BRANCH  51  65
ATOM     65  C   UNL A   1      40.570  31.783  35.384  1.00  0.00     0.023 A 
ATOM     66  C   UNL A   1      39.529  31.533  36.295  1.00  0.00     0.031 A 
ATOM     67  C   UNL A   1      41.279  32.990  35.517  1.00  0.00     0.131 A 
ATOM     68  C   UNL A   1      39.153  32.519  37.220  1.00  0.00     0.055 A 
ATOM     69  C   UNL A   1      40.966  33.924  36.508  1.00  0.00     0.041 A 
ATOM     70  F   UNL A   1      42.270  33.300  34.667  1.00  0.00    -0.206 F 
ATOM     71  C   UNL A   1      39.883  33.702  37.352  1.00  0.00     0.022 A 
BRANCH  68  72
ATOM     72  S   UNL A   1      37.579  32.318  38.101  1.00  0.00     0.124 S 
ATOM     73  O   UNL A   1      37.909  32.857  39.420  1.00  0.00    -0.237 OA
ATOM     74  O   UNL A   1      36.663  33.117  37.295  1.00  0.00    -0.237 OA
ATOM     75  O   UNL A   1      37.348  30.876  38.066  1.00  0.00    -0.744 OA
ENDBRANCH  68  72
ENDBRANCH  51  65
BRANCH  52  76
ATOM     76  C   UNL A   1      42.449  25.934  27.452  1.00  0.00     0.023 A 
ATOM     77  C   UNL A   1      42.004  24.603  27.425  1.00  0.00     0.031 A 
ATOM     78  C   UNL A   1      43.182  26.408  26.350  1.00  0.00     0.131 A 
ATOM     79  C   UNL A   1      42.326  23.780  26.336  1.00  0.00     0.055 A 
ATOM     80  C   UNL A   1      43.455  25.600  25.244  1.00  0.00     0.041 A 
ATOM     81  F   UNL A   1      43.629  27.673  26.323  1.00  0.00    -0.206 F 
ATOM     82  C   UNL A   1      43.035  24.273  25.238  1.00  0.00     0.022 A 
BRANCH  79  83
ATOM     83  S   UNL A   1      41.862  22.029  26.408  1.00  0.00     0.124 S 
ATOM     84  O   UNL A   1      42.671  21.464  25.333  1.00  0.00    -0.237 OA
ATOM     85  O   UNL A   1      42.255  21.666  27.767  1.00  0.00    -0.237 OA
ATOM     86  O   UNL A   1      40.423  22.048  26.164  1.00  0.00    -0.744 OA
ENDBRANCH  79  83
ENDBRANCH  52  76
BRANCH  64  87
ATOM     87  C   UNL A   1      45.672  26.956  33.555  1.00  0.00     0.023 A 
ATOM     88  C   UNL A   1      45.640  25.724  34.232  1.00  0.00     0.031 A 
ATOM     89  C   UNL A   1      46.907  27.619  33.449  1.00  0.00     0.131 A 
ATOM     90  C   UNL A   1      46.809  25.220  34.821  1.00  0.00     0.055 A 
ATOM     91  C   UNL A   1      48.081  27.080  33.978  1.00  0.00     0.041 A 
ATOM     92  F   UNL A   1      46.996  28.802  32.819  1.00  0.00    -0.206 F 
ATOM     93  C   UNL A   1      48.033  25.879  34.680  1.00  0.00     0.022 A 
BRANCH  90  94
ATOM     94  S   UNL A   1      46.694  23.733  35.853  1.00  0.00     0.124 S 
ATOM     95  O   UNL A   1      46.881  22.668  34.873  1.00  0.00    -0.237 OA
ATOM     96  O   UNL A   1      47.786  23.925  36.802  1.00  0.00    -0.237 OA
ATOM     97  O   UNL A   1      45.352  23.818  36.429  1.00  0.00    -0.744 OA
ENDBRANCH  90  94
ENDBRANCH  64  87
ENDBRANCH  38  39
ENDBRANCH  30  33
ENDBRANCH  28  29
ENDBRANCH  27  28
ENDBRANCH   1  27
TORSDOF 20
ENDMDL
MODEL 3
REMARK VINA RESULT:     -11.3      2.085      3.986
REMARK SMILES COc1cccc([C@@H]2CN(C(=O)CCSC)C[C@H]2C(=O)NCCCNC(=O)c2ccc(-c3c4nc(c(-c5cc(S(=O)(=O)[O-])ccc5F)c5ccc([nH]5)c(-c5cc(S(=O)(=O)[O-])ccc5F)c5nc(c(-c6cc(S(=O)(=O)[O-])ccc6F)c6ccc3[nH]6)C=C5)C=C4)cc2)c1OC
REMARK SMILES IDX 22 1 21 2 19 3 20 4 18 6 8 7 9 8 10 9 17 10 7 11 3 12 4 13
REMARK SMILES IDX 91 14 5 15 6 16 2 17 1 18 92 19 93 20 11 21 12 22 13 23
REMARK SMILES IDX 14 24 15 25 16 26 23 27 24 28 25 29 26 30 27 32 28 33 29 34
REMARK SMILES IDX 90 35 30 36 89 37 31 38 32 39 33 40 83 41 34 42 88 43 82 44
REMARK SMILES IDX 84 45 35 46 87 47 81 48 80 49 36 51 68 52 48 53 67 54 49 55
REMARK SMILES IDX 52 56 66 57 85 58 50 59 51 60 65 62 86 63 53 64 37 65 38 66
REMARK SMILES IDX 46 67 39 68 45 69 47 70 44 71 40 72 41 73 42 74 43 75 69 76
REMARK SMILES IDX 70 77 78 78 71 79 77 80 79 81 76 82 72 83 73 84 74 85 75 86
REMARK SMILES IDX 54 87 55 88 63 89 56 90 62 91 64 92 61 93 57 94 58 95 59 96
REMARK SMILES IDX 60 97
REMARK H PARENT 21 5 25 31 84 50 52 61
REMARK Flexibility Score: inf
ROOT
ATOM      1  C   UNL A   1      31.688  29.804  26.945  1.00  0.00     0.117 C 
ENDROOT
BRANCH   1   2
ATOM      2  N   UNL A   1      32.841  28.958  26.681  1.00  0.00    -0.356 N 
ATOM      3  C   UNL A   1      32.937  27.663  26.288  1.00  0.00     0.225 C 
ATOM      4  O   UNL A   1      34.071  27.208  26.114  1.00  0.00    -0.275 OA
ATOM      5  H   UNL A   1      33.708  29.406  26.812  1.00  0.00     0.163 HD
BRANCH   3   6
ATOM      6  C   UNL A   1      31.722  26.782  26.071  1.00  0.00     0.107 C 
ATOM      7  C   UNL A   1      31.423  26.519  24.583  1.00  0.00     0.057 C 
ATOM      8  C   UNL A   1      31.186  25.014  24.463  1.00  0.00     0.128 C 
ATOM      9  N   UNL A   1      31.633  24.422  25.712  1.00  0.00    -0.341 N 
ATOM     10  C   UNL A   1      31.855  25.423  26.741  1.00  0.00     0.133 C 
BRANCH   7  11
ATOM     11  C   UNL A   1      30.290  27.328  23.968  1.00  0.00     0.004 A 
ATOM     12  C   UNL A   1      29.377  29.294  22.868  1.00  0.00     0.161 A 
ATOM     13  C   UNL A   1      28.099  28.723  22.903  1.00  0.00     0.050 A 
ATOM     14  C   UNL A   1      30.475  28.621  23.427  1.00  0.00     0.164 A 
ATOM     15  C   UNL A   1      27.909  27.465  23.466  1.00  0.00     0.004 A 
ATOM     16  C   UNL A   1      28.998  26.770  23.986  1.00  0.00     0.008 A 
BRANCH  12  17
ATOM     17  O   UNL A   1      29.486  30.568  22.377  1.00  0.00    -0.493 OA
ATOM     18  C   UNL A   1      28.239  31.022  21.846  1.00  0.00     0.278 C 
ENDBRANCH  12  17
BRANCH  14  19
ATOM     19  O   UNL A   1      31.738  29.134  23.582  1.00  0.00    -0.493 OA
ATOM     20  C   UNL A   1      32.711  28.843  22.593  1.00  0.00     0.278 C 
ENDBRANCH  14  19
ENDBRANCH   7  11
BRANCH   9  21
ATOM     21  C   UNL A   1      31.719  23.081  26.008  1.00  0.00     0.223 C 
ATOM     22  O   UNL A   1      30.776  22.314  25.806  1.00  0.00    -0.275 OA
BRANCH  21  23
ATOM     23  C   UNL A   1      33.028  22.549  26.551  1.00  0.00     0.111 C 
BRANCH  23  24
ATOM     24  C   UNL A   1      33.752  21.696  25.514  1.00  0.00     0.079 C 
BRANCH  24  25
ATOM     25  S   UNL A   1      34.172  22.584  23.972  1.00  0.00    -0.165 SA
ATOM     26  C   UNL A   1      35.402  23.754  24.603  1.00  0.00     0.085 C 
ENDBRANCH  24  25
ENDBRANCH  23  24
ENDBRANCH  21  23
ENDBRANCH   9  21
ENDBRANCH   3   6
ENDBRANCH   1   2
BRANCH   1  27
ATOM     27  C   UNL A   1      31.910  31.245  26.514  1.00  0.00     0.042 C 
BRANCH  27  28
ATOM     28  C   UNL A   1      33.005  31.942  27.306  1.00  0.00     0.118 C 
BRANCH  28  29
ATOM     29  N   UNL A   1      32.731  33.362  27.479  1.00  0.00    -0.352 N 
ATOM     30  C   UNL A   1      33.192  34.230  28.438  1.00  0.00     0.251 C 
ATOM     31  H   UNL A   1      32.127  33.758  26.810  1.00  0.00     0.163 HD
ATOM     32  O   UNL A   1      32.636  35.316  28.593  1.00  0.00    -0.269 OA
BRANCH  30  33
ATOM     33  C   UNL A   1      34.333  33.839  29.289  1.00  0.00     0.039 A 
ATOM     34  C   UNL A   1      34.113  33.024  30.400  1.00  0.00     0.014 A 
ATOM     35  C   UNL A   1      35.625  34.266  28.972  1.00  0.00     0.014 A 
ATOM     36  C   UNL A   1      35.202  32.565  31.142  1.00  0.00     0.010 A 
ATOM     37  C   UNL A   1      36.712  33.723  29.644  1.00  0.00     0.010 A 
ATOM     38  C   UNL A   1      36.513  32.868  30.737  1.00  0.00    -0.014 A 
BRANCH  38  39
ATOM     39  C   UNL A   1      37.694  32.299  31.431  1.00  0.00     0.031 A 
ATOM     40  C   UNL A   1      38.466  31.171  30.803  1.00  0.00     0.074 A 
ATOM     41  C   UNL A   1      38.017  32.740  32.663  1.00  0.00     0.049 A 
ATOM     42  N   UNL A   1      39.466  30.482  31.286  1.00  0.00    -0.248 NA
ATOM     43  C   UNL A   1      38.025  30.742  29.467  1.00  0.00     0.031 C 
ATOM     44  C   UNL A   1      37.321  33.806  33.388  1.00  0.00     0.029 A 
ATOM     45  N   UNL A   1      39.007  32.346  33.525  1.00  0.00    -0.354 N 
ATOM     46  C   UNL A   1      39.765  29.526  30.320  1.00  0.00     0.074 A 
ATOM     47  C   UNL A   1      38.789  29.681  29.263  1.00  0.00     0.031 C 
ATOM     48  C   UNL A   1      37.935  34.011  34.562  1.00  0.00     0.029 A 
ATOM     49  C   UNL A   1      39.026  33.053  34.705  1.00  0.00     0.049 A 
ATOM     50  H   UNL A   1      39.646  31.625  33.319  1.00  0.00     0.167 HD
ATOM     51  C   UNL A   1      40.776  28.621  30.308  1.00  0.00     0.034 A 
ATOM     52  C   UNL A   1      39.826  32.936  35.782  1.00  0.00     0.034 A 
ATOM     53  C   UNL A   1      41.736  28.485  31.376  1.00  0.00     0.049 A 
ATOM     54  C   UNL A   1      40.898  31.876  35.779  1.00  0.00     0.074 A 
ATOM     55  C   UNL A   1      42.838  27.651  31.445  1.00  0.00     0.029 A 
ATOM     56  N   UNL A   1      41.697  29.188  32.575  1.00  0.00    -0.354 N 
ATOM     57  N   UNL A   1      41.210  31.019  34.834  1.00  0.00    -0.248 NA
ATOM     58  C   UNL A   1      41.723  31.770  36.987  1.00  0.00     0.031 C 
ATOM     59  C   UNL A   1      43.408  27.784  32.716  1.00  0.00     0.029 A 
ATOM     60  C   UNL A   1      42.722  28.767  33.410  1.00  0.00     0.049 A 
ATOM     61  H   UNL A   1      41.037  29.884  32.800  1.00  0.00     0.167 HD
ATOM     62  C   UNL A   1      42.291  30.292  35.324  1.00  0.00     0.074 A 
ATOM     63  C   UNL A   1      42.580  30.819  36.642  1.00  0.00     0.031 C 
ATOM     64  C   UNL A   1      42.986  29.285  34.733  1.00  0.00     0.034 A 
BRANCH  51  65
ATOM     65  C   UNL A   1      40.854  27.688  29.119  1.00  0.00     0.023 A 
ATOM     66  C   UNL A   1      41.810  27.863  28.104  1.00  0.00     0.031 A 
ATOM     67  C   UNL A   1      39.920  26.648  28.967  1.00  0.00     0.131 A 
ATOM     68  C   UNL A   1      41.742  27.089  26.936  1.00  0.00     0.055 A 
ATOM     69  C   UNL A   1      39.924  25.812  27.847  1.00  0.00     0.041 A 
ATOM     70  F   UNL A   1      38.968  26.440  29.890  1.00  0.00    -0.206 F 
ATOM     71  C   UNL A   1      40.823  26.046  26.812  1.00  0.00     0.022 A 
BRANCH  68  72
ATOM     72  S   UNL A   1      42.735  27.601  25.505  1.00  0.00     0.124 S 
ATOM     73  O   UNL A   1      41.976  28.750  25.015  1.00  0.00    -0.237 OA
ATOM     74  O   UNL A   1      44.028  27.900  26.110  1.00  0.00    -0.237 OA
ATOM     75  O   UNL A   1      42.708  26.429  24.632  1.00  0.00    -0.744 OA
ENDBRANCH  68  72
ENDBRANCH  51  65
BRANCH  52  76
ATOM     76  C   UNL A   1      39.653  33.846  36.949  1.00  0.00     0.023 A 
ATOM     77  C   UNL A   1      39.059  33.383  38.134  1.00  0.00     0.031 A 
ATOM     78  C   UNL A   1      40.059  35.191  36.897  1.00  0.00     0.131 A 
ATOM     79  C   UNL A   1      38.855  34.264  39.205  1.00  0.00     0.055 A 
ATOM     80  C   UNL A   1      39.902  36.051  37.986  1.00  0.00     0.041 A 
ATOM     81  F   UNL A   1      40.636  35.685  35.790  1.00  0.00    -0.206 F 
ATOM     82  C   UNL A   1      39.286  35.591  39.146  1.00  0.00     0.022 A 
BRANCH  79  83
ATOM     83  S   UNL A   1      37.950  33.665  40.658  1.00  0.00     0.124 S 
ATOM     84  O   UNL A   1      37.707  34.906  41.386  1.00  0.00    -0.237 OA
ATOM     85  O   UNL A   1      36.781  33.037  40.050  1.00  0.00    -0.237 OA
ATOM     86  O   UNL A   1      38.892  32.744  41.289  1.00  0.00    -0.744 OA
ENDBRANCH  79  83
ENDBRANCH  52  76
BRANCH  64  87
ATOM     87  C   UNL A   1      44.152  28.713  35.503  1.00  0.00     0.023 A 
ATOM     88  C   UNL A   1      43.991  27.653  36.412  1.00  0.00     0.031 A 
ATOM     89  C   UNL A   1      45.445  29.236  35.321  1.00  0.00     0.131 A 
ATOM     90  C   UNL A   1      45.093  27.185  37.143  1.00  0.00     0.055 A 
ATOM     91  C   UNL A   1      46.550  28.721  36.001  1.00  0.00     0.041 A 
ATOM     92  F   UNL A   1      45.657  30.253  34.470  1.00  0.00    -0.206 F 
ATOM     93  C   UNL A   1      46.375  27.698  36.927  1.00  0.00     0.022 A 
BRANCH  90  94
ATOM     94  S   UNL A   1      44.817  25.956  38.447  1.00  0.00     0.124 S 
ATOM     95  O   UNL A   1      43.902  26.661  39.339  1.00  0.00    -0.237 OA
ATOM     96  O   UNL A   1      44.248  24.834  37.706  1.00  0.00    -0.237 OA
ATOM     97  O   UNL A   1      46.155  25.723  38.989  1.00  0.00    -0.744 OA
ENDBRANCH  90  94
ENDBRANCH  64  87
ENDBRANCH  38  39
ENDBRANCH  30  33
ENDBRANCH  28  29
ENDBRANCH  27  28
ENDBRANCH   1  27
TORSDOF 20
ENDMDL
