MODEL 1
REMARK VINA RESULT:     -12.9      0.000      0.000
REMARK SMILES O=C(NCCCNC(=O)c1ccnc(-n2cnnn2)c1)c1ccc(-c2c3nc(c(-c4cc(S(=O)(=O)[O-])ccc4F)c4ccc([nH]4)c(-c4cc(S(=O)(=O)[O-])ccc4F)c4nc(c(-c5cc(S(=O)(=O)[O-])ccc5F)c5ccc2[nH]5)C=C4)C=C3)cc1
REMARK SMILES IDX 4 1 3 2 1 3 2 4 21 6 22 7 83 8 23 9 82 10 24 11 25 12 26 13
REMARK SMILES IDX 76 14 27 15 81 16 75 17 77 18 28 19 80 20 74 21 73 22 29 24
REMARK SMILES IDX 61 25 41 26 60 27 42 28 45 29 59 30 78 31 43 32 44 33 58 35
REMARK SMILES IDX 79 36 46 37 30 38 31 39 39 40 32 41 38 42 40 43 37 44 33 45
REMARK SMILES IDX 34 46 35 47 36 48 62 49 63 50 71 51 64 52 70 53 72 54 69 55
REMARK SMILES IDX 65 56 66 57 67 58 68 59 47 60 48 61 56 62 49 63 55 64 57 65
REMARK SMILES IDX 54 66 50 67 51 68 52 69 53 70 5 71 6 72 7 73 8 74 9 76 10 77
REMARK SMILES IDX 11 78 20 79 12 80 14 81 13 82 15 83 16 84 19 85 17 86 18 87
REMARK H PARENT 3 5 77 23 45 34 7 75
REMARK Flexibility Score: inf
ROOT
ATOM      1  C   UNL A   1      33.135  30.032  27.205  1.00  0.00     0.118 C 
ENDROOT
BRANCH   1   2
ATOM      2  N   UNL A   1      33.616  31.354  27.551  1.00  0.00    -0.352 N 
ATOM      3  O   UNL A   1      34.883  33.122  27.902  1.00  0.00    -0.269 OA
ATOM      4  C   UNL A   1      34.840  31.889  27.851  1.00  0.00     0.251 C 
ATOM      5  H   UNL A   1      32.895  32.024  27.574  1.00  0.00     0.163 HD
BRANCH   4   6
ATOM      6  C   UNL A   1      36.065  31.113  28.188  1.00  0.00     0.039 A 
ATOM      7  C   UNL A   1      36.268  29.750  27.965  1.00  0.00     0.014 A 
ATOM      8  C   UNL A   1      37.102  31.853  28.789  1.00  0.00     0.014 A 
ATOM      9  C   UNL A   1      37.446  29.132  28.400  1.00  0.00     0.010 A 
ATOM     10  C   UNL A   1      38.277  31.243  29.220  1.00  0.00     0.010 A 
ATOM     11  C   UNL A   1      38.443  29.873  29.050  1.00  0.00    -0.014 A 
BRANCH  11  12
ATOM     12  C   UNL A   1      39.743  29.244  29.321  1.00  0.00     0.031 A 
ATOM     13  C   UNL A   1      40.080  29.176  30.776  1.00  0.00     0.074 A 
ATOM     14  C   UNL A   1      40.505  28.608  28.401  1.00  0.00     0.049 A 
ATOM     15  N   UNL A   1      41.087  29.705  31.389  1.00  0.00    -0.248 NA
ATOM     16  C   UNL A   1      39.102  28.550  31.683  1.00  0.00     0.031 C 
ATOM     17  C   UNL A   1      40.184  28.354  26.996  1.00  0.00     0.029 A 
ATOM     18  N   UNL A   1      41.702  27.960  28.554  1.00  0.00    -0.354 N 
ATOM     19  C   UNL A   1      40.992  29.299  32.719  1.00  0.00     0.074 A 
ATOM     20  C   UNL A   1      39.675  28.745  32.872  1.00  0.00     0.031 C 
ATOM     21  C   UNL A   1      41.042  27.433  26.493  1.00  0.00     0.029 A 
ATOM     22  C   UNL A   1      42.050  27.118  27.494  1.00  0.00     0.049 A 
ATOM     23  H   UNL A   1      42.272  28.078  29.348  1.00  0.00     0.167 HD
ATOM     24  C   UNL A   1      42.085  29.257  33.532  1.00  0.00     0.034 A 
ATOM     25  C   UNL A   1      43.059  26.198  27.447  1.00  0.00     0.034 A 
ATOM     26  C   UNL A   1      43.151  30.079  33.010  1.00  0.00     0.049 A 
ATOM     27  C   UNL A   1      44.044  26.584  28.484  1.00  0.00     0.074 A 
ATOM     28  C   UNL A   1      43.268  31.422  32.697  1.00  0.00     0.029 A 
ATOM     29  N   UNL A   1      44.201  29.463  32.370  1.00  0.00    -0.354 N 
ATOM     30  N   UNL A   1      44.754  27.676  28.425  1.00  0.00    -0.248 NA
ATOM     31  C   UNL A   1      43.890  26.015  29.813  1.00  0.00     0.031 C 
ATOM     32  C   UNL A   1      44.029  31.447  31.492  1.00  0.00     0.029 A 
ATOM     33  C   UNL A   1      44.410  30.138  31.193  1.00  0.00     0.049 A 
ATOM     34  H   UNL A   1      44.707  28.683  32.695  1.00  0.00     0.167 HD
ATOM     35  C   UNL A   1      44.750  28.171  29.719  1.00  0.00     0.074 A 
ATOM     36  C   UNL A   1      44.279  27.062  30.547  1.00  0.00     0.031 C 
ATOM     37  C   UNL A   1      44.860  29.510  29.966  1.00  0.00     0.034 A 
BRANCH  24  38
ATOM     38  C   UNL A   1      42.326  28.212  34.603  1.00  0.00     0.023 A 
ATOM     39  C   UNL A   1      43.069  27.069  34.243  1.00  0.00     0.031 A 
ATOM     40  C   UNL A   1      41.638  28.130  35.835  1.00  0.00     0.131 A 
ATOM     41  C   UNL A   1      43.020  25.898  35.021  1.00  0.00     0.055 A 
ATOM     42  C   UNL A   1      41.648  26.986  36.638  1.00  0.00     0.041 A 
ATOM     43  F   UNL A   1      40.843  29.106  36.288  1.00  0.00    -0.206 F 
ATOM     44  C   UNL A   1      42.314  25.848  36.218  1.00  0.00     0.022 A 
BRANCH  41  45
ATOM     45  S   UNL A   1      43.746  24.381  34.344  1.00  0.00     0.124 S 
ATOM     46  O   UNL A   1      42.638  23.442  34.480  1.00  0.00    -0.237 OA
ATOM     47  O   UNL A   1      44.083  24.791  32.986  1.00  0.00    -0.237 OA
ATOM     48  O   UNL A   1      44.887  24.132  35.221  1.00  0.00    -0.744 OA
ENDBRANCH  41  45
ENDBRANCH  24  38
BRANCH  25  49
ATOM     49  C   UNL A   1      43.058  24.846  26.801  1.00  0.00     0.023 A 
ATOM     50  C   UNL A   1      44.025  24.421  25.855  1.00  0.00     0.031 A 
ATOM     51  C   UNL A   1      42.218  23.839  27.327  1.00  0.00     0.131 A 
ATOM     52  C   UNL A   1      44.113  23.054  25.480  1.00  0.00     0.055 A 
ATOM     53  C   UNL A   1      42.312  22.495  26.955  1.00  0.00     0.041 A 
ATOM     54  F   UNL A   1      41.328  24.113  28.294  1.00  0.00    -0.206 F 
ATOM     55  C   UNL A   1      43.266  22.094  26.037  1.00  0.00     0.022 A 
BRANCH  52  56
ATOM     56  S   UNL A   1      45.395  22.471  24.312  1.00  0.00     0.124 S 
ATOM     57  O   UNL A   1      44.601  21.826  23.272  1.00  0.00    -0.237 OA
ATOM     58  O   UNL A   1      46.071  23.708  23.941  1.00  0.00    -0.237 OA
ATOM     59  O   UNL A   1      46.204  21.555  25.120  1.00  0.00    -0.744 OA
ENDBRANCH  52  56
ENDBRANCH  25  49
BRANCH  37  60
ATOM     60  C   UNL A   1      45.282  30.429  28.836  1.00  0.00     0.023 A 
ATOM     61  C   UNL A   1      46.616  30.787  28.527  1.00  0.00     0.031 A 
ATOM     62  C   UNL A   1      44.274  30.863  27.958  1.00  0.00     0.131 A 
ATOM     63  C   UNL A   1      46.891  31.558  27.379  1.00  0.00     0.055 A 
ATOM     64  C   UNL A   1      44.552  31.605  26.811  1.00  0.00     0.041 A 
ATOM     65  F   UNL A   1      42.989  30.538  28.182  1.00  0.00    -0.206 F 
ATOM     66  C   UNL A   1      45.862  31.961  26.521  1.00  0.00     0.022 A 
BRANCH  63  67
ATOM     67  S   UNL A   1      48.595  32.070  26.981  1.00  0.00     0.124 S 
ATOM     68  O   UNL A   1      48.415  33.111  25.977  1.00  0.00    -0.237 OA
ATOM     69  O   UNL A   1      49.105  32.512  28.277  1.00  0.00    -0.237 OA
ATOM     70  O   UNL A   1      49.211  30.840  26.478  1.00  0.00    -0.744 OA
ENDBRANCH  63  67
ENDBRANCH  37  60
ENDBRANCH  11  12
ENDBRANCH   4   6
ENDBRANCH   1   2
BRANCH   1  71
ATOM     71  C   UNL A   1      32.189  29.975  26.007  1.00  0.00     0.042 C 
BRANCH  71  72
ATOM     72  C   UNL A   1      31.509  28.622  25.788  1.00  0.00     0.118 C 
BRANCH  72  73
ATOM     73  N   UNL A   1      31.928  27.977  24.551  1.00  0.00    -0.352 N 
ATOM     74  C   UNL A   1      31.225  27.697  23.409  1.00  0.00     0.251 C 
ATOM     75  H   UNL A   1      32.871  27.694  24.533  1.00  0.00     0.163 HD
ATOM     76  O   UNL A   1      31.715  26.972  22.550  1.00  0.00    -0.269 OA
BRANCH  74  77
ATOM     77  C   UNL A   1      29.876  28.251  23.179  1.00  0.00     0.045 A 
ATOM     78  C   UNL A   1      28.731  27.505  23.439  1.00  0.00     0.034 A 
ATOM     79  C   UNL A   1      29.774  29.602  22.835  1.00  0.00     0.063 A 
ATOM     80  C   UNL A   1      27.512  28.146  23.335  1.00  0.00     0.114 A 
ATOM     81  C   UNL A   1      28.507  30.170  22.772  1.00  0.00     0.157 A 
ATOM     82  N   UNL A   1      27.381  29.457  23.038  1.00  0.00    -0.237 NA
BRANCH  81  83
ATOM     83  N   UNL A   1      28.372  31.544  22.449  1.00  0.00    -0.182 N 
ATOM     84  C   UNL A   1      28.677  32.644  23.211  1.00  0.00     0.254 A 
ATOM     85  N   UNL A   1      27.863  31.980  21.274  1.00  0.00    -0.039 NA
ATOM     86  N   UNL A   1      28.304  33.730  22.576  1.00  0.00    -0.117 NA
ATOM     87  N   UNL A   1      27.792  33.301  21.379  1.00  0.00    -0.024 NA
ENDBRANCH  81  83
ENDBRANCH  74  77
ENDBRANCH  72  73
ENDBRANCH  71  72
ENDBRANCH   1  71
TORSDOF 14
ENDMDL
MODEL 2
REMARK VINA RESULT:     -12.8      1.408      1.736
REMARK SMILES O=C(NCCCNC(=O)c1ccnc(-n2cnnn2)c1)c1ccc(-c2c3nc(c(-c4cc(S(=O)(=O)[O-])ccc4F)c4ccc([nH]4)c(-c4cc(S(=O)(=O)[O-])ccc4F)c4nc(c(-c5cc(S(=O)(=O)[O-])ccc5F)c5ccc2[nH]5)C=C4)C=C3)cc1
REMARK SMILES IDX 4 1 3 2 1 3 2 4 21 6 22 7 83 8 23 9 82 10 24 11 25 12 26 13
REMARK SMILES IDX 76 14 27 15 81 16 75 17 77 18 28 19 80 20 74 21 73 22 29 24
REMARK SMILES IDX 61 25 41 26 60 27 42 28 45 29 59 30 78 31 43 32 44 33 58 35
REMARK SMILES IDX 79 36 46 37 30 38 31 39 39 40 32 41 38 42 40 43 37 44 33 45
REMARK SMILES IDX 34 46 35 47 36 48 62 49 63 50 71 51 64 52 70 53 72 54 69 55
REMARK SMILES IDX 65 56 66 57 67 58 68 59 47 60 48 61 56 62 49 63 55 64 57 65
REMARK SMILES IDX 54 66 50 67 51 68 52 69 53 70 5 71 6 72 7 73 8 74 9 76 10 77
REMARK SMILES IDX 11 78 20 79 12 80 14 81 13 82 15 83 16 84 19 85 17 86 18 87
REMARK H PARENT 3 5 77 23 45 34 7 75
REMARK Flexibility Score: inf
ROOT
ATOM      1  C   UNL A   1      33.848  30.379  27.051  1.00  0.00     0.118 C 
ENDROOT
BRANCH   1   2
ATOM      2  N   UNL A   1      34.269  31.548  27.795  1.00  0.00    -0.352 N 
ATOM      3  O   UNL A   1      35.466  33.116  28.778  1.00  0.00    -0.269 OA
ATOM      4  C   UNL A   1      35.430  31.939  28.406  1.00  0.00     0.251 C 
ATOM      5  H   UNL A   1      33.554  32.220  27.879  1.00  0.00     0.163 HD
BRANCH   4   6
ATOM      6  C   UNL A   1      36.586  31.053  28.715  1.00  0.00     0.039 A 
ATOM      7  C   UNL A   1      36.603  29.659  28.639  1.00  0.00     0.014 A 
ATOM      8  C   UNL A   1      37.762  31.714  29.123  1.00  0.00     0.014 A 
ATOM      9  C   UNL A   1      37.742  28.945  29.030  1.00  0.00     0.010 A 
ATOM     10  C   UNL A   1      38.897  31.008  29.511  1.00  0.00     0.010 A 
ATOM     11  C   UNL A   1      38.883  29.618  29.491  1.00  0.00    -0.014 A 
BRANCH  11  12
ATOM     12  C   UNL A   1      40.123  28.860  29.710  1.00  0.00     0.031 A 
ATOM     13  C   UNL A   1      40.468  28.689  31.154  1.00  0.00     0.074 A 
ATOM     14  C   UNL A   1      40.812  28.204  28.748  1.00  0.00     0.049 A 
ATOM     15  N   UNL A   1      41.526  29.093  31.777  1.00  0.00    -0.248 NA
ATOM     16  C   UNL A   1      39.447  28.110  32.045  1.00  0.00     0.031 C 
ATOM     17  C   UNL A   1      40.454  28.051  27.338  1.00  0.00     0.029 A 
ATOM     18  N   UNL A   1      41.947  27.443  28.851  1.00  0.00    -0.354 N 
ATOM     19  C   UNL A   1      41.409  28.631  33.087  1.00  0.00     0.074 A 
ATOM     20  C   UNL A   1      40.048  28.193  33.233  1.00  0.00     0.031 C 
ATOM     21  C   UNL A   1      41.219  27.082  26.778  1.00  0.00     0.029 A 
ATOM     22  C   UNL A   1      42.204  26.627  27.746  1.00  0.00     0.049 A 
ATOM     23  H   UNL A   1      42.534  27.469  29.641  1.00  0.00     0.167 HD
ATOM     24  C   UNL A   1      42.502  28.449  33.880  1.00  0.00     0.034 A 
ATOM     25  C   UNL A   1      43.124  25.622  27.638  1.00  0.00     0.034 A 
ATOM     26  C   UNL A   1      43.632  29.196  33.382  1.00  0.00     0.049 A 
ATOM     27  C   UNL A   1      44.152  25.865  28.678  1.00  0.00     0.074 A 
ATOM     28  C   UNL A   1      43.869  30.536  33.134  1.00  0.00     0.029 A 
ATOM     29  N   UNL A   1      44.615  28.519  32.697  1.00  0.00    -0.354 N 
ATOM     30  N   UNL A   1      44.958  26.889  28.662  1.00  0.00    -0.248 NA
ATOM     31  C   UNL A   1      43.961  25.245  29.980  1.00  0.00     0.031 C 
ATOM     32  C   UNL A   1      44.616  30.552  31.919  1.00  0.00     0.029 A 
ATOM     33  C   UNL A   1      44.872  29.230  31.551  1.00  0.00     0.049 A 
ATOM     34  H   UNL A   1      45.051  27.681  32.975  1.00  0.00     0.167 HD
ATOM     35  C   UNL A   1      45.014  27.317  29.978  1.00  0.00     0.074 A 
ATOM     36  C   UNL A   1      44.452  26.215  30.758  1.00  0.00     0.031 C 
ATOM     37  C   UNL A   1      45.249  28.626  30.288  1.00  0.00     0.034 A 
BRANCH  24  38
ATOM     38  C   UNL A   1      42.658  27.334  34.894  1.00  0.00     0.023 A 
ATOM     39  C   UNL A   1      43.424  26.212  34.518  1.00  0.00     0.031 A 
ATOM     40  C   UNL A   1      41.876  27.175  36.062  1.00  0.00     0.131 A 
ATOM     41  C   UNL A   1      43.313  24.993  35.211  1.00  0.00     0.055 A 
ATOM     42  C   UNL A   1      41.822  25.981  36.786  1.00  0.00     0.041 A 
ATOM     43  F   UNL A   1      41.049  28.125  36.515  1.00  0.00    -0.206 F 
ATOM     44  C   UNL A   1      42.516  24.869  36.344  1.00  0.00     0.022 A 
BRANCH  41  45
ATOM     45  S   UNL A   1      44.087  23.520  34.494  1.00  0.00     0.124 S 
ATOM     46  O   UNL A   1      45.193  24.106  33.743  1.00  0.00    -0.237 OA
ATOM     47  O   UNL A   1      44.448  22.760  35.685  1.00  0.00    -0.237 OA
ATOM     48  O   UNL A   1      43.021  22.937  33.683  1.00  0.00    -0.744 OA
ENDBRANCH  41  45
ENDBRANCH  24  38
BRANCH  25  49
ATOM     49  C   UNL A   1      42.992  24.309  26.928  1.00  0.00     0.023 A 
ATOM     50  C   UNL A   1      43.944  23.813  26.002  1.00  0.00     0.031 A 
ATOM     51  C   UNL A   1      42.015  23.390  27.370  1.00  0.00     0.131 A 
ATOM     52  C   UNL A   1      43.886  22.463  25.564  1.00  0.00     0.055 A 
ATOM     53  C   UNL A   1      41.966  22.062  26.936  1.00  0.00     0.041 A 
ATOM     54  F   UNL A   1      41.121  23.726  28.312  1.00  0.00    -0.206 F 
ATOM     55  C   UNL A   1      42.906  21.589  26.038  1.00  0.00     0.022 A 
BRANCH  52  56
ATOM     56  S   UNL A   1      45.141  21.781  24.421  1.00  0.00     0.124 S 
ATOM     57  O   UNL A   1      45.364  22.890  23.501  1.00  0.00    -0.237 OA
ATOM     58  O   UNL A   1      46.241  21.451  25.320  1.00  0.00    -0.237 OA
ATOM     59  O   UNL A   1      44.471  20.620  23.829  1.00  0.00    -0.744 OA
ENDBRANCH  52  56
ENDBRANCH  25  49
BRANCH  37  60
ATOM     60  C   UNL A   1      45.742  29.558  29.198  1.00  0.00     0.023 A 
ATOM     61  C   UNL A   1      44.919  30.362  28.374  1.00  0.00     0.031 A 
ATOM     62  C   UNL A   1      47.134  29.721  29.081  1.00  0.00     0.131 A 
ATOM     63  C   UNL A   1      45.502  31.276  27.472  1.00  0.00     0.055 A 
ATOM     64  C   UNL A   1      47.706  30.642  28.206  1.00  0.00     0.041 A 
ATOM     65  F   UNL A   1      47.970  29.004  29.851  1.00  0.00    -0.206 F 
ATOM     66  C   UNL A   1      46.892  31.419  27.393  1.00  0.00     0.022 A 
BRANCH  63  67
ATOM     67  S   UNL A   1      44.466  32.292  26.368  1.00  0.00     0.124 S 
ATOM     68  O   UNL A   1      43.451  31.359  25.896  1.00  0.00    -0.237 OA
ATOM     69  O   UNL A   1      43.998  33.352  27.259  1.00  0.00    -0.237 OA
ATOM     70  O   UNL A   1      45.406  32.740  25.338  1.00  0.00    -0.744 OA
ENDBRANCH  63  67
ENDBRANCH  37  60
ENDBRANCH  11  12
ENDBRANCH   4   6
ENDBRANCH   1   2
BRANCH   1  71
ATOM     71  C   UNL A   1      32.387  30.381  26.605  1.00  0.00     0.042 C 
BRANCH  71  72
ATOM     72  C   UNL A   1      31.854  29.024  26.143  1.00  0.00     0.118 C 
BRANCH  72  73
ATOM     73  N   UNL A   1      32.524  28.535  24.945  1.00  0.00    -0.352 N 
ATOM     74  C   UNL A   1      32.016  28.164  23.728  1.00  0.00     0.251 C 
ATOM     75  H   UNL A   1      33.503  28.458  25.023  1.00  0.00     0.163 HD
ATOM     76  O   UNL A   1      32.734  27.596  22.912  1.00  0.00    -0.269 OA
BRANCH  74  77
ATOM     77  C   UNL A   1      30.611  28.432  23.364  1.00  0.00     0.045 A 
ATOM     78  C   UNL A   1      29.624  27.464  23.519  1.00  0.00     0.034 A 
ATOM     79  C   UNL A   1      30.267  29.738  23.002  1.00  0.00     0.063 A 
ATOM     80  C   UNL A   1      28.316  27.842  23.293  1.00  0.00     0.114 A 
ATOM     81  C   UNL A   1      28.922  30.034  22.813  1.00  0.00     0.157 A 
ATOM     82  N   UNL A   1      27.947  29.101  22.975  1.00  0.00    -0.237 NA
BRANCH  81  83
ATOM     83  N   UNL A   1      28.539  31.355  22.469  1.00  0.00    -0.182 N 
ATOM     84  C   UNL A   1      27.973  31.814  21.306  1.00  0.00     0.254 A 
ATOM     85  N   UNL A   1      28.719  32.414  23.291  1.00  0.00    -0.039 NA
ATOM     86  N   UNL A   1      27.870  33.121  21.358  1.00  0.00    -0.117 NA
ATOM     87  N   UNL A   1      28.347  33.480  22.592  1.00  0.00    -0.024 NA
ENDBRANCH  81  83
ENDBRANCH  74  77
ENDBRANCH  72  73
ENDBRANCH  71  72
ENDBRANCH   1  71
TORSDOF 14
ENDMDL
MODEL 3
REMARK VINA RESULT:     -12.7      2.543      7.330
REMARK SMILES O=C(NCCCNC(=O)c1ccnc(-n2cnnn2)c1)c1ccc(-c2c3nc(c(-c4cc(S(=O)(=O)[O-])ccc4F)c4ccc([nH]4)c(-c4cc(S(=O)(=O)[O-])ccc4F)c4nc(c(-c5cc(S(=O)(=O)[O-])ccc5F)c5ccc2[nH]5)C=C4)C=C3)cc1
REMARK SMILES IDX 4 1 3 2 1 3 2 4 21 6 22 7 83 8 23 9 82 10 24 11 25 12 26 13
REMARK SMILES IDX 76 14 27 15 81 16 75 17 77 18 28 19 80 20 74 21 73 22 29 24
REMARK SMILES IDX 61 25 41 26 60 27 42 28 45 29 59 30 78 31 43 32 44 33 58 35
REMARK SMILES IDX 79 36 46 37 30 38 31 39 39 40 32 41 38 42 40 43 37 44 33 45
REMARK SMILES IDX 34 46 35 47 36 48 62 49 63 50 71 51 64 52 70 53 72 54 69 55
REMARK SMILES IDX 65 56 66 57 67 58 68 59 47 60 48 61 56 62 49 63 55 64 57 65
REMARK SMILES IDX 54 66 50 67 51 68 52 69 53 70 5 71 6 72 7 73 8 74 9 76 10 77
REMARK SMILES IDX 11 78 20 79 12 80 14 81 13 82 15 83 16 84 19 85 17 86 18 87
REMARK H PARENT 3 5 77 23 45 34 7 75
REMARK Flexibility Score: inf
ROOT
ATOM      1  C   UNL A   1      34.832  28.996  26.934  1.00  0.00     0.118 C 
ENDROOT
BRANCH   1   2
ATOM      2  N   UNL A   1      35.031  29.566  28.250  1.00  0.00    -0.352 N 
ATOM      3  O   UNL A   1      35.894  30.537  30.029  1.00  0.00    -0.269 OA
ATOM      4  C   UNL A   1      36.123  29.868  29.018  1.00  0.00     0.251 C 
ATOM      5  H   UNL A   1      34.182  29.789  28.697  1.00  0.00     0.163 HD
BRANCH   4   6
ATOM      6  C   UNL A   1      37.513  29.394  28.770  1.00  0.00     0.039 A 
ATOM      7  C   UNL A   1      38.298  29.682  27.652  1.00  0.00     0.014 A 
ATOM      8  C   UNL A   1      38.061  28.577  29.779  1.00  0.00     0.014 A 
ATOM      9  C   UNL A   1      39.567  29.108  27.515  1.00  0.00     0.010 A 
ATOM     10  C   UNL A   1      39.325  28.007  29.648  1.00  0.00     0.010 A 
ATOM     11  C   UNL A   1      40.072  28.250  28.501  1.00  0.00    -0.014 A 
BRANCH  11  12
ATOM     12  C   UNL A   1      41.475  27.818  28.426  1.00  0.00     0.031 A 
ATOM     13  C   UNL A   1      41.660  26.518  27.711  1.00  0.00     0.074 A 
ATOM     14  C   UNL A   1      42.541  28.573  28.781  1.00  0.00     0.049 A 
ATOM     15  N   UNL A   1      42.160  25.418  28.171  1.00  0.00    -0.248 NA
ATOM     16  C   UNL A   1      41.096  26.386  26.357  1.00  0.00     0.031 C 
ATOM     17  C   UNL A   1      42.539  29.963  29.239  1.00  0.00     0.029 A 
ATOM     18  N   UNL A   1      43.878  28.284  28.714  1.00  0.00    -0.354 N 
ATOM     19  C   UNL A   1      42.178  24.522  27.103  1.00  0.00     0.074 A 
ATOM     20  C   UNL A   1      41.360  25.109  26.078  1.00  0.00     0.031 C 
ATOM     21  C   UNL A   1      43.800  30.456  29.197  1.00  0.00     0.029 A 
ATOM     22  C   UNL A   1      44.721  29.392  28.828  1.00  0.00     0.049 A 
ATOM     23  H   UNL A   1      44.218  27.367  28.596  1.00  0.00     0.167 HD
ATOM     24  C   UNL A   1      43.040  23.467  27.071  1.00  0.00     0.034 A 
ATOM     25  C   UNL A   1      46.067  29.453  28.597  1.00  0.00     0.034 A 
ATOM     26  C   UNL A   1      43.536  23.163  28.392  1.00  0.00     0.049 A 
ATOM     27  C   UNL A   1      46.587  28.071  28.709  1.00  0.00     0.074 A 
ATOM     28  C   UNL A   1      42.939  22.811  29.589  1.00  0.00     0.029 A 
ATOM     29  N   UNL A   1      44.807  23.572  28.725  1.00  0.00    -0.354 N 
ATOM     30  N   UNL A   1      46.597  27.398  29.826  1.00  0.00    -0.248 NA
ATOM     31  C   UNL A   1      46.643  27.266  27.499  1.00  0.00     0.031 C 
ATOM     32  C   UNL A   1      43.672  23.522  30.583  1.00  0.00     0.029 A 
ATOM     33  C   UNL A   1      44.726  24.186  29.951  1.00  0.00     0.049 A 
ATOM     34  H   UNL A   1      45.621  23.448  28.186  1.00  0.00     0.167 HD
ATOM     35  C   UNL A   1      46.207  26.117  29.471  1.00  0.00     0.074 A 
ATOM     36  C   UNL A   1      46.336  26.072  28.015  1.00  0.00     0.031 C 
ATOM     37  C   UNL A   1      45.554  25.305  30.354  1.00  0.00     0.034 A 
BRANCH  24  38
ATOM     38  C   UNL A   1      43.707  22.933  25.819  1.00  0.00     0.023 A 
ATOM     39  C   UNL A   1      43.806  21.534  25.678  1.00  0.00     0.031 A 
ATOM     40  C   UNL A   1      44.496  23.694  24.925  1.00  0.00     0.131 A 
ATOM     41  C   UNL A   1      44.719  20.960  24.776  1.00  0.00     0.055 A 
ATOM     42  C   UNL A   1      45.352  23.117  23.984  1.00  0.00     0.041 A 
ATOM     43  F   UNL A   1      44.559  25.030  24.971  1.00  0.00    -0.206 F 
ATOM     44  C   UNL A   1      45.495  21.742  23.927  1.00  0.00     0.022 A 
BRANCH  41  45
ATOM     45  S   UNL A   1      45.011  19.173  24.864  1.00  0.00     0.124 S 
ATOM     46  O   UNL A   1      43.904  18.738  25.710  1.00  0.00    -0.237 OA
ATOM     47  O   UNL A   1      44.941  18.788  23.460  1.00  0.00    -0.237 OA
ATOM     48  O   UNL A   1      46.336  19.075  25.472  1.00  0.00    -0.744 OA
ENDBRANCH  41  45
ENDBRANCH  24  38
BRANCH  25  49
ATOM     49  C   UNL A   1      46.855  30.562  27.968  1.00  0.00     0.023 A 
ATOM     50  C   UNL A   1      46.280  31.592  27.182  1.00  0.00     0.031 A 
ATOM     51  C   UNL A   1      48.195  30.759  28.368  1.00  0.00     0.131 A 
ATOM     52  C   UNL A   1      47.039  32.741  26.833  1.00  0.00     0.055 A 
ATOM     53  C   UNL A   1      48.936  31.893  28.024  1.00  0.00     0.041 A 
ATOM     54  F   UNL A   1      48.809  29.891  29.188  1.00  0.00    -0.206 F 
ATOM     55  C   UNL A   1      48.359  32.894  27.263  1.00  0.00     0.022 A 
BRANCH  52  56
ATOM     56  S   UNL A   1      46.301  34.114  25.876  1.00  0.00     0.124 S 
ATOM     57  O   UNL A   1      47.424  34.571  25.066  1.00  0.00    -0.237 OA
ATOM     58  O   UNL A   1      45.212  33.453  25.165  1.00  0.00    -0.237 OA
ATOM     59  O   UNL A   1      45.868  35.058  26.909  1.00  0.00    -0.744 OA
ENDBRANCH  52  56
ENDBRANCH  25  49
BRANCH  37  60
ATOM     60  C   UNL A   1      45.515  25.699  31.818  1.00  0.00     0.023 A 
ATOM     61  C   UNL A   1      46.527  25.420  32.767  1.00  0.00     0.031 A 
ATOM     62  C   UNL A   1      44.441  26.506  32.232  1.00  0.00     0.131 A 
ATOM     63  C   UNL A   1      46.429  25.940  34.075  1.00  0.00     0.055 A 
ATOM     64  C   UNL A   1      44.360  27.038  33.518  1.00  0.00     0.041 A 
ATOM     65  F   UNL A   1      43.459  26.827  31.372  1.00  0.00    -0.206 F 
ATOM     66  C   UNL A   1      45.352  26.751  34.447  1.00  0.00     0.022 A 
BRANCH  63  67
ATOM     67  S   UNL A   1      47.696  25.561  35.330  1.00  0.00     0.124 S 
ATOM     68  O   UNL A   1      48.430  24.443  34.750  1.00  0.00    -0.237 OA
ATOM     69  O   UNL A   1      48.428  26.822  35.434  1.00  0.00    -0.237 OA
ATOM     70  O   UNL A   1      46.908  25.221  36.516  1.00  0.00    -0.744 OA
ENDBRANCH  63  67
ENDBRANCH  37  60
ENDBRANCH  11  12
ENDBRANCH   4   6
ENDBRANCH   1   2
BRANCH   1  71
ATOM     71  C   UNL A   1      33.377  28.738  26.547  1.00  0.00     0.042 C 
BRANCH  71  72
ATOM     72  C   UNL A   1      32.846  29.618  25.414  1.00  0.00     0.118 C 
BRANCH  72  73
ATOM     73  N   UNL A   1      33.428  29.281  24.122  1.00  0.00    -0.352 N 
ATOM     74  C   UNL A   1      32.838  28.856  22.962  1.00  0.00     0.251 C 
ATOM     75  H   UNL A   1      34.407  29.374  24.075  1.00  0.00     0.163 HD
ATOM     76  O   UNL A   1      33.530  28.440  22.038  1.00  0.00    -0.269 OA
BRANCH  74  77
ATOM     77  C   UNL A   1      31.372  28.883  22.787  1.00  0.00     0.045 A 
ATOM     78  C   UNL A   1      30.583  27.782  23.108  1.00  0.00     0.034 A 
ATOM     79  C   UNL A   1      30.778  30.097  22.434  1.00  0.00     0.063 A 
ATOM     80  C   UNL A   1      29.212  27.941  23.053  1.00  0.00     0.114 A 
ATOM     81  C   UNL A   1      29.390  30.171  22.423  1.00  0.00     0.157 A 
ATOM     82  N   UNL A   1      28.607  29.109  22.749  1.00  0.00    -0.237 NA
BRANCH  81  83
ATOM     83  N   UNL A   1      28.757  31.396  22.092  1.00  0.00    -0.182 N 
ATOM     84  C   UNL A   1      28.160  31.768  20.914  1.00  0.00     0.254 A 
ATOM     85  N   UNL A   1      28.677  32.441  22.949  1.00  0.00    -0.039 NA
ATOM     86  N   UNL A   1      27.787  33.024  20.994  1.00  0.00    -0.117 NA
ATOM     87  N   UNL A   1      28.124  33.431  22.259  1.00  0.00    -0.024 NA
ENDBRANCH  81  83
ENDBRANCH  74  77
ENDBRANCH  72  73
ENDBRANCH  71  72
ENDBRANCH   1  71
TORSDOF 14
ENDMDL
