MODEL 1
REMARK VINA RESULT:     -11.9      0.000      0.000
REMARK SMILES CC1([C@](C)(Nc2cccc(Cl)c2)C(=O)NCCCNC(=O)c2ccc(-c3c4nc(c(-c5cc(S(=O)(=O)[O-])ccc5F)c5ccc([nH]5)c(-c5cc(S(=O)(=O)[O-])ccc5F)c5nc(c(-c6cc(S(=O)(=O)[O-])ccc6F)c6ccc3[nH]6)C=C5)C=C4)cc2)CC1
REMARK SMILES IDX 17 1 16 2 15 3 13 4 14 5 3 7 4 8 2 9 1 10 85 11 86 12 5 13
REMARK SMILES IDX 6 15 7 16 12 17 8 18 10 19 9 20 11 21 18 22 19 23 20 24
REMARK SMILES IDX 21 26 22 27 23 28 84 29 24 30 83 31 25 32 26 33 27 34 77 35
REMARK SMILES IDX 28 36 82 37 76 38 78 39 29 40 81 41 75 42 74 43 30 45 62 46
REMARK SMILES IDX 42 47 61 48 43 49 46 50 60 51 79 52 44 53 45 54 59 56 80 57
REMARK SMILES IDX 47 58 31 59 32 60 40 61 33 62 39 63 41 64 38 65 34 66 35 67
REMARK SMILES IDX 36 68 37 69 63 70 64 71 72 72 65 73 71 74 73 75 70 76 66 77
REMARK SMILES IDX 67 78 68 79 69 80 48 81 49 82 57 83 50 84 56 85 58 86 55 87
REMARK SMILES IDX 51 88 52 89 53 90 54 91
REMARK H PARENT 15 6 5 14 19 25 78 44 46 55
REMARK Flexibility Score: inf
ROOT
ATOM      1  C   UNL A   1      37.447  19.719  25.001  1.00  0.00     0.042 C 
ENDROOT
BRANCH   1   2
ATOM      2  C   UNL A   1      36.209  20.597  24.919  1.00  0.00     0.117 C 
BRANCH   2   3
ATOM      3  N   UNL A   1      35.667  21.077  26.182  1.00  0.00    -0.354 N 
ATOM      4  C   UNL A   1      34.414  21.515  26.526  1.00  0.00     0.245 C 
ATOM      5  O   UNL A   1      34.229  21.729  27.732  1.00  0.00    -0.272 OA
ATOM      6  H   UNL A   1      36.316  21.088  26.923  1.00  0.00     0.163 HD
BRANCH   4   7
ATOM      7  C   UNL A   1      33.265  21.721  25.478  1.00  0.00     0.119 C 
ATOM      8  C   UNL A   1      33.898  21.857  24.054  1.00  0.00     0.046 C 
BRANCH   7   9
ATOM      9  C   UNL A   1      32.460  23.071  25.820  1.00  0.00    -0.001 C 
ATOM     10  C   UNL A   1      33.308  24.326  25.958  1.00  0.00     0.014 C 
ATOM     11  C   UNL A   1      31.263  23.103  26.772  1.00  0.00     0.010 C 
ATOM     12  C   UNL A   1      31.031  23.245  25.304  1.00  0.00     0.010 C 
ENDBRANCH   7   9
BRANCH   7  13
ATOM     13  N   UNL A   1      32.343  20.555  25.355  1.00  0.00    -0.371 N 
ATOM     14  H   UNL A   1      31.493  20.610  25.847  1.00  0.00     0.161 HD
BRANCH  13  15
ATOM     15  C   UNL A   1      32.566  19.393  24.612  1.00  0.00     0.036 A 
ATOM     16  C   UNL A   1      32.154  19.199  23.284  1.00  0.00     0.026 A 
ATOM     17  C   UNL A   1      33.321  18.359  25.188  1.00  0.00     0.046 A 
ATOM     18  C   UNL A   1      32.539  18.076  22.538  1.00  0.00     0.004 A 
ATOM     19  C   UNL A   1      33.664  17.210  24.462  1.00  0.00     0.043 A 
ATOM     20  C   UNL A   1      33.300  17.076  23.128  1.00  0.00     0.020 A 
ATOM     21  Cl  UNL A   1      34.544  15.946  25.231  1.00  0.00    -0.084 Cl
ENDBRANCH  13  15
ENDBRANCH   7  13
ENDBRANCH   4   7
ENDBRANCH   2   3
ENDBRANCH   1   2
BRANCH   1  22
ATOM     22  C   UNL A   1      38.645  20.352  25.682  1.00  0.00     0.118 C 
BRANCH  22  23
ATOM     23  N   UNL A   1      39.703  19.388  25.932  1.00  0.00    -0.352 N 
ATOM     24  C   UNL A   1      41.042  19.598  26.158  1.00  0.00     0.251 C 
ATOM     25  H   UNL A   1      39.418  18.445  25.940  1.00  0.00     0.163 HD
ATOM     26  O   UNL A   1      41.815  18.646  26.098  1.00  0.00    -0.269 OA
BRANCH  24  27
ATOM     27  C   UNL A   1      41.555  20.960  26.446  1.00  0.00     0.039 A 
ATOM     28  C   UNL A   1      41.807  21.824  25.378  1.00  0.00     0.014 A 
ATOM     29  C   UNL A   1      41.820  21.376  27.753  1.00  0.00     0.014 A 
ATOM     30  C   UNL A   1      42.275  23.118  25.625  1.00  0.00     0.010 A 
ATOM     31  C   UNL A   1      42.200  22.693  28.004  1.00  0.00     0.010 A 
ATOM     32  C   UNL A   1      42.450  23.574  26.943  1.00  0.00    -0.014 A 
BRANCH  32  33
ATOM     33  C   UNL A   1      42.922  24.958  27.217  1.00  0.00     0.031 A 
ATOM     34  C   UNL A   1      42.002  25.956  27.868  1.00  0.00     0.074 A 
ATOM     35  C   UNL A   1      44.159  25.331  26.836  1.00  0.00     0.049 A 
ATOM     36  N   UNL A   1      42.216  27.213  28.162  1.00  0.00    -0.248 NA
ATOM     37  C   UNL A   1      40.649  25.486  28.200  1.00  0.00     0.031 C 
ATOM     38  C   UNL A   1      45.121  24.473  26.140  1.00  0.00     0.029 A 
ATOM     39  N   UNL A   1      44.817  26.528  26.969  1.00  0.00    -0.354 N 
ATOM     40  C   UNL A   1      41.023  27.686  28.700  1.00  0.00     0.074 A 
ATOM     41  C   UNL A   1      40.072  26.599  28.624  1.00  0.00     0.031 C 
ATOM     42  C   UNL A   1      46.250  25.167  25.922  1.00  0.00     0.029 A 
ATOM     43  C   UNL A   1      46.080  26.526  26.427  1.00  0.00     0.049 A 
ATOM     44  H   UNL A   1      44.420  27.313  27.410  1.00  0.00     0.167 HD
ATOM     45  C   UNL A   1      40.755  28.906  29.234  1.00  0.00     0.034 A 
ATOM     46  C   UNL A   1      46.997  27.510  26.337  1.00  0.00     0.034 A 
ATOM     47  C   UNL A   1      41.721  29.976  29.309  1.00  0.00     0.049 A 
ATOM     48  C   UNL A   1      46.683  28.857  26.934  1.00  0.00     0.074 A 
ATOM     49  C   UNL A   1      41.584  31.222  29.896  1.00  0.00     0.029 A 
ATOM     50  N   UNL A   1      42.999  29.935  28.764  1.00  0.00    -0.354 N 
ATOM     51  N   UNL A   1      45.579  29.264  27.517  1.00  0.00    -0.248 NA
ATOM     52  C   UNL A   1      47.745  29.869  26.876  1.00  0.00     0.031 C 
ATOM     53  C   UNL A   1      42.748  31.958  29.643  1.00  0.00     0.029 A 
ATOM     54  C   UNL A   1      43.646  31.146  28.966  1.00  0.00     0.049 A 
ATOM     55  H   UNL A   1      43.389  29.159  28.302  1.00  0.00     0.167 HD
ATOM     56  C   UNL A   1      45.821  30.578  27.912  1.00  0.00     0.074 A 
ATOM     57  C   UNL A   1      47.183  30.883  27.520  1.00  0.00     0.031 C 
ATOM     58  C   UNL A   1      44.994  31.450  28.545  1.00  0.00     0.034 A 
BRANCH  45  59
ATOM     59  C   UNL A   1      39.351  29.142  29.746  1.00  0.00     0.023 A 
ATOM     60  C   UNL A   1      38.411  29.892  29.013  1.00  0.00     0.031 A 
ATOM     61  C   UNL A   1      38.960  28.657  31.006  1.00  0.00     0.131 A 
ATOM     62  C   UNL A   1      37.173  30.216  29.585  1.00  0.00     0.055 A 
ATOM     63  C   UNL A   1      37.690  28.907  31.531  1.00  0.00     0.041 A 
ATOM     64  F   UNL A   1      39.816  27.953  31.764  1.00  0.00    -0.206 F 
ATOM     65  C   UNL A   1      36.795  29.708  30.829  1.00  0.00     0.022 A 
BRANCH  62  66
ATOM     66  S   UNL A   1      36.138  31.458  28.759  1.00  0.00     0.124 S 
ATOM     67  O   UNL A   1      35.621  30.701  27.621  1.00  0.00    -0.237 OA
ATOM     68  O   UNL A   1      35.169  31.799  29.793  1.00  0.00    -0.237 OA
ATOM     69  O   UNL A   1      37.083  32.518  28.413  1.00  0.00    -0.744 OA
ENDBRANCH  62  66
ENDBRANCH  45  59
BRANCH  46  70
ATOM     70  C   UNL A   1      48.291  27.261  25.638  1.00  0.00     0.023 A 
ATOM     71  C   UNL A   1      48.425  27.454  24.256  1.00  0.00     0.031 A 
ATOM     72  C   UNL A   1      49.415  26.813  26.357  1.00  0.00     0.131 A 
ATOM     73  C   UNL A   1      49.648  27.170  23.626  1.00  0.00     0.055 A 
ATOM     74  C   UNL A   1      50.641  26.577  25.734  1.00  0.00     0.041 A 
ATOM     75  F   UNL A   1      49.340  26.622  27.683  1.00  0.00    -0.206 F 
ATOM     76  C   UNL A   1      50.760  26.746  24.358  1.00  0.00     0.022 A 
BRANCH  73  77
ATOM     77  S   UNL A   1      49.753  27.309  21.821  1.00  0.00     0.124 S 
ATOM     78  O   UNL A   1      49.578  28.744  21.623  1.00  0.00    -0.237 OA
ATOM     79  O   UNL A   1      51.086  26.782  21.552  1.00  0.00    -0.237 OA
ATOM     80  O   UNL A   1      48.650  26.475  21.350  1.00  0.00    -0.744 OA
ENDBRANCH  73  77
ENDBRANCH  46  70
BRANCH  58  81
ATOM     81  C   UNL A   1      45.559  32.812  28.872  1.00  0.00     0.023 A 
ATOM     82  C   UNL A   1      45.484  33.882  27.962  1.00  0.00     0.031 A 
ATOM     83  C   UNL A   1      46.196  33.038  30.106  1.00  0.00     0.131 A 
ATOM     84  C   UNL A   1      46.089  35.108  28.274  1.00  0.00     0.055 A 
ATOM     85  C   UNL A   1      46.741  34.280  30.436  1.00  0.00     0.041 A 
ATOM     86  F   UNL A   1      46.301  32.052  31.012  1.00  0.00    -0.206 F 
ATOM     87  C   UNL A   1      46.701  35.320  29.513  1.00  0.00     0.022 A 
BRANCH  84  88
ATOM     88  S   UNL A   1      46.153  36.398  26.999  1.00  0.00     0.124 S 
ATOM     89  O   UNL A   1      44.985  37.208  27.327  1.00  0.00    -0.237 OA
ATOM     90  O   UNL A   1      47.450  37.017  27.246  1.00  0.00    -0.237 OA
ATOM     91  O   UNL A   1      46.054  35.647  25.748  1.00  0.00    -0.744 OA
ENDBRANCH  84  88
ENDBRANCH  58  81
ENDBRANCH  32  33
ENDBRANCH  24  27
ENDBRANCH  22  23
ENDBRANCH   1  22
TORSDOF 16
ENDMDL
MODEL 2
REMARK VINA RESULT:     -11.7      6.732     11.842
REMARK SMILES CC1([C@](C)(Nc2cccc(Cl)c2)C(=O)NCCCNC(=O)c2ccc(-c3c4nc(c(-c5cc(S(=O)(=O)[O-])ccc5F)c5ccc([nH]5)c(-c5cc(S(=O)(=O)[O-])ccc5F)c5nc(c(-c6cc(S(=O)(=O)[O-])ccc6F)c6ccc3[nH]6)C=C5)C=C4)cc2)CC1
REMARK SMILES IDX 17 1 16 2 15 3 13 4 14 5 3 7 4 8 2 9 1 10 85 11 86 12 5 13
REMARK SMILES IDX 6 15 7 16 12 17 8 18 10 19 9 20 11 21 18 22 19 23 20 24
REMARK SMILES IDX 21 26 22 27 23 28 84 29 24 30 83 31 25 32 26 33 27 34 77 35
REMARK SMILES IDX 28 36 82 37 76 38 78 39 29 40 81 41 75 42 74 43 30 45 62 46
REMARK SMILES IDX 42 47 61 48 43 49 46 50 60 51 79 52 44 53 45 54 59 56 80 57
REMARK SMILES IDX 47 58 31 59 32 60 40 61 33 62 39 63 41 64 38 65 34 66 35 67
REMARK SMILES IDX 36 68 37 69 63 70 64 71 72 72 65 73 71 74 73 75 70 76 66 77
REMARK SMILES IDX 67 78 68 79 69 80 48 81 49 82 57 83 50 84 56 85 58 86 55 87
REMARK SMILES IDX 51 88 52 89 53 90 54 91
REMARK H PARENT 15 6 5 14 19 25 78 44 46 55
REMARK Flexibility Score: inf
ROOT
ATOM      1  C   UNL A   1      31.401  31.496  26.122  1.00  0.00     0.042 C 
ENDROOT
BRANCH   1   2
ATOM      2  C   UNL A   1      31.543  30.077  25.596  1.00  0.00     0.117 C 
BRANCH   2   3
ATOM      3  N   UNL A   1      32.678  29.817  24.722  1.00  0.00    -0.354 N 
ATOM      4  C   UNL A   1      32.858  28.907  23.714  1.00  0.00     0.245 C 
ATOM      5  O   UNL A   1      33.902  29.029  23.056  1.00  0.00    -0.272 OA
ATOM      6  H   UNL A   1      33.455  30.400  24.885  1.00  0.00     0.163 HD
BRANCH   4   7
ATOM      7  C   UNL A   1      31.815  27.784  23.380  1.00  0.00     0.119 C 
ATOM      8  C   UNL A   1      30.951  27.502  24.653  1.00  0.00     0.046 C 
BRANCH   7   9
ATOM      9  C   UNL A   1      32.588  26.435  22.968  1.00  0.00    -0.001 C 
ATOM     10  C   UNL A   1      33.742  26.034  23.875  1.00  0.00     0.014 C 
ATOM     11  C   UNL A   1      32.867  26.051  21.514  1.00  0.00     0.010 C 
ATOM     12  C   UNL A   1      31.819  25.309  22.275  1.00  0.00     0.010 C 
ENDBRANCH   7   9
BRANCH   7  13
ATOM     13  N   UNL A   1      30.816  28.176  22.344  1.00  0.00    -0.371 N 
ATOM     14  H   UNL A   1      30.979  27.853  21.428  1.00  0.00     0.161 HD
BRANCH  13  15
ATOM     15  C   UNL A   1      29.674  28.956  22.542  1.00  0.00     0.036 A 
ATOM     16  C   UNL A   1      28.406  28.451  22.874  1.00  0.00     0.026 A 
ATOM     17  C   UNL A   1      29.794  30.353  22.487  1.00  0.00     0.046 A 
ATOM     18  C   UNL A   1      27.333  29.288  23.213  1.00  0.00     0.004 A 
ATOM     19  C   UNL A   1      28.709  31.194  22.774  1.00  0.00     0.043 A 
ATOM     20  C   UNL A   1      27.485  30.667  23.165  1.00  0.00     0.020 A 
ATOM     21  Cl  UNL A   1      28.893  32.900  22.637  1.00  0.00    -0.084 Cl
ENDBRANCH  13  15
ENDBRANCH   7  13
ENDBRANCH   4   7
ENDBRANCH   2   3
ENDBRANCH   1   2
BRANCH   1  22
ATOM     22  C   UNL A   1      32.486  31.943  27.081  1.00  0.00     0.118 C 
BRANCH  22  23
ATOM     23  N   UNL A   1      32.452  33.376  27.315  1.00  0.00    -0.352 N 
ATOM     24  C   UNL A   1      33.184  34.136  28.195  1.00  0.00     0.251 C 
ATOM     25  H   UNL A   1      31.810  33.876  26.761  1.00  0.00     0.163 HD
ATOM     26  O   UNL A   1      32.834  35.291  28.422  1.00  0.00    -0.269 OA
BRANCH  24  27
ATOM     27  C   UNL A   1      34.367  33.566  28.884  1.00  0.00     0.039 A 
ATOM     28  C   UNL A   1      34.172  32.560  29.834  1.00  0.00     0.014 A 
ATOM     29  C   UNL A   1      35.657  34.036  28.626  1.00  0.00     0.014 A 
ATOM     30  C   UNL A   1      35.274  31.995  30.485  1.00  0.00     0.010 A 
ATOM     31  C   UNL A   1      36.759  33.411  29.207  1.00  0.00     0.010 A 
ATOM     32  C   UNL A   1      36.580  32.396  30.157  1.00  0.00    -0.014 A 
BRANCH  32  33
ATOM     33  C   UNL A   1      37.759  31.782  30.824  1.00  0.00     0.031 A 
ATOM     34  C   UNL A   1      38.587  30.754  30.100  1.00  0.00     0.074 A 
ATOM     35  C   UNL A   1      38.055  32.112  32.096  1.00  0.00     0.049 A 
ATOM     36  N   UNL A   1      39.631  30.085  30.520  1.00  0.00    -0.248 NA
ATOM     37  C   UNL A   1      38.163  30.409  28.736  1.00  0.00     0.031 C 
ATOM     38  C   UNL A   1      37.291  33.047  32.924  1.00  0.00     0.029 A 
ATOM     39  N   UNL A   1      39.068  31.690  32.920  1.00  0.00    -0.354 N 
ATOM     40  C   UNL A   1      39.979  29.232  29.478  1.00  0.00     0.074 A 
ATOM     41  C   UNL A   1      38.991  29.420  28.437  1.00  0.00     0.031 C 
ATOM     42  C   UNL A   1      37.871  33.140  34.131  1.00  0.00     0.029 A 
ATOM     43  C   UNL A   1      39.025  32.247  34.177  1.00  0.00     0.049 A 
ATOM     44  H   UNL A   1      39.761  31.051  32.637  1.00  0.00     0.167 HD
ATOM     45  C   UNL A   1      41.040  28.389  29.385  1.00  0.00     0.034 A 
ATOM     46  C   UNL A   1      39.817  32.052  35.250  1.00  0.00     0.034 A 
ATOM     47  C   UNL A   1      42.021  28.222  30.431  1.00  0.00     0.049 A 
ATOM     48  C   UNL A   1      40.989  31.114  35.131  1.00  0.00     0.074 A 
ATOM     49  C   UNL A   1      43.176  27.458  30.416  1.00  0.00     0.029 A 
ATOM     50  N   UNL A   1      41.956  28.814  31.687  1.00  0.00    -0.354 N 
ATOM     51  N   UNL A   1      41.356  30.377  34.108  1.00  0.00    -0.248 NA
ATOM     52  C   UNL A   1      41.864  30.997  36.304  1.00  0.00     0.031 C 
ATOM     53  C   UNL A   1      43.766  27.530  31.684  1.00  0.00     0.029 A 
ATOM     54  C   UNL A   1      43.026  28.401  32.468  1.00  0.00     0.049 A 
ATOM     55  H   UNL A   1      41.251  29.435  31.980  1.00  0.00     0.167 HD
ATOM     56  C   UNL A   1      42.516  29.720  34.510  1.00  0.00     0.074 A 
ATOM     57  C   UNL A   1      42.798  30.168  35.859  1.00  0.00     0.031 C 
ATOM     58  C   UNL A   1      43.282  28.832  33.824  1.00  0.00     0.034 A 
BRANCH  45  59
ATOM     59  C   UNL A   1      41.165  27.571  28.119  1.00  0.00     0.023 A 
ATOM     60  C   UNL A   1      40.837  26.202  28.086  1.00  0.00     0.031 A 
ATOM     61  C   UNL A   1      41.667  28.151  26.941  1.00  0.00     0.131 A 
ATOM     62  C   UNL A   1      41.108  25.443  26.938  1.00  0.00     0.055 A 
ATOM     63  C   UNL A   1      41.847  27.408  25.772  1.00  0.00     0.041 A 
ATOM     64  F   UNL A   1      42.017  29.447  26.912  1.00  0.00    -0.206 F 
ATOM     65  C   UNL A   1      41.587  26.041  25.772  1.00  0.00     0.022 A 
BRANCH  62  66
ATOM     66  S   UNL A   1      40.994  23.635  27.051  1.00  0.00     0.124 S 
ATOM     67  O   UNL A   1      41.864  23.216  25.954  1.00  0.00    -0.237 OA
ATOM     68  O   UNL A   1      41.489  23.372  28.397  1.00  0.00    -0.237 OA
ATOM     69  O   UNL A   1      39.572  23.367  26.844  1.00  0.00    -0.744 OA
ENDBRANCH  62  66
ENDBRANCH  45  59
BRANCH  46  70
ATOM     70  C   UNL A   1      39.515  32.747  36.534  1.00  0.00     0.023 A 
ATOM     71  C   UNL A   1      38.594  32.221  37.452  1.00  0.00     0.031 A 
ATOM     72  C   UNL A   1      40.147  33.963  36.854  1.00  0.00     0.131 A 
ATOM     73  C   UNL A   1      38.305  32.925  38.633  1.00  0.00     0.055 A 
ATOM     74  C   UNL A   1      39.892  34.634  38.050  1.00  0.00     0.041 A 
ATOM     75  F   UNL A   1      41.043  34.503  36.013  1.00  0.00    -0.206 F 
ATOM     76  C   UNL A   1      38.958  34.120  38.944  1.00  0.00     0.022 A 
BRANCH  73  77
ATOM     77  S   UNL A   1      37.019  32.282  39.738  1.00  0.00     0.124 S 
ATOM     78  O   UNL A   1      37.350  30.862  39.787  1.00  0.00    -0.237 OA
ATOM     79  O   UNL A   1      37.262  33.040  40.961  1.00  0.00    -0.237 OA
ATOM     80  O   UNL A   1      35.776  32.609  39.042  1.00  0.00    -0.744 OA
ENDBRANCH  73  77
ENDBRANCH  46  70
BRANCH  58  81
ATOM     81  C   UNL A   1      44.513  28.307  34.524  1.00  0.00     0.023 A 
ATOM     82  C   UNL A   1      44.473  27.151  35.323  1.00  0.00     0.031 A 
ATOM     83  C   UNL A   1      45.740  28.984  34.402  1.00  0.00     0.131 A 
ATOM     84  C   UNL A   1      45.622  26.741  36.017  1.00  0.00     0.055 A 
ATOM     85  C   UNL A   1      46.895  28.536  35.045  1.00  0.00     0.041 A 
ATOM     86  F   UNL A   1      45.837  30.096  33.655  1.00  0.00    -0.206 F 
ATOM     87  C   UNL A   1      46.837  27.416  35.869  1.00  0.00     0.022 A 
BRANCH  84  88
ATOM     88  S   UNL A   1      45.484  25.370  37.197  1.00  0.00     0.124 S 
ATOM     89  O   UNL A   1      45.981  25.977  38.428  1.00  0.00    -0.237 OA
ATOM     90  O   UNL A   1      44.057  25.071  37.164  1.00  0.00    -0.237 OA
ATOM     91  O   UNL A   1      46.346  24.337  36.624  1.00  0.00    -0.744 OA
ENDBRANCH  84  88
ENDBRANCH  58  81
ENDBRANCH  32  33
ENDBRANCH  24  27
ENDBRANCH  22  23
ENDBRANCH   1  22
TORSDOF 16
ENDMDL
MODEL 3
REMARK VINA RESULT:     -11.6      2.653      8.497
REMARK SMILES CC1([C@](C)(Nc2cccc(Cl)c2)C(=O)NCCCNC(=O)c2ccc(-c3c4nc(c(-c5cc(S(=O)(=O)[O-])ccc5F)c5ccc([nH]5)c(-c5cc(S(=O)(=O)[O-])ccc5F)c5nc(c(-c6cc(S(=O)(=O)[O-])ccc6F)c6ccc3[nH]6)C=C5)C=C4)cc2)CC1
REMARK SMILES IDX 17 1 16 2 15 3 13 4 14 5 3 7 4 8 2 9 1 10 85 11 86 12 5 13
REMARK SMILES IDX 6 15 7 16 12 17 8 18 10 19 9 20 11 21 18 22 19 23 20 24
REMARK SMILES IDX 21 26 22 27 23 28 84 29 24 30 83 31 25 32 26 33 27 34 77 35
REMARK SMILES IDX 28 36 82 37 76 38 78 39 29 40 81 41 75 42 74 43 30 45 62 46
REMARK SMILES IDX 42 47 61 48 43 49 46 50 60 51 79 52 44 53 45 54 59 56 80 57
REMARK SMILES IDX 47 58 31 59 32 60 40 61 33 62 39 63 41 64 38 65 34 66 35 67
REMARK SMILES IDX 36 68 37 69 63 70 64 71 72 72 65 73 71 74 73 75 70 76 66 77
REMARK SMILES IDX 67 78 68 79 69 80 48 81 49 82 57 83 50 84 56 85 58 86 55 87
REMARK SMILES IDX 51 88 52 89 53 90 54 91
REMARK H PARENT 15 6 5 14 19 25 78 44 46 55
REMARK Flexibility Score: inf
ROOT
ATOM      1  C   UNL A   1      35.075  21.866  26.426  1.00  0.00     0.042 C 
ENDROOT
BRANCH   1   2
ATOM      2  C   UNL A   1      34.234  23.104  26.690  1.00  0.00     0.117 C 
BRANCH   2   3
ATOM      3  N   UNL A   1      32.792  22.912  26.746  1.00  0.00    -0.354 N 
ATOM      4  C   UNL A   1      31.815  23.086  25.801  1.00  0.00     0.245 C 
ATOM      5  O   UNL A   1      30.681  22.701  26.119  1.00  0.00    -0.272 OA
ATOM      6  H   UNL A   1      32.459  22.600  27.619  1.00  0.00     0.163 HD
BRANCH   4   7
ATOM      7  C   UNL A   1      32.093  23.715  24.391  1.00  0.00     0.119 C 
ATOM      8  C   UNL A   1      30.729  24.088  23.725  1.00  0.00     0.046 C 
BRANCH   7   9
ATOM      9  C   UNL A   1      32.849  22.641  23.462  1.00  0.00    -0.001 C 
ATOM     10  C   UNL A   1      34.154  23.111  22.839  1.00  0.00     0.014 C 
ATOM     11  C   UNL A   1      32.104  21.681  22.532  1.00  0.00     0.010 C 
ATOM     12  C   UNL A   1      32.724  21.150  23.783  1.00  0.00     0.010 C 
ENDBRANCH   7   9
BRANCH   7  13
ATOM     13  N   UNL A   1      32.837  25.007  24.442  1.00  0.00    -0.371 N 
ATOM     14  H   UNL A   1      33.583  25.113  23.809  1.00  0.00     0.161 HD
BRANCH  13  15
ATOM     15  C   UNL A   1      32.581  26.081  25.298  1.00  0.00     0.036 A 
ATOM     16  C   UNL A   1      31.320  26.403  25.826  1.00  0.00     0.026 A 
ATOM     17  C   UNL A   1      33.660  26.864  25.739  1.00  0.00     0.046 A 
ATOM     18  C   UNL A   1      31.149  27.396  26.801  1.00  0.00     0.004 A 
ATOM     19  C   UNL A   1      33.485  27.893  26.675  1.00  0.00     0.043 A 
ATOM     20  C   UNL A   1      32.236  28.144  27.230  1.00  0.00     0.020 A 
ATOM     21  Cl  UNL A   1      34.829  28.860  27.140  1.00  0.00    -0.084 Cl
ENDBRANCH  13  15
ENDBRANCH   7  13
ENDBRANCH   4   7
ENDBRANCH   2   3
ENDBRANCH   1   2
BRANCH   1  22
ATOM     22  C   UNL A   1      36.305  22.090  25.569  1.00  0.00     0.118 C 
BRANCH  22  23
ATOM     23  N   UNL A   1      37.274  21.016  25.713  1.00  0.00    -0.352 N 
ATOM     24  C   UNL A   1      38.627  21.084  25.946  1.00  0.00     0.251 C 
ATOM     25  H   UNL A   1      36.907  20.106  25.632  1.00  0.00     0.163 HD
ATOM     26  O   UNL A   1      39.312  20.078  25.786  1.00  0.00    -0.269 OA
BRANCH  24  27
ATOM     27  C   UNL A   1      39.258  22.360  26.361  1.00  0.00     0.039 A 
ATOM     28  C   UNL A   1      40.300  22.324  27.292  1.00  0.00     0.014 A 
ATOM     29  C   UNL A   1      38.811  23.589  25.868  1.00  0.00     0.014 A 
ATOM     30  C   UNL A   1      40.923  23.512  27.686  1.00  0.00     0.010 A 
ATOM     31  C   UNL A   1      39.490  24.762  26.192  1.00  0.00     0.010 A 
ATOM     32  C   UNL A   1      40.541  24.740  27.118  1.00  0.00    -0.014 A 
BRANCH  32  33
ATOM     33  C   UNL A   1      41.215  26.006  27.511  1.00  0.00     0.031 A 
ATOM     34  C   UNL A   1      42.646  26.257  27.116  1.00  0.00     0.074 A 
ATOM     35  C   UNL A   1      40.558  26.908  28.266  1.00  0.00     0.049 A 
ATOM     36  N   UNL A   1      43.415  27.280  27.386  1.00  0.00    -0.248 NA
ATOM     37  C   UNL A   1      43.310  25.198  26.342  1.00  0.00     0.031 C 
ATOM     38  C   UNL A   1      39.190  26.751  28.766  1.00  0.00     0.029 A 
ATOM     39  N   UNL A   1      40.952  28.128  28.755  1.00  0.00    -0.354 N 
ATOM     40  C   UNL A   1      44.654  26.983  26.828  1.00  0.00     0.074 A 
ATOM     41  C   UNL A   1      44.550  25.653  26.268  1.00  0.00     0.031 C 
ATOM     42  C   UNL A   1      38.855  27.841  29.476  1.00  0.00     0.029 A 
ATOM     43  C   UNL A   1      39.993  28.755  29.513  1.00  0.00     0.049 A 
ATOM     44  H   UNL A   1      41.839  28.518  28.577  1.00  0.00     0.167 HD
ATOM     45  C   UNL A   1      45.767  27.758  26.764  1.00  0.00     0.034 A 
ATOM     46  C   UNL A   1      40.026  29.929  30.175  1.00  0.00     0.034 A 
ATOM     47  C   UNL A   1      45.849  29.087  27.322  1.00  0.00     0.049 A 
ATOM     48  C   UNL A   1      41.268  30.776  30.094  1.00  0.00     0.074 A 
ATOM     49  C   UNL A   1      46.895  29.991  27.249  1.00  0.00     0.029 A 
ATOM     50  N   UNL A   1      44.851  29.700  28.072  1.00  0.00    -0.354 N 
ATOM     51  N   UNL A   1      42.406  30.519  29.490  1.00  0.00    -0.248 NA
ATOM     52  C   UNL A   1      41.225  32.080  30.769  1.00  0.00     0.031 C 
ATOM     53  C   UNL A   1      46.559  31.115  28.014  1.00  0.00     0.029 A 
ATOM     54  C   UNL A   1      45.272  30.950  28.501  1.00  0.00     0.049 A 
ATOM     55  H   UNL A   1      43.973  29.302  28.270  1.00  0.00     0.167 HD
ATOM     56  C   UNL A   1      43.208  31.639  29.698  1.00  0.00     0.074 A 
ATOM     57  C   UNL A   1      42.414  32.579  30.464  1.00  0.00     0.031 C 
ATOM     58  C   UNL A   1      44.482  31.869  29.289  1.00  0.00     0.034 A 
BRANCH  45  59
ATOM     59  C   UNL A   1      46.986  27.165  26.092  1.00  0.00     0.023 A 
ATOM     60  C   UNL A   1      47.936  26.414  26.810  1.00  0.00     0.031 A 
ATOM     61  C   UNL A   1      47.230  27.395  24.727  1.00  0.00     0.131 A 
ATOM     62  C   UNL A   1      49.125  26.009  26.187  1.00  0.00     0.055 A 
ATOM     63  C   UNL A   1      48.374  26.908  24.090  1.00  0.00     0.041 A 
ATOM     64  F   UNL A   1      46.373  28.120  23.991  1.00  0.00    -0.206 F 
ATOM     65  C   UNL A   1      49.340  26.228  24.825  1.00  0.00     0.022 A 
BRANCH  62  66
ATOM     66  S   UNL A   1      50.463  25.351  27.223  1.00  0.00     0.124 S 
ATOM     67  O   UNL A   1      49.796  24.234  27.890  1.00  0.00    -0.237 OA
ATOM     68  O   UNL A   1      51.477  24.994  26.239  1.00  0.00    -0.237 OA
ATOM     69  O   UNL A   1      50.804  26.473  28.096  1.00  0.00    -0.744 OA
ENDBRANCH  62  66
ENDBRANCH  45  59
BRANCH  46  70
ATOM     70  C   UNL A   1      38.851  30.361  30.985  1.00  0.00     0.023 A 
ATOM     71  C   UNL A   1      37.777  31.052  30.406  1.00  0.00     0.031 A 
ATOM     72  C   UNL A   1      38.798  30.090  32.366  1.00  0.00     0.131 A 
ATOM     73  C   UNL A   1      36.706  31.478  31.210  1.00  0.00     0.055 A 
ATOM     74  C   UNL A   1      37.710  30.474  33.150  1.00  0.00     0.041 A 
ATOM     75  F   UNL A   1      39.797  29.423  32.965  1.00  0.00    -0.206 F 
ATOM     76  C   UNL A   1      36.660  31.182  32.575  1.00  0.00     0.022 A 
BRANCH  73  77
ATOM     77  S   UNL A   1      35.395  32.478  30.455  1.00  0.00     0.124 S 
ATOM     78  O   UNL A   1      36.089  33.733  30.194  1.00  0.00    -0.237 OA
ATOM     79  O   UNL A   1      35.044  31.683  29.282  1.00  0.00    -0.237 OA
ATOM     80  O   UNL A   1      34.369  32.535  31.494  1.00  0.00    -0.744 OA
ENDBRANCH  73  77
ENDBRANCH  46  70
BRANCH  58  81
ATOM     81  C   UNL A   1      45.084  33.208  29.647  1.00  0.00     0.023 A 
ATOM     82  C   UNL A   1      44.910  34.339  28.829  1.00  0.00     0.031 A 
ATOM     83  C   UNL A   1      45.856  33.349  30.814  1.00  0.00     0.131 A 
ATOM     84  C   UNL A   1      45.549  35.544  29.158  1.00  0.00     0.055 A 
ATOM     85  C   UNL A   1      46.437  34.567  31.169  1.00  0.00     0.041 A 
ATOM     86  F   UNL A   1      46.059  32.302  31.630  1.00  0.00    -0.206 F 
ATOM     87  C   UNL A   1      46.297  35.670  30.332  1.00  0.00     0.022 A 
BRANCH  84  88
ATOM     88  S   UNL A   1      45.473  36.921  27.979  1.00  0.00     0.124 S 
ATOM     89  O   UNL A   1      44.408  36.491  27.079  1.00  0.00    -0.237 OA
ATOM     90  O   UNL A   1      45.161  38.055  28.842  1.00  0.00    -0.237 OA
ATOM     91  O   UNL A   1      46.811  36.941  27.390  1.00  0.00    -0.744 OA
ENDBRANCH  84  88
ENDBRANCH  58  81
ENDBRANCH  32  33
ENDBRANCH  24  27
ENDBRANCH  22  23
ENDBRANCH   1  22
TORSDOF 16
ENDMDL
