MODEL 1
REMARK VINA RESULT:     -11.7      0.000      0.000
REMARK SMILES CC(C)(C)OC(=O)N1CCC[C@](Cc2ccccc2)(C(=O)NCCCNC(=O)c2ccc(-c3c4nc(c(-c5cc(S(=O)(=O)[O-])ccc5F)c5ccc([nH]5)c(-c5cc(S(=O)(=O)[O-])ccc5F)c5nc(c(-c6cc(S(=O)(=O)[O-])ccc6F)c6ccc3[nH]6)C=C5)C=C4)cc2)C1
REMARK SMILES IDX 24 1 23 2 22 3 20 4 21 5 12 7 8 8 9 9 92 10 10 11 11 12 6 13
REMARK SMILES IDX 7 14 5 15 2 16 1 17 3 18 4 19 13 20 14 21 15 22 19 23 16 24
REMARK SMILES IDX 18 25 17 26 25 27 26 28 27 29 28 31 29 32 30 33 91 34 31 35
REMARK SMILES IDX 90 36 32 37 33 38 34 39 84 40 35 41 89 42 83 43 85 44 36 45
REMARK SMILES IDX 88 46 82 47 81 48 37 50 69 51 49 52 68 53 50 54 53 55 67 56
REMARK SMILES IDX 86 57 51 58 52 59 66 61 87 62 54 63 38 64 39 65 47 66 40 67
REMARK SMILES IDX 46 68 48 69 45 70 41 71 42 72 43 73 44 74 70 75 71 76 79 77
REMARK SMILES IDX 72 78 78 79 80 80 77 81 73 82 74 83 75 84 76 85 55 86 56 87
REMARK SMILES IDX 64 88 57 89 63 90 65 91 62 92 58 93 59 94 60 95 61 96
REMARK H PARENT 22 6 26 30 85 49 53 60
REMARK Flexibility Score: inf
ROOT
ATOM      1  C   UNL A   1      32.876  27.394  25.529  1.00  0.00     0.042 C 
ENDROOT
BRANCH   1   2
ATOM      2  C   UNL A   1      33.765  26.162  25.555  1.00  0.00     0.117 C 
BRANCH   2   3
ATOM      3  N   UNL A   1      33.881  25.513  24.269  1.00  0.00    -0.355 N 
ATOM      4  C   UNL A   1      34.422  24.324  23.896  1.00  0.00     0.228 C 
ATOM      5  O   UNL A   1      34.198  24.006  22.721  1.00  0.00    -0.274 OA
ATOM      6  H   UNL A   1      33.494  26.028  23.524  1.00  0.00     0.163 HD
BRANCH   4   7
ATOM      7  C   UNL A   1      35.231  23.387  24.847  1.00  0.00     0.071 C 
ATOM      8  N   UNL A   1      33.935  21.268  25.319  1.00  0.00    -0.307 N 
ATOM      9  C   UNL A   1      34.162  21.364  26.746  1.00  0.00     0.123 C 
ATOM     10  C   UNL A   1      34.917  21.910  24.461  1.00  0.00     0.140 C 
ATOM     11  C   UNL A   1      34.190  22.798  27.225  1.00  0.00     0.023 C 
ATOM     12  C   UNL A   1      34.982  23.763  26.340  1.00  0.00     0.021 C 
BRANCH   8  13
ATOM     13  C   UNL A   1      32.840  20.561  24.855  1.00  0.00     0.410 C 
ATOM     14  O   UNL A   1      31.712  20.745  25.293  1.00  0.00    -0.224 OA
BRANCH  13  15
ATOM     15  O   UNL A   1      33.172  19.633  23.924  1.00  0.00    -0.444 OA
BRANCH  15  16
ATOM     16  C   UNL A   1      33.398  18.235  24.271  1.00  0.00     0.106 C 
ATOM     17  C   UNL A   1      34.917  18.108  24.472  1.00  0.00     0.056 C 
ATOM     18  C   UNL A   1      32.967  17.383  23.076  1.00  0.00     0.056 C 
ATOM     19  C   UNL A   1      32.721  17.743  25.561  1.00  0.00     0.056 C 
ENDBRANCH  15  16
ENDBRANCH  13  15
ENDBRANCH   8  13
BRANCH   7  20
ATOM     20  C   UNL A   1      36.746  23.706  24.481  1.00  0.00     0.054 C 
BRANCH  20  21
ATOM     21  C   UNL A   1      37.815  23.348  25.497  1.00  0.00    -0.047 A 
ATOM     22  C   UNL A   1      38.325  22.042  25.557  1.00  0.00     0.004 A 
ATOM     23  C   UNL A   1      38.326  24.306  26.379  1.00  0.00     0.004 A 
ATOM     24  C   UNL A   1      39.389  21.729  26.404  1.00  0.00     0.000 A 
ATOM     25  C   UNL A   1      39.391  23.994  27.226  1.00  0.00     0.000 A 
ATOM     26  C   UNL A   1      39.934  22.711  27.225  1.00  0.00     0.000 A 
ENDBRANCH  20  21
ENDBRANCH   7  20
ENDBRANCH   4   7
ENDBRANCH   2   3
ENDBRANCH   1   2
BRANCH   1  27
ATOM     27  C   UNL A   1      33.654  28.672  25.279  1.00  0.00     0.118 C 
BRANCH  27  28
ATOM     28  N   UNL A   1      32.970  29.843  25.820  1.00  0.00    -0.352 N 
ATOM     29  C   UNL A   1      33.304  30.678  26.858  1.00  0.00     0.251 C 
ATOM     30  H   UNL A   1      32.129  30.074  25.364  1.00  0.00     0.163 HD
ATOM     31  O   UNL A   1      32.479  31.496  27.258  1.00  0.00    -0.269 OA
BRANCH  29  32
ATOM     32  C   UNL A   1      34.628  30.581  27.509  1.00  0.00     0.039 A 
ATOM     33  C   UNL A   1      35.428  31.724  27.597  1.00  0.00     0.014 A 
ATOM     34  C   UNL A   1      35.091  29.368  28.019  1.00  0.00     0.014 A 
ATOM     35  C   UNL A   1      36.659  31.660  28.255  1.00  0.00     0.010 A 
ATOM     36  C   UNL A   1      36.256  29.333  28.774  1.00  0.00     0.010 A 
ATOM     37  C   UNL A   1      37.064  30.473  28.883  1.00  0.00    -0.014 A 
BRANCH  37  38
ATOM     38  C   UNL A   1      38.349  30.376  29.621  1.00  0.00     0.031 A 
ATOM     39  C   UNL A   1      39.480  29.571  29.037  1.00  0.00     0.074 A 
ATOM     40  C   UNL A   1      38.464  30.935  30.841  1.00  0.00     0.049 A 
ATOM     41  N   UNL A   1      40.630  29.247  29.569  1.00  0.00    -0.248 NA
ATOM     42  C   UNL A   1      39.265  29.015  27.691  1.00  0.00     0.031 C 
ATOM     43  C   UNL A   1      37.417  31.693  31.529  1.00  0.00     0.029 A 
ATOM     44  N   UNL A   1      39.512  30.943  31.727  1.00  0.00    -0.354 N 
ATOM     45  C   UNL A   1      41.258  28.425  28.638  1.00  0.00     0.074 A 
ATOM     46  C   UNL A   1      40.330  28.243  27.544  1.00  0.00     0.031 C 
ATOM     47  C   UNL A   1      37.883  32.115  32.715  1.00  0.00     0.029 A 
ATOM     48  C   UNL A   1      39.244  31.619  32.895  1.00  0.00     0.049 A 
ATOM     49  H   UNL A   1      40.375  30.507  31.544  1.00  0.00     0.167 HD
ATOM     50  C   UNL A   1      42.506  27.894  28.681  1.00  0.00     0.034 A 
ATOM     51  C   UNL A   1      40.005  31.807  33.990  1.00  0.00     0.034 A 
ATOM     52  C   UNL A   1      43.426  28.122  29.766  1.00  0.00     0.049 A 
ATOM     53  C   UNL A   1      41.394  31.223  34.010  1.00  0.00     0.074 A 
ATOM     54  C   UNL A   1      44.737  27.698  29.890  1.00  0.00     0.029 A 
ATOM     55  N   UNL A   1      43.130  28.840  30.918  1.00  0.00    -0.354 N 
ATOM     56  N   UNL A   1      41.995  30.489  33.100  1.00  0.00    -0.248 NA
ATOM     57  C   UNL A   1      42.214  31.505  35.194  1.00  0.00     0.031 C 
ATOM     58  C   UNL A   1      45.213  28.107  31.140  1.00  0.00     0.029 A 
ATOM     59  C   UNL A   1      44.226  28.851  31.768  1.00  0.00     0.049 A 
ATOM     60  H   UNL A   1      42.269  29.278  31.104  1.00  0.00     0.167 HD
ATOM     61  C   UNL A   1      43.273  30.244  33.594  1.00  0.00     0.074 A 
ATOM     62  C   UNL A   1      43.360  30.923  34.871  1.00  0.00     0.031 C 
ATOM     63  C   UNL A   1      44.286  29.528  33.042  1.00  0.00     0.034 A 
BRANCH  50  64
ATOM     64  C   UNL A   1      42.923  27.007  27.530  1.00  0.00     0.023 A 
ATOM     65  C   UNL A   1      42.963  25.605  27.650  1.00  0.00     0.031 A 
ATOM     66  C   UNL A   1      43.330  27.571  26.307  1.00  0.00     0.131 A 
ATOM     67  C   UNL A   1      43.482  24.825  26.606  1.00  0.00     0.055 A 
ATOM     68  C   UNL A   1      43.762  26.781  25.239  1.00  0.00     0.041 A 
ATOM     69  F   UNL A   1      43.335  28.902  26.135  1.00  0.00    -0.206 F 
ATOM     70  C   UNL A   1      43.858  25.401  25.391  1.00  0.00     0.022 A 
BRANCH  67  71
ATOM     71  S   UNL A   1      43.809  23.068  26.921  1.00  0.00     0.124 S 
ATOM     72  O   UNL A   1      43.123  22.436  25.796  1.00  0.00    -0.237 OA
ATOM     73  O   UNL A   1      45.265  23.008  26.896  1.00  0.00    -0.237 OA
ATOM     74  O   UNL A   1      43.195  22.834  28.227  1.00  0.00    -0.744 OA
ENDBRANCH  67  71
ENDBRANCH  50  64
BRANCH  51  75
ATOM     75  C   UNL A   1      39.479  32.575  35.153  1.00  0.00     0.023 A 
ATOM     76  C   UNL A   1      38.835  31.924  36.217  1.00  0.00     0.031 A 
ATOM     77  C   UNL A   1      39.589  33.976  35.209  1.00  0.00     0.131 A 
ATOM     78  C   UNL A   1      38.286  32.675  37.270  1.00  0.00     0.055 A 
ATOM     79  C   UNL A   1      39.086  34.714  36.282  1.00  0.00     0.041 A 
ATOM     80  F   UNL A   1      40.203  34.648  34.222  1.00  0.00    -0.206 F 
ATOM     81  C   UNL A   1      38.419  34.064  37.315  1.00  0.00     0.022 A 
BRANCH  78  82
ATOM     82  S   UNL A   1      37.326  31.812  38.545  1.00  0.00     0.124 S 
ATOM     83  O   UNL A   1      36.129  32.640  38.627  1.00  0.00    -0.237 OA
ATOM     84  O   UNL A   1      37.154  30.491  37.949  1.00  0.00    -0.237 OA
ATOM     85  O   UNL A   1      38.199  31.857  39.715  1.00  0.00    -0.744 OA
ENDBRANCH  78  82
ENDBRANCH  51  75
BRANCH  63  86
ATOM     86  C   UNL A   1      45.585  29.484  33.805  1.00  0.00     0.023 A 
ATOM     87  C   UNL A   1      45.856  28.475  34.744  1.00  0.00     0.031 A 
ATOM     88  C   UNL A   1      46.559  30.476  33.594  1.00  0.00     0.131 A 
ATOM     89  C   UNL A   1      47.051  28.510  35.479  1.00  0.00     0.055 A 
ATOM     90  C   UNL A   1      47.772  30.471  34.285  1.00  0.00     0.041 A 
ATOM     91  F   UNL A   1      46.350  31.463  32.709  1.00  0.00    -0.206 F 
ATOM     92  C   UNL A   1      48.017  29.492  35.243  1.00  0.00     0.022 A 
BRANCH  89  93
ATOM     93  S   UNL A   1      47.286  27.306  36.815  1.00  0.00     0.124 S 
ATOM     94  O   UNL A   1      48.722  27.398  37.057  1.00  0.00    -0.237 OA
ATOM     95  O   UNL A   1      46.428  27.837  37.868  1.00  0.00    -0.237 OA
ATOM     96  O   UNL A   1      46.836  26.047  36.225  1.00  0.00    -0.744 OA
ENDBRANCH  89  93
ENDBRANCH  63  86
ENDBRANCH  37  38
ENDBRANCH  29  32
ENDBRANCH  27  28
ENDBRANCH   1  27
TORSDOF 18
ENDMDL
MODEL 2
REMARK VINA RESULT:     -11.7      2.628      8.276
REMARK SMILES CC(C)(C)OC(=O)N1CCC[C@](Cc2ccccc2)(C(=O)NCCCNC(=O)c2ccc(-c3c4nc(c(-c5cc(S(=O)(=O)[O-])ccc5F)c5ccc([nH]5)c(-c5cc(S(=O)(=O)[O-])ccc5F)c5nc(c(-c6cc(S(=O)(=O)[O-])ccc6F)c6ccc3[nH]6)C=C5)C=C4)cc2)C1
REMARK SMILES IDX 24 1 23 2 22 3 20 4 21 5 12 7 8 8 9 9 92 10 10 11 11 12 6 13
REMARK SMILES IDX 7 14 5 15 2 16 1 17 3 18 4 19 13 20 14 21 15 22 19 23 16 24
REMARK SMILES IDX 18 25 17 26 25 27 26 28 27 29 28 31 29 32 30 33 91 34 31 35
REMARK SMILES IDX 90 36 32 37 33 38 34 39 84 40 35 41 89 42 83 43 85 44 36 45
REMARK SMILES IDX 88 46 82 47 81 48 37 50 69 51 49 52 68 53 50 54 53 55 67 56
REMARK SMILES IDX 86 57 51 58 52 59 66 61 87 62 54 63 38 64 39 65 47 66 40 67
REMARK SMILES IDX 46 68 48 69 45 70 41 71 42 72 43 73 44 74 70 75 71 76 79 77
REMARK SMILES IDX 72 78 78 79 80 80 77 81 73 82 74 83 75 84 76 85 55 86 56 87
REMARK SMILES IDX 64 88 57 89 63 90 65 91 62 92 58 93 59 94 60 95 61 96
REMARK H PARENT 22 6 26 30 85 49 53 60
REMARK Flexibility Score: inf
ROOT
ATOM      1  C   UNL A   1      33.083  28.867  27.559  1.00  0.00     0.042 C 
ENDROOT
BRANCH   1   2
ATOM      2  C   UNL A   1      33.026  27.548  26.806  1.00  0.00     0.117 C 
BRANCH   2   3
ATOM      3  N   UNL A   1      31.712  26.947  26.803  1.00  0.00    -0.355 N 
ATOM      4  C   UNL A   1      31.236  25.805  26.242  1.00  0.00     0.228 C 
ATOM      5  O   UNL A   1      30.082  25.511  26.581  1.00  0.00    -0.274 OA
ATOM      6  H   UNL A   1      31.035  27.461  27.301  1.00  0.00     0.163 HD
BRANCH   4   7
ATOM      7  C   UNL A   1      32.052  24.889  25.277  1.00  0.00     0.071 C 
ATOM      8  N   UNL A   1      32.267  25.967  23.000  1.00  0.00    -0.307 N 
ATOM      9  C   UNL A   1      31.871  24.756  22.312  1.00  0.00     0.123 C 
ATOM     10  C   UNL A   1      32.869  25.801  24.313  1.00  0.00     0.140 C 
ATOM     11  C   UNL A   1      30.845  23.965  23.092  1.00  0.00     0.023 C 
ATOM     12  C   UNL A   1      31.124  23.840  24.591  1.00  0.00     0.021 C 
BRANCH   8  13
ATOM     13  C   UNL A   1      32.086  27.188  22.376  1.00  0.00     0.410 C 
ATOM     14  O   UNL A   1      33.018  27.951  22.155  1.00  0.00    -0.224 OA
BRANCH  13  15
ATOM     15  O   UNL A   1      30.785  27.449  22.100  1.00  0.00    -0.444 OA
BRANCH  15  16
ATOM     16  C   UNL A   1      29.946  28.235  22.997  1.00  0.00     0.106 C 
ATOM     17  C   UNL A   1      28.926  27.241  23.575  1.00  0.00     0.056 C 
ATOM     18  C   UNL A   1      29.218  29.284  22.155  1.00  0.00     0.056 C 
ATOM     19  C   UNL A   1      30.664  28.897  24.185  1.00  0.00     0.056 C 
ENDBRANCH  15  16
ENDBRANCH  13  15
ENDBRANCH   8  13
BRANCH   7  20
ATOM     20  C   UNL A   1      33.058  24.130  26.248  1.00  0.00     0.054 C 
BRANCH  20  21
ATOM     21  C   UNL A   1      34.307  23.517  25.643  1.00  0.00    -0.047 A 
ATOM     22  C   UNL A   1      34.251  22.255  25.031  1.00  0.00     0.004 A 
ATOM     23  C   UNL A   1      35.531  24.194  25.665  1.00  0.00     0.004 A 
ATOM     24  C   UNL A   1      35.362  21.732  24.369  1.00  0.00     0.000 A 
ATOM     25  C   UNL A   1      36.642  23.673  25.002  1.00  0.00     0.000 A 
ATOM     26  C   UNL A   1      36.552  22.451  24.339  1.00  0.00     0.000 A 
ENDBRANCH  20  21
ENDBRANCH   7  20
ENDBRANCH   4   7
ENDBRANCH   2   3
ENDBRANCH   1   2
BRANCH   1  27
ATOM     27  C   UNL A   1      33.725  29.976  26.749  1.00  0.00     0.118 C 
BRANCH  27  28
ATOM     28  N   UNL A   1      33.677  31.259  27.444  1.00  0.00    -0.352 N 
ATOM     29  C   UNL A   1      34.485  31.780  28.425  1.00  0.00     0.251 C 
ATOM     30  H   UNL A   1      32.943  31.851  27.163  1.00  0.00     0.163 HD
ATOM     31  O   UNL A   1      34.144  32.812  28.998  1.00  0.00    -0.269 OA
BRANCH  29  32
ATOM     32  C   UNL A   1      35.739  31.098  28.810  1.00  0.00     0.039 A 
ATOM     33  C   UNL A   1      36.954  31.574  28.308  1.00  0.00     0.014 A 
ATOM     34  C   UNL A   1      35.724  29.985  29.651  1.00  0.00     0.014 A 
ATOM     35  C   UNL A   1      38.152  30.973  28.704  1.00  0.00     0.010 A 
ATOM     36  C   UNL A   1      36.916  29.465  30.136  1.00  0.00     0.010 A 
ATOM     37  C   UNL A   1      38.143  29.939  29.652  1.00  0.00    -0.014 A 
BRANCH  37  38
ATOM     38  C   UNL A   1      39.398  29.298  30.123  1.00  0.00     0.031 A 
ATOM     39  C   UNL A   1      40.120  29.870  31.315  1.00  0.00     0.074 A 
ATOM     40  C   UNL A   1      39.923  28.267  29.433  1.00  0.00     0.049 A 
ATOM     41  N   UNL A   1      41.288  29.552  31.809  1.00  0.00    -0.248 NA
ATOM     42  C   UNL A   1      39.458  30.983  32.013  1.00  0.00     0.031 C 
ATOM     43  C   UNL A   1      39.339  27.664  28.232  1.00  0.00     0.029 A 
ATOM     44  N   UNL A   1      41.075  27.549  29.633  1.00  0.00    -0.354 N 
ATOM     45  C   UNL A   1      41.513  30.446  32.852  1.00  0.00     0.074 A 
ATOM     46  C   UNL A   1      40.394  31.361  32.869  1.00  0.00     0.031 C 
ATOM     47  C   UNL A   1      40.120  26.653  27.821  1.00  0.00     0.029 A 
ATOM     48  C   UNL A   1      41.284  26.564  28.697  1.00  0.00     0.049 A 
ATOM     49  H   UNL A   1      41.694  27.723  30.379  1.00  0.00     0.167 HD
ATOM     50  C   UNL A   1      42.545  30.481  33.731  1.00  0.00     0.034 A 
ATOM     51  C   UNL A   1      42.303  25.695  28.554  1.00  0.00     0.034 A 
ATOM     52  C   UNL A   1      43.630  29.532  33.716  1.00  0.00     0.049 A 
ATOM     53  C   UNL A   1      43.432  25.740  29.552  1.00  0.00     0.074 A 
ATOM     54  C   UNL A   1      44.693  29.422  34.595  1.00  0.00     0.029 A 
ATOM     55  N   UNL A   1      43.790  28.526  32.771  1.00  0.00    -0.354 N 
ATOM     56  N   UNL A   1      43.607  26.560  30.565  1.00  0.00    -0.248 NA
ATOM     57  C   UNL A   1      44.491  24.736  29.400  1.00  0.00     0.031 C 
ATOM     58  C   UNL A   1      45.526  28.390  34.148  1.00  0.00     0.029 A 
ATOM     59  C   UNL A   1      44.946  27.806  33.032  1.00  0.00     0.049 A 
ATOM     60  H   UNL A   1      43.173  28.349  32.026  1.00  0.00     0.167 HD
ATOM     61  C   UNL A   1      44.784  26.150  31.185  1.00  0.00     0.074 A 
ATOM     62  C   UNL A   1      45.265  25.002  30.442  1.00  0.00     0.031 C 
ATOM     63  C   UNL A   1      45.411  26.671  32.271  1.00  0.00     0.034 A 
BRANCH  50  64
ATOM     64  C   UNL A   1      42.546  31.590  34.758  1.00  0.00     0.023 A 
ATOM     65  C   UNL A   1      41.673  31.582  35.861  1.00  0.00     0.031 A 
ATOM     66  C   UNL A   1      43.404  32.696  34.610  1.00  0.00     0.131 A 
ATOM     67  C   UNL A   1      41.611  32.691  36.717  1.00  0.00     0.055 A 
ATOM     68  C   UNL A   1      43.399  33.758  35.518  1.00  0.00     0.041 A 
ATOM     69  F   UNL A   1      44.246  32.775  33.568  1.00  0.00    -0.206 F 
ATOM     70  C   UNL A   1      42.487  33.768  36.568  1.00  0.00     0.022 A 
BRANCH  67  71
ATOM     71  S   UNL A   1      40.261  32.775  37.926  1.00  0.00     0.124 S 
ATOM     72  O   UNL A   1      39.878  34.183  37.842  1.00  0.00    -0.237 OA
ATOM     73  O   UNL A   1      39.299  31.819  37.393  1.00  0.00    -0.237 OA
ATOM     74  O   UNL A   1      40.901  32.386  39.182  1.00  0.00    -0.744 OA
ENDBRANCH  67  71
ENDBRANCH  50  64
BRANCH  51  75
ATOM     75  C   UNL A   1      42.310  24.716  27.432  1.00  0.00     0.023 A 
ATOM     76  C   UNL A   1      41.534  23.547  27.487  1.00  0.00     0.031 A 
ATOM     77  C   UNL A   1      43.112  24.919  26.295  1.00  0.00     0.131 A 
ATOM     78  C   UNL A   1      41.610  22.605  26.448  1.00  0.00     0.055 A 
ATOM     79  C   UNL A   1      43.146  24.004  25.241  1.00  0.00     0.041 A 
ATOM     80  F   UNL A   1      43.867  26.024  26.186  1.00  0.00    -0.206 F 
ATOM     81  C   UNL A   1      42.400  22.832  25.320  1.00  0.00     0.022 A 
BRANCH  78  82
ATOM     82  S   UNL A   1      40.714  21.038  26.630  1.00  0.00     0.124 S 
ATOM     83  O   UNL A   1      40.754  20.838  28.073  1.00  0.00    -0.237 OA
ATOM     84  O   UNL A   1      39.410  21.368  26.063  1.00  0.00    -0.237 OA
ATOM     85  O   UNL A   1      41.512  20.098  25.846  1.00  0.00    -0.744 OA
ENDBRANCH  78  82
ENDBRANCH  51  75
BRANCH  63  86
ATOM     86  C   UNL A   1      46.660  25.969  32.738  1.00  0.00     0.023 A 
ATOM     87  C   UNL A   1      46.612  24.917  33.668  1.00  0.00     0.031 A 
ATOM     88  C   UNL A   1      47.917  26.368  32.250  1.00  0.00     0.131 A 
ATOM     89  C   UNL A   1      47.805  24.335  34.124  1.00  0.00     0.055 A 
ATOM     90  C   UNL A   1      49.096  25.744  32.661  1.00  0.00     0.041 A 
ATOM     91  F   UNL A   1      48.019  27.368  31.360  1.00  0.00    -0.206 F 
ATOM     92  C   UNL A   1      49.044  24.731  33.614  1.00  0.00     0.022 A 
BRANCH  89  93
ATOM     93  S   UNL A   1      47.721  23.114  35.463  1.00  0.00     0.124 S 
ATOM     94  O   UNL A   1      48.407  21.970  34.874  1.00  0.00    -0.237 OA
ATOM     95  O   UNL A   1      48.426  23.792  36.546  1.00  0.00    -0.237 OA
ATOM     96  O   UNL A   1      46.286  22.936  35.675  1.00  0.00    -0.744 OA
ENDBRANCH  89  93
ENDBRANCH  63  86
ENDBRANCH  37  38
ENDBRANCH  29  32
ENDBRANCH  27  28
ENDBRANCH   1  27
TORSDOF 18
ENDMDL
MODEL 3
REMARK VINA RESULT:     -11.6      1.684      3.247
REMARK SMILES CC(C)(C)OC(=O)N1CCC[C@](Cc2ccccc2)(C(=O)NCCCNC(=O)c2ccc(-c3c4nc(c(-c5cc(S(=O)(=O)[O-])ccc5F)c5ccc([nH]5)c(-c5cc(S(=O)(=O)[O-])ccc5F)c5nc(c(-c6cc(S(=O)(=O)[O-])ccc6F)c6ccc3[nH]6)C=C5)C=C4)cc2)C1
REMARK SMILES IDX 24 1 23 2 22 3 20 4 21 5 12 7 8 8 9 9 92 10 10 11 11 12 6 13
REMARK SMILES IDX 7 14 5 15 2 16 1 17 3 18 4 19 13 20 14 21 15 22 19 23 16 24
REMARK SMILES IDX 18 25 17 26 25 27 26 28 27 29 28 31 29 32 30 33 91 34 31 35
REMARK SMILES IDX 90 36 32 37 33 38 34 39 84 40 35 41 89 42 83 43 85 44 36 45
REMARK SMILES IDX 88 46 82 47 81 48 37 50 69 51 49 52 68 53 50 54 53 55 67 56
REMARK SMILES IDX 86 57 51 58 52 59 66 61 87 62 54 63 38 64 39 65 47 66 40 67
REMARK SMILES IDX 46 68 48 69 45 70 41 71 42 72 43 73 44 74 70 75 71 76 79 77
REMARK SMILES IDX 72 78 78 79 80 80 77 81 73 82 74 83 75 84 76 85 55 86 56 87
REMARK SMILES IDX 64 88 57 89 63 90 65 91 62 92 58 93 59 94 60 95 61 96
REMARK H PARENT 22 6 26 30 85 49 53 60
REMARK Flexibility Score: inf
ROOT
ATOM      1  C   UNL A   1      31.799  28.173  26.298  1.00  0.00     0.042 C 
ENDROOT
BRANCH   1   2
ATOM      2  C   UNL A   1      32.365  26.763  26.276  1.00  0.00     0.117 C 
BRANCH   2   3
ATOM      3  N   UNL A   1      31.396  25.752  26.631  1.00  0.00    -0.355 N 
ATOM      4  C   UNL A   1      31.045  24.581  26.038  1.00  0.00     0.228 C 
ATOM      5  O   UNL A   1      30.283  23.875  26.711  1.00  0.00    -0.274 OA
ATOM      6  H   UNL A   1      30.897  25.947  27.457  1.00  0.00     0.163 HD
BRANCH   4   7
ATOM      7  C   UNL A   1      31.567  24.106  24.645  1.00  0.00     0.071 C 
ATOM      8  N   UNL A   1      32.890  21.964  24.876  1.00  0.00    -0.307 N 
ATOM      9  C   UNL A   1      33.983  22.470  24.072  1.00  0.00     0.123 C 
ATOM     10  C   UNL A   1      31.581  22.549  24.634  1.00  0.00     0.140 C 
ATOM     11  C   UNL A   1      34.198  23.954  24.269  1.00  0.00     0.023 C 
ATOM     12  C   UNL A   1      32.921  24.798  24.296  1.00  0.00     0.021 C 
BRANCH   8  13
ATOM     13  C   UNL A   1      33.134  20.954  25.789  1.00  0.00     0.410 C 
ATOM     14  O   UNL A   1      33.946  21.077  26.696  1.00  0.00    -0.224 OA
BRANCH  13  15
ATOM     15  O   UNL A   1      32.423  19.829  25.528  1.00  0.00    -0.444 OA
BRANCH  15  16
ATOM     16  C   UNL A   1      32.926  18.783  24.646  1.00  0.00     0.106 C 
ATOM     17  C   UNL A   1      32.481  17.460  25.290  1.00  0.00     0.056 C 
ATOM     18  C   UNL A   1      34.454  18.865  24.649  1.00  0.00     0.056 C 
ATOM     19  C   UNL A   1      32.386  18.796  23.206  1.00  0.00     0.056 C 
ENDBRANCH  15  16
ENDBRANCH  13  15
ENDBRANCH   8  13
BRANCH   7  20
ATOM     20  C   UNL A   1      30.451  24.622  23.636  1.00  0.00     0.054 C 
BRANCH  20  21
ATOM     21  C   UNL A   1      30.422  26.101  23.300  1.00  0.00    -0.047 A 
ATOM     22  C   UNL A   1      29.353  26.904  23.730  1.00  0.00     0.004 A 
ATOM     23  C   UNL A   1      31.456  26.700  22.573  1.00  0.00     0.004 A 
ATOM     24  C   UNL A   1      29.371  28.284  23.530  1.00  0.00     0.000 A 
ATOM     25  C   UNL A   1      31.476  28.081  22.374  1.00  0.00     0.000 A 
ATOM     26  C   UNL A   1      30.443  28.874  22.868  1.00  0.00     0.000 A 
ENDBRANCH  20  21
ENDBRANCH   7  20
ENDBRANCH   4   7
ENDBRANCH   2   3
ENDBRANCH   1   2
BRANCH   1  27
ATOM     27  C   UNL A   1      32.736  29.191  25.678  1.00  0.00     0.118 C 
BRANCH  27  28
ATOM     28  N   UNL A   1      32.354  30.560  26.011  1.00  0.00    -0.352 N 
ATOM     29  C   UNL A   1      32.891  31.450  26.909  1.00  0.00     0.251 C 
ATOM     30  H   UNL A   1      31.583  30.905  25.506  1.00  0.00     0.163 HD
ATOM     31  O   UNL A   1      32.287  32.491  27.155  1.00  0.00    -0.269 OA
BRANCH  29  32
ATOM     32  C   UNL A   1      34.167  31.152  27.595  1.00  0.00     0.039 A 
ATOM     33  C   UNL A   1      35.076  32.189  27.820  1.00  0.00     0.014 A 
ATOM     34  C   UNL A   1      34.478  29.855  28.003  1.00  0.00     0.014 A 
ATOM     35  C   UNL A   1      36.262  31.934  28.512  1.00  0.00     0.010 A 
ATOM     36  C   UNL A   1      35.596  29.627  28.793  1.00  0.00     0.010 A 
ATOM     37  C   UNL A   1      36.512  30.658  29.039  1.00  0.00    -0.014 A 
BRANCH  37  38
ATOM     38  C   UNL A   1      37.746  30.357  29.810  1.00  0.00     0.031 A 
ATOM     39  C   UNL A   1      38.794  29.456  29.210  1.00  0.00     0.074 A 
ATOM     40  C   UNL A   1      37.878  30.820  31.069  1.00  0.00     0.049 A 
ATOM     41  N   UNL A   1      39.873  28.959  29.757  1.00  0.00    -0.248 NA
ATOM     42  C   UNL A   1      38.567  29.016  27.824  1.00  0.00     0.031 C 
ATOM     43  C   UNL A   1      36.903  31.656  31.771  1.00  0.00     0.029 A 
ATOM     44  N   UNL A   1      38.882  30.642  31.987  1.00  0.00    -0.354 N 
ATOM     45  C   UNL A   1      40.434  28.126  28.794  1.00  0.00     0.074 A 
ATOM     46  C   UNL A   1      39.536  28.130  27.660  1.00  0.00     0.031 C 
ATOM     47  C   UNL A   1      37.369  31.942  32.998  1.00  0.00     0.029 A 
ATOM     48  C   UNL A   1      38.651  31.272  33.188  1.00  0.00     0.049 A 
ATOM     49  H   UNL A   1      39.693  30.115  31.803  1.00  0.00     0.167 HD
ATOM     50  C   UNL A   1      41.605  27.443  28.841  1.00  0.00     0.034 A 
ATOM     51  C   UNL A   1      39.384  31.295  34.317  1.00  0.00     0.034 A 
ATOM     52  C   UNL A   1      42.502  27.487  29.969  1.00  0.00     0.049 A 
ATOM     53  C   UNL A   1      40.691  30.543  34.343  1.00  0.00     0.074 A 
ATOM     54  C   UNL A   1      43.745  26.897  30.107  1.00  0.00     0.029 A 
ATOM     55  N   UNL A   1      42.248  28.163  31.157  1.00  0.00    -0.354 N 
ATOM     56  N   UNL A   1      41.234  29.799  33.406  1.00  0.00    -0.248 NA
ATOM     57  C   UNL A   1      41.490  30.646  35.570  1.00  0.00     0.031 C 
ATOM     58  C   UNL A   1      44.216  27.165  31.397  1.00  0.00     0.029 A 
ATOM     59  C   UNL A   1      43.302  27.985  32.040  1.00  0.00     0.049 A 
ATOM     60  H   UNL A   1      41.440  28.691  31.343  1.00  0.00     0.167 HD
ATOM     61  C   UNL A   1      42.452  29.368  33.923  1.00  0.00     0.074 A 
ATOM     62  C   UNL A   1      42.569  29.949  35.246  1.00  0.00     0.031 C 
ATOM     63  C   UNL A   1      43.392  28.567  33.358  1.00  0.00     0.034 A 
BRANCH  50  64
ATOM     64  C   UNL A   1      41.958  26.585  27.648  1.00  0.00     0.023 A 
ATOM     65  C   UNL A   1      41.616  25.221  27.587  1.00  0.00     0.031 A 
ATOM     66  C   UNL A   1      42.686  27.126  26.572  1.00  0.00     0.131 A 
ATOM     67  C   UNL A   1      42.077  24.428  26.526  1.00  0.00     0.055 A 
ATOM     68  C   UNL A   1      43.065  26.350  25.474  1.00  0.00     0.041 A 
ATOM     69  F   UNL A   1      43.061  28.415  26.579  1.00  0.00    -0.206 F 
ATOM     70  C   UNL A   1      42.777  24.988  25.456  1.00  0.00     0.022 A 
BRANCH  67  71
ATOM     71  S   UNL A   1      41.886  22.628  26.646  1.00  0.00     0.124 S 
ATOM     72  O   UNL A   1      42.833  22.302  27.711  1.00  0.00    -0.237 OA
ATOM     73  O   UNL A   1      40.475  22.481  26.980  1.00  0.00    -0.237 OA
ATOM     74  O   UNL A   1      42.268  22.153  25.317  1.00  0.00    -0.744 OA
ENDBRANCH  67  71
ENDBRANCH  50  64
BRANCH  51  75
ATOM     75  C   UNL A   1      38.908  32.048  35.512  1.00  0.00     0.023 A 
ATOM     76  C   UNL A   1      38.322  31.381  36.600  1.00  0.00     0.031 A 
ATOM     77  C   UNL A   1      39.009  33.449  35.576  1.00  0.00     0.131 A 
ATOM     78  C   UNL A   1      37.819  32.118  37.684  1.00  0.00     0.055 A 
ATOM     79  C   UNL A   1      38.552  34.173  36.679  1.00  0.00     0.041 A 
ATOM     80  F   UNL A   1      39.569  34.135  34.567  1.00  0.00    -0.206 F 
ATOM     81  C   UNL A   1      37.941  33.507  37.736  1.00  0.00     0.022 A 
BRANCH  78  82
ATOM     82  S   UNL A   1      36.929  31.234  38.996  1.00  0.00     0.124 S 
ATOM     83  O   UNL A   1      35.722  32.042  39.132  1.00  0.00    -0.237 OA
ATOM     84  O   UNL A   1      36.753  29.912  38.403  1.00  0.00    -0.237 OA
ATOM     85  O   UNL A   1      37.850  31.291  40.128  1.00  0.00    -0.744 OA
ENDBRANCH  78  82
ENDBRANCH  51  75
BRANCH  63  86
ATOM     86  C   UNL A   1      44.644  28.316  34.159  1.00  0.00     0.023 A 
ATOM     87  C   UNL A   1      44.752  27.225  35.038  1.00  0.00     0.031 A 
ATOM     88  C   UNL A   1      45.740  29.189  34.046  1.00  0.00     0.131 A 
ATOM     89  C   UNL A   1      45.911  27.065  35.811  1.00  0.00     0.055 A 
ATOM     90  C   UNL A   1      46.914  28.991  34.773  1.00  0.00     0.041 A 
ATOM     91  F   UNL A   1      45.689  30.247  33.221  1.00  0.00    -0.206 F 
ATOM     92  C   UNL A   1      46.999  27.932  35.672  1.00  0.00     0.022 A 
BRANCH  89  93
ATOM     93  S   UNL A   1      45.944  25.762  37.072  1.00  0.00     0.124 S 
ATOM     94  O   UNL A   1      46.745  24.731  36.422  1.00  0.00    -0.237 OA
ATOM     95  O   UNL A   1      46.570  26.437  38.203  1.00  0.00    -0.237 OA
ATOM     96  O   UNL A   1      44.533  25.426  37.255  1.00  0.00    -0.744 OA
ENDBRANCH  89  93
ENDBRANCH  63  86
ENDBRANCH  37  38
ENDBRANCH  29  32
ENDBRANCH  27  28
ENDBRANCH   1  27
TORSDOF 18
ENDMDL
