MODEL 1
REMARK VINA RESULT:     -12.2      0.000      0.000
REMARK SMILES COCC[C@@]1(C(=O)NCCCNC(=O)c2ccc(-c3c4nc(c(-c5cc(S(=O)(=O)[O-])ccc5F)c5ccc([nH]5)c(-c5cc(S(=O)(=O)[O-])ccc5F)c5nc(c(-c6cc(S(=O)(=O)[O-])ccc6F)c6ccc3[nH]6)C=C5)C=C4)cc2)CCC[N@@H+](Cc2cccc3c2OC(C)(C)C3)C1
REMARK SMILES IDX 10 1 9 2 8 3 6 4 7 5 5 7 78 8 94 9 79 10 81 11 80 12 4 14
REMARK SMILES IDX 3 15 2 16 1 17 82 18 83 19 84 20 88 21 85 22 87 23 89 24
REMARK SMILES IDX 86 25 93 26 90 27 91 28 92 29 11 30 12 31 13 32 14 34 15 35
REMARK SMILES IDX 16 36 77 37 17 38 76 39 18 40 19 41 20 42 70 43 21 44 75 45
REMARK SMILES IDX 69 46 71 47 22 48 74 49 68 50 67 51 23 53 55 54 35 55 54 56
REMARK SMILES IDX 36 57 39 58 53 59 72 60 37 61 38 62 52 64 73 65 40 66 24 67
REMARK SMILES IDX 25 68 33 69 26 70 32 71 34 72 31 73 27 74 28 75 29 76 30 77
REMARK SMILES IDX 56 78 57 79 65 80 58 81 64 82 66 83 63 84 59 85 60 86 61 87
REMARK SMILES IDX 62 88 41 89 42 90 50 91 43 92 49 93 51 94 48 95 44 96 45 97
REMARK SMILES IDX 46 98 47 99
REMARK H PARENT 8 6 81 13 12 33 71 52 39 63
REMARK Flexibility Score: inf
ROOT
ATOM      1  C   UNL A   1      31.369  31.748  26.467  1.00  0.00     0.042 C 
ENDROOT
BRANCH   1   2
ATOM      2  C   UNL A   1      31.458  30.359  25.867  1.00  0.00     0.117 C 
BRANCH   2   3
ATOM      3  N   UNL A   1      31.456  29.324  26.875  1.00  0.00    -0.355 N 
ATOM      4  C   UNL A   1      31.811  28.025  26.895  1.00  0.00     0.232 C 
ATOM      5  O   UNL A   1      31.818  27.536  28.036  1.00  0.00    -0.274 OA
ATOM      6  H   UNL A   1      31.118  29.640  27.744  1.00  0.00     0.163 HD
BRANCH   4   7
ATOM      7  C   UNL A   1      32.117  27.114  25.677  1.00  0.00     0.100 C 
ATOM      8  C   UNL A   1      30.759  26.910  24.955  1.00  0.00     0.029 C 
ATOM      9  C   UNL A   1      32.692  25.680  25.922  1.00  0.00     0.279 C 
ATOM     10  C   UNL A   1      29.843  25.987  25.763  1.00  0.00     0.063 C 
ATOM     11  N   UNL A   1      31.798  24.762  26.657  1.00  0.00    -0.330 N 
ATOM     12  C   UNL A   1      30.497  24.625  26.003  1.00  0.00     0.262 C 
ATOM     13  H   UNL A   1      31.615  25.215  27.552  1.00  0.00     0.348 HD
BRANCH   7  14
ATOM     14  C   UNL A   1      33.182  27.928  24.833  1.00  0.00     0.051 C 
BRANCH  14  15
ATOM     15  C   UNL A   1      32.940  28.195  23.338  1.00  0.00     0.161 C 
BRANCH  15  16
ATOM     16  O   UNL A   1      33.815  27.475  22.474  1.00  0.00    -0.385 OA
ATOM     17  C   UNL A   1      33.303  26.235  22.016  1.00  0.00     0.194 C 
ENDBRANCH  15  16
ENDBRANCH  14  15
ENDBRANCH   7  14
BRANCH  11  18
ATOM     18  C   UNL A   1      32.427  23.467  27.083  1.00  0.00     0.303 C 
BRANCH  18  19
ATOM     19  C   UNL A   1      32.868  22.549  25.962  1.00  0.00     0.049 A 
ATOM     20  C   UNL A   1      31.937  21.857  25.188  1.00  0.00     0.013 A 
ATOM     21  C   UNL A   1      34.126  22.658  25.419  1.00  0.00     0.132 A 
ATOM     22  C   UNL A   1      32.220  21.598  23.838  1.00  0.00     0.001 A 
ATOM     23  C   UNL A   1      34.309  22.720  24.061  1.00  0.00    -0.001 A 
ATOM     24  O   UNL A   1      35.313  22.578  26.092  1.00  0.00    -0.487 OA
ATOM     25  C   UNL A   1      33.365  22.148  23.237  1.00  0.00     0.008 A 
ATOM     26  C   UNL A   1      35.609  23.411  23.847  1.00  0.00     0.087 C 
ATOM     27  C   UNL A   1      36.341  22.853  25.087  1.00  0.00     0.108 C 
ATOM     28  C   UNL A   1      37.165  21.642  24.594  1.00  0.00     0.057 C 
ATOM     29  C   UNL A   1      37.257  23.803  25.853  1.00  0.00     0.057 C 
ENDBRANCH  18  19
ENDBRANCH  11  18
ENDBRANCH   4   7
ENDBRANCH   2   3
ENDBRANCH   1   2
BRANCH   1  30
ATOM     30  C   UNL A   1      32.705  32.241  27.000  1.00  0.00     0.118 C 
BRANCH  30  31
ATOM     31  N   UNL A   1      32.624  33.611  27.496  1.00  0.00    -0.352 N 
ATOM     32  C   UNL A   1      33.291  34.221  28.531  1.00  0.00     0.251 C 
ATOM     33  H   UNL A   1      31.992  34.190  27.011  1.00  0.00     0.163 HD
ATOM     34  O   UNL A   1      32.873  35.280  28.980  1.00  0.00    -0.269 OA
BRANCH  32  35
ATOM     35  C   UNL A   1      34.497  33.586  29.101  1.00  0.00     0.039 A 
ATOM     36  C   UNL A   1      35.735  34.213  28.953  1.00  0.00     0.014 A 
ATOM     37  C   UNL A   1      34.404  32.367  29.775  1.00  0.00     0.014 A 
ATOM     38  C   UNL A   1      36.865  33.653  29.552  1.00  0.00     0.010 A 
ATOM     39  C   UNL A   1      35.504  31.869  30.458  1.00  0.00     0.010 A 
ATOM     40  C   UNL A   1      36.749  32.502  30.350  1.00  0.00    -0.014 A 
BRANCH  40  41
ATOM     41  C   UNL A   1      37.913  31.948  31.085  1.00  0.00     0.031 A 
ATOM     42  C   UNL A   1      38.725  30.836  30.478  1.00  0.00     0.074 A 
ATOM     43  C   UNL A   1      38.182  32.392  32.328  1.00  0.00     0.049 A 
ATOM     44  N   UNL A   1      39.721  30.163  30.995  1.00  0.00    -0.248 NA
ATOM     45  C   UNL A   1      38.344  30.400  29.126  1.00  0.00     0.031 C 
ATOM     46  C   UNL A   1      37.426  33.427  33.036  1.00  0.00     0.029 A 
ATOM     47  N   UNL A   1      39.154  32.023  33.223  1.00  0.00    -0.354 N 
ATOM     48  C   UNL A   1      40.073  29.215  30.041  1.00  0.00     0.074 A 
ATOM     49  C   UNL A   1      39.140  29.358  28.944  1.00  0.00     0.031 C 
ATOM     50  C   UNL A   1      37.979  33.630  34.242  1.00  0.00     0.029 A 
ATOM     51  C   UNL A   1      39.090  32.702  34.418  1.00  0.00     0.049 A 
ATOM     52  H   UNL A   1      39.834  31.338  33.028  1.00  0.00     0.167 HD
ATOM     53  C   UNL A   1      41.094  28.323  30.070  1.00  0.00     0.034 A 
ATOM     54  C   UNL A   1      39.830  32.577  35.538  1.00  0.00     0.034 A 
ATOM     55  C   UNL A   1      42.017  28.207  31.173  1.00  0.00     0.049 A 
ATOM     56  C   UNL A   1      40.945  31.563  35.558  1.00  0.00     0.074 A 
ATOM     57  C   UNL A   1      43.133  27.396  31.279  1.00  0.00     0.029 A 
ATOM     58  N   UNL A   1      41.922  28.910  32.368  1.00  0.00    -0.354 N 
ATOM     59  N   UNL A   1      41.313  30.724  34.617  1.00  0.00    -0.248 NA
ATOM     60  C   UNL A   1      41.746  31.485  36.783  1.00  0.00     0.031 C 
ATOM     61  C   UNL A   1      43.659  27.544  32.566  1.00  0.00     0.029 A 
ATOM     62  C   UNL A   1      42.930  28.514  33.236  1.00  0.00     0.049 A 
ATOM     63  H   UNL A   1      41.238  29.589  32.571  1.00  0.00     0.167 HD
ATOM     64  C   UNL A   1      42.404  30.031  35.132  1.00  0.00     0.074 A 
ATOM     65  C   UNL A   1      42.646  30.569  36.457  1.00  0.00     0.031 C 
ATOM     66  C   UNL A   1      43.143  29.043  34.564  1.00  0.00     0.034 A 
BRANCH  53  67
ATOM     67  C   UNL A   1      41.238  27.386  28.892  1.00  0.00     0.023 A 
ATOM     68  C   UNL A   1      42.256  27.547  27.934  1.00  0.00     0.031 A 
ATOM     69  C   UNL A   1      40.325  26.334  28.704  1.00  0.00     0.131 A 
ATOM     70  C   UNL A   1      42.286  26.728  26.796  1.00  0.00     0.055 A 
ATOM     71  C   UNL A   1      40.414  25.464  27.616  1.00  0.00     0.041 A 
ATOM     72  F   UNL A   1      39.317  26.141  29.570  1.00  0.00    -0.206 F 
ATOM     73  C   UNL A   1      41.388  25.669  26.643  1.00  0.00     0.022 A 
BRANCH  70  74
ATOM     74  S   UNL A   1      43.410  27.167  25.442  1.00  0.00     0.124 S 
ATOM     75  O   UNL A   1      42.508  27.856  24.521  1.00  0.00    -0.237 OA
ATOM     76  O   UNL A   1      44.399  28.002  26.112  1.00  0.00    -0.237 OA
ATOM     77  O   UNL A   1      43.900  25.873  24.970  1.00  0.00    -0.744 OA
ENDBRANCH  70  74
ENDBRANCH  53  67
BRANCH  54  78
ATOM     78  C   UNL A   1      39.527  33.414  36.735  1.00  0.00     0.023 A 
ATOM     79  C   UNL A   1      38.833  32.887  37.834  1.00  0.00     0.031 A 
ATOM     80  C   UNL A   1      39.911  34.767  36.785  1.00  0.00     0.131 A 
ATOM     81  C   UNL A   1      38.511  33.716  38.921  1.00  0.00     0.055 A 
ATOM     82  C   UNL A   1      39.638  35.572  37.891  1.00  0.00     0.041 A 
ATOM     83  F   UNL A   1      40.580  35.322  35.761  1.00  0.00    -0.206 F 
ATOM     84  C   UNL A   1      38.923  35.050  38.963  1.00  0.00     0.022 A 
BRANCH  81  85
ATOM     85  S   UNL A   1      37.472  33.046  40.248  1.00  0.00     0.124 S 
ATOM     86  O   UNL A   1      37.440  34.159  41.190  1.00  0.00    -0.237 OA
ATOM     87  O   UNL A   1      36.226  32.763  39.544  1.00  0.00    -0.237 OA
ATOM     88  O   UNL A   1      38.212  31.868  40.696  1.00  0.00    -0.744 OA
ENDBRANCH  81  85
ENDBRANCH  54  78
BRANCH  66  89
ATOM     89  C   UNL A   1      44.301  28.503  35.368  1.00  0.00     0.023 A 
ATOM     90  C   UNL A   1      44.128  27.478  36.315  1.00  0.00     0.031 A 
ATOM     91  C   UNL A   1      45.595  29.024  35.187  1.00  0.00     0.131 A 
ATOM     92  C   UNL A   1      45.219  27.047  37.084  1.00  0.00     0.055 A 
ATOM     93  C   UNL A   1      46.689  28.542  35.906  1.00  0.00     0.041 A 
ATOM     94  F   UNL A   1      45.818  30.008  34.300  1.00  0.00    -0.206 F 
ATOM     95  C   UNL A   1      46.502  27.557  36.871  1.00  0.00     0.022 A 
BRANCH  92  96
ATOM     96  S   UNL A   1      44.921  25.879  38.439  1.00  0.00     0.124 S 
ATOM     97  O   UNL A   1      46.276  25.601  38.903  1.00  0.00    -0.237 OA
ATOM     98  O   UNL A   1      44.084  26.658  39.346  1.00  0.00    -0.237 OA
ATOM     99  O   UNL A   1      44.248  24.758  37.785  1.00  0.00    -0.744 OA
ENDBRANCH  92  96
ENDBRANCH  66  89
ENDBRANCH  40  41
ENDBRANCH  32  35
ENDBRANCH  30  31
ENDBRANCH   1  30
TORSDOF 18
ENDMDL
MODEL 2
REMARK VINA RESULT:     -12.1      3.265      8.318
REMARK SMILES COCC[C@@]1(C(=O)NCCCNC(=O)c2ccc(-c3c4nc(c(-c5cc(S(=O)(=O)[O-])ccc5F)c5ccc([nH]5)c(-c5cc(S(=O)(=O)[O-])ccc5F)c5nc(c(-c6cc(S(=O)(=O)[O-])ccc6F)c6ccc3[nH]6)C=C5)C=C4)cc2)CCC[N@@H+](Cc2cccc3c2OC(C)(C)C3)C1
REMARK SMILES IDX 10 1 9 2 8 3 6 4 7 5 5 7 78 8 94 9 79 10 81 11 80 12 4 14
REMARK SMILES IDX 3 15 2 16 1 17 82 18 83 19 84 20 88 21 85 22 87 23 89 24
REMARK SMILES IDX 86 25 93 26 90 27 91 28 92 29 11 30 12 31 13 32 14 34 15 35
REMARK SMILES IDX 16 36 77 37 17 38 76 39 18 40 19 41 20 42 70 43 21 44 75 45
REMARK SMILES IDX 69 46 71 47 22 48 74 49 68 50 67 51 23 53 55 54 35 55 54 56
REMARK SMILES IDX 36 57 39 58 53 59 72 60 37 61 38 62 52 64 73 65 40 66 24 67
REMARK SMILES IDX 25 68 33 69 26 70 32 71 34 72 31 73 27 74 28 75 29 76 30 77
REMARK SMILES IDX 56 78 57 79 65 80 58 81 64 82 66 83 63 84 59 85 60 86 61 87
REMARK SMILES IDX 62 88 41 89 42 90 50 91 43 92 49 93 51 94 48 95 44 96 45 97
REMARK SMILES IDX 46 98 47 99
REMARK H PARENT 8 6 81 13 12 33 71 52 39 63
REMARK Flexibility Score: inf
ROOT
ATOM      1  C   UNL A   1      32.090  29.756  26.841  1.00  0.00     0.042 C 
ENDROOT
BRANCH   1   2
ATOM      2  C   UNL A   1      31.816  29.532  25.367  1.00  0.00     0.117 C 
BRANCH   2   3
ATOM      3  N   UNL A   1      32.645  28.491  24.806  1.00  0.00    -0.355 N 
ATOM      4  C   UNL A   1      32.413  27.411  24.035  1.00  0.00     0.232 C 
ATOM      5  O   UNL A   1      33.452  26.870  23.623  1.00  0.00    -0.274 OA
ATOM      6  H   UNL A   1      33.596  28.593  25.040  1.00  0.00     0.163 HD
BRANCH   4   7
ATOM      7  C   UNL A   1      31.040  26.771  23.701  1.00  0.00     0.100 C 
ATOM      8  C   UNL A   1      30.277  26.688  25.049  1.00  0.00     0.029 C 
ATOM      9  C   UNL A   1      30.997  25.330  23.095  1.00  0.00     0.279 C 
ATOM     10  C   UNL A   1      30.873  25.602  25.950  1.00  0.00     0.063 C 
ATOM     11  N   UNL A   1      31.522  24.263  23.972  1.00  0.00    -0.330 N 
ATOM     12  C   UNL A   1      30.840  24.234  25.265  1.00  0.00     0.262 C 
ATOM     13  H   UNL A   1      32.488  24.523  24.170  1.00  0.00     0.348 HD
BRANCH   7  14
ATOM     14  C   UNL A   1      30.388  27.761  22.650  1.00  0.00     0.051 C 
BRANCH  14  15
ATOM     15  C   UNL A   1      29.085  28.502  22.992  1.00  0.00     0.161 C 
BRANCH  15  16
ATOM     16  O   UNL A   1      28.601  29.333  21.942  1.00  0.00    -0.385 OA
ATOM     17  C   UNL A   1      29.409  30.465  21.664  1.00  0.00     0.194 C 
ENDBRANCH  15  16
ENDBRANCH  14  15
ENDBRANCH   7  14
BRANCH  11  18
ATOM     18  C   UNL A   1      31.684  22.923  23.317  1.00  0.00     0.303 C 
BRANCH  18  19
ATOM     19  C   UNL A   1      33.104  22.404  23.221  1.00  0.00     0.049 A 
ATOM     20  C   UNL A   1      34.141  23.219  22.768  1.00  0.00     0.013 A 
ATOM     21  C   UNL A   1      33.491  21.285  23.920  1.00  0.00     0.132 A 
ATOM     22  C   UNL A   1      35.433  23.043  23.288  1.00  0.00     0.001 A 
ATOM     23  C   UNL A   1      34.632  21.285  24.682  1.00  0.00    -0.001 A 
ATOM     24  O   UNL A   1      32.922  20.044  23.851  1.00  0.00    -0.487 OA
ATOM     25  C   UNL A   1      35.652  22.149  24.350  1.00  0.00     0.008 A 
ATOM     26  C   UNL A   1      34.442  20.232  25.715  1.00  0.00     0.087 C 
ATOM     27  C   UNL A   1      33.632  19.243  24.850  1.00  0.00     0.108 C 
ATOM     28  C   UNL A   1      34.646  18.209  24.310  1.00  0.00     0.057 C 
ATOM     29  C   UNL A   1      32.474  18.507  25.515  1.00  0.00     0.057 C 
ENDBRANCH  18  19
ENDBRANCH  11  18
ENDBRANCH   4   7
ENDBRANCH   2   3
ENDBRANCH   1   2
BRANCH   1  30
ATOM     30  C   UNL A   1      33.538  30.126  27.116  1.00  0.00     0.118 C 
BRANCH  30  31
ATOM     31  N   UNL A   1      33.669  31.495  27.605  1.00  0.00    -0.352 N 
ATOM     32  C   UNL A   1      34.568  32.039  28.491  1.00  0.00     0.251 C 
ATOM     33  H   UNL A   1      33.010  32.129  27.241  1.00  0.00     0.163 HD
ATOM     34  O   UNL A   1      34.334  33.127  28.999  1.00  0.00    -0.269 OA
BRANCH  32  35
ATOM     35  C   UNL A   1      35.801  31.299  28.832  1.00  0.00     0.039 A 
ATOM     36  C   UNL A   1      37.040  31.838  28.484  1.00  0.00     0.014 A 
ATOM     37  C   UNL A   1      35.729  30.069  29.488  1.00  0.00     0.014 A 
ATOM     38  C   UNL A   1      38.209  31.177  28.868  1.00  0.00     0.010 A 
ATOM     39  C   UNL A   1      36.887  29.469  29.961  1.00  0.00     0.010 A 
ATOM     40  C   UNL A   1      38.141  30.012  29.652  1.00  0.00    -0.014 A 
BRANCH  40  41
ATOM     41  C   UNL A   1      39.367  29.350  30.164  1.00  0.00     0.031 A 
ATOM     42  C   UNL A   1      40.070  29.902  31.373  1.00  0.00     0.074 A 
ATOM     43  C   UNL A   1      39.884  28.305  29.488  1.00  0.00     0.049 A 
ATOM     44  N   UNL A   1      41.196  29.521  31.921  1.00  0.00    -0.248 NA
ATOM     45  C   UNL A   1      39.445  31.059  32.032  1.00  0.00     0.031 C 
ATOM     46  C   UNL A   1      39.316  27.722  28.271  1.00  0.00     0.029 A 
ATOM     47  N   UNL A   1      41.010  27.556  29.719  1.00  0.00    -0.354 N 
ATOM     48  C   UNL A   1      41.421  30.399  32.975  1.00  0.00     0.074 A 
ATOM     49  C   UNL A   1      40.349  31.371  32.946  1.00  0.00     0.031 C 
ATOM     50  C   UNL A   1      40.078  26.690  27.880  1.00  0.00     0.029 A 
ATOM     51  C   UNL A   1      41.220  26.572  28.780  1.00  0.00     0.049 A 
ATOM     52  H   UNL A   1      41.610  27.706  30.485  1.00  0.00     0.167 HD
ATOM     53  C   UNL A   1      42.417  30.381  33.894  1.00  0.00     0.034 A 
ATOM     54  C   UNL A   1      42.229  25.689  28.646  1.00  0.00     0.034 A 
ATOM     55  C   UNL A   1      43.469  29.393  33.906  1.00  0.00     0.049 A 
ATOM     56  C   UNL A   1      43.340  25.701  29.664  1.00  0.00     0.074 A 
ATOM     57  C   UNL A   1      44.485  29.229  34.832  1.00  0.00     0.029 A 
ATOM     58  N   UNL A   1      43.652  28.411  32.939  1.00  0.00    -0.354 N 
ATOM     59  N   UNL A   1      43.499  26.492  30.701  1.00  0.00    -0.248 NA
ATOM     60  C   UNL A   1      44.398  24.700  29.501  1.00  0.00     0.031 C 
ATOM     61  C   UNL A   1      45.328  28.209  34.379  1.00  0.00     0.029 A 
ATOM     62  C   UNL A   1      44.792  27.672  33.219  1.00  0.00     0.049 A 
ATOM     63  H   UNL A   1      43.060  28.264  32.167  1.00  0.00     0.167 HD
ATOM     64  C   UNL A   1      44.668  26.068  31.325  1.00  0.00     0.074 A 
ATOM     65  C   UNL A   1      45.158  24.938  30.560  1.00  0.00     0.031 C 
ATOM     66  C   UNL A   1      45.281  26.563  32.432  1.00  0.00     0.034 A 
BRANCH  53  67
ATOM     67  C   UNL A   1      42.431  31.479  34.933  1.00  0.00     0.023 A 
ATOM     68  C   UNL A   1      41.491  31.525  35.979  1.00  0.00     0.031 A 
ATOM     69  C   UNL A   1      43.379  32.515  34.860  1.00  0.00     0.131 A 
ATOM     70  C   UNL A   1      41.466  32.622  36.853  1.00  0.00     0.055 A 
ATOM     71  C   UNL A   1      43.406  33.557  35.789  1.00  0.00     0.041 A 
ATOM     72  F   UNL A   1      44.288  32.541  33.873  1.00  0.00    -0.206 F 
ATOM     73  C   UNL A   1      42.435  33.625  36.783  1.00  0.00     0.022 A 
BRANCH  70  74
ATOM     74  S   UNL A   1      40.055  32.800  37.978  1.00  0.00     0.124 S 
ATOM     75  O   UNL A   1      39.662  34.188  37.742  1.00  0.00    -0.237 OA
ATOM     76  O   UNL A   1      39.131  31.783  37.490  1.00  0.00    -0.237 OA
ATOM     77  O   UNL A   1      40.631  32.540  39.296  1.00  0.00    -0.744 OA
ENDBRANCH  70  74
ENDBRANCH  53  67
BRANCH  54  78
ATOM     78  C   UNL A   1      42.248  24.739  27.496  1.00  0.00     0.023 A 
ATOM     79  C   UNL A   1      41.504  23.551  27.521  1.00  0.00     0.031 A 
ATOM     80  C   UNL A   1      43.034  25.000  26.358  1.00  0.00     0.131 A 
ATOM     81  C   UNL A   1      41.588  22.648  26.448  1.00  0.00     0.055 A 
ATOM     82  C   UNL A   1      43.071  24.128  25.269  1.00  0.00     0.041 A 
ATOM     83  F   UNL A   1      43.764  26.125  26.279  1.00  0.00    -0.206 F 
ATOM     84  C   UNL A   1      42.354  22.937  25.316  1.00  0.00     0.022 A 
BRANCH  81  85
ATOM     85  S   UNL A   1      40.744  21.049  26.588  1.00  0.00     0.124 S 
ATOM     86  O   UNL A   1      39.429  21.359  26.039  1.00  0.00    -0.237 OA
ATOM     87  O   UNL A   1      41.595  20.186  25.774  1.00  0.00    -0.237 OA
ATOM     88  O   UNL A   1      40.774  20.774  28.022  1.00  0.00    -0.744 OA
ENDBRANCH  81  85
ENDBRANCH  54  78
BRANCH  66  89
ATOM     89  C   UNL A   1      46.537  25.862  32.892  1.00  0.00     0.023 A 
ATOM     90  C   UNL A   1      47.787  26.128  32.307  1.00  0.00     0.031 A 
ATOM     91  C   UNL A   1      46.479  24.912  33.927  1.00  0.00     0.131 A 
ATOM     92  C   UNL A   1      48.919  25.410  32.723  1.00  0.00     0.055 A 
ATOM     93  C   UNL A   1      47.621  24.253  34.384  1.00  0.00     0.041 A 
ATOM     94  F   UNL A   1      45.311  24.615  34.519  1.00  0.00    -0.206 F 
ATOM     95  C   UNL A   1      48.847  24.490  33.772  1.00  0.00     0.022 A 
BRANCH  92  96
ATOM     96  S   UNL A   1      50.469  25.623  31.806  1.00  0.00     0.124 S 
ATOM     97  O   UNL A   1      50.723  24.269  31.322  1.00  0.00    -0.237 OA
ATOM     98  O   UNL A   1      50.101  26.604  30.791  1.00  0.00    -0.237 OA
ATOM     99  O   UNL A   1      51.405  26.103  32.821  1.00  0.00    -0.744 OA
ENDBRANCH  92  96
ENDBRANCH  66  89
ENDBRANCH  40  41
ENDBRANCH  32  35
ENDBRANCH  30  31
ENDBRANCH   1  30
TORSDOF 18
ENDMDL
MODEL 3
REMARK VINA RESULT:     -12.0      2.962      8.221
REMARK SMILES COCC[C@@]1(C(=O)NCCCNC(=O)c2ccc(-c3c4nc(c(-c5cc(S(=O)(=O)[O-])ccc5F)c5ccc([nH]5)c(-c5cc(S(=O)(=O)[O-])ccc5F)c5nc(c(-c6cc(S(=O)(=O)[O-])ccc6F)c6ccc3[nH]6)C=C5)C=C4)cc2)CCC[N@@H+](Cc2cccc3c2OC(C)(C)C3)C1
REMARK SMILES IDX 10 1 9 2 8 3 6 4 7 5 5 7 78 8 94 9 79 10 81 11 80 12 4 14
REMARK SMILES IDX 3 15 2 16 1 17 82 18 83 19 84 20 88 21 85 22 87 23 89 24
REMARK SMILES IDX 86 25 93 26 90 27 91 28 92 29 11 30 12 31 13 32 14 34 15 35
REMARK SMILES IDX 16 36 77 37 17 38 76 39 18 40 19 41 20 42 70 43 21 44 75 45
REMARK SMILES IDX 69 46 71 47 22 48 74 49 68 50 67 51 23 53 55 54 35 55 54 56
REMARK SMILES IDX 36 57 39 58 53 59 72 60 37 61 38 62 52 64 73 65 40 66 24 67
REMARK SMILES IDX 25 68 33 69 26 70 32 71 34 72 31 73 27 74 28 75 29 76 30 77
REMARK SMILES IDX 56 78 57 79 65 80 58 81 64 82 66 83 63 84 59 85 60 86 61 87
REMARK SMILES IDX 62 88 41 89 42 90 50 91 43 92 49 93 51 94 48 95 44 96 45 97
REMARK SMILES IDX 46 98 47 99
REMARK H PARENT 8 6 81 13 12 33 71 52 39 63
REMARK Flexibility Score: inf
ROOT
ATOM      1  C   UNL A   1      32.949  28.555  27.189  1.00  0.00     0.042 C 
ENDROOT
BRANCH   1   2
ATOM      2  C   UNL A   1      32.949  27.106  26.745  1.00  0.00     0.117 C 
BRANCH   2   3
ATOM      3  N   UNL A   1      31.620  26.540  26.716  1.00  0.00    -0.355 N 
ATOM      4  C   UNL A   1      30.768  26.181  25.737  1.00  0.00     0.232 C 
ATOM      5  O   UNL A   1      29.778  25.557  26.152  1.00  0.00    -0.274 OA
ATOM      6  H   UNL A   1      31.254  26.382  27.616  1.00  0.00     0.163 HD
BRANCH   4   7
ATOM      7  C   UNL A   1      30.867  26.528  24.228  1.00  0.00     0.100 C 
ATOM      8  C   UNL A   1      29.809  25.639  23.523  1.00  0.00     0.029 C 
ATOM      9  C   UNL A   1      32.214  26.273  23.473  1.00  0.00     0.279 C 
ATOM     10  C   UNL A   1      30.256  24.174  23.496  1.00  0.00     0.063 C 
ATOM     11  N   UNL A   1      32.632  24.858  23.395  1.00  0.00    -0.330 N 
ATOM     12  C   UNL A   1      31.602  24.017  22.787  1.00  0.00     0.262 C 
ATOM     13  H   UNL A   1      32.716  24.544  24.362  1.00  0.00     0.348 HD
BRANCH   7  14
ATOM     14  C   UNL A   1      30.557  28.080  24.159  1.00  0.00     0.051 C 
BRANCH  14  15
ATOM     15  C   UNL A   1      29.442  28.603  23.238  1.00  0.00     0.161 C 
BRANCH  15  16
ATOM     16  O   UNL A   1      29.902  29.023  21.957  1.00  0.00    -0.385 OA
ATOM     17  C   UNL A   1      29.502  30.333  21.586  1.00  0.00     0.194 C 
ENDBRANCH  15  16
ENDBRANCH  14  15
ENDBRANCH   7  14
BRANCH  11  18
ATOM     18  C   UNL A   1      34.019  24.633  22.869  1.00  0.00     0.303 C 
BRANCH  18  19
ATOM     19  C   UNL A   1      34.828  23.567  23.578  1.00  0.00     0.049 A 
ATOM     20  C   UNL A   1      36.130  23.266  23.181  1.00  0.00     0.013 A 
ATOM     21  C   UNL A   1      34.482  23.146  24.840  1.00  0.00     0.132 A 
ATOM     22  C   UNL A   1      37.067  22.857  24.143  1.00  0.00     0.001 A 
ATOM     23  C   UNL A   1      35.414  23.071  25.844  1.00  0.00    -0.001 A 
ATOM     24  O   UNL A   1      33.274  22.633  25.225  1.00  0.00    -0.487 OA
ATOM     25  C   UNL A   1      36.736  22.883  25.508  1.00  0.00     0.008 A 
ATOM     26  C   UNL A   1      34.661  23.182  27.121  1.00  0.00     0.087 C 
ATOM     27  C   UNL A   1      33.387  22.436  26.671  1.00  0.00     0.108 C 
ATOM     28  C   UNL A   1      33.545  20.977  27.157  1.00  0.00     0.057 C 
ATOM     29  C   UNL A   1      32.044  22.978  27.149  1.00  0.00     0.057 C 
ENDBRANCH  18  19
ENDBRANCH  11  18
ENDBRANCH   4   7
ENDBRANCH   2   3
ENDBRANCH   1   2
BRANCH   1  30
ATOM     30  C   UNL A   1      34.173  29.315  26.705  1.00  0.00     0.118 C 
BRANCH  30  31
ATOM     31  N   UNL A   1      34.073  30.745  26.981  1.00  0.00    -0.352 N 
ATOM     32  C   UNL A   1      34.739  31.520  27.900  1.00  0.00     0.251 C 
ATOM     33  H   UNL A   1      33.427  31.231  26.419  1.00  0.00     0.163 HD
ATOM     34  O   UNL A   1      34.307  32.630  28.182  1.00  0.00    -0.269 OA
BRANCH  32  35
ATOM     35  C   UNL A   1      35.961  31.002  28.548  1.00  0.00     0.039 A 
ATOM     36  C   UNL A   1      35.860  29.942  29.451  1.00  0.00     0.014 A 
ATOM     37  C   UNL A   1      37.206  31.568  28.267  1.00  0.00     0.014 A 
ATOM     38  C   UNL A   1      37.020  29.403  30.010  1.00  0.00     0.010 A 
ATOM     39  C   UNL A   1      38.363  30.964  28.738  1.00  0.00     0.010 A 
ATOM     40  C   UNL A   1      38.283  29.878  29.620  1.00  0.00    -0.014 A 
BRANCH  40  41
ATOM     41  C   UNL A   1      39.534  29.252  30.117  1.00  0.00     0.031 A 
ATOM     42  C   UNL A   1      40.261  29.850  31.290  1.00  0.00     0.074 A 
ATOM     43  C   UNL A   1      40.051  28.196  29.458  1.00  0.00     0.049 A 
ATOM     44  N   UNL A   1      41.408  29.503  31.817  1.00  0.00    -0.248 NA
ATOM     45  C   UNL A   1      39.634  31.015  31.932  1.00  0.00     0.031 C 
ATOM     46  C   UNL A   1      39.459  27.568  28.274  1.00  0.00     0.029 A 
ATOM     47  N   UNL A   1      41.195  27.472  29.678  1.00  0.00    -0.354 N 
ATOM     48  C   UNL A   1      41.646  30.416  32.838  1.00  0.00     0.074 A 
ATOM     49  C   UNL A   1      40.558  31.369  32.811  1.00  0.00     0.031 C 
ATOM     50  C   UNL A   1      40.229  26.538  27.891  1.00  0.00     0.029 A 
ATOM     51  C   UNL A   1      41.396  26.465  28.762  1.00  0.00     0.049 A 
ATOM     52  H   UNL A   1      41.813  27.655  30.422  1.00  0.00     0.167 HD
ATOM     53  C   UNL A   1      42.668  30.441  33.729  1.00  0.00     0.034 A 
ATOM     54  C   UNL A   1      42.416  25.595  28.625  1.00  0.00     0.034 A 
ATOM     55  C   UNL A   1      43.736  29.471  33.740  1.00  0.00     0.049 A 
ATOM     56  C   UNL A   1      43.554  25.655  29.612  1.00  0.00     0.074 A 
ATOM     57  C   UNL A   1      44.780  29.351  34.641  1.00  0.00     0.029 A 
ATOM     58  N   UNL A   1      43.910  28.465  32.797  1.00  0.00    -0.354 N 
ATOM     59  N   UNL A   1      43.728  26.478  30.620  1.00  0.00    -0.248 NA
ATOM     60  C   UNL A   1      44.625  24.667  29.447  1.00  0.00     0.031 C 
ATOM     61  C   UNL A   1      45.628  28.333  34.194  1.00  0.00     0.029 A 
ATOM     62  C   UNL A   1      45.069  27.753  33.066  1.00  0.00     0.049 A 
ATOM     63  H   UNL A   1      43.299  28.285  32.046  1.00  0.00     0.167 HD
ATOM     64  C   UNL A   1      44.921  26.092  31.223  1.00  0.00     0.074 A 
ATOM     65  C   UNL A   1      45.409  24.949  30.477  1.00  0.00     0.031 C 
ATOM     66  C   UNL A   1      45.556  26.629  32.298  1.00  0.00     0.034 A 
BRANCH  53  67
ATOM     67  C   UNL A   1      42.691  31.569  34.735  1.00  0.00     0.023 A 
ATOM     68  C   UNL A   1      41.862  31.569  35.872  1.00  0.00     0.031 A 
ATOM     69  C   UNL A   1      43.532  32.679  34.540  1.00  0.00     0.131 A 
ATOM     70  C   UNL A   1      41.831  32.687  36.719  1.00  0.00     0.055 A 
ATOM     71  C   UNL A   1      43.563  33.749  35.436  1.00  0.00     0.041 A 
ATOM     72  F   UNL A   1      44.330  32.750  33.463  1.00  0.00    -0.206 F 
ATOM     73  C   UNL A   1      42.696  33.766  36.524  1.00  0.00     0.022 A 
BRANCH  70  74
ATOM     74  S   UNL A   1      40.531  32.781  37.981  1.00  0.00     0.124 S 
ATOM     75  O   UNL A   1      40.248  34.215  38.006  1.00  0.00    -0.237 OA
ATOM     76  O   UNL A   1      39.485  31.933  37.420  1.00  0.00    -0.237 OA
ATOM     77  O   UNL A   1      41.181  32.260  39.182  1.00  0.00    -0.744 OA
ENDBRANCH  70  74
ENDBRANCH  53  67
BRANCH  54  78
ATOM     78  C   UNL A   1      42.420  24.613  27.503  1.00  0.00     0.023 A 
ATOM     79  C   UNL A   1      41.692  23.416  27.581  1.00  0.00     0.031 A 
ATOM     80  C   UNL A   1      43.175  24.850  26.339  1.00  0.00     0.131 A 
ATOM     81  C   UNL A   1      41.763  22.484  26.533  1.00  0.00     0.055 A 
ATOM     82  C   UNL A   1      43.197  23.947  25.275  1.00  0.00     0.041 A 
ATOM     83  F   UNL A   1      43.887  25.981  26.210  1.00  0.00    -0.206 F 
ATOM     84  C   UNL A   1      42.498  22.749  25.374  1.00  0.00     0.022 A 
BRANCH  81  85
ATOM     85  S   UNL A   1      40.944  20.879  26.739  1.00  0.00     0.124 S 
ATOM     86  O   UNL A   1      39.685  21.096  26.034  1.00  0.00    -0.237 OA
ATOM     87  O   UNL A   1      41.891  19.971  26.100  1.00  0.00    -0.237 OA
ATOM     88  O   UNL A   1      40.832  20.739  28.189  1.00  0.00    -0.744 OA
ENDBRANCH  81  85
ENDBRANCH  54  78
BRANCH  66  89
ATOM     89  C   UNL A   1      46.836  25.963  32.742  1.00  0.00     0.023 A 
ATOM     90  C   UNL A   1      46.833  24.897  33.658  1.00  0.00     0.031 A 
ATOM     91  C   UNL A   1      48.075  26.405  32.245  1.00  0.00     0.131 A 
ATOM     92  C   UNL A   1      48.049  24.345  34.091  1.00  0.00     0.055 A 
ATOM     93  C   UNL A   1      49.276  25.807  32.626  1.00  0.00     0.041 A 
ATOM     94  F   UNL A   1      48.137  27.424  31.372  1.00  0.00    -0.206 F 
ATOM     95  C   UNL A   1      49.268  24.780  33.565  1.00  0.00     0.022 A 
BRANCH  92  96
ATOM     96  S   UNL A   1      48.022  23.120  35.427  1.00  0.00     0.124 S 
ATOM     97  O   UNL A   1      47.791  23.957  36.601  1.00  0.00    -0.237 OA
ATOM     98  O   UNL A   1      46.916  22.253  35.035  1.00  0.00    -0.237 OA
ATOM     99  O   UNL A   1      49.346  22.505  35.356  1.00  0.00    -0.744 OA
ENDBRANCH  92  96
ENDBRANCH  66  89
ENDBRANCH  40  41
ENDBRANCH  32  35
ENDBRANCH  30  31
ENDBRANCH   1  30
TORSDOF 18
ENDMDL
