MODEL 1
REMARK VINA RESULT:     -11.9      0.000      0.000
REMARK SMILES O=C(NCCCNC(=O)c1ccc(-c2cccc(F)c2)o1)c1ccc(-c2c3nc(c(-c4cc(S(=O)(=O)[O-])ccc4F)c4ccc([nH]4)c(-c4cc(S(=O)(=O)[O-])ccc4F)c4nc(c(-c5cc(S(=O)(=O)[O-])ccc5F)c5ccc2[nH]5)C=C4)C=C3)cc1
REMARK SMILES IDX 4 1 3 2 1 3 2 4 22 6 23 7 84 8 24 9 83 10 25 11 26 12 27 13
REMARK SMILES IDX 77 14 28 15 82 16 76 17 78 18 29 19 81 20 75 21 74 22 30 24
REMARK SMILES IDX 62 25 42 26 61 27 43 28 46 29 60 30 79 31 44 32 45 33 59 35
REMARK SMILES IDX 80 36 47 37 31 38 32 39 40 40 33 41 39 42 41 43 38 44 34 45
REMARK SMILES IDX 35 46 36 47 37 48 63 49 64 50 72 51 65 52 71 53 73 54 70 55
REMARK SMILES IDX 66 56 67 57 68 58 69 59 48 60 49 61 57 62 50 63 56 64 58 65
REMARK SMILES IDX 55 66 51 67 52 68 53 69 54 70 5 71 6 72 7 73 8 74 9 76 10 77
REMARK SMILES IDX 11 78 21 79 12 80 13 81 14 82 15 83 20 84 16 85 18 86 17 87
REMARK SMILES IDX 19 88
REMARK H PARENT 3 5 78 23 46 34 7 75
REMARK Flexibility Score: inf
ROOT
ATOM      1  C   UNL A   1      33.421  28.913  24.743  1.00  0.00     0.118 C 
ENDROOT
BRANCH   1   2
ATOM      2  N   UNL A   1      32.746  30.073  25.311  1.00  0.00    -0.352 N 
ATOM      3  O   UNL A   1      32.156  31.574  26.877  1.00  0.00    -0.269 OA
ATOM      4  C   UNL A   1      32.978  30.747  26.487  1.00  0.00     0.251 C 
ATOM      5  H   UNL A   1      32.008  30.432  24.767  1.00  0.00     0.163 HD
BRANCH   4   6
ATOM      6  C   UNL A   1      34.195  30.478  27.282  1.00  0.00     0.039 A 
ATOM      7  C   UNL A   1      34.534  29.175  27.653  1.00  0.00     0.014 A 
ATOM      8  C   UNL A   1      35.037  31.541  27.627  1.00  0.00     0.014 A 
ATOM      9  C   UNL A   1      35.622  28.952  28.489  1.00  0.00     0.010 A 
ATOM     10  C   UNL A   1      36.187  31.303  28.390  1.00  0.00     0.010 A 
ATOM     11  C   UNL A   1      36.473  30.009  28.850  1.00  0.00    -0.014 A 
BRANCH  11  12
ATOM     12  C   UNL A   1      37.689  29.714  29.649  1.00  0.00     0.031 A 
ATOM     13  C   UNL A   1      38.803  28.871  29.092  1.00  0.00     0.074 A 
ATOM     14  C   UNL A   1      37.799  30.257  30.878  1.00  0.00     0.049 A 
ATOM     15  N   UNL A   1      39.938  28.538  29.651  1.00  0.00    -0.248 NA
ATOM     16  C   UNL A   1      38.618  28.323  27.739  1.00  0.00     0.031 C 
ATOM     17  C   UNL A   1      36.777  31.089  31.521  1.00  0.00     0.029 A 
ATOM     18  N   UNL A   1      38.819  30.220  31.791  1.00  0.00    -0.354 N 
ATOM     19  C   UNL A   1      40.596  27.729  28.731  1.00  0.00     0.074 A 
ATOM     20  C   UNL A   1      39.721  27.603  27.584  1.00  0.00     0.031 C 
ATOM     21  C   UNL A   1      37.247  31.533  32.695  1.00  0.00     0.029 A 
ATOM     22  C   UNL A   1      38.570  30.963  32.922  1.00  0.00     0.049 A 
ATOM     23  H   UNL A   1      39.651  29.711  31.653  1.00  0.00     0.167 HD
ATOM     24  C   UNL A   1      41.817  27.150  28.837  1.00  0.00     0.034 A 
ATOM     25  C   UNL A   1      39.312  31.153  34.030  1.00  0.00     0.034 A 
ATOM     26  C   UNL A   1      42.685  27.302  29.980  1.00  0.00     0.049 A 
ATOM     27  C   UNL A   1      40.649  30.480  34.133  1.00  0.00     0.074 A 
ATOM     28  C   UNL A   1      43.960  26.794  30.164  1.00  0.00     0.029 A 
ATOM     29  N   UNL A   1      42.369  28.008  31.133  1.00  0.00    -0.354 N 
ATOM     30  N   UNL A   1      41.247  29.708  33.258  1.00  0.00    -0.248 NA
ATOM     31  C   UNL A   1      41.403  30.692  35.374  1.00  0.00     0.031 C 
ATOM     32  C   UNL A   1      44.390  27.141  31.450  1.00  0.00     0.029 A 
ATOM     33  C   UNL A   1      43.410  27.920  32.045  1.00  0.00     0.049 A 
ATOM     34  H   UNL A   1      41.529  28.498  31.282  1.00  0.00     0.167 HD
ATOM     35  C   UNL A   1      42.453  29.340  33.843  1.00  0.00     0.074 A 
ATOM     36  C   UNL A   1      42.502  29.985  35.140  1.00  0.00     0.031 C 
ATOM     37  C   UNL A   1      43.431  28.542  33.346  1.00  0.00     0.034 A 
BRANCH  24  38
ATOM     38  C   UNL A   1      42.273  26.262  27.707  1.00  0.00     0.023 A 
ATOM     39  C   UNL A   1      42.083  24.871  27.733  1.00  0.00     0.031 A 
ATOM     40  C   UNL A   1      42.888  26.826  26.575  1.00  0.00     0.131 A 
ATOM     41  C   UNL A   1      42.541  24.085  26.664  1.00  0.00     0.055 A 
ATOM     42  C   UNL A   1      43.287  26.046  25.489  1.00  0.00     0.041 A 
ATOM     43  F   UNL A   1      43.110  28.149  26.508  1.00  0.00    -0.206 F 
ATOM     44  C   UNL A   1      43.120  24.665  25.533  1.00  0.00     0.022 A 
BRANCH  41  45
ATOM     45  S   UNL A   1      42.440  22.279  26.803  1.00  0.00     0.124 S 
ATOM     46  O   UNL A   1      43.648  21.862  26.096  1.00  0.00    -0.237 OA
ATOM     47  O   UNL A   1      42.441  22.071  28.246  1.00  0.00    -0.237 OA
ATOM     48  O   UNL A   1      41.186  21.952  26.127  1.00  0.00    -0.744 OA
ENDBRANCH  41  45
ENDBRANCH  24  38
BRANCH  25  49
ATOM     49  C   UNL A   1      38.771  31.989  35.135  1.00  0.00     0.023 A 
ATOM     50  C   UNL A   1      38.226  31.405  36.287  1.00  0.00     0.031 A 
ATOM     51  C   UNL A   1      38.844  33.392  35.068  1.00  0.00     0.131 A 
ATOM     52  C   UNL A   1      37.766  32.225  37.329  1.00  0.00     0.055 A 
ATOM     53  C   UNL A   1      38.419  34.201  36.121  1.00  0.00     0.041 A 
ATOM     54  F   UNL A   1      39.374  33.992  33.991  1.00  0.00    -0.206 F 
ATOM     55  C   UNL A   1      37.873  33.617  37.260  1.00  0.00     0.022 A 
BRANCH  52  56
ATOM     56  S   UNL A   1      37.025  31.449  38.791  1.00  0.00     0.124 S 
ATOM     57  O   UNL A   1      35.752  32.153  38.888  1.00  0.00    -0.237 OA
ATOM     58  O   UNL A   1      36.955  30.046  38.392  1.00  0.00    -0.237 OA
ATOM     59  O   UNL A   1      37.985  31.740  39.854  1.00  0.00    -0.744 OA
ENDBRANCH  52  56
ENDBRANCH  25  49
BRANCH  37  60
ATOM     60  C   UNL A   1      44.645  28.331  34.209  1.00  0.00     0.023 A 
ATOM     61  C   UNL A   1      44.727  27.250  35.103  1.00  0.00     0.031 A 
ATOM     62  C   UNL A   1      45.741  29.204  34.111  1.00  0.00     0.131 A 
ATOM     63  C   UNL A   1      45.877  27.085  35.888  1.00  0.00     0.055 A 
ATOM     64  C   UNL A   1      46.899  29.010  34.863  1.00  0.00     0.041 A 
ATOM     65  F   UNL A   1      45.707  30.250  33.270  1.00  0.00    -0.206 F 
ATOM     66  C   UNL A   1      46.969  27.948  35.762  1.00  0.00     0.022 A 
BRANCH  63  67
ATOM     67  S   UNL A   1      45.921  25.740  37.103  1.00  0.00     0.124 S 
ATOM     68  O   UNL A   1      45.369  26.388  38.289  1.00  0.00    -0.237 OA
ATOM     69  O   UNL A   1      45.077  24.723  36.483  1.00  0.00    -0.237 OA
ATOM     70  O   UNL A   1      47.340  25.398  37.185  1.00  0.00    -0.744 OA
ENDBRANCH  63  67
ENDBRANCH  37  60
ENDBRANCH  11  12
ENDBRANCH   4   6
ENDBRANCH   1   2
BRANCH   1  71
ATOM     71  C   UNL A   1      33.121  28.733  23.260  1.00  0.00     0.042 C 
BRANCH  71  72
ATOM     72  C   UNL A   1      32.052  27.685  22.976  1.00  0.00     0.118 C 
BRANCH  72  73
ATOM     73  N   UNL A   1      32.249  27.046  21.683  1.00  0.00    -0.349 N 
ATOM     74  C   UNL A   1      32.840  25.837  21.405  1.00  0.00     0.287 C 
ATOM     75  H   UNL A   1      31.917  27.548  20.904  1.00  0.00     0.163 HD
ATOM     76  O   UNL A   1      33.152  25.612  20.229  1.00  0.00    -0.266 OA
BRANCH  74  77
ATOM     77  C   UNL A   1      33.030  24.889  22.475  1.00  0.00     0.192 A 
ATOM     78  C   UNL A   1      32.133  24.116  23.191  1.00  0.00     0.057 A 
ATOM     79  O   UNL A   1      34.303  24.616  22.897  1.00  0.00    -0.451 OA
ATOM     80  C   UNL A   1      32.892  23.354  24.107  1.00  0.00     0.052 A 
ATOM     81  C   UNL A   1      34.212  23.692  23.896  1.00  0.00     0.135 A 
BRANCH  81  82
ATOM     82  C   UNL A   1      35.463  23.254  24.488  1.00  0.00     0.020 A 
ATOM     83  C   UNL A   1      35.962  21.972  24.203  1.00  0.00     0.012 A 
ATOM     84  C   UNL A   1      36.172  24.078  25.369  1.00  0.00     0.051 A 
ATOM     85  C   UNL A   1      37.145  21.518  24.791  1.00  0.00     0.004 A 
ATOM     86  C   UNL A   1      37.343  23.612  25.958  1.00  0.00     0.123 A 
ATOM     87  C   UNL A   1      37.834  22.341  25.678  1.00  0.00     0.039 A 
ATOM     88  F   UNL A   1      38.009  24.395  26.816  1.00  0.00    -0.207 F 
ENDBRANCH  81  82
ENDBRANCH  74  77
ENDBRANCH  72  73
ENDBRANCH  71  72
ENDBRANCH   1  71
TORSDOF 14
ENDMDL
MODEL 2
REMARK VINA RESULT:     -11.8      4.004     10.260
REMARK SMILES O=C(NCCCNC(=O)c1ccc(-c2cccc(F)c2)o1)c1ccc(-c2c3nc(c(-c4cc(S(=O)(=O)[O-])ccc4F)c4ccc([nH]4)c(-c4cc(S(=O)(=O)[O-])ccc4F)c4nc(c(-c5cc(S(=O)(=O)[O-])ccc5F)c5ccc2[nH]5)C=C4)C=C3)cc1
REMARK SMILES IDX 4 1 3 2 1 3 2 4 22 6 23 7 84 8 24 9 83 10 25 11 26 12 27 13
REMARK SMILES IDX 77 14 28 15 82 16 76 17 78 18 29 19 81 20 75 21 74 22 30 24
REMARK SMILES IDX 62 25 42 26 61 27 43 28 46 29 60 30 79 31 44 32 45 33 59 35
REMARK SMILES IDX 80 36 47 37 31 38 32 39 40 40 33 41 39 42 41 43 38 44 34 45
REMARK SMILES IDX 35 46 36 47 37 48 63 49 64 50 72 51 65 52 71 53 73 54 70 55
REMARK SMILES IDX 66 56 67 57 68 58 69 59 48 60 49 61 57 62 50 63 56 64 58 65
REMARK SMILES IDX 55 66 51 67 52 68 53 69 54 70 5 71 6 72 7 73 8 74 9 76 10 77
REMARK SMILES IDX 11 78 21 79 12 80 13 81 14 82 15 83 20 84 16 85 18 86 17 87
REMARK SMILES IDX 19 88
REMARK H PARENT 3 5 78 23 46 34 7 75
REMARK Flexibility Score: inf
ROOT
ATOM      1  C   UNL A   1      34.677  33.578  29.447  1.00  0.00     0.118 C 
ENDROOT
BRANCH   1   2
ATOM      2  N   UNL A   1      34.058  32.583  28.580  1.00  0.00    -0.352 N 
ATOM      3  O   UNL A   1      33.944  30.821  27.190  1.00  0.00    -0.269 OA
ATOM      4  C   UNL A   1      34.564  31.410  28.072  1.00  0.00     0.251 C 
ATOM      5  H   UNL A   1      33.130  32.781  28.318  1.00  0.00     0.163 HD
BRANCH   4   6
ATOM      6  C   UNL A   1      35.846  30.864  28.569  1.00  0.00     0.039 A 
ATOM      7  C   UNL A   1      35.875  29.707  29.350  1.00  0.00     0.014 A 
ATOM      8  C   UNL A   1      37.043  31.494  28.212  1.00  0.00     0.014 A 
ATOM      9  C   UNL A   1      37.076  29.269  29.895  1.00  0.00     0.010 A 
ATOM     10  C   UNL A   1      38.263  30.995  28.685  1.00  0.00     0.010 A 
ATOM     11  C   UNL A   1      38.286  29.894  29.553  1.00  0.00    -0.014 A 
BRANCH  11  12
ATOM     12  C   UNL A   1      39.560  29.327  30.064  1.00  0.00     0.031 A 
ATOM     13  C   UNL A   1      40.198  29.851  31.320  1.00  0.00     0.074 A 
ATOM     14  C   UNL A   1      40.116  28.294  29.400  1.00  0.00     0.049 A 
ATOM     15  N   UNL A   1      41.296  29.452  31.911  1.00  0.00    -0.248 NA
ATOM     16  C   UNL A   1      39.526  30.970  31.998  1.00  0.00     0.031 C 
ATOM     17  C   UNL A   1      39.585  27.706  28.167  1.00  0.00     0.029 A 
ATOM     18  N   UNL A   1      41.225  27.538  29.676  1.00  0.00    -0.354 N 
ATOM     19  C   UNL A   1      41.458  30.280  33.017  1.00  0.00     0.074 A 
ATOM     20  C   UNL A   1      40.356  31.219  33.002  1.00  0.00     0.031 C 
ATOM     21  C   UNL A   1      40.330  26.645  27.828  1.00  0.00     0.029 A 
ATOM     22  C   UNL A   1      41.432  26.519  28.776  1.00  0.00     0.049 A 
ATOM     23  H   UNL A   1      41.817  27.707  30.445  1.00  0.00     0.167 HD
ATOM     24  C   UNL A   1      42.436  30.252  33.954  1.00  0.00     0.034 A 
ATOM     25  C   UNL A   1      42.408  25.594  28.704  1.00  0.00     0.034 A 
ATOM     26  C   UNL A   1      43.517  29.296  33.965  1.00  0.00     0.049 A 
ATOM     27  C   UNL A   1      43.493  25.601  29.740  1.00  0.00     0.074 A 
ATOM     28  C   UNL A   1      44.532  29.156  34.897  1.00  0.00     0.029 A 
ATOM     29  N   UNL A   1      43.730  28.322  32.999  1.00  0.00    -0.354 N 
ATOM     30  N   UNL A   1      43.637  26.401  30.771  1.00  0.00    -0.248 NA
ATOM     31  C   UNL A   1      44.552  24.595  29.599  1.00  0.00     0.031 C 
ATOM     32  C   UNL A   1      45.390  28.139  34.464  1.00  0.00     0.029 A 
ATOM     33  C   UNL A   1      44.877  27.601  33.294  1.00  0.00     0.049 A 
ATOM     34  H   UNL A   1      43.151  28.167  32.218  1.00  0.00     0.167 HD
ATOM     35  C   UNL A   1      44.805  25.994  31.403  1.00  0.00     0.074 A 
ATOM     36  C   UNL A   1      45.320  24.869  30.646  1.00  0.00     0.031 C 
ATOM     37  C   UNL A   1      45.394  26.504  32.513  1.00  0.00     0.034 A 
BRANCH  24  38
ATOM     38  C   UNL A   1      42.411  31.312  35.026  1.00  0.00     0.023 A 
ATOM     39  C   UNL A   1      42.848  32.625  34.783  1.00  0.00     0.031 A 
ATOM     40  C   UNL A   1      41.916  31.005  36.306  1.00  0.00     0.131 A 
ATOM     41  C   UNL A   1      42.820  33.572  35.818  1.00  0.00     0.055 A 
ATOM     42  C   UNL A   1      41.836  31.966  37.315  1.00  0.00     0.041 A 
ATOM     43  F   UNL A   1      41.503  29.761  36.597  1.00  0.00    -0.206 F 
ATOM     44  C   UNL A   1      42.296  33.258  37.075  1.00  0.00     0.022 A 
BRANCH  41  45
ATOM     45  S   UNL A   1      43.551  35.207  35.526  1.00  0.00     0.124 S 
ATOM     46  O   UNL A   1      43.989  35.576  36.870  1.00  0.00    -0.237 OA
ATOM     47  O   UNL A   1      44.610  34.914  34.568  1.00  0.00    -0.237 OA
ATOM     48  O   UNL A   1      42.437  35.993  35.002  1.00  0.00    -0.744 OA
ENDBRANCH  41  45
ENDBRANCH  24  38
BRANCH  25  49
ATOM     49  C   UNL A   1      42.408  24.618  27.582  1.00  0.00     0.023 A 
ATOM     50  C   UNL A   1      41.687  23.419  27.662  1.00  0.00     0.031 A 
ATOM     51  C   UNL A   1      43.095  24.906  26.388  1.00  0.00     0.131 A 
ATOM     52  C   UNL A   1      41.674  22.543  26.565  1.00  0.00     0.055 A 
ATOM     53  C   UNL A   1      43.050  24.050  25.289  1.00  0.00     0.041 A 
ATOM     54  F   UNL A   1      43.784  26.052  26.263  1.00  0.00    -0.206 F 
ATOM     55  C   UNL A   1      42.337  22.858  25.375  1.00  0.00     0.022 A 
BRANCH  52  56
ATOM     56  S   UNL A   1      40.769  20.977  26.707  1.00  0.00     0.124 S 
ATOM     57  O   UNL A   1      40.778  20.760  28.149  1.00  0.00    -0.237 OA
ATOM     58  O   UNL A   1      39.478  21.314  26.115  1.00  0.00    -0.237 OA
ATOM     59  O   UNL A   1      41.581  20.044  25.928  1.00  0.00    -0.744 OA
ENDBRANCH  52  56
ENDBRANCH  25  49
BRANCH  37  60
ATOM     60  C   UNL A   1      46.660  25.842  32.981  1.00  0.00     0.023 A 
ATOM     61  C   UNL A   1      46.632  24.763  33.880  1.00  0.00     0.031 A 
ATOM     62  C   UNL A   1      47.906  26.277  32.498  1.00  0.00     0.131 A 
ATOM     63  C   UNL A   1      47.834  24.169  34.291  1.00  0.00     0.055 A 
ATOM     64  C   UNL A   1      49.095  25.656  32.876  1.00  0.00     0.041 A 
ATOM     65  F   UNL A   1      47.982  27.305  31.637  1.00  0.00    -0.206 F 
ATOM     66  C   UNL A   1      49.064  24.598  33.782  1.00  0.00     0.022 A 
BRANCH  63  67
ATOM     67  S   UNL A   1      47.778  22.842  35.525  1.00  0.00     0.124 S 
ATOM     68  O   UNL A   1      47.749  21.650  34.684  1.00  0.00    -0.237 OA
ATOM     69  O   UNL A   1      49.007  23.058  36.282  1.00  0.00    -0.237 OA
ATOM     70  O   UNL A   1      46.544  23.112  36.262  1.00  0.00    -0.744 OA
ENDBRANCH  63  67
ENDBRANCH  37  60
ENDBRANCH  11  12
ENDBRANCH   4   6
ENDBRANCH   1   2
BRANCH   1  71
ATOM     71  C   UNL A   1      34.345  35.004  29.026  1.00  0.00     0.042 C 
BRANCH  71  72
ATOM     72  C   UNL A   1      33.018  35.511  29.577  1.00  0.00     0.118 C 
BRANCH  72  73
ATOM     73  N   UNL A   1      33.185  36.727  30.358  1.00  0.00    -0.349 N 
ATOM     74  C   UNL A   1      33.432  36.856  31.704  1.00  0.00     0.287 C 
ATOM     75  H   UNL A   1      33.109  37.570  29.856  1.00  0.00     0.163 HD
ATOM     76  O   UNL A   1      33.264  37.973  32.210  1.00  0.00    -0.266 OA
BRANCH  74  77
ATOM     77  C   UNL A   1      33.905  35.711  32.441  1.00  0.00     0.192 A 
ATOM     78  C   UNL A   1      33.289  34.522  32.793  1.00  0.00     0.057 A 
ATOM     79  O   UNL A   1      35.201  35.696  32.878  1.00  0.00    -0.451 OA
ATOM     80  C   UNL A   1      34.246  33.759  33.496  1.00  0.00     0.052 A 
ATOM     81  C   UNL A   1      35.400  34.514  33.528  1.00  0.00     0.135 A 
BRANCH  81  82
ATOM     82  C   UNL A   1      36.727  34.290  34.073  1.00  0.00     0.020 A 
ATOM     83  C   UNL A   1      36.872  33.809  35.385  1.00  0.00     0.012 A 
ATOM     84  C   UNL A   1      37.873  34.575  33.323  1.00  0.00     0.051 A 
ATOM     85  C   UNL A   1      38.140  33.622  35.942  1.00  0.00     0.004 A 
ATOM     86  C   UNL A   1      39.130  34.395  33.890  1.00  0.00     0.123 A 
ATOM     87  C   UNL A   1      39.274  33.922  35.191  1.00  0.00     0.039 A 
ATOM     88  F   UNL A   1      40.226  34.687  33.177  1.00  0.00    -0.207 F 
ENDBRANCH  81  82
ENDBRANCH  74  77
ENDBRANCH  72  73
ENDBRANCH  71  72
ENDBRANCH   1  71
TORSDOF 14
ENDMDL
MODEL 3
REMARK VINA RESULT:     -11.8      0.577      7.744
REMARK SMILES O=C(NCCCNC(=O)c1ccc(-c2cccc(F)c2)o1)c1ccc(-c2c3nc(c(-c4cc(S(=O)(=O)[O-])ccc4F)c4ccc([nH]4)c(-c4cc(S(=O)(=O)[O-])ccc4F)c4nc(c(-c5cc(S(=O)(=O)[O-])ccc5F)c5ccc2[nH]5)C=C4)C=C3)cc1
REMARK SMILES IDX 4 1 3 2 1 3 2 4 22 6 23 7 84 8 24 9 83 10 25 11 26 12 27 13
REMARK SMILES IDX 77 14 28 15 82 16 76 17 78 18 29 19 81 20 75 21 74 22 30 24
REMARK SMILES IDX 62 25 42 26 61 27 43 28 46 29 60 30 79 31 44 32 45 33 59 35
REMARK SMILES IDX 80 36 47 37 31 38 32 39 40 40 33 41 39 42 41 43 38 44 34 45
REMARK SMILES IDX 35 46 36 47 37 48 63 49 64 50 72 51 65 52 71 53 73 54 70 55
REMARK SMILES IDX 66 56 67 57 68 58 69 59 48 60 49 61 57 62 50 63 56 64 58 65
REMARK SMILES IDX 55 66 51 67 52 68 53 69 54 70 5 71 6 72 7 73 8 74 9 76 10 77
REMARK SMILES IDX 11 78 21 79 12 80 13 81 14 82 15 83 20 84 16 85 18 86 17 87
REMARK SMILES IDX 19 88
REMARK H PARENT 3 5 78 23 46 34 7 75
REMARK Flexibility Score: inf
ROOT
ATOM      1  C   UNL A   1      33.429  29.170  24.942  1.00  0.00     0.118 C 
ENDROOT
BRANCH   1   2
ATOM      2  N   UNL A   1      32.789  30.335  25.540  1.00  0.00    -0.352 N 
ATOM      3  O   UNL A   1      32.262  31.825  27.138  1.00  0.00    -0.269 OA
ATOM      4  C   UNL A   1      33.060  30.989  26.718  1.00  0.00     0.251 C 
ATOM      5  H   UNL A   1      32.046  30.714  25.017  1.00  0.00     0.163 HD
BRANCH   4   6
ATOM      6  C   UNL A   1      34.289  30.686  27.483  1.00  0.00     0.039 A 
ATOM      7  C   UNL A   1      34.508  29.412  28.010  1.00  0.00     0.014 A 
ATOM      8  C   UNL A   1      35.260  31.681  27.639  1.00  0.00     0.014 A 
ATOM      9  C   UNL A   1      35.616  29.175  28.815  1.00  0.00     0.010 A 
ATOM     10  C   UNL A   1      36.424  31.413  28.370  1.00  0.00     0.010 A 
ATOM     11  C   UNL A   1      36.598  30.164  28.987  1.00  0.00    -0.014 A 
BRANCH  11  12
ATOM     12  C   UNL A   1      37.823  29.837  29.759  1.00  0.00     0.031 A 
ATOM     13  C   UNL A   1      38.012  30.327  31.167  1.00  0.00     0.074 A 
ATOM     14  C   UNL A   1      38.753  29.047  29.185  1.00  0.00     0.049 A 
ATOM     15  N   UNL A   1      39.012  30.113  31.984  1.00  0.00    -0.248 NA
ATOM     16  C   UNL A   1      36.949  31.173  31.732  1.00  0.00     0.031 C 
ATOM     17  C   UNL A   1      38.676  28.516  27.820  1.00  0.00     0.029 A 
ATOM     18  N   UNL A   1      39.923  28.530  29.675  1.00  0.00    -0.354 N 
ATOM     19  C   UNL A   1      38.712  30.809  33.150  1.00  0.00     0.074 A 
ATOM     20  C   UNL A   1      37.444  31.472  32.926  1.00  0.00     0.031 C 
ATOM     21  C   UNL A   1      39.717  27.701  27.606  1.00  0.00     0.029 A 
ATOM     22  C   UNL A   1      40.574  27.706  28.787  1.00  0.00     0.049 A 
ATOM     23  H   UNL A   1      40.266  28.728  30.577  1.00  0.00     0.167 HD
ATOM     24  C   UNL A   1      39.429  30.882  34.297  1.00  0.00     0.034 A 
ATOM     25  C   UNL A   1      41.739  27.039  28.897  1.00  0.00     0.034 A 
ATOM     26  C   UNL A   1      40.682  30.199  34.510  1.00  0.00     0.049 A 
ATOM     27  C   UNL A   1      42.526  27.158  30.168  1.00  0.00     0.074 A 
ATOM     28  C   UNL A   1      41.463  30.172  35.654  1.00  0.00     0.029 A 
ATOM     29  N   UNL A   1      41.341  29.427  33.563  1.00  0.00    -0.354 N 
ATOM     30  N   UNL A   1      42.232  27.833  31.254  1.00  0.00    -0.248 NA
ATOM     31  C   UNL A   1      43.805  26.441  30.225  1.00  0.00     0.031 C 
ATOM     32  C   UNL A   1      42.621  29.437  35.378  1.00  0.00     0.029 A 
ATOM     33  C   UNL A   1      42.534  28.950  34.084  1.00  0.00     0.049 A 
ATOM     34  H   UNL A   1      41.011  29.247  32.653  1.00  0.00     0.167 HD
ATOM     35  C   UNL A   1      43.291  27.620  32.128  1.00  0.00     0.074 A 
ATOM     36  C   UNL A   1      44.224  26.745  31.447  1.00  0.00     0.031 C 
ATOM     37  C   UNL A   1      43.469  28.105  33.382  1.00  0.00     0.034 A 
BRANCH  24  38
ATOM     38  C   UNL A   1      38.901  31.765  35.399  1.00  0.00     0.023 A 
ATOM     39  C   UNL A   1      38.295  31.234  36.550  1.00  0.00     0.031 A 
ATOM     40  C   UNL A   1      39.032  33.162  35.303  1.00  0.00     0.131 A 
ATOM     41  C   UNL A   1      37.804  32.099  37.541  1.00  0.00     0.055 A 
ATOM     42  C   UNL A   1      38.596  34.014  36.319  1.00  0.00     0.041 A 
ATOM     43  F   UNL A   1      39.588  33.721  34.217  1.00  0.00    -0.206 F 
ATOM     44  C   UNL A   1      37.971  33.483  37.444  1.00  0.00     0.022 A 
BRANCH  41  45
ATOM     45  S   UNL A   1      36.872  31.396  38.929  1.00  0.00     0.124 S 
ATOM     46  O   UNL A   1      35.688  32.253  38.952  1.00  0.00    -0.237 OA
ATOM     47  O   UNL A   1      36.655  30.019  38.501  1.00  0.00    -0.237 OA
ATOM     48  O   UNL A   1      37.774  31.560  40.067  1.00  0.00    -0.744 OA
ENDBRANCH  41  45
ENDBRANCH  24  38
BRANCH  25  49
ATOM     49  C   UNL A   1      42.233  26.239  27.745  1.00  0.00     0.023 A 
ATOM     50  C   UNL A   1      42.091  24.845  27.715  1.00  0.00     0.031 A 
ATOM     51  C   UNL A   1      42.811  26.876  26.631  1.00  0.00     0.131 A 
ATOM     52  C   UNL A   1      42.530  24.127  26.591  1.00  0.00     0.055 A 
ATOM     53  C   UNL A   1      43.212  26.162  25.502  1.00  0.00     0.041 A 
ATOM     54  F   UNL A   1      42.950  28.211  26.611  1.00  0.00    -0.206 F 
ATOM     55  C   UNL A   1      43.074  24.777  25.480  1.00  0.00     0.022 A 
BRANCH  52  56
ATOM     56  S   UNL A   1      42.375  22.320  26.593  1.00  0.00     0.124 S 
ATOM     57  O   UNL A   1      41.199  22.122  25.753  1.00  0.00    -0.237 OA
ATOM     58  O   UNL A   1      43.651  21.902  26.020  1.00  0.00    -0.237 OA
ATOM     59  O   UNL A   1      42.196  21.995  28.006  1.00  0.00    -0.744 OA
ENDBRANCH  52  56
ENDBRANCH  25  49
BRANCH  37  60
ATOM     60  C   UNL A   1      44.721  27.688  34.104  1.00  0.00     0.023 A 
ATOM     61  C   UNL A   1      44.763  26.519  34.881  1.00  0.00     0.031 A 
ATOM     62  C   UNL A   1      45.892  28.457  33.987  1.00  0.00     0.131 A 
ATOM     63  C   UNL A   1      45.951  26.162  35.536  1.00  0.00     0.055 A 
ATOM     64  C   UNL A   1      47.081  28.075  34.606  1.00  0.00     0.041 A 
ATOM     65  F   UNL A   1      45.899  29.582  33.256  1.00  0.00    -0.206 F 
ATOM     66  C   UNL A   1      47.114  26.924  35.390  1.00  0.00     0.022 A 
BRANCH  63  67
ATOM     67  S   UNL A   1      45.952  24.701  36.610  1.00  0.00     0.124 S 
ATOM     68  O   UNL A   1      46.155  23.622  35.649  1.00  0.00    -0.237 OA
ATOM     69  O   UNL A   1      47.069  24.970  37.511  1.00  0.00    -0.237 OA
ATOM     70  O   UNL A   1      44.632  24.736  37.236  1.00  0.00    -0.744 OA
ENDBRANCH  63  67
ENDBRANCH  37  60
ENDBRANCH  11  12
ENDBRANCH   4   6
ENDBRANCH   1   2
BRANCH   1  71
ATOM     71  C   UNL A   1      32.978  28.931  23.506  1.00  0.00     0.042 C 
BRANCH  71  72
ATOM     72  C   UNL A   1      34.012  28.206  22.653  1.00  0.00     0.118 C 
BRANCH  72  73
ATOM     73  N   UNL A   1      33.389  27.421  21.597  1.00  0.00    -0.349 N 
ATOM     74  C   UNL A   1      33.201  26.061  21.535  1.00  0.00     0.287 C 
ATOM     75  H   UNL A   1      33.060  27.933  20.824  1.00  0.00     0.163 HD
ATOM     76  O   UNL A   1      32.905  25.577  20.436  1.00  0.00    -0.266 OA
BRANCH  74  77
ATOM     77  C   UNL A   1      33.319  25.284  22.744  1.00  0.00     0.192 A 
ATOM     78  C   UNL A   1      32.411  24.997  23.748  1.00  0.00     0.057 A 
ATOM     79  O   UNL A   1      34.501  24.646  23.005  1.00  0.00    -0.451 OA
ATOM     80  C   UNL A   1      33.077  24.166  24.675  1.00  0.00     0.052 A 
ATOM     81  C   UNL A   1      34.352  23.978  24.185  1.00  0.00     0.135 A 
BRANCH  81  82
ATOM     82  C   UNL A   1      35.501  23.222  24.651  1.00  0.00     0.020 A 
ATOM     83  C   UNL A   1      35.529  21.826  24.497  1.00  0.00     0.012 A 
ATOM     84  C   UNL A   1      36.575  23.857  25.282  1.00  0.00     0.051 A 
ATOM     85  C   UNL A   1      36.608  21.075  24.971  1.00  0.00     0.004 A 
ATOM     86  C   UNL A   1      37.640  23.100  25.760  1.00  0.00     0.123 A 
ATOM     87  C   UNL A   1      37.665  21.717  25.611  1.00  0.00     0.039 A 
ATOM     88  F   UNL A   1      38.659  23.708  26.382  1.00  0.00    -0.207 F 
ENDBRANCH  81  82
ENDBRANCH  74  77
ENDBRANCH  72  73
ENDBRANCH  71  72
ENDBRANCH   1  71
TORSDOF 14
ENDMDL
