MODEL 1
REMARK VINA RESULT:     -11.7      0.000      0.000
REMARK SMILES CCC[C@@H](C(=O)N1CC[C@@](C)(C(=O)NCCCNC(=O)c2ccc(-c3c4nc(c(-c5cc(S(=O)(=O)[O-])ccc5F)c5ccc([nH]5)c(-c5cc(S(=O)(=O)[O-])ccc5F)c5nc(c(-c6cc(S(=O)(=O)[O-])ccc6F)c6ccc3[nH]6)C=C5)C=C4)cc2)C1)c1ccccc1
REMARK SMILES IDX 15 1 14 2 12 3 13 4 10 6 7 7 8 8 84 9 9 10 11 11 5 12 6 13
REMARK SMILES IDX 4 14 3 15 2 16 1 17 85 18 86 19 90 20 87 21 89 22 88 23
REMARK SMILES IDX 16 24 17 25 18 26 19 27 20 29 21 30 22 31 83 32 23 33 82 34
REMARK SMILES IDX 24 35 25 36 26 37 76 38 27 39 81 40 75 41 77 42 28 43 80 44
REMARK SMILES IDX 74 45 73 46 29 48 61 49 41 50 60 51 42 52 45 53 59 54 78 55
REMARK SMILES IDX 43 56 44 57 58 59 79 60 46 61 30 62 31 63 39 64 32 65 38 66
REMARK SMILES IDX 40 67 37 68 33 69 34 70 35 71 36 72 62 73 63 74 71 75 64 76
REMARK SMILES IDX 70 77 72 78 69 79 65 80 66 81 67 82 68 83 47 84 48 85 56 86
REMARK SMILES IDX 49 87 55 88 57 89 54 90 50 91 51 92 52 93 53 94
REMARK H PARENT 14 5 18 28 77 47 45 58
REMARK Flexibility Score: inf
ROOT
ATOM      1  C   UNL A   1      31.593  30.356  26.184  1.00  0.00     0.117 C 
ENDROOT
BRANCH   1   2
ATOM      2  N   UNL A   1      31.808  30.027  24.790  1.00  0.00    -0.356 N 
ATOM      3  C   UNL A   1      31.658  28.926  24.029  1.00  0.00     0.227 C 
ATOM      4  O   UNL A   1      31.971  29.089  22.839  1.00  0.00    -0.274 OA
ATOM      5  H   UNL A   1      32.145  30.795  24.273  1.00  0.00     0.163 HD
BRANCH   3   6
ATOM      6  C   UNL A   1      31.246  27.521  24.502  1.00  0.00     0.066 C 
ATOM      7  N   UNL A   1      32.868  25.834  25.069  1.00  0.00    -0.341 N 
ATOM      8  C   UNL A   1      32.471  26.469  26.311  1.00  0.00     0.120 C 
ATOM      9  C   UNL A   1      32.283  26.525  23.942  1.00  0.00     0.136 C 
ATOM     10  C   UNL A   1      31.158  27.163  25.990  1.00  0.00     0.040 C 
ATOM     11  C   UNL A   1      29.855  27.267  23.874  1.00  0.00     0.024 C 
BRANCH   7  12
ATOM     12  C   UNL A   1      33.465  24.588  25.067  1.00  0.00     0.230 C 
ATOM     13  O   UNL A   1      33.367  23.895  26.087  1.00  0.00    -0.274 OA
BRANCH  12  14
ATOM     14  C   UNL A   1      34.417  24.163  23.890  1.00  0.00     0.108 C 
BRANCH  14  15
ATOM     15  C   UNL A   1      33.862  23.296  22.729  1.00  0.00     0.018 C 
BRANCH  15  16
ATOM     16  C   UNL A   1      32.505  22.579  22.836  1.00  0.00    -0.002 C 
ATOM     17  C   UNL A   1      32.502  21.211  23.498  1.00  0.00     0.004 C 
ENDBRANCH  15  16
ENDBRANCH  14  15
BRANCH  14  18
ATOM     18  C   UNL A   1      35.676  23.476  24.498  1.00  0.00    -0.036 A 
ATOM     19  C   UNL A   1      36.071  22.214  24.021  1.00  0.00     0.004 A 
ATOM     20  C   UNL A   1      36.484  24.092  25.471  1.00  0.00     0.004 A 
ATOM     21  C   UNL A   1      37.217  21.584  24.516  1.00  0.00     0.000 A 
ATOM     22  C   UNL A   1      37.615  23.449  25.985  1.00  0.00     0.000 A 
ATOM     23  C   UNL A   1      37.982  22.196  25.506  1.00  0.00     0.000 A 
ENDBRANCH  14  18
ENDBRANCH  12  14
ENDBRANCH   7  12
ENDBRANCH   3   6
ENDBRANCH   1   2
BRANCH   1  24
ATOM     24  C   UNL A   1      31.559  31.861  26.415  1.00  0.00     0.042 C 
BRANCH  24  25
ATOM     25  C   UNL A   1      32.669  32.353  27.339  1.00  0.00     0.118 C 
BRANCH  25  26
ATOM     26  N   UNL A   1      32.570  33.786  27.597  1.00  0.00    -0.352 N 
ATOM     27  C   UNL A   1      33.171  34.557  28.563  1.00  0.00     0.251 C 
ATOM     28  H   UNL A   1      31.980  34.277  26.981  1.00  0.00     0.163 HD
ATOM     29  O   UNL A   1      32.730  35.679  28.791  1.00  0.00    -0.269 OA
BRANCH  27  30
ATOM     30  C   UNL A   1      34.328  34.037  29.321  1.00  0.00     0.039 A 
ATOM     31  C   UNL A   1      34.110  33.201  30.420  1.00  0.00     0.014 A 
ATOM     32  C   UNL A   1      35.630  34.404  28.972  1.00  0.00     0.014 A 
ATOM     33  C   UNL A   1      35.199  32.681  31.123  1.00  0.00     0.010 A 
ATOM     34  C   UNL A   1      36.713  33.815  29.614  1.00  0.00     0.010 A 
ATOM     35  C   UNL A   1      36.511  32.953  30.702  1.00  0.00    -0.014 A 
BRANCH  35  36
ATOM     36  C   UNL A   1      37.692  32.370  31.390  1.00  0.00     0.031 A 
ATOM     37  C   UNL A   1      38.452  31.242  30.744  1.00  0.00     0.074 A 
ATOM     38  C   UNL A   1      38.028  32.799  32.622  1.00  0.00     0.049 A 
ATOM     39  N   UNL A   1      39.423  30.512  31.229  1.00  0.00    -0.248 NA
ATOM     40  C   UNL A   1      38.036  30.863  29.385  1.00  0.00     0.031 C 
ATOM     41  C   UNL A   1      37.345  33.864  33.362  1.00  0.00     0.029 A 
ATOM     42  N   UNL A   1      39.018  32.387  33.477  1.00  0.00    -0.354 N 
ATOM     43  C   UNL A   1      39.722  29.577  30.243  1.00  0.00     0.074 A 
ATOM     44  C   UNL A   1      38.781  29.792  29.164  1.00  0.00     0.031 C 
ATOM     45  C   UNL A   1      37.953  34.037  34.546  1.00  0.00     0.029 A 
ATOM     46  C   UNL A   1      39.030  33.063  34.677  1.00  0.00     0.049 A 
ATOM     47  H   UNL A   1      39.660  31.675  33.254  1.00  0.00     0.167 HD
ATOM     48  C   UNL A   1      40.708  28.645  30.227  1.00  0.00     0.034 A 
ATOM     49  C   UNL A   1      39.812  32.902  35.764  1.00  0.00     0.034 A 
ATOM     50  C   UNL A   1      41.645  28.458  31.307  1.00  0.00     0.049 A 
ATOM     51  C   UNL A   1      40.878  31.835  35.738  1.00  0.00     0.074 A 
ATOM     52  C   UNL A   1      42.709  27.577  31.383  1.00  0.00     0.029 A 
ATOM     53  N   UNL A   1      41.628  29.163  32.505  1.00  0.00    -0.354 N 
ATOM     54  N   UNL A   1      41.173  30.983  34.782  1.00  0.00    -0.248 NA
ATOM     55  C   UNL A   1      41.721  31.713  36.934  1.00  0.00     0.031 C 
ATOM     56  C   UNL A   1      43.293  27.703  32.648  1.00  0.00     0.029 A 
ATOM     57  C   UNL A   1      42.647  28.717  33.334  1.00  0.00     0.049 A 
ATOM     58  H   UNL A   1      40.988  29.876  32.731  1.00  0.00     0.167 HD
ATOM     59  C   UNL A   1      42.260  30.250  35.249  1.00  0.00     0.074 A 
ATOM     60  C   UNL A   1      42.575  30.769  36.565  1.00  0.00     0.031 C 
ATOM     61  C   UNL A   1      42.943  29.245  34.645  1.00  0.00     0.034 A 
BRANCH  48  62
ATOM     62  C   UNL A   1      40.800  27.751  29.012  1.00  0.00     0.023 A 
ATOM     63  C   UNL A   1      41.732  27.993  27.988  1.00  0.00     0.031 A 
ATOM     64  C   UNL A   1      39.925  26.660  28.858  1.00  0.00     0.131 A 
ATOM     65  C   UNL A   1      41.713  27.213  26.822  1.00  0.00     0.055 A 
ATOM     66  C   UNL A   1      39.971  25.832  27.734  1.00  0.00     0.041 A 
ATOM     67  F   UNL A   1      38.999  26.389  29.791  1.00  0.00    -0.206 F 
ATOM     68  C   UNL A   1      40.858  26.117  26.699  1.00  0.00     0.022 A 
BRANCH  65  69
ATOM     69  S   UNL A   1      42.714  27.749  25.407  1.00  0.00     0.124 S 
ATOM     70  O   UNL A   1      42.699  26.552  24.567  1.00  0.00    -0.237 OA
ATOM     71  O   UNL A   1      41.963  28.892  24.903  1.00  0.00    -0.237 OA
ATOM     72  O   UNL A   1      44.010  28.064  26.004  1.00  0.00    -0.744 OA
ENDBRANCH  65  69
ENDBRANCH  48  62
BRANCH  49  73
ATOM     73  C   UNL A   1      39.621  33.758  36.970  1.00  0.00     0.023 A 
ATOM     74  C   UNL A   1      40.480  34.838  37.228  1.00  0.00     0.031 A 
ATOM     75  C   UNL A   1      38.609  33.483  37.907  1.00  0.00     0.131 A 
ATOM     76  C   UNL A   1      40.347  35.570  38.418  1.00  0.00     0.055 A 
ATOM     77  C   UNL A   1      38.444  34.251  39.061  1.00  0.00     0.041 A 
ATOM     78  F   UNL A   1      37.756  32.465  37.708  1.00  0.00    -0.206 F 
ATOM     79  C   UNL A   1      39.327  35.293  39.330  1.00  0.00     0.022 A 
BRANCH  76  80
ATOM     80  S   UNL A   1      41.594  36.829  38.804  1.00  0.00     0.124 S 
ATOM     81  O   UNL A   1      42.357  36.177  39.861  1.00  0.00    -0.237 OA
ATOM     82  O   UNL A   1      42.274  36.984  37.523  1.00  0.00    -0.237 OA
ATOM     83  O   UNL A   1      40.796  37.978  39.227  1.00  0.00    -0.744 OA
ENDBRANCH  76  80
ENDBRANCH  49  73
BRANCH  61  84
ATOM     84  C   UNL A   1      44.132  28.682  35.383  1.00  0.00     0.023 A 
ATOM     85  C   UNL A   1      43.991  27.710  36.388  1.00  0.00     0.031 A 
ATOM     86  C   UNL A   1      45.429  29.130  35.073  1.00  0.00     0.131 A 
ATOM     87  C   UNL A   1      45.121  27.255  37.083  1.00  0.00     0.055 A 
ATOM     88  C   UNL A   1      46.556  28.628  35.726  1.00  0.00     0.041 A 
ATOM     89  F   UNL A   1      45.622  30.059  34.123  1.00  0.00    -0.206 F 
ATOM     90  C   UNL A   1      46.404  27.694  36.746  1.00  0.00     0.022 A 
BRANCH  87  91
ATOM     91  S   UNL A   1      44.885  26.142  38.496  1.00  0.00     0.124 S 
ATOM     92  O   UNL A   1      45.841  26.673  39.463  1.00  0.00    -0.237 OA
ATOM     93  O   UNL A   1      43.476  26.340  38.819  1.00  0.00    -0.237 OA
ATOM     94  O   UNL A   1      45.216  24.825  37.955  1.00  0.00    -0.744 OA
ENDBRANCH  87  91
ENDBRANCH  61  84
ENDBRANCH  35  36
ENDBRANCH  27  30
ENDBRANCH  25  26
ENDBRANCH  24  25
ENDBRANCH   1  24
TORSDOF 18
ENDMDL
MODEL 2
REMARK VINA RESULT:     -11.6      3.291      8.614
REMARK SMILES CCC[C@@H](C(=O)N1CC[C@@](C)(C(=O)NCCCNC(=O)c2ccc(-c3c4nc(c(-c5cc(S(=O)(=O)[O-])ccc5F)c5ccc([nH]5)c(-c5cc(S(=O)(=O)[O-])ccc5F)c5nc(c(-c6cc(S(=O)(=O)[O-])ccc6F)c6ccc3[nH]6)C=C5)C=C4)cc2)C1)c1ccccc1
REMARK SMILES IDX 15 1 14 2 12 3 13 4 10 6 7 7 8 8 84 9 9 10 11 11 5 12 6 13
REMARK SMILES IDX 4 14 3 15 2 16 1 17 85 18 86 19 90 20 87 21 89 22 88 23
REMARK SMILES IDX 16 24 17 25 18 26 19 27 20 29 21 30 22 31 83 32 23 33 82 34
REMARK SMILES IDX 24 35 25 36 26 37 76 38 27 39 81 40 75 41 77 42 28 43 80 44
REMARK SMILES IDX 74 45 73 46 29 48 61 49 41 50 60 51 42 52 45 53 59 54 78 55
REMARK SMILES IDX 43 56 44 57 58 59 79 60 46 61 30 62 31 63 39 64 32 65 38 66
REMARK SMILES IDX 40 67 37 68 33 69 34 70 35 71 36 72 62 73 63 74 71 75 64 76
REMARK SMILES IDX 70 77 72 78 69 79 65 80 66 81 67 82 68 83 47 84 48 85 56 86
REMARK SMILES IDX 49 87 55 88 57 89 54 90 50 91 51 92 52 93 53 94
REMARK H PARENT 14 5 18 28 77 47 45 58
REMARK Flexibility Score: inf
ROOT
ATOM      1  C   UNL A   1      32.364  28.856  24.007  1.00  0.00     0.117 C 
ENDROOT
BRANCH   1   2
ATOM      2  N   UNL A   1      32.072  27.953  22.912  1.00  0.00    -0.356 N 
ATOM      3  C   UNL A   1      31.430  26.776  22.784  1.00  0.00     0.227 C 
ATOM      4  O   UNL A   1      31.415  26.334  21.624  1.00  0.00    -0.274 OA
ATOM      5  H   UNL A   1      32.431  28.278  22.055  1.00  0.00     0.163 HD
BRANCH   3   6
ATOM      6  C   UNL A   1      30.825  25.922  23.912  1.00  0.00     0.066 C 
ATOM      7  N   UNL A   1      31.813  23.841  24.612  1.00  0.00    -0.341 N 
ATOM      8  C   UNL A   1      32.298  24.862  25.520  1.00  0.00     0.120 C 
ATOM      9  C   UNL A   1      31.052  24.442  23.539  1.00  0.00     0.136 C 
ATOM     10  C   UNL A   1      31.327  26.019  25.357  1.00  0.00     0.040 C 
ATOM     11  C   UNL A   1      29.314  26.255  23.915  1.00  0.00     0.024 C 
BRANCH   7  12
ATOM     12  C   UNL A   1      31.858  22.503  24.956  1.00  0.00     0.230 C 
ATOM     13  O   UNL A   1      31.460  22.179  26.082  1.00  0.00    -0.274 OA
BRANCH  12  14
ATOM     14  C   UNL A   1      32.592  21.466  24.029  1.00  0.00     0.108 C 
BRANCH  14  15
ATOM     15  C   UNL A   1      32.343  19.948  24.229  1.00  0.00     0.018 C 
BRANCH  15  16
ATOM     16  C   UNL A   1      32.303  18.974  23.039  1.00  0.00    -0.002 C 
ATOM     17  C   UNL A   1      33.151  17.719  23.151  1.00  0.00     0.004 C 
ENDBRANCH  15  16
ENDBRANCH  14  15
BRANCH  14  18
ATOM     18  C   UNL A   1      34.121  21.754  24.081  1.00  0.00    -0.036 A 
ATOM     19  C   UNL A   1      34.951  20.935  24.867  1.00  0.00     0.004 A 
ATOM     20  C   UNL A   1      34.731  22.770  23.323  1.00  0.00     0.004 A 
ATOM     21  C   UNL A   1      36.334  21.139  24.908  1.00  0.00     0.000 A 
ATOM     22  C   UNL A   1      36.111  22.992  23.386  1.00  0.00     0.000 A 
ATOM     23  C   UNL A   1      36.912  22.176  24.177  1.00  0.00     0.000 A 
ENDBRANCH  14  18
ENDBRANCH  12  14
ENDBRANCH   7  12
ENDBRANCH   3   6
ENDBRANCH   1   2
BRANCH   1  24
ATOM     24  C   UNL A   1      33.789  28.688  24.519  1.00  0.00     0.042 C 
BRANCH  24  25
ATOM     25  C   UNL A   1      33.905  28.841  26.033  1.00  0.00     0.118 C 
BRANCH  25  26
ATOM     26  N   UNL A   1      33.718  30.225  26.457  1.00  0.00    -0.352 N 
ATOM     27  C   UNL A   1      34.338  30.938  27.455  1.00  0.00     0.251 C 
ATOM     28  H   UNL A   1      33.042  30.726  25.947  1.00  0.00     0.163 HD
ATOM     29  O   UNL A   1      33.833  31.988  27.841  1.00  0.00    -0.269 OA
BRANCH  27  30
ATOM     30  C   UNL A   1      35.592  30.442  28.060  1.00  0.00     0.039 A 
ATOM     31  C   UNL A   1      35.541  29.735  29.264  1.00  0.00     0.014 A 
ATOM     32  C   UNL A   1      36.825  30.707  27.458  1.00  0.00     0.014 A 
ATOM     33  C   UNL A   1      36.719  29.236  29.826  1.00  0.00     0.010 A 
ATOM     34  C   UNL A   1      37.983  30.134  27.969  1.00  0.00     0.010 A 
ATOM     35  C   UNL A   1      37.946  29.398  29.163  1.00  0.00    -0.014 A 
BRANCH  35  36
ATOM     36  C   UNL A   1      39.210  28.832  29.701  1.00  0.00     0.031 A 
ATOM     37  C   UNL A   1      39.870  29.475  30.891  1.00  0.00     0.074 A 
ATOM     38  C   UNL A   1      39.799  27.796  29.073  1.00  0.00     0.049 A 
ATOM     39  N   UNL A   1      41.033  29.220  31.433  1.00  0.00    -0.248 NA
ATOM     40  C   UNL A   1      39.137  30.578  31.533  1.00  0.00     0.031 C 
ATOM     41  C   UNL A   1      39.270  27.111  27.891  1.00  0.00     0.029 A 
ATOM     42  N   UNL A   1      40.979  27.144  29.330  1.00  0.00    -0.354 N 
ATOM     43  C   UNL A   1      41.178  30.140  32.467  1.00  0.00     0.074 A 
ATOM     44  C   UNL A   1      40.015  31.001  32.428  1.00  0.00     0.031 C 
ATOM     45  C   UNL A   1      40.108  26.122  27.543  1.00  0.00     0.029 A 
ATOM     46  C   UNL A   1      41.259  26.133  28.438  1.00  0.00     0.049 A 
ATOM     47  H   UNL A   1      41.569  27.377  30.083  1.00  0.00     0.167 HD
ATOM     48  C   UNL A   1      42.176  30.240  33.381  1.00  0.00     0.034 A 
ATOM     49  C   UNL A   1      42.331  25.322  28.344  1.00  0.00     0.034 A 
ATOM     50  C   UNL A   1      43.319  29.361  33.411  1.00  0.00     0.049 A 
ATOM     51  C   UNL A   1      43.446  25.474  29.349  1.00  0.00     0.074 A 
ATOM     52  C   UNL A   1      44.367  29.340  34.315  1.00  0.00     0.029 A 
ATOM     53  N   UNL A   1      43.567  28.347  32.493  1.00  0.00    -0.354 N 
ATOM     54  N   UNL A   1      43.552  26.326  30.344  1.00  0.00    -0.248 NA
ATOM     55  C   UNL A   1      44.581  24.552  29.223  1.00  0.00     0.031 C 
ATOM     56  C   UNL A   1      45.279  28.361  33.906  1.00  0.00     0.029 A 
ATOM     57  C   UNL A   1      44.764  27.715  32.795  1.00  0.00     0.049 A 
ATOM     58  H   UNL A   1      42.979  28.112  31.740  1.00  0.00     0.167 HD
ATOM     59  C   UNL A   1      44.748  26.014  30.985  1.00  0.00     0.074 A 
ATOM     60  C   UNL A   1      45.320  24.891  30.270  1.00  0.00     0.031 C 
ATOM     61  C   UNL A   1      45.320  26.597  32.068  1.00  0.00     0.034 A 
BRANCH  48  62
ATOM     62  C   UNL A   1      42.076  31.350  34.401  1.00  0.00     0.023 A 
ATOM     63  C   UNL A   1      41.105  31.331  35.418  1.00  0.00     0.031 A 
ATOM     64  C   UNL A   1      42.940  32.458  34.340  1.00  0.00     0.131 A 
ATOM     65  C   UNL A   1      40.966  32.431  36.276  1.00  0.00     0.055 A 
ATOM     66  C   UNL A   1      42.853  33.510  35.255  1.00  0.00     0.041 A 
ATOM     67  F   UNL A   1      43.874  32.546  33.380  1.00  0.00    -0.206 F 
ATOM     68  C   UNL A   1      41.851  33.510  36.221  1.00  0.00     0.022 A 
BRANCH  65  69
ATOM     69  S   UNL A   1      39.515  32.501  37.364  1.00  0.00     0.124 S 
ATOM     70  O   UNL A   1      38.923  33.783  36.981  1.00  0.00    -0.237 OA
ATOM     71  O   UNL A   1      38.769  31.311  36.973  1.00  0.00    -0.237 OA
ATOM     72  O   UNL A   1      40.091  32.467  38.706  1.00  0.00    -0.744 OA
ENDBRANCH  65  69
ENDBRANCH  48  62
BRANCH  49  73
ATOM     73  C   UNL A   1      42.416  24.298  27.263  1.00  0.00     0.023 A 
ATOM     74  C   UNL A   1      41.631  23.134  27.312  1.00  0.00     0.031 A 
ATOM     75  C   UNL A   1      43.314  24.440  26.191  1.00  0.00     0.131 A 
ATOM     76  C   UNL A   1      41.797  22.136  26.340  1.00  0.00     0.055 A 
ATOM     77  C   UNL A   1      43.434  23.470  25.194  1.00  0.00     0.041 A 
ATOM     78  F   UNL A   1      44.087  25.535  26.093  1.00  0.00    -0.206 F 
ATOM     79  C   UNL A   1      42.683  22.302  25.274  1.00  0.00     0.022 A 
BRANCH  76  80
ATOM     80  S   UNL A   1      40.906  20.569  26.547  1.00  0.00     0.124 S 
ATOM     81  O   UNL A   1      41.682  19.673  25.699  1.00  0.00    -0.237 OA
ATOM     82  O   UNL A   1      41.014  20.348  27.985  1.00  0.00    -0.237 OA
ATOM     83  O   UNL A   1      39.561  20.878  26.065  1.00  0.00    -0.744 OA
ENDBRANCH  76  80
ENDBRANCH  49  73
BRANCH  61  84
ATOM     84  C   UNL A   1      46.604  25.990  32.577  1.00  0.00     0.023 A 
ATOM     85  C   UNL A   1      46.611  24.947  33.519  1.00  0.00     0.031 A 
ATOM     86  C   UNL A   1      47.841  26.469  32.111  1.00  0.00     0.131 A 
ATOM     87  C   UNL A   1      47.831  24.451  34.002  1.00  0.00     0.055 A 
ATOM     88  C   UNL A   1      49.051  25.929  32.549  1.00  0.00     0.041 A 
ATOM     89  F   UNL A   1      47.894  27.466  31.213  1.00  0.00    -0.206 F 
ATOM     90  C   UNL A   1      49.050  24.923  33.510  1.00  0.00     0.022 A 
BRANCH  87  91
ATOM     91  S   UNL A   1      47.805  23.237  35.350  1.00  0.00     0.124 S 
ATOM     92  O   UNL A   1      46.626  22.442  35.019  1.00  0.00    -0.237 OA
ATOM     93  O   UNL A   1      49.091  22.565  35.190  1.00  0.00    -0.237 OA
ATOM     94  O   UNL A   1      47.682  24.060  36.551  1.00  0.00    -0.744 OA
ENDBRANCH  87  91
ENDBRANCH  61  84
ENDBRANCH  35  36
ENDBRANCH  27  30
ENDBRANCH  25  26
ENDBRANCH  24  25
ENDBRANCH   1  24
TORSDOF 18
ENDMDL
MODEL 3
REMARK VINA RESULT:     -11.6      2.696      3.690
REMARK SMILES CCC[C@@H](C(=O)N1CC[C@@](C)(C(=O)NCCCNC(=O)c2ccc(-c3c4nc(c(-c5cc(S(=O)(=O)[O-])ccc5F)c5ccc([nH]5)c(-c5cc(S(=O)(=O)[O-])ccc5F)c5nc(c(-c6cc(S(=O)(=O)[O-])ccc6F)c6ccc3[nH]6)C=C5)C=C4)cc2)C1)c1ccccc1
REMARK SMILES IDX 15 1 14 2 12 3 13 4 10 6 7 7 8 8 84 9 9 10 11 11 5 12 6 13
REMARK SMILES IDX 4 14 3 15 2 16 1 17 85 18 86 19 90 20 87 21 89 22 88 23
REMARK SMILES IDX 16 24 17 25 18 26 19 27 20 29 21 30 22 31 83 32 23 33 82 34
REMARK SMILES IDX 24 35 25 36 26 37 76 38 27 39 81 40 75 41 77 42 28 43 80 44
REMARK SMILES IDX 74 45 73 46 29 48 61 49 41 50 60 51 42 52 45 53 59 54 78 55
REMARK SMILES IDX 43 56 44 57 58 59 79 60 46 61 30 62 31 63 39 64 32 65 38 66
REMARK SMILES IDX 40 67 37 68 33 69 34 70 35 71 36 72 62 73 63 74 71 75 64 76
REMARK SMILES IDX 70 77 72 78 69 79 65 80 66 81 67 82 68 83 47 84 48 85 56 86
REMARK SMILES IDX 49 87 55 88 57 89 54 90 50 91 51 92 52 93 53 94
REMARK H PARENT 14 5 18 28 77 47 45 58
REMARK Flexibility Score: inf
ROOT
ATOM      1  C   UNL A   1      31.478  28.603  23.217  1.00  0.00     0.117 C 
ENDROOT
BRANCH   1   2
ATOM      2  N   UNL A   1      31.516  27.709  22.077  1.00  0.00    -0.356 N 
ATOM      3  C   UNL A   1      31.683  26.383  21.901  1.00  0.00     0.227 C 
ATOM      4  O   UNL A   1      31.645  26.024  20.714  1.00  0.00    -0.274 OA
ATOM      5  H   UNL A   1      31.388  28.185  21.225  1.00  0.00     0.163 HD
BRANCH   3   6
ATOM      6  C   UNL A   1      32.000  25.338  22.984  1.00  0.00     0.066 C 
ATOM      7  N   UNL A   1      34.232  24.512  23.351  1.00  0.00    -0.341 N 
ATOM      8  C   UNL A   1      34.015  25.576  24.312  1.00  0.00     0.120 C 
ATOM      9  C   UNL A   1      33.119  24.430  22.432  1.00  0.00     0.136 C 
ATOM     10  C   UNL A   1      32.506  25.741  24.374  1.00  0.00     0.040 C 
ATOM     11  C   UNL A   1      30.693  24.533  23.174  1.00  0.00     0.024 C 
BRANCH   7  12
ATOM     12  C   UNL A   1      35.229  23.574  23.541  1.00  0.00     0.230 C 
ATOM     13  O   UNL A   1      35.860  23.188  22.549  1.00  0.00    -0.274 OA
BRANCH  12  14
ATOM     14  C   UNL A   1      35.403  22.867  24.935  1.00  0.00     0.108 C 
BRANCH  14  15
ATOM     15  C   UNL A   1      36.828  22.587  25.481  1.00  0.00     0.018 C 
BRANCH  15  16
ATOM     16  C   UNL A   1      37.455  23.457  26.584  1.00  0.00    -0.002 C 
ATOM     17  C   UNL A   1      38.707  24.233  26.216  1.00  0.00     0.004 C 
ENDBRANCH  15  16
ENDBRANCH  14  15
BRANCH  14  18
ATOM     18  C   UNL A   1      34.580  21.545  24.923  1.00  0.00    -0.036 A 
ATOM     19  C   UNL A   1      35.245  20.320  24.741  1.00  0.00     0.004 A 
ATOM     20  C   UNL A   1      33.192  21.510  25.150  1.00  0.00     0.004 A 
ATOM     21  C   UNL A   1      34.545  19.110  24.763  1.00  0.00     0.000 A 
ATOM     22  C   UNL A   1      32.488  20.301  25.143  1.00  0.00     0.000 A 
ATOM     23  C   UNL A   1      33.164  19.102  24.952  1.00  0.00     0.000 A 
ENDBRANCH  14  18
ENDBRANCH  12  14
ENDBRANCH   7  12
ENDBRANCH   3   6
ENDBRANCH   1   2
BRANCH   1  24
ATOM     24  C   UNL A   1      32.862  29.135  23.568  1.00  0.00     0.042 C 
BRANCH  24  25
ATOM     25  C   UNL A   1      33.098  29.251  25.071  1.00  0.00     0.118 C 
BRANCH  25  26
ATOM     26  N   UNL A   1      32.517  30.470  25.622  1.00  0.00    -0.352 N 
ATOM     27  C   UNL A   1      32.839  31.171  26.759  1.00  0.00     0.251 C 
ATOM     28  H   UNL A   1      31.778  30.851  25.095  1.00  0.00     0.163 HD
ATOM     29  O   UNL A   1      32.043  31.996  27.198  1.00  0.00    -0.269 OA
BRANCH  27  30
ATOM     30  C   UNL A   1      34.123  30.927  27.449  1.00  0.00     0.039 A 
ATOM     31  C   UNL A   1      34.992  31.997  27.681  1.00  0.00     0.014 A 
ATOM     32  C   UNL A   1      34.489  29.635  27.834  1.00  0.00     0.014 A 
ATOM     33  C   UNL A   1      36.194  31.780  28.360  1.00  0.00     0.010 A 
ATOM     34  C   UNL A   1      35.640  29.436  28.587  1.00  0.00     0.010 A 
ATOM     35  C   UNL A   1      36.510  30.504  28.853  1.00  0.00    -0.014 A 
BRANCH  35  36
ATOM     36  C   UNL A   1      37.751  30.248  29.629  1.00  0.00     0.031 A 
ATOM     37  C   UNL A   1      38.825  29.366  29.051  1.00  0.00     0.074 A 
ATOM     38  C   UNL A   1      37.873  30.741  30.877  1.00  0.00     0.049 A 
ATOM     39  N   UNL A   1      39.918  28.914  29.611  1.00  0.00    -0.248 NA
ATOM     40  C   UNL A   1      38.622  28.902  27.670  1.00  0.00     0.031 C 
ATOM     41  C   UNL A   1      36.883  31.581  31.555  1.00  0.00     0.029 A 
ATOM     42  N   UNL A   1      38.874  30.597  31.805  1.00  0.00    -0.354 N 
ATOM     43  C   UNL A   1      40.522  28.100  28.658  1.00  0.00     0.074 A 
ATOM     44  C   UNL A   1      39.637  28.067  27.513  1.00  0.00     0.031 C 
ATOM     45  C   UNL A   1      37.338  31.898  32.777  1.00  0.00     0.029 A 
ATOM     46  C   UNL A   1      38.622  31.242  32.995  1.00  0.00     0.049 A 
ATOM     47  H   UNL A   1      39.695  30.082  31.635  1.00  0.00     0.167 HD
ATOM     48  C   UNL A   1      41.717  27.461  28.722  1.00  0.00     0.034 A 
ATOM     49  C   UNL A   1      39.339  31.285  34.135  1.00  0.00     0.034 A 
ATOM     50  C   UNL A   1      42.591  27.519  29.868  1.00  0.00     0.049 A 
ATOM     51  C   UNL A   1      40.648  30.537  34.197  1.00  0.00     0.074 A 
ATOM     52  C   UNL A   1      43.843  26.950  30.028  1.00  0.00     0.029 A 
ATOM     53  N   UNL A   1      42.305  28.185  31.054  1.00  0.00    -0.354 N 
ATOM     54  N   UNL A   1      41.224  29.801  33.273  1.00  0.00    -0.248 NA
ATOM     55  C   UNL A   1      41.406  30.632  35.450  1.00  0.00     0.031 C 
ATOM     56  C   UNL A   1      44.282  27.215  31.330  1.00  0.00     0.029 A 
ATOM     57  C   UNL A   1      43.343  28.017  31.957  1.00  0.00     0.049 A 
ATOM     58  H   UNL A   1      41.485  28.702  31.226  1.00  0.00     0.167 HD
ATOM     59  C   UNL A   1      42.431  29.378  33.824  1.00  0.00     0.074 A 
ATOM     60  C   UNL A   1      42.503  29.951  35.153  1.00  0.00     0.031 C 
ATOM     61  C   UNL A   1      43.396  28.594  33.280  1.00  0.00     0.034 A 
BRANCH  48  62
ATOM     62  C   UNL A   1      42.128  26.633  27.527  1.00  0.00     0.023 A 
ATOM     63  C   UNL A   1      41.996  25.234  27.519  1.00  0.00     0.031 A 
ATOM     64  C   UNL A   1      42.688  27.244  26.390  1.00  0.00     0.131 A 
ATOM     65  C   UNL A   1      42.493  24.487  26.441  1.00  0.00     0.055 A 
ATOM     66  C   UNL A   1      43.100  26.501  25.282  1.00  0.00     0.041 A 
ATOM     67  F   UNL A   1      42.861  28.575  26.344  1.00  0.00    -0.206 F 
ATOM     68  C   UNL A   1      43.019  25.112  25.309  1.00  0.00     0.022 A 
BRANCH  65  69
ATOM     69  S   UNL A   1      42.583  22.683  26.607  1.00  0.00     0.124 S 
ATOM     70  O   UNL A   1      42.316  22.248  25.237  1.00  0.00    -0.237 OA
ATOM     71  O   UNL A   1      43.943  22.477  27.089  1.00  0.00    -0.237 OA
ATOM     72  O   UNL A   1      41.525  22.373  27.567  1.00  0.00    -0.744 OA
ENDBRANCH  65  69
ENDBRANCH  48  62
BRANCH  49  73
ATOM     73  C   UNL A   1      38.844  32.050  35.316  1.00  0.00     0.023 A 
ATOM     74  C   UNL A   1      38.324  31.385  36.438  1.00  0.00     0.031 A 
ATOM     75  C   UNL A   1      38.837  33.456  35.323  1.00  0.00     0.131 A 
ATOM     76  C   UNL A   1      37.771  32.122  37.495  1.00  0.00     0.055 A 
ATOM     77  C   UNL A   1      38.338  34.186  36.403  1.00  0.00     0.041 A 
ATOM     78  F   UNL A   1      39.326  34.144  34.278  1.00  0.00    -0.206 F 
ATOM     79  C   UNL A   1      37.786  33.518  37.492  1.00  0.00     0.022 A 
BRANCH  76  80
ATOM     80  S   UNL A   1      36.937  31.225  38.833  1.00  0.00     0.124 S 
ATOM     81  O   UNL A   1      36.809  29.890  38.260  1.00  0.00    -0.237 OA
ATOM     82  O   UNL A   1      37.889  31.365  39.930  1.00  0.00    -0.237 OA
ATOM     83  O   UNL A   1      35.683  31.955  39.002  1.00  0.00    -0.744 OA
ENDBRANCH  76  80
ENDBRANCH  49  73
BRANCH  61  84
ATOM     84  C   UNL A   1      44.636  28.358  34.106  1.00  0.00     0.023 A 
ATOM     85  C   UNL A   1      44.747  27.267  34.986  1.00  0.00     0.031 A 
ATOM     86  C   UNL A   1      45.724  29.245  34.011  1.00  0.00     0.131 A 
ATOM     87  C   UNL A   1      45.899  27.120  35.772  1.00  0.00     0.055 A 
ATOM     88  C   UNL A   1      46.892  29.058  34.751  1.00  0.00     0.041 A 
ATOM     89  F   UNL A   1      45.670  30.305  33.188  1.00  0.00    -0.206 F 
ATOM     90  C   UNL A   1      46.979  27.998  35.647  1.00  0.00     0.022 A 
BRANCH  87  91
ATOM     91  S   UNL A   1      45.935  25.811  37.028  1.00  0.00     0.124 S 
ATOM     92  O   UNL A   1      45.073  26.365  38.068  1.00  0.00    -0.237 OA
ATOM     93  O   UNL A   1      45.399  24.665  36.300  1.00  0.00    -0.237 OA
ATOM     94  O   UNL A   1      47.350  25.713  37.382  1.00  0.00    -0.744 OA
ENDBRANCH  87  91
ENDBRANCH  61  84
ENDBRANCH  35  36
ENDBRANCH  27  30
ENDBRANCH  25  26
ENDBRANCH  24  25
ENDBRANCH   1  24
TORSDOF 18
ENDMDL
