MODEL 1
REMARK VINA RESULT:     -10.2      0.000      0.000
REMARK SMILES CCC1=C(C)N(C(C)(C)C(=O)NCCCNC(=O)c2ccc(-c3c4nc(c(-c5cc(S(=O)(=O)[O-])ccc5F)c5ccc([nH]5)c(-c5cc(S(=O)(=O)[O-])ccc5F)c5nc(c(-c6cc(S(=O)(=O)[O-])ccc6F)c6ccc3[nH]6)C=C5)C=C4)cc2)N(C(=O)C(C)C)c2ccccc21
REMARK SMILES IDX 14 1 13 2 12 3 10 4 11 5 7 7 8 8 9 9 6 10 3 11 4 12 93 13
REMARK SMILES IDX 5 14 88 15 92 16 82 17 89 18 91 19 90 20 2 21 1 22 83 23
REMARK SMILES IDX 84 24 85 25 86 26 87 27 15 28 16 29 17 30 18 32 19 33 20 34
REMARK SMILES IDX 81 35 21 36 80 37 22 38 23 39 24 40 74 41 25 42 79 43 73 44
REMARK SMILES IDX 75 45 26 46 78 47 72 48 71 49 27 51 59 52 39 53 58 54 40 55
REMARK SMILES IDX 43 56 57 57 76 58 41 59 42 60 56 62 77 63 44 64 28 65 29 66
REMARK SMILES IDX 37 67 30 68 36 69 38 70 35 71 31 72 32 73 33 74 34 75 60 76
REMARK SMILES IDX 61 77 69 78 62 79 68 80 70 81 67 82 63 83 64 84 65 85 66 86
REMARK SMILES IDX 45 87 46 88 54 89 47 90 53 91 55 92 52 93 48 94 49 95 50 96
REMARK SMILES IDX 51 97
REMARK H PARENT 12 6 16 31 75 50 43 61
REMARK Flexibility Score: inf
ROOT
ATOM      1  C   UNL A   1      37.799  23.932  25.657  1.00  0.00     0.042 C 
ENDROOT
BRANCH   1   2
ATOM      2  C   UNL A   1      36.311  23.780  25.366  1.00  0.00     0.117 C 
BRANCH   2   3
ATOM      3  N   UNL A   1      35.850  22.404  25.183  1.00  0.00    -0.354 N 
ATOM      4  C   UNL A   1      34.582  21.852  25.187  1.00  0.00     0.247 C 
ATOM      5  O   UNL A   1      34.479  20.802  24.544  1.00  0.00    -0.272 OA
ATOM      6  H   UNL A   1      36.572  21.754  25.028  1.00  0.00     0.163 HD
BRANCH   4   7
ATOM      7  C   UNL A   1      33.356  22.607  25.808  1.00  0.00     0.134 C 
ATOM      8  C   UNL A   1      33.863  22.753  27.277  1.00  0.00     0.047 C 
ATOM      9  C   UNL A   1      32.094  21.739  25.575  1.00  0.00     0.047 C 
BRANCH   7  10
ATOM     10  N   UNL A   1      33.005  24.034  25.299  1.00  0.00    -0.267 N 
ATOM     11  C   UNL A   1      32.101  26.264  25.801  1.00  0.00    -0.018 C 
ATOM     12  C   UNL A   1      32.214  24.941  26.078  1.00  0.00     0.037 C 
ATOM     13  C   UNL A   1      32.764  26.755  24.550  1.00  0.00     0.005 A 
ATOM     14  C   UNL A   1      31.421  24.411  27.261  1.00  0.00     0.066 C 
ATOM     15  C   UNL A   1      33.384  25.865  23.648  1.00  0.00     0.074 A 
ATOM     16  C   UNL A   1      32.657  28.128  24.192  1.00  0.00     0.011 A 
ATOM     17  N   UNL A   1      33.453  24.443  23.931  1.00  0.00    -0.219 N 
ATOM     18  C   UNL A   1      33.840  26.417  22.433  1.00  0.00     0.029 A 
ATOM     19  C   UNL A   1      33.130  28.634  22.987  1.00  0.00     0.001 A 
ATOM     20  C   UNL A   1      33.726  27.772  22.101  1.00  0.00     0.002 A 
BRANCH  11  21
ATOM     21  C   UNL A   1      31.340  27.343  26.594  1.00  0.00     0.035 C 
ATOM     22  C   UNL A   1      31.926  28.210  27.705  1.00  0.00     0.009 C 
ENDBRANCH  11  21
BRANCH  17  23
ATOM     23  C   UNL A   1      33.429  23.456  22.932  1.00  0.00     0.248 C 
ATOM     24  O   UNL A   1      34.476  23.026  22.419  1.00  0.00    -0.272 OA
BRANCH  23  25
ATOM     25  C   UNL A   1      32.097  22.917  22.347  1.00  0.00     0.074 C 
ATOM     26  C   UNL A   1      32.148  21.391  22.189  1.00  0.00     0.018 C 
ATOM     27  C   UNL A   1      30.772  23.454  22.913  1.00  0.00     0.018 C 
ENDBRANCH  23  25
ENDBRANCH  17  23
ENDBRANCH   7  10
ENDBRANCH   4   7
ENDBRANCH   2   3
ENDBRANCH   1   2
BRANCH   1  28
ATOM     28  C   UNL A   1      38.285  23.162  26.875  1.00  0.00     0.118 C 
BRANCH  28  29
ATOM     29  N   UNL A   1      39.434  22.310  26.587  1.00  0.00    -0.352 N 
ATOM     30  C   UNL A   1      40.776  22.605  26.507  1.00  0.00     0.251 C 
ATOM     31  H   UNL A   1      39.212  21.365  26.423  1.00  0.00     0.163 HD
ATOM     32  O   UNL A   1      41.550  21.755  26.071  1.00  0.00    -0.269 OA
BRANCH  30  33
ATOM     33  C   UNL A   1      41.282  23.940  26.899  1.00  0.00     0.039 A 
ATOM     34  C   UNL A   1      41.702  24.193  28.204  1.00  0.00     0.014 A 
ATOM     35  C   UNL A   1      41.333  24.961  25.945  1.00  0.00     0.014 A 
ATOM     36  C   UNL A   1      41.959  25.498  28.606  1.00  0.00     0.010 A 
ATOM     37  C   UNL A   1      41.697  26.256  26.329  1.00  0.00     0.010 A 
ATOM     38  C   UNL A   1      41.950  26.549  27.678  1.00  0.00    -0.014 A 
BRANCH  38  39
ATOM     39  C   UNL A   1      42.192  27.942  28.143  1.00  0.00     0.031 A 
ATOM     40  C   UNL A   1      41.061  28.778  28.685  1.00  0.00     0.074 A 
ATOM     41  C   UNL A   1      43.447  28.433  28.136  1.00  0.00     0.049 A 
ATOM     42  N   UNL A   1      41.091  30.002  29.146  1.00  0.00    -0.248 NA
ATOM     43  C   UNL A   1      39.724  28.164  28.711  1.00  0.00     0.031 C 
ATOM     44  C   UNL A   1      44.621  27.709  27.648  1.00  0.00     0.029 A 
ATOM     45  N   UNL A   1      43.954  29.633  28.570  1.00  0.00    -0.354 N 
ATOM     46  C   UNL A   1      39.781  30.311  29.498  1.00  0.00     0.074 A 
ATOM     47  C   UNL A   1      38.973  29.158  29.164  1.00  0.00     0.031 C 
ATOM     48  C   UNL A   1      45.715  28.451  27.862  1.00  0.00     0.029 A 
ATOM     49  C   UNL A   1      45.318  29.738  28.428  1.00  0.00     0.049 A 
ATOM     50  H   UNL A   1      43.394  30.349  28.947  1.00  0.00     0.167 HD
ATOM     51  C   UNL A   1      39.301  31.444  30.064  1.00  0.00     0.034 A 
ATOM     52  C   UNL A   1      46.159  30.757  28.702  1.00  0.00     0.034 A 
ATOM     53  C   UNL A   1      40.123  32.574  30.414  1.00  0.00     0.049 A 
ATOM     54  C   UNL A   1      45.599  32.017  29.305  1.00  0.00     0.074 A 
ATOM     55  C   UNL A   1      39.732  33.764  31.003  1.00  0.00     0.029 A 
ATOM     56  N   UNL A   1      41.495  32.654  30.226  1.00  0.00    -0.354 N 
ATOM     57  N   UNL A   1      44.359  32.283  29.649  1.00  0.00    -0.248 NA
ATOM     58  C   UNL A   1      46.539  33.117  29.560  1.00  0.00     0.031 C 
ATOM     59  C   UNL A   1      40.856  34.583  31.120  1.00  0.00     0.029 A 
ATOM     60  C   UNL A   1      41.962  33.881  30.669  1.00  0.00     0.049 A 
ATOM     61  H   UNL A   1      42.055  31.944  29.836  1.00  0.00     0.167 HD
ATOM     62  C   UNL A   1      44.374  33.573  30.171  1.00  0.00     0.074 A 
ATOM     63  C   UNL A   1      45.750  34.023  30.125  1.00  0.00     0.031 C 
ATOM     64  C   UNL A   1      43.339  34.316  30.636  1.00  0.00     0.034 A 
BRANCH  51  65
ATOM     65  C   UNL A   1      37.824  31.538  30.359  1.00  0.00     0.023 A 
ATOM     66  C   UNL A   1      36.936  32.012  29.373  1.00  0.00     0.031 A 
ATOM     67  C   UNL A   1      37.315  31.284  31.645  1.00  0.00     0.131 A 
ATOM     68  C   UNL A   1      35.595  32.247  29.700  1.00  0.00     0.055 A 
ATOM     69  C   UNL A   1      35.970  31.484  31.954  1.00  0.00     0.041 A 
ATOM     70  F   UNL A   1      38.120  30.829  32.619  1.00  0.00    -0.206 F 
ATOM     71  C   UNL A   1      35.105  31.981  30.983  1.00  0.00     0.022 A 
BRANCH  68  72
ATOM     72  S   UNL A   1      34.446  32.967  28.495  1.00  0.00     0.124 S 
ATOM     73  O   UNL A   1      33.629  33.834  29.341  1.00  0.00    -0.237 OA
ATOM     74  O   UNL A   1      35.353  33.661  27.584  1.00  0.00    -0.237 OA
ATOM     75  O   UNL A   1      33.752  31.812  27.936  1.00  0.00    -0.744 OA
ENDBRANCH  68  72
ENDBRANCH  51  65
BRANCH  52  76
ATOM     76  C   UNL A   1      47.617  30.581  28.433  1.00  0.00     0.023 A 
ATOM     77  C   UNL A   1      48.442  29.902  29.350  1.00  0.00     0.031 A 
ATOM     78  C   UNL A   1      48.228  31.200  27.329  1.00  0.00     0.131 A 
ATOM     79  C   UNL A   1      49.833  29.934  29.195  1.00  0.00     0.055 A 
ATOM     80  C   UNL A   1      49.610  31.162  27.137  1.00  0.00     0.041 A 
ATOM     81  F   UNL A   1      47.485  31.868  26.432  1.00  0.00    -0.206 F 
ATOM     82  C   UNL A   1      50.422  30.546  28.084  1.00  0.00     0.022 A 
BRANCH  79  83
ATOM     83  S   UNL A   1      50.926  29.326  30.510  1.00  0.00     0.124 S 
ATOM     84  O   UNL A   1      50.922  27.888  30.267  1.00  0.00    -0.237 OA
ATOM     85  O   UNL A   1      52.177  30.014  30.200  1.00  0.00    -0.237 OA
ATOM     86  O   UNL A   1      50.267  29.763  31.735  1.00  0.00    -0.744 OA
ENDBRANCH  79  83
ENDBRANCH  52  76
BRANCH  64  87
ATOM     87  C   UNL A   1      43.619  35.708  31.147  1.00  0.00     0.023 A 
ATOM     88  C   UNL A   1      43.671  36.789  30.246  1.00  0.00     0.031 A 
ATOM     89  C   UNL A   1      44.001  35.932  32.480  1.00  0.00     0.131 A 
ATOM     90  C   UNL A   1      44.142  38.033  30.679  1.00  0.00     0.055 A 
ATOM     91  C   UNL A   1      44.426  37.187  32.918  1.00  0.00     0.041 A 
ATOM     92  F   UNL A   1      43.979  34.929  33.373  1.00  0.00    -0.206 F 
ATOM     93  C   UNL A   1      44.513  38.241  32.012  1.00  0.00     0.022 A 
BRANCH  90  94
ATOM     94  S   UNL A   1      44.378  39.403  29.513  1.00  0.00     0.124 S 
ATOM     95  O   UNL A   1      43.280  40.299  29.871  1.00  0.00    -0.237 OA
ATOM     96  O   UNL A   1      45.712  39.881  29.868  1.00  0.00    -0.237 OA
ATOM     97  O   UNL A   1      44.264  38.774  28.202  1.00  0.00    -0.744 OA
ENDBRANCH  90  94
ENDBRANCH  64  87
ENDBRANCH  38  39
ENDBRANCH  30  33
ENDBRANCH  28  29
ENDBRANCH   1  28
TORSDOF 17
ENDMDL
MODEL 2
REMARK VINA RESULT:      -9.9      4.422      9.119
REMARK SMILES CCC1=C(C)N(C(C)(C)C(=O)NCCCNC(=O)c2ccc(-c3c4nc(c(-c5cc(S(=O)(=O)[O-])ccc5F)c5ccc([nH]5)c(-c5cc(S(=O)(=O)[O-])ccc5F)c5nc(c(-c6cc(S(=O)(=O)[O-])ccc6F)c6ccc3[nH]6)C=C5)C=C4)cc2)N(C(=O)C(C)C)c2ccccc21
REMARK SMILES IDX 14 1 13 2 12 3 10 4 11 5 7 7 8 8 9 9 6 10 3 11 4 12 93 13
REMARK SMILES IDX 5 14 88 15 92 16 82 17 89 18 91 19 90 20 2 21 1 22 83 23
REMARK SMILES IDX 84 24 85 25 86 26 87 27 15 28 16 29 17 30 18 32 19 33 20 34
REMARK SMILES IDX 81 35 21 36 80 37 22 38 23 39 24 40 74 41 25 42 79 43 73 44
REMARK SMILES IDX 75 45 26 46 78 47 72 48 71 49 27 51 59 52 39 53 58 54 40 55
REMARK SMILES IDX 43 56 57 57 76 58 41 59 42 60 56 62 77 63 44 64 28 65 29 66
REMARK SMILES IDX 37 67 30 68 36 69 38 70 35 71 31 72 32 73 33 74 34 75 60 76
REMARK SMILES IDX 61 77 69 78 62 79 68 80 70 81 67 82 63 83 64 84 65 85 66 86
REMARK SMILES IDX 45 87 46 88 54 89 47 90 53 91 55 92 52 93 48 94 49 95 50 96
REMARK SMILES IDX 51 97
REMARK H PARENT 12 6 16 31 75 50 43 61
REMARK Flexibility Score: inf
ROOT
ATOM      1  C   UNL A   1      31.894  29.350  25.181  1.00  0.00     0.042 C 
ENDROOT
BRANCH   1   2
ATOM      2  C   UNL A   1      32.650  28.074  24.829  1.00  0.00     0.117 C 
BRANCH   2   3
ATOM      3  N   UNL A   1      31.846  27.028  24.198  1.00  0.00    -0.354 N 
ATOM      4  C   UNL A   1      31.480  25.765  24.628  1.00  0.00     0.247 C 
ATOM      5  O   UNL A   1      30.441  25.333  24.118  1.00  0.00    -0.272 OA
ATOM      6  H   UNL A   1      31.503  27.265  23.306  1.00  0.00     0.163 HD
BRANCH   4   7
ATOM      7  C   UNL A   1      32.233  25.043  25.798  1.00  0.00     0.134 C 
ATOM      8  C   UNL A   1      31.055  24.202  26.379  1.00  0.00     0.047 C 
ATOM      9  C   UNL A   1      32.848  26.132  26.712  1.00  0.00     0.047 C 
BRANCH   7  10
ATOM     10  N   UNL A   1      33.384  24.052  25.463  1.00  0.00    -0.267 N 
ATOM     11  C   UNL A   1      35.801  23.603  25.411  1.00  0.00    -0.018 C 
ATOM     12  C   UNL A   1      34.756  24.468  25.438  1.00  0.00     0.037 C 
ATOM     13  C   UNL A   1      35.473  22.146  25.296  1.00  0.00     0.005 A 
ATOM     14  C   UNL A   1      35.084  25.952  25.403  1.00  0.00     0.066 C 
ATOM     15  C   UNL A   1      34.145  21.702  25.116  1.00  0.00     0.074 A 
ATOM     16  C   UNL A   1      36.528  21.192  25.235  1.00  0.00     0.011 A 
ATOM     17  N   UNL A   1      33.041  22.643  25.095  1.00  0.00    -0.219 N 
ATOM     18  C   UNL A   1      33.972  20.325  24.867  1.00  0.00     0.029 A 
ATOM     19  C   UNL A   1      36.311  19.840  24.998  1.00  0.00     0.001 A 
ATOM     20  C   UNL A   1      35.023  19.403  24.813  1.00  0.00     0.002 A 
BRANCH  11  21
ATOM     21  C   UNL A   1      37.306  23.926  25.447  1.00  0.00     0.035 C 
ATOM     22  C   UNL A   1      38.137  24.157  26.707  1.00  0.00     0.009 C 
ENDBRANCH  11  21
BRANCH  17  23
ATOM     23  C   UNL A   1      31.879  22.451  24.330  1.00  0.00     0.248 C 
ATOM     24  O   UNL A   1      30.789  22.178  24.861  1.00  0.00    -0.272 OA
BRANCH  23  25
ATOM     25  C   UNL A   1      31.909  22.473  22.779  1.00  0.00     0.074 C 
ATOM     26  C   UNL A   1      32.960  23.468  22.268  1.00  0.00     0.018 C 
ATOM     27  C   UNL A   1      31.877  21.137  22.021  1.00  0.00     0.018 C 
ENDBRANCH  23  25
ENDBRANCH  17  23
ENDBRANCH   7  10
ENDBRANCH   4   7
ENDBRANCH   2   3
ENDBRANCH   1   2
BRANCH   1  28
ATOM     28  C   UNL A   1      32.098  29.828  26.610  1.00  0.00     0.118 C 
BRANCH  28  29
ATOM     29  N   UNL A   1      32.094  31.283  26.728  1.00  0.00    -0.352 N 
ATOM     30  C   UNL A   1      33.000  32.142  27.307  1.00  0.00     0.251 C 
ATOM     31  H   UNL A   1      31.312  31.723  26.325  1.00  0.00     0.163 HD
ATOM     32  O   UNL A   1      32.698  33.325  27.445  1.00  0.00    -0.269 OA
BRANCH  30  33
ATOM     33  C   UNL A   1      34.305  31.646  27.798  1.00  0.00     0.039 A 
ATOM     34  C   UNL A   1      34.485  30.303  28.126  1.00  0.00     0.014 A 
ATOM     35  C   UNL A   1      35.370  32.542  27.939  1.00  0.00     0.014 A 
ATOM     36  C   UNL A   1      35.638  29.903  28.792  1.00  0.00     0.010 A 
ATOM     37  C   UNL A   1      36.572  32.112  28.511  1.00  0.00     0.010 A 
ATOM     38  C   UNL A   1      36.693  30.803  29.003  1.00  0.00    -0.014 A 
BRANCH  38  39
ATOM     39  C   UNL A   1      37.899  30.357  29.752  1.00  0.00     0.031 A 
ATOM     40  C   UNL A   1      38.928  29.474  29.096  1.00  0.00     0.074 A 
ATOM     41  C   UNL A   1      38.098  30.803  31.008  1.00  0.00     0.049 A 
ATOM     42  N   UNL A   1      40.043  29.001  29.591  1.00  0.00    -0.248 NA
ATOM     43  C   UNL A   1      38.673  29.063  27.705  1.00  0.00     0.031 C 
ATOM     44  C   UNL A   1      37.177  31.674  31.739  1.00  0.00     0.029 A 
ATOM     45  N   UNL A   1      39.140  30.613  31.883  1.00  0.00    -0.354 N 
ATOM     46  C   UNL A   1      40.612  28.227  28.586  1.00  0.00     0.074 A 
ATOM     47  C   UNL A   1      39.701  28.262  27.462  1.00  0.00     0.031 C 
ATOM     48  C   UNL A   1      37.718  31.991  32.922  1.00  0.00     0.029 A 
ATOM     49  C   UNL A   1      38.987  31.283  33.075  1.00  0.00     0.049 A 
ATOM     50  H   UNL A   1      39.922  30.052  31.676  1.00  0.00     0.167 HD
ATOM     51  C   UNL A   1      41.792  27.563  28.593  1.00  0.00     0.034 A 
ATOM     52  C   UNL A   1      39.766  31.316  34.176  1.00  0.00     0.034 A 
ATOM     53  C   UNL A   1      42.700  27.558  29.712  1.00  0.00     0.049 A 
ATOM     54  C   UNL A   1      41.060  30.548  34.171  1.00  0.00     0.074 A 
ATOM     55  C   UNL A   1      43.927  26.925  29.812  1.00  0.00     0.029 A 
ATOM     56  N   UNL A   1      42.495  28.223  30.912  1.00  0.00    -0.354 N 
ATOM     57  N   UNL A   1      41.590  29.837  33.203  1.00  0.00    -0.248 NA
ATOM     58  C   UNL A   1      41.865  30.580  35.400  1.00  0.00     0.031 C 
ATOM     59  C   UNL A   1      44.437  27.162  31.089  1.00  0.00     0.029 A 
ATOM     60  C   UNL A   1      43.563  27.999  31.765  1.00  0.00     0.049 A 
ATOM     61  H   UNL A   1      41.708  28.774  31.126  1.00  0.00     0.167 HD
ATOM     62  C   UNL A   1      42.795  29.349  33.701  1.00  0.00     0.074 A 
ATOM     63  C   UNL A   1      42.929  29.869  35.046  1.00  0.00     0.031 C 
ATOM     64  C   UNL A   1      43.699  28.536  33.099  1.00  0.00     0.034 A 
BRANCH  51  65
ATOM     65  C   UNL A   1      42.196  26.788  27.363  1.00  0.00     0.023 A 
ATOM     66  C   UNL A   1      42.074  25.385  27.341  1.00  0.00     0.031 A 
ATOM     67  C   UNL A   1      42.819  27.418  26.271  1.00  0.00     0.131 A 
ATOM     68  C   UNL A   1      42.595  24.658  26.263  1.00  0.00     0.055 A 
ATOM     69  C   UNL A   1      43.303  26.691  25.183  1.00  0.00     0.041 A 
ATOM     70  F   UNL A   1      42.958  28.754  26.244  1.00  0.00    -0.206 F 
ATOM     71  C   UNL A   1      43.204  25.303  25.182  1.00  0.00     0.022 A 
BRANCH  68  72
ATOM     72  S   UNL A   1      42.563  22.844  26.250  1.00  0.00     0.124 S 
ATOM     73  O   UNL A   1      41.219  22.565  26.750  1.00  0.00    -0.237 OA
ATOM     74  O   UNL A   1      42.777  22.544  24.837  1.00  0.00    -0.237 OA
ATOM     75  O   UNL A   1      43.650  22.466  27.147  1.00  0.00    -0.744 OA
ENDBRANCH  68  72
ENDBRANCH  51  65
BRANCH  52  76
ATOM     76  C   UNL A   1      39.332  32.143  35.342  1.00  0.00     0.023 A 
ATOM     77  C   UNL A   1      38.743  31.542  36.470  1.00  0.00     0.031 A 
ATOM     78  C   UNL A   1      39.379  33.546  35.290  1.00  0.00     0.131 A 
ATOM     79  C   UNL A   1      38.145  32.340  37.453  1.00  0.00     0.055 A 
ATOM     80  C   UNL A   1      38.852  34.337  36.312  1.00  0.00     0.041 A 
ATOM     81  F   UNL A   1      39.922  34.166  34.230  1.00  0.00    -0.206 F 
ATOM     82  C   UNL A   1      38.211  33.734  37.390  1.00  0.00     0.022 A 
BRANCH  79  83
ATOM     83  S   UNL A   1      37.127  31.595  38.758  1.00  0.00     0.124 S 
ATOM     84  O   UNL A   1      36.947  30.234  38.264  1.00  0.00    -0.237 OA
ATOM     85  O   UNL A   1      37.991  31.733  39.928  1.00  0.00    -0.237 OA
ATOM     86  O   UNL A   1      35.927  32.425  38.774  1.00  0.00    -0.744 OA
ENDBRANCH  79  83
ENDBRANCH  52  76
BRANCH  64  87
ATOM     87  C   UNL A   1      44.937  28.138  33.864  1.00  0.00     0.023 A 
ATOM     88  C   UNL A   1      46.129  28.869  33.699  1.00  0.00     0.031 A 
ATOM     89  C   UNL A   1      44.981  26.950  34.612  1.00  0.00     0.131 A 
ATOM     90  C   UNL A   1      47.326  28.377  34.233  1.00  0.00     0.055 A 
ATOM     91  C   UNL A   1      46.168  26.487  35.181  1.00  0.00     0.041 A 
ATOM     92  F   UNL A   1      43.872  26.214  34.786  1.00  0.00    -0.206 F 
ATOM     93  C   UNL A   1      47.351  27.194  34.979  1.00  0.00     0.022 A 
BRANCH  90  94
ATOM     94  S   UNL A   1      48.908  29.202  33.902  1.00  0.00     0.124 S 
ATOM     95  O   UNL A   1      48.896  30.284  34.884  1.00  0.00    -0.237 OA
ATOM     96  O   UNL A   1      49.870  28.135  34.164  1.00  0.00    -0.237 OA
ATOM     97  O   UNL A   1      48.802  29.624  32.510  1.00  0.00    -0.744 OA
ENDBRANCH  90  94
ENDBRANCH  64  87
ENDBRANCH  38  39
ENDBRANCH  30  33
ENDBRANCH  28  29
ENDBRANCH   1  28
TORSDOF 17
ENDMDL
MODEL 3
REMARK VINA RESULT:      -9.9      4.977      8.449
REMARK SMILES CCC1=C(C)N(C(C)(C)C(=O)NCCCNC(=O)c2ccc(-c3c4nc(c(-c5cc(S(=O)(=O)[O-])ccc5F)c5ccc([nH]5)c(-c5cc(S(=O)(=O)[O-])ccc5F)c5nc(c(-c6cc(S(=O)(=O)[O-])ccc6F)c6ccc3[nH]6)C=C5)C=C4)cc2)N(C(=O)C(C)C)c2ccccc21
REMARK SMILES IDX 14 1 13 2 12 3 10 4 11 5 7 7 8 8 9 9 6 10 3 11 4 12 93 13
REMARK SMILES IDX 5 14 88 15 92 16 82 17 89 18 91 19 90 20 2 21 1 22 83 23
REMARK SMILES IDX 84 24 85 25 86 26 87 27 15 28 16 29 17 30 18 32 19 33 20 34
REMARK SMILES IDX 81 35 21 36 80 37 22 38 23 39 24 40 74 41 25 42 79 43 73 44
REMARK SMILES IDX 75 45 26 46 78 47 72 48 71 49 27 51 59 52 39 53 58 54 40 55
REMARK SMILES IDX 43 56 57 57 76 58 41 59 42 60 56 62 77 63 44 64 28 65 29 66
REMARK SMILES IDX 37 67 30 68 36 69 38 70 35 71 31 72 32 73 33 74 34 75 60 76
REMARK SMILES IDX 61 77 69 78 62 79 68 80 70 81 67 82 63 83 64 84 65 85 66 86
REMARK SMILES IDX 45 87 46 88 54 89 47 90 53 91 55 92 52 93 48 94 49 95 50 96
REMARK SMILES IDX 51 97
REMARK H PARENT 12 6 16 31 75 50 43 61
REMARK Flexibility Score: inf
ROOT
ATOM      1  C   UNL A   1      32.774  30.504  25.735  1.00  0.00     0.042 C 
ENDROOT
BRANCH   1   2
ATOM      2  C   UNL A   1      32.486  29.027  25.492  1.00  0.00     0.117 C 
BRANCH   2   3
ATOM      3  N   UNL A   1      31.451  28.751  24.496  1.00  0.00    -0.354 N 
ATOM      4  C   UNL A   1      30.554  27.706  24.368  1.00  0.00     0.247 C 
ATOM      5  O   UNL A   1      29.528  27.988  23.740  1.00  0.00    -0.272 OA
ATOM      6  H   UNL A   1      31.380  29.432  23.789  1.00  0.00     0.163 HD
BRANCH   4   7
ATOM      7  C   UNL A   1      30.760  26.347  25.121  1.00  0.00     0.134 C 
ATOM      8  C   UNL A   1      29.363  25.700  24.867  1.00  0.00     0.047 C 
ATOM      9  C   UNL A   1      31.139  26.668  26.589  1.00  0.00     0.047 C 
BRANCH   7  10
ATOM     10  N   UNL A   1      31.832  25.346  24.602  1.00  0.00    -0.267 N 
ATOM     11  C   UNL A   1      33.201  24.543  22.725  1.00  0.00    -0.018 C 
ATOM     12  C   UNL A   1      32.113  25.197  23.204  1.00  0.00     0.037 C 
ATOM     13  C   UNL A   1      34.079  23.861  23.727  1.00  0.00     0.005 A 
ATOM     14  C   UNL A   1      31.139  25.763  22.183  1.00  0.00     0.066 C 
ATOM     15  C   UNL A   1      33.734  23.810  25.095  1.00  0.00     0.074 A 
ATOM     16  C   UNL A   1      35.220  23.134  23.282  1.00  0.00     0.011 A 
ATOM     17  N   UNL A   1      32.540  24.471  25.588  1.00  0.00    -0.219 N 
ATOM     18  C   UNL A   1      34.554  23.013  25.921  1.00  0.00     0.029 A 
ATOM     19  C   UNL A   1      36.008  22.369  24.133  1.00  0.00     0.001 A 
ATOM     20  C   UNL A   1      35.672  22.308  25.463  1.00  0.00     0.002 A 
BRANCH  11  21
ATOM     21  C   UNL A   1      33.642  24.375  21.258  1.00  0.00     0.035 C 
ATOM     22  C   UNL A   1      33.136  23.305  20.295  1.00  0.00     0.009 C 
ENDBRANCH  11  21
BRANCH  17  23
ATOM     23  C   UNL A   1      31.784  23.991  26.670  1.00  0.00     0.248 C 
ATOM     24  O   UNL A   1      31.864  24.508  27.797  1.00  0.00    -0.272 OA
BRANCH  23  25
ATOM     25  C   UNL A   1      30.883  22.734  26.545  1.00  0.00     0.074 C 
ATOM     26  C   UNL A   1      29.505  22.987  27.170  1.00  0.00     0.018 C 
ATOM     27  C   UNL A   1      30.845  21.985  25.204  1.00  0.00     0.018 C 
ENDBRANCH  23  25
ENDBRANCH  17  23
ENDBRANCH   7  10
ENDBRANCH   4   7
ENDBRANCH   2   3
ENDBRANCH   1   2
BRANCH   1  28
ATOM     28  C   UNL A   1      32.544  30.963  27.167  1.00  0.00     0.118 C 
BRANCH  28  29
ATOM     29  N   UNL A   1      32.729  32.400  27.339  1.00  0.00    -0.352 N 
ATOM     30  C   UNL A   1      33.768  33.114  27.892  1.00  0.00     0.251 C 
ATOM     31  H   UNL A   1      31.986  32.951  27.004  1.00  0.00     0.163 HD
ATOM     32  O   UNL A   1      33.625  34.318  28.094  1.00  0.00    -0.269 OA
BRANCH  30  33
ATOM     33  C   UNL A   1      35.028  32.440  28.280  1.00  0.00     0.039 A 
ATOM     34  C   UNL A   1      35.030  31.109  28.696  1.00  0.00     0.014 A 
ATOM     35  C   UNL A   1      36.229  33.153  28.234  1.00  0.00     0.014 A 
ATOM     36  C   UNL A   1      36.175  30.566  29.265  1.00  0.00     0.010 A 
ATOM     37  C   UNL A   1      37.408  32.566  28.709  1.00  0.00     0.010 A 
ATOM     38  C   UNL A   1      37.377  31.290  29.289  1.00  0.00    -0.014 A 
BRANCH  38  39
ATOM     39  C   UNL A   1      38.578  30.697  29.940  1.00  0.00     0.031 A 
ATOM     40  C   UNL A   1      38.944  31.064  31.354  1.00  0.00     0.074 A 
ATOM     41  C   UNL A   1      39.304  29.778  29.273  1.00  0.00     0.049 A 
ATOM     42  N   UNL A   1      39.944  30.637  32.082  1.00  0.00    -0.248 NA
ATOM     43  C   UNL A   1      38.080  32.037  32.043  1.00  0.00     0.031 C 
ATOM     44  C   UNL A   1      39.034  29.336  27.905  1.00  0.00     0.029 A 
ATOM     45  N   UNL A   1      40.393  29.033  29.655  1.00  0.00    -0.354 N 
ATOM     46  C   UNL A   1      39.842  31.299  33.301  1.00  0.00     0.074 A 
ATOM     47  C   UNL A   1      38.703  32.185  33.204  1.00  0.00     0.031 C 
ATOM     48  C   UNL A   1      39.891  28.359  27.583  1.00  0.00     0.029 A 
ATOM     49  C   UNL A   1      40.827  28.157  28.687  1.00  0.00     0.049 A 
ATOM     50  H   UNL A   1      40.821  29.118  30.537  1.00  0.00     0.167 HD
ATOM     51  C   UNL A   1      40.617  31.166  34.404  1.00  0.00     0.034 A 
ATOM     52  C   UNL A   1      41.867  27.299  28.674  1.00  0.00     0.034 A 
ATOM     53  C   UNL A   1      41.733  30.261  34.494  1.00  0.00     0.049 A 
ATOM     54  C   UNL A   1      42.730  27.189  29.902  1.00  0.00     0.074 A 
ATOM     55  C   UNL A   1      42.572  30.046  35.573  1.00  0.00     0.029 A 
ATOM     56  N   UNL A   1      42.159  29.413  33.482  1.00  0.00    -0.354 N 
ATOM     57  N   UNL A   1      42.606  27.810  31.052  1.00  0.00    -0.248 NA
ATOM     58  C   UNL A   1      43.874  26.268  29.840  1.00  0.00     0.031 C 
ATOM     59  C   UNL A   1      43.537  29.110  35.196  1.00  0.00     0.029 A 
ATOM     60  C   UNL A   1      43.262  28.688  33.905  1.00  0.00     0.049 A 
ATOM     61  H   UNL A   1      41.740  29.337  32.594  1.00  0.00     0.167 HD
ATOM     62  C   UNL A   1      43.646  27.346  31.853  1.00  0.00     0.074 A 
ATOM     63  C   UNL A   1      44.372  26.371  31.066  1.00  0.00     0.031 C 
ATOM     64  C   UNL A   1      43.970  27.704  33.121  1.00  0.00     0.034 A 
BRANCH  51  65
ATOM     65  C   UNL A   1      40.297  32.002  35.619  1.00  0.00     0.023 A 
ATOM     66  C   UNL A   1      39.219  31.649  36.455  1.00  0.00     0.031 A 
ATOM     67  C   UNL A   1      40.969  33.210  35.877  1.00  0.00     0.131 A 
ATOM     68  C   UNL A   1      38.827  32.510  37.488  1.00  0.00     0.055 A 
ATOM     69  C   UNL A   1      40.597  34.047  36.930  1.00  0.00     0.041 A 
ATOM     70  F   UNL A   1      42.003  33.591  35.110  1.00  0.00    -0.206 F 
ATOM     71  C   UNL A   1      39.514  33.705  37.733  1.00  0.00     0.022 A 
BRANCH  68  72
ATOM     72  S   UNL A   1      37.375  32.150  38.512  1.00  0.00     0.124 S 
ATOM     73  O   UNL A   1      37.811  32.616  39.826  1.00  0.00    -0.237 OA
ATOM     74  O   UNL A   1      36.341  32.962  37.875  1.00  0.00    -0.237 OA
ATOM     75  O   UNL A   1      37.207  30.706  38.390  1.00  0.00    -0.744 OA
ENDBRANCH  68  72
ENDBRANCH  51  65
BRANCH  52  76
ATOM     76  C   UNL A   1      42.099  26.464  27.458  1.00  0.00     0.023 A 
ATOM     77  C   UNL A   1      41.667  25.126  27.411  1.00  0.00     0.031 A 
ATOM     78  C   UNL A   1      42.868  26.948  26.386  1.00  0.00     0.131 A 
ATOM     79  C   UNL A   1      42.081  24.295  26.362  1.00  0.00     0.055 A 
ATOM     80  C   UNL A   1      43.211  26.137  25.303  1.00  0.00     0.041 A 
ATOM     81  F   UNL A   1      43.312  28.214  26.389  1.00  0.00    -0.206 F 
ATOM     82  C   UNL A   1      42.836  24.796  25.298  1.00  0.00     0.022 A 
BRANCH  79  83
ATOM     83  S   UNL A   1      41.788  22.505  26.427  1.00  0.00     0.124 S 
ATOM     84  O   UNL A   1      42.304  22.160  27.747  1.00  0.00    -0.237 OA
ATOM     85  O   UNL A   1      40.337  22.433  26.278  1.00  0.00    -0.237 OA
ATOM     86  O   UNL A   1      42.552  21.990  25.295  1.00  0.00    -0.744 OA
ENDBRANCH  79  83
ENDBRANCH  52  76
BRANCH  64  87
ATOM     87  C   UNL A   1      45.165  27.053  33.774  1.00  0.00     0.023 A 
ATOM     88  C   UNL A   1      44.999  25.870  34.519  1.00  0.00     0.031 A 
ATOM     89  C   UNL A   1      46.417  27.689  33.802  1.00  0.00     0.131 A 
ATOM     90  C   UNL A   1      46.054  25.386  35.301  1.00  0.00     0.055 A 
ATOM     91  C   UNL A   1      47.480  27.178  34.547  1.00  0.00     0.041 A 
ATOM     92  F   UNL A   1      46.619  28.826  33.117  1.00  0.00    -0.206 F 
ATOM     93  C   UNL A   1      47.296  26.030  35.314  1.00  0.00     0.022 A 
BRANCH  90  94
ATOM     94  S   UNL A   1      45.829  23.961  36.401  1.00  0.00     0.124 S 
ATOM     95  O   UNL A   1      45.699  24.604  37.707  1.00  0.00    -0.237 OA
ATOM     96  O   UNL A   1      44.605  23.361  35.878  1.00  0.00    -0.237 OA
ATOM     97  O   UNL A   1      47.044  23.176  36.213  1.00  0.00    -0.744 OA
ENDBRANCH  90  94
ENDBRANCH  64  87
ENDBRANCH  38  39
ENDBRANCH  30  33
ENDBRANCH  28  29
ENDBRANCH   1  28
TORSDOF 17
ENDMDL
