MODEL 1
REMARK VINA RESULT:     -12.6      0.000      0.000
REMARK SMILES Cc1ccc(N2C(=O)[NH+]=C(NCCCNC(=O)c3ccc(-c4c5nc(c(-c6cc(S(=O)(=O)[O-])ccc6F)c6ccc([nH]6)c(-c6cc(S(=O)(=O)[O-])ccc6F)c6nc(c(-c7cc(S(=O)(=O)[O-])ccc7F)c7ccc4[nH]7)C=C6)C=C5)cc3)/C(=C\c3ccccc3OCc3cccc(C(=O)[O-])c3)C2=O)cc1
REMARK SMILES IDX 12 1 11 2 6 3 7 4 100 5 8 6 9 7 81 8 101 9 10 10 82 12 5 14
REMARK SMILES IDX 1 15 2 16 3 17 103 18 4 19 102 20 83 21 84 22 88 23 85 24
REMARK SMILES IDX 87 25 86 26 89 27 90 28 91 29 92 30 99 31 93 32 95 33 94 34
REMARK SMILES IDX 96 35 97 36 98 37 13 38 14 39 15 40 16 41 17 43 18 44 19 45
REMARK SMILES IDX 80 46 20 47 79 48 21 49 22 50 23 51 73 52 24 53 78 54 72 55
REMARK SMILES IDX 74 56 25 57 77 58 71 59 70 60 26 62 58 63 38 64 57 65 39 66
REMARK SMILES IDX 42 67 56 68 75 69 40 70 41 71 55 73 76 74 43 75 27 76 28 77
REMARK SMILES IDX 36 78 29 79 35 80 37 81 34 82 30 83 31 84 32 85 33 86 59 87
REMARK SMILES IDX 60 88 68 89 61 90 67 91 69 92 66 93 62 94 63 95 64 96 65 97
REMARK SMILES IDX 44 98 45 99 53 100 46 101 52 102 54 103 51 104 47 105 48 106
REMARK SMILES IDX 49 107 50 108
REMARK H PARENT 9 11 11 13 15 42 74 61 42 72
REMARK Flexibility Score: inf
ROOT
ATOM      1  C   UNL A   1      33.022  28.037  26.419  1.00  0.00     0.195 C 
ENDROOT
BRANCH   1   2
ATOM      2  N   UNL A   1      33.036  27.363  25.109  1.00  0.00    -0.305 N 
ATOM      3  N   UNL A   1      34.896  23.644  24.716  1.00  0.00    -0.155 N 
ATOM      4  C   UNL A   1      35.260  24.610  25.665  1.00  0.00     0.448 C 
ATOM      5  C   UNL A   1      33.917  23.873  23.762  1.00  0.00     0.328 C 
ATOM      6  O   UNL A   1      36.161  24.416  26.483  1.00  0.00    -0.212 OA
ATOM      7  N   UNL A   1      34.660  25.838  25.657  1.00  0.00    -0.209 N 
ATOM      8  C   UNL A   1      33.043  25.019  24.079  1.00  0.00     0.129 C 
ATOM      9  O   UNL A   1      33.664  23.159  22.790  1.00  0.00    -0.249 OA
ATOM     10  C   UNL A   1      33.591  26.095  24.965  1.00  0.00     0.236 C 
ATOM     11  H   UNL A   1      35.054  26.558  26.199  1.00  0.00     0.270 HD
ATOM     12  C   UNL A   1      31.770  24.819  23.686  1.00  0.00     0.034 C 
ATOM     13  H   UNL A   1      32.649  27.816  24.326  1.00  0.00     0.256 HD
BRANCH   3  14
ATOM     14  C   UNL A   1      35.541  22.363  24.731  1.00  0.00     0.111 A 
ATOM     15  C   UNL A   1      37.516  18.523  24.860  1.00  0.00     0.044 C 
ATOM     16  C   UNL A   1      36.829  19.853  24.825  1.00  0.00    -0.051 A 
ATOM     17  C   UNL A   1      37.565  21.018  24.593  1.00  0.00     0.007 A 
ATOM     18  C   UNL A   1      35.452  19.949  25.033  1.00  0.00     0.007 A 
ATOM     19  C   UNL A   1      36.927  22.258  24.540  1.00  0.00     0.044 A 
ATOM     20  C   UNL A   1      34.819  21.190  24.988  1.00  0.00     0.044 A 
ENDBRANCH   3  14
BRANCH  12  21
ATOM     21  C   UNL A   1      30.653  25.667  24.047  1.00  0.00     0.018 A 
ATOM     22  C   UNL A   1      29.916  25.230  25.146  1.00  0.00     0.012 A 
ATOM     23  C   UNL A   1      30.189  26.718  23.242  1.00  0.00     0.127 A 
ATOM     24  C   UNL A   1      28.625  25.686  25.298  1.00  0.00     0.001 A 
ATOM     25  C   UNL A   1      28.906  27.198  23.433  1.00  0.00     0.047 A 
ATOM     26  C   UNL A   1      28.113  26.635  24.416  1.00  0.00     0.004 A 
BRANCH  23  27
ATOM     27  O   UNL A   1      30.755  27.097  22.062  1.00  0.00    -0.488 OA
BRANCH  27  28
ATOM     28  C   UNL A   1      31.638  28.207  22.093  1.00  0.00     0.265 C 
BRANCH  28  29
ATOM     29  C   UNL A   1      30.834  29.361  22.644  1.00  0.00    -0.010 A 
ATOM     30  C   UNL A   1      30.955  29.759  23.981  1.00  0.00     0.007 A 
ATOM     31  C   UNL A   1      29.918  30.028  21.814  1.00  0.00     0.017 A 
ATOM     32  C   UNL A   1      30.167  30.798  24.483  1.00  0.00     0.001 A 
ATOM     33  C   UNL A   1      29.119  31.059  22.315  1.00  0.00    -0.002 A 
ATOM     34  C   UNL A   1      29.242  31.440  23.656  1.00  0.00     0.010 A 
BRANCH  33  35
ATOM     35  C   UNL A   1      28.098  31.708  21.466  1.00  0.00     0.071 C 
ATOM     36  O   UNL A   1      27.674  32.854  21.608  1.00  0.00    -0.545 OA
ATOM     37  O   UNL A   1      27.658  30.899  20.496  1.00  0.00    -0.545 OA
ENDBRANCH  33  35
ENDBRANCH  28  29
ENDBRANCH  27  28
ENDBRANCH  23  27
ENDBRANCH  12  21
ENDBRANCH   1   2
BRANCH   1  38
ATOM     38  C   UNL A   1      33.836  29.327  26.443  1.00  0.00     0.059 C 
BRANCH  38  39
ATOM     39  C   UNL A   1      33.368  30.357  27.461  1.00  0.00     0.119 C 
BRANCH  39  40
ATOM     40  N   UNL A   1      34.251  31.498  27.673  1.00  0.00    -0.352 N 
ATOM     41  C   UNL A   1      35.508  31.558  28.257  1.00  0.00     0.251 C 
ATOM     42  H   UNL A   1      33.901  32.360  27.351  1.00  0.00     0.163 HD
ATOM     43  O   UNL A   1      35.973  32.649  28.584  1.00  0.00    -0.269 OA
BRANCH  41  44
ATOM     44  C   UNL A   1      36.370  30.348  28.359  1.00  0.00     0.039 A 
ATOM     45  C   UNL A   1      36.548  29.771  29.632  1.00  0.00     0.014 A 
ATOM     46  C   UNL A   1      37.176  29.931  27.312  1.00  0.00     0.014 A 
ATOM     47  C   UNL A   1      37.684  29.013  29.906  1.00  0.00     0.010 A 
ATOM     48  C   UNL A   1      38.355  29.298  27.603  1.00  0.00     0.010 A 
ATOM     49  C   UNL A   1      38.640  28.904  28.913  1.00  0.00    -0.014 A 
BRANCH  49  50
ATOM     50  C   UNL A   1      39.995  28.415  29.080  1.00  0.00     0.031 A 
ATOM     51  C   UNL A   1      40.218  26.978  28.873  1.00  0.00     0.074 A 
ATOM     52  C   UNL A   1      41.016  29.302  29.087  1.00  0.00     0.049 A 
ATOM     53  N   UNL A   1      41.347  26.404  29.048  1.00  0.00    -0.248 NA
ATOM     54  C   UNL A   1      39.168  26.051  28.450  1.00  0.00     0.031 C 
ATOM     55  C   UNL A   1      42.400  29.097  28.654  1.00  0.00     0.029 A 
ATOM     56  N   UNL A   1      41.028  30.616  29.490  1.00  0.00    -0.354 N 
ATOM     57  C   UNL A   1      41.271  25.150  28.498  1.00  0.00     0.074 A 
ATOM     58  C   UNL A   1      39.877  24.946  28.206  1.00  0.00     0.031 C 
ATOM     59  C   UNL A   1      43.146  30.163  29.007  1.00  0.00     0.029 A 
ATOM     60  C   UNL A   1      42.318  31.004  29.851  1.00  0.00     0.049 A 
ATOM     61  H   UNL A   1      40.237  31.202  29.519  1.00  0.00     0.167 HD
ATOM     62  C   UNL A   1      42.437  24.497  28.253  1.00  0.00     0.034 A 
ATOM     63  C   UNL A   1      42.550  31.288  31.172  1.00  0.00     0.034 A 
ATOM     64  C   UNL A   1      43.579  25.307  28.692  1.00  0.00     0.049 A 
ATOM     65  C   UNL A   1      43.342  30.167  31.838  1.00  0.00     0.074 A 
ATOM     66  C   UNL A   1      44.483  26.144  28.060  1.00  0.00     0.029 A 
ATOM     67  N   UNL A   1      43.693  25.577  30.039  1.00  0.00    -0.354 N 
ATOM     68  N   UNL A   1      43.656  29.048  31.237  1.00  0.00    -0.248 NA
ATOM     69  C   UNL A   1      43.824  30.189  33.215  1.00  0.00     0.031 C 
ATOM     70  C   UNL A   1      45.101  26.955  29.065  1.00  0.00     0.029 A 
ATOM     71  C   UNL A   1      44.591  26.586  30.299  1.00  0.00     0.049 A 
ATOM     72  H   UNL A   1      43.187  25.101  30.737  1.00  0.00     0.167 HD
ATOM     73  C   UNL A   1      44.334  28.220  32.078  1.00  0.00     0.074 A 
ATOM     74  C   UNL A   1      44.386  28.970  33.326  1.00  0.00     0.031 C 
ATOM     75  C   UNL A   1      44.787  26.989  31.684  1.00  0.00     0.034 A 
BRANCH  62  76
ATOM     76  C   UNL A   1      42.598  23.226  27.470  1.00  0.00     0.023 A 
ATOM     77  C   UNL A   1      43.597  23.204  26.479  1.00  0.00     0.031 A 
ATOM     78  C   UNL A   1      41.868  22.032  27.622  1.00  0.00     0.131 A 
ATOM     79  C   UNL A   1      43.808  22.081  25.668  1.00  0.00     0.055 A 
ATOM     80  C   UNL A   1      42.054  20.919  26.790  1.00  0.00     0.041 A 
ATOM     81  F   UNL A   1      40.978  21.860  28.606  1.00  0.00    -0.206 F 
ATOM     82  C   UNL A   1      43.029  20.938  25.805  1.00  0.00     0.022 A 
BRANCH  79  83
ATOM     83  S   UNL A   1      45.134  22.158  24.442  1.00  0.00     0.124 S 
ATOM     84  O   UNL A   1      46.312  21.854  25.250  1.00  0.00    -0.237 OA
ATOM     85  O   UNL A   1      44.727  21.137  23.484  1.00  0.00    -0.237 OA
ATOM     86  O   UNL A   1      45.059  23.533  23.951  1.00  0.00    -0.744 OA
ENDBRANCH  79  83
ENDBRANCH  62  76
BRANCH  63  87
ATOM     87  C   UNL A   1      41.375  32.046  31.745  1.00  0.00     0.023 A 
ATOM     88  C   UNL A   1      40.504  31.302  32.586  1.00  0.00     0.031 A 
ATOM     89  C   UNL A   1      41.467  33.431  31.970  1.00  0.00     0.131 A 
ATOM     90  C   UNL A   1      39.956  31.893  33.739  1.00  0.00     0.055 A 
ATOM     91  C   UNL A   1      40.871  34.022  33.094  1.00  0.00     0.041 A 
ATOM     92  F   UNL A   1      42.282  34.191  31.224  1.00  0.00    -0.206 F 
ATOM     93  C   UNL A   1      40.173  33.243  34.017  1.00  0.00     0.022 A 
BRANCH  90  94
ATOM     94  S   UNL A   1      39.208  30.839  35.027  1.00  0.00     0.124 S 
ATOM     95  O   UNL A   1      40.127  29.707  35.067  1.00  0.00    -0.237 OA
ATOM     96  O   UNL A   1      39.210  31.699  36.207  1.00  0.00    -0.237 OA
ATOM     97  O   UNL A   1      37.878  30.557  34.492  1.00  0.00    -0.744 OA
ENDBRANCH  90  94
ENDBRANCH  63  87
BRANCH  75  98
ATOM     98  C   UNL A   1      45.456  26.034  32.629  1.00  0.00     0.023 A 
ATOM     99  C   UNL A   1      44.701  25.277  33.524  1.00  0.00     0.031 A 
ATOM    100  C   UNL A   1      46.860  25.864  32.683  1.00  0.00     0.131 A 
ATOM    101  C   UNL A   1      45.316  24.294  34.308  1.00  0.00     0.055 A 
ATOM    102  C   UNL A   1      47.479  24.985  33.570  1.00  0.00     0.041 A 
ATOM    103  F   UNL A   1      47.692  26.487  31.837  1.00  0.00    -0.206 F 
ATOM    104  C   UNL A   1      46.701  24.163  34.367  1.00  0.00     0.022 A 
BRANCH 101 105
ATOM    105  S   UNL A   1      44.244  23.079  35.104  1.00  0.00     0.124 S 
ATOM    106  O   UNL A   1      44.968  21.829  34.896  1.00  0.00    -0.237 OA
ATOM    107  O   UNL A   1      44.219  23.574  36.479  1.00  0.00    -0.237 OA
ATOM    108  O   UNL A   1      42.985  23.204  34.375  1.00  0.00    -0.744 OA
ENDBRANCH 101 105
ENDBRANCH  75  98
ENDBRANCH  49  50
ENDBRANCH  41  44
ENDBRANCH  39  40
ENDBRANCH  38  39
ENDBRANCH   1  38
TORSDOF 18
ENDMDL
MODEL 2
REMARK VINA RESULT:     -12.4      2.666      5.931
REMARK SMILES Cc1ccc(N2C(=O)[NH+]=C(NCCCNC(=O)c3ccc(-c4c5nc(c(-c6cc(S(=O)(=O)[O-])ccc6F)c6ccc([nH]6)c(-c6cc(S(=O)(=O)[O-])ccc6F)c6nc(c(-c7cc(S(=O)(=O)[O-])ccc7F)c7ccc4[nH]7)C=C6)C=C5)cc3)/C(=C\c3ccccc3OCc3cccc(C(=O)[O-])c3)C2=O)cc1
REMARK SMILES IDX 12 1 11 2 6 3 7 4 100 5 8 6 9 7 81 8 101 9 10 10 82 12 5 14
REMARK SMILES IDX 1 15 2 16 3 17 103 18 4 19 102 20 83 21 84 22 88 23 85 24
REMARK SMILES IDX 87 25 86 26 89 27 90 28 91 29 92 30 99 31 93 32 95 33 94 34
REMARK SMILES IDX 96 35 97 36 98 37 13 38 14 39 15 40 16 41 17 43 18 44 19 45
REMARK SMILES IDX 80 46 20 47 79 48 21 49 22 50 23 51 73 52 24 53 78 54 72 55
REMARK SMILES IDX 74 56 25 57 77 58 71 59 70 60 26 62 58 63 38 64 57 65 39 66
REMARK SMILES IDX 42 67 56 68 75 69 40 70 41 71 55 73 76 74 43 75 27 76 28 77
REMARK SMILES IDX 36 78 29 79 35 80 37 81 34 82 30 83 31 84 32 85 33 86 59 87
REMARK SMILES IDX 60 88 68 89 61 90 67 91 69 92 66 93 62 94 63 95 64 96 65 97
REMARK SMILES IDX 44 98 45 99 53 100 46 101 52 102 54 103 51 104 47 105 48 106
REMARK SMILES IDX 49 107 50 108
REMARK H PARENT 9 11 11 13 15 42 74 61 42 72
REMARK Flexibility Score: inf
ROOT
ATOM      1  C   UNL A   1      33.862  28.508  27.864  1.00  0.00     0.195 C 
ENDROOT
BRANCH   1   2
ATOM      2  N   UNL A   1      32.692  27.789  27.332  1.00  0.00    -0.305 N 
ATOM      3  N   UNL A   1      30.348  29.561  24.362  1.00  0.00    -0.155 N 
ATOM      4  C   UNL A   1      31.090  30.278  25.313  1.00  0.00     0.448 C 
ATOM      5  C   UNL A   1      30.271  28.177  24.372  1.00  0.00     0.328 C 
ATOM      6  O   UNL A   1      31.119  31.509  25.326  1.00  0.00    -0.212 OA
ATOM      7  N   UNL A   1      31.750  29.614  26.309  1.00  0.00    -0.209 N 
ATOM      8  C   UNL A   1      31.322  27.534  25.183  1.00  0.00     0.129 C 
ATOM      9  O   UNL A   1      29.508  27.485  23.695  1.00  0.00    -0.249 OA
ATOM     10  C   UNL A   1      31.932  28.328  26.297  1.00  0.00     0.236 C 
ATOM     11  H   UNL A   1      32.103  30.133  27.066  1.00  0.00     0.270 HD
ATOM     12  C   UNL A   1      31.741  26.369  24.652  1.00  0.00     0.034 C 
ATOM     13  H   UNL A   1      32.443  26.916  27.713  1.00  0.00     0.256 HD
BRANCH   3  14
ATOM     14  C   UNL A   1      29.652  30.272  23.330  1.00  0.00     0.111 A 
ATOM     15  C   UNL A   1      27.501  32.342  20.207  1.00  0.00     0.044 C 
ATOM     16  C   UNL A   1      28.238  31.621  21.293  1.00  0.00    -0.051 A 
ATOM     17  C   UNL A   1      29.199  30.658  20.970  1.00  0.00     0.007 A 
ATOM     18  C   UNL A   1      27.970  31.890  22.636  1.00  0.00     0.007 A 
ATOM     19  C   UNL A   1      29.902  29.997  21.978  1.00  0.00     0.044 A 
ATOM     20  C   UNL A   1      28.669  31.221  23.640  1.00  0.00     0.044 A 
ENDBRANCH   3  14
BRANCH  12  21
ATOM     21  C   UNL A   1      32.898  25.625  25.104  1.00  0.00     0.018 A 
ATOM     22  C   UNL A   1      34.075  25.888  24.405  1.00  0.00     0.012 A 
ATOM     23  C   UNL A   1      32.825  24.559  26.013  1.00  0.00     0.127 A 
ATOM     24  C   UNL A   1      35.087  24.954  24.444  1.00  0.00     0.001 A 
ATOM     25  C   UNL A   1      33.867  23.653  26.076  1.00  0.00     0.047 A 
ATOM     26  C   UNL A   1      34.961  23.822  25.246  1.00  0.00     0.004 A 
BRANCH  23  27
ATOM     27  O   UNL A   1      31.678  24.130  26.611  1.00  0.00    -0.488 OA
BRANCH  27  28
ATOM     28  C   UNL A   1      30.648  23.646  25.765  1.00  0.00     0.265 C 
BRANCH  28  29
ATOM     29  C   UNL A   1      31.314  22.685  24.809  1.00  0.00    -0.010 A 
ATOM     30  C   UNL A   1      31.458  22.994  23.450  1.00  0.00     0.007 A 
ATOM     31  C   UNL A   1      31.766  21.440  25.277  1.00  0.00     0.017 A 
ATOM     32  C   UNL A   1      32.035  22.071  22.574  1.00  0.00     0.001 A 
ATOM     33  C   UNL A   1      32.332  20.509  24.402  1.00  0.00    -0.002 A 
ATOM     34  C   UNL A   1      32.460  20.827  23.044  1.00  0.00     0.010 A 
BRANCH  33  35
ATOM     35  C   UNL A   1      32.733  19.169  24.876  1.00  0.00     0.071 C 
ATOM     36  O   UNL A   1      32.388  18.655  25.939  1.00  0.00    -0.545 OA
ATOM     37  O   UNL A   1      33.543  18.548  24.013  1.00  0.00    -0.545 OA
ENDBRANCH  33  35
ENDBRANCH  28  29
ENDBRANCH  27  28
ENDBRANCH  23  27
ENDBRANCH  12  21
ENDBRANCH   1   2
BRANCH   1  38
ATOM     38  C   UNL A   1      33.653  30.017  27.953  1.00  0.00     0.059 C 
BRANCH  38  39
ATOM     39  C   UNL A   1      34.661  30.847  27.171  1.00  0.00     0.119 C 
BRANCH  39  40
ATOM     40  N   UNL A   1      35.464  31.784  27.948  1.00  0.00    -0.352 N 
ATOM     41  C   UNL A   1      36.506  31.547  28.832  1.00  0.00     0.251 C 
ATOM     42  H   UNL A   1      35.230  32.732  27.826  1.00  0.00     0.163 HD
ATOM     43  O   UNL A   1      36.874  32.444  29.589  1.00  0.00    -0.269 OA
BRANCH  41  44
ATOM     44  C   UNL A   1      37.288  30.281  28.782  1.00  0.00     0.039 A 
ATOM     45  C   UNL A   1      37.147  29.377  29.854  1.00  0.00     0.014 A 
ATOM     46  C   UNL A   1      38.306  30.083  27.864  1.00  0.00     0.014 A 
ATOM     47  C   UNL A   1      38.168  28.475  30.149  1.00  0.00     0.010 A 
ATOM     48  C   UNL A   1      39.366  29.294  28.218  1.00  0.00     0.010 A 
ATOM     49  C   UNL A   1      39.326  28.546  29.399  1.00  0.00    -0.014 A 
BRANCH  49  50
ATOM     50  C   UNL A   1      40.591  27.912  29.716  1.00  0.00     0.031 A 
ATOM     51  C   UNL A   1      40.843  26.589  29.127  1.00  0.00     0.074 A 
ATOM     52  C   UNL A   1      41.588  28.661  30.238  1.00  0.00     0.049 A 
ATOM     53  N   UNL A   1      41.886  25.892  29.373  1.00  0.00    -0.248 NA
ATOM     54  C   UNL A   1      39.921  25.929  28.203  1.00  0.00     0.031 C 
ATOM     55  C   UNL A   1      43.034  28.474  30.098  1.00  0.00     0.029 A 
ATOM     56  N   UNL A   1      41.514  29.787  31.023  1.00  0.00    -0.354 N 
ATOM     57  C   UNL A   1      41.936  24.872  28.456  1.00  0.00     0.074 A 
ATOM     58  C   UNL A   1      40.656  24.890  27.797  1.00  0.00     0.031 C 
ATOM     59  C   UNL A   1      43.680  29.314  30.931  1.00  0.00     0.029 A 
ATOM     60  C   UNL A   1      42.678  29.933  31.778  1.00  0.00     0.049 A 
ATOM     61  H   UNL A   1      40.748  30.405  31.048  1.00  0.00     0.167 HD
ATOM     62  C   UNL A   1      43.119  24.223  28.299  1.00  0.00     0.034 A 
ATOM     63  C   UNL A   1      42.576  29.786  33.137  1.00  0.00     0.034 A 
ATOM     64  C   UNL A   1      44.123  24.760  29.222  1.00  0.00     0.049 A 
ATOM     65  C   UNL A   1      43.164  28.450  33.584  1.00  0.00     0.074 A 
ATOM     66  C   UNL A   1      45.166  25.664  29.113  1.00  0.00     0.029 A 
ATOM     67  N   UNL A   1      43.901  24.601  30.574  1.00  0.00    -0.354 N 
ATOM     68  N   UNL A   1      43.605  27.541  32.755  1.00  0.00    -0.248 NA
ATOM     69  C   UNL A   1      43.288  28.016  34.971  1.00  0.00     0.031 C 
ATOM     70  C   UNL A   1      45.523  26.077  30.437  1.00  0.00     0.029 A 
ATOM     71  C   UNL A   1      44.717  25.401  31.339  1.00  0.00     0.049 A 
ATOM     72  H   UNL A   1      43.231  23.984  30.949  1.00  0.00     0.167 HD
ATOM     73  C   UNL A   1      44.043  26.442  33.427  1.00  0.00     0.074 A 
ATOM     74  C   UNL A   1      43.790  26.774  34.823  1.00  0.00     0.031 C 
ATOM     75  C   UNL A   1      44.566  25.352  32.786  1.00  0.00     0.034 A 
BRANCH  62  76
ATOM     76  C   UNL A   1      43.456  23.237  27.218  1.00  0.00     0.023 A 
ATOM     77  C   UNL A   1      42.769  22.010  27.230  1.00  0.00     0.031 A 
ATOM     78  C   UNL A   1      44.381  23.404  26.169  1.00  0.00     0.131 A 
ATOM     79  C   UNL A   1      43.031  21.006  26.288  1.00  0.00     0.055 A 
ATOM     80  C   UNL A   1      44.670  22.389  25.245  1.00  0.00     0.041 A 
ATOM     81  F   UNL A   1      45.013  24.563  25.952  1.00  0.00    -0.206 F 
ATOM     82  C   UNL A   1      43.993  21.180  25.301  1.00  0.00     0.022 A 
BRANCH  79  83
ATOM     83  S   UNL A   1      42.071  19.478  26.388  1.00  0.00     0.124 S 
ATOM     84  O   UNL A   1      40.719  19.950  26.104  1.00  0.00    -0.237 OA
ATOM     85  O   UNL A   1      42.696  18.654  25.359  1.00  0.00    -0.237 OA
ATOM     86  O   UNL A   1      42.294  19.028  27.761  1.00  0.00    -0.744 OA
ENDBRANCH  79  83
ENDBRANCH  62  76
BRANCH  63  87
ATOM     87  C   UNL A   1      41.303  30.438  33.627  1.00  0.00     0.023 A 
ATOM     88  C   UNL A   1      41.273  31.858  33.578  1.00  0.00     0.031 A 
ATOM     89  C   UNL A   1      40.077  29.760  33.527  1.00  0.00     0.131 A 
ATOM     90  C   UNL A   1      40.096  32.529  33.202  1.00  0.00     0.055 A 
ATOM     91  C   UNL A   1      38.895  30.445  33.205  1.00  0.00     0.041 A 
ATOM     92  F   UNL A   1      40.033  28.419  33.548  1.00  0.00    -0.206 F 
ATOM     93  C   UNL A   1      38.915  31.821  32.974  1.00  0.00     0.022 A 
BRANCH  90  94
ATOM     94  S   UNL A   1      40.171  34.289  32.724  1.00  0.00     0.124 S 
ATOM     95  O   UNL A   1      39.054  34.400  31.792  1.00  0.00    -0.237 OA
ATOM     96  O   UNL A   1      40.007  34.988  33.995  1.00  0.00    -0.237 OA
ATOM     97  O   UNL A   1      41.502  34.415  32.136  1.00  0.00    -0.744 OA
ENDBRANCH  90  94
ENDBRANCH  63  87
BRANCH  75  98
ATOM     98  C   UNL A   1      44.968  24.101  33.513  1.00  0.00     0.023 A 
ATOM     99  C   UNL A   1      46.314  23.811  33.732  1.00  0.00     0.031 A 
ATOM    100  C   UNL A   1      44.030  23.155  33.990  1.00  0.00     0.131 A 
ATOM    101  C   UNL A   1      46.678  22.716  34.524  1.00  0.00     0.055 A 
ATOM    102  C   UNL A   1      44.407  21.989  34.655  1.00  0.00     0.041 A 
ATOM    103  F   UNL A   1      42.707  23.345  33.896  1.00  0.00    -0.206 F 
ATOM    104  C   UNL A   1      45.741  21.781  34.958  1.00  0.00     0.022 A 
BRANCH 101 105
ATOM    105  S   UNL A   1      48.381  22.653  35.117  1.00  0.00     0.124 S 
ATOM    106  O   UNL A   1      49.083  23.508  34.166  1.00  0.00    -0.237 OA
ATOM    107  O   UNL A   1      48.235  23.195  36.467  1.00  0.00    -0.237 OA
ATOM    108  O   UNL A   1      48.715  21.233  35.051  1.00  0.00    -0.744 OA
ENDBRANCH 101 105
ENDBRANCH  75  98
ENDBRANCH  49  50
ENDBRANCH  41  44
ENDBRANCH  39  40
ENDBRANCH  38  39
ENDBRANCH   1  38
TORSDOF 18
ENDMDL
MODEL 3
REMARK VINA RESULT:     -12.4      3.659      8.534
REMARK SMILES Cc1ccc(N2C(=O)[NH+]=C(NCCCNC(=O)c3ccc(-c4c5nc(c(-c6cc(S(=O)(=O)[O-])ccc6F)c6ccc([nH]6)c(-c6cc(S(=O)(=O)[O-])ccc6F)c6nc(c(-c7cc(S(=O)(=O)[O-])ccc7F)c7ccc4[nH]7)C=C6)C=C5)cc3)/C(=C\c3ccccc3OCc3cccc(C(=O)[O-])c3)C2=O)cc1
REMARK SMILES IDX 12 1 11 2 6 3 7 4 100 5 8 6 9 7 81 8 101 9 10 10 82 12 5 14
REMARK SMILES IDX 1 15 2 16 3 17 103 18 4 19 102 20 83 21 84 22 88 23 85 24
REMARK SMILES IDX 87 25 86 26 89 27 90 28 91 29 92 30 99 31 93 32 95 33 94 34
REMARK SMILES IDX 96 35 97 36 98 37 13 38 14 39 15 40 16 41 17 43 18 44 19 45
REMARK SMILES IDX 80 46 20 47 79 48 21 49 22 50 23 51 73 52 24 53 78 54 72 55
REMARK SMILES IDX 74 56 25 57 77 58 71 59 70 60 26 62 58 63 38 64 57 65 39 66
REMARK SMILES IDX 42 67 56 68 75 69 40 70 41 71 55 73 76 74 43 75 27 76 28 77
REMARK SMILES IDX 36 78 29 79 35 80 37 81 34 82 30 83 31 84 32 85 33 86 59 87
REMARK SMILES IDX 60 88 68 89 61 90 67 91 69 92 66 93 62 94 63 95 64 96 65 97
REMARK SMILES IDX 44 98 45 99 53 100 46 101 52 102 54 103 51 104 47 105 48 106
REMARK SMILES IDX 49 107 50 108
REMARK H PARENT 9 11 11 13 15 42 74 61 42 72
REMARK Flexibility Score: inf
ROOT
ATOM      1  C   UNL A   1      36.687  31.009  32.442  1.00  0.00     0.195 C 
ENDROOT
BRANCH   1   2
ATOM      2  N   UNL A   1      37.642  31.210  31.338  1.00  0.00    -0.305 N 
ATOM      3  N   UNL A   1      39.309  27.898  29.413  1.00  0.00    -0.155 N 
ATOM      4  C   UNL A   1      38.871  27.897  30.746  1.00  0.00     0.448 C 
ATOM      5  C   UNL A   1      39.293  29.040  28.628  1.00  0.00     0.328 C 
ATOM      6  O   UNL A   1      38.928  26.889  31.451  1.00  0.00    -0.212 OA
ATOM      7  N   UNL A   1      38.428  29.055  31.322  1.00  0.00    -0.209 N 
ATOM      8  C   UNL A   1      38.428  30.111  29.163  1.00  0.00     0.129 C 
ATOM      9  O   UNL A   1      39.820  29.172  27.522  1.00  0.00    -0.249 OA
ATOM     10  C   UNL A   1      38.162  30.126  30.636  1.00  0.00     0.236 C 
ATOM     11  H   UNL A   1      38.305  29.077  32.298  1.00  0.00     0.270 HD
ATOM     12  C   UNL A   1      37.816  30.811  28.189  1.00  0.00     0.034 C 
ATOM     13  H   UNL A   1      37.916  32.123  31.093  1.00  0.00     0.256 HD
BRANCH   3  14
ATOM     14  C   UNL A   1      39.780  26.678  28.825  1.00  0.00     0.111 A 
ATOM     15  C   UNL A   1      41.212  23.046  26.976  1.00  0.00     0.044 C 
ATOM     16  C   UNL A   1      40.722  24.310  27.612  1.00  0.00    -0.051 A 
ATOM     17  C   UNL A   1      39.416  24.752  27.382  1.00  0.00     0.007 A 
ATOM     18  C   UNL A   1      41.562  25.067  28.430  1.00  0.00     0.007 A 
ATOM     19  C   UNL A   1      38.949  25.919  27.989  1.00  0.00     0.044 A 
ATOM     20  C   UNL A   1      41.095  26.238  29.027  1.00  0.00     0.044 A 
ENDBRANCH   3  14
BRANCH  12  21
ATOM     21  C   UNL A   1      36.755  31.773  28.408  1.00  0.00     0.018 A 
ATOM     22  C   UNL A   1      37.185  33.047  28.775  1.00  0.00     0.012 A 
ATOM     23  C   UNL A   1      35.398  31.425  28.475  1.00  0.00     0.127 A 
ATOM     24  C   UNL A   1      36.298  33.881  29.420  1.00  0.00     0.001 A 
ATOM     25  C   UNL A   1      34.508  32.291  29.085  1.00  0.00     0.047 A 
ATOM     26  C   UNL A   1      34.977  33.482  29.608  1.00  0.00     0.004 A 
BRANCH  23  27
ATOM     27  O   UNL A   1      34.913  30.164  28.297  1.00  0.00    -0.488 OA
BRANCH  27  28
ATOM     28  C   UNL A   1      34.953  29.633  26.982  1.00  0.00     0.265 C 
BRANCH  28  29
ATOM     29  C   UNL A   1      33.764  28.708  26.871  1.00  0.00    -0.010 A 
ATOM     30  C   UNL A   1      32.513  29.067  27.387  1.00  0.00     0.007 A 
ATOM     31  C   UNL A   1      33.919  27.446  26.274  1.00  0.00     0.017 A 
ATOM     32  C   UNL A   1      31.438  28.177  27.316  1.00  0.00     0.001 A 
ATOM     33  C   UNL A   1      32.851  26.548  26.212  1.00  0.00    -0.002 A 
ATOM     34  C   UNL A   1      31.608  26.916  26.741  1.00  0.00     0.010 A 
BRANCH  33  35
ATOM     35  C   UNL A   1      33.032  25.191  25.657  1.00  0.00     0.071 C 
ATOM     36  O   UNL A   1      33.519  24.234  26.257  1.00  0.00    -0.545 OA
ATOM     37  O   UNL A   1      32.608  25.100  24.393  1.00  0.00    -0.545 OA
ENDBRANCH  33  35
ENDBRANCH  28  29
ENDBRANCH  27  28
ENDBRANCH  23  27
ENDBRANCH  12  21
ENDBRANCH   1   2
BRANCH   1  38
ATOM     38  C   UNL A   1      36.418  32.277  33.245  1.00  0.00     0.059 C 
BRANCH  38  39
ATOM     39  C   UNL A   1      37.626  32.829  33.989  1.00  0.00     0.119 C 
BRANCH  39  40
ATOM     40  N   UNL A   1      37.588  32.726  35.443  1.00  0.00    -0.352 N 
ATOM     41  C   UNL A   1      38.285  31.884  36.296  1.00  0.00     0.251 C 
ATOM     42  H   UNL A   1      36.972  33.352  35.888  1.00  0.00     0.163 HD
ATOM     43  O   UNL A   1      37.918  31.766  37.464  1.00  0.00    -0.269 OA
BRANCH  41  44
ATOM     44  C   UNL A   1      39.556  31.236  35.872  1.00  0.00     0.039 A 
ATOM     45  C   UNL A   1      40.749  31.975  36.006  1.00  0.00     0.014 A 
ATOM     46  C   UNL A   1      39.573  30.058  35.142  1.00  0.00     0.014 A 
ATOM     47  C   UNL A   1      41.847  31.688  35.196  1.00  0.00     0.010 A 
ATOM     48  C   UNL A   1      40.594  29.849  34.256  1.00  0.00     0.010 A 
ATOM     49  C   UNL A   1      41.697  30.707  34.234  1.00  0.00    -0.014 A 
BRANCH  49  50
ATOM     50  C   UNL A   1      42.595  30.455  33.123  1.00  0.00     0.031 A 
ATOM     51  C   UNL A   1      42.358  31.210  31.886  1.00  0.00     0.074 A 
ATOM     52  C   UNL A   1      43.765  29.819  33.357  1.00  0.00     0.049 A 
ATOM     53  N   UNL A   1      43.032  31.041  30.813  1.00  0.00    -0.248 NA
ATOM     54  C   UNL A   1      41.319  32.231  31.751  1.00  0.00     0.031 C 
ATOM     55  C   UNL A   1      45.034  29.956  32.637  1.00  0.00     0.029 A 
ATOM     56  N   UNL A   1      44.077  28.892  34.323  1.00  0.00    -0.354 N 
ATOM     57  C   UNL A   1      42.748  32.085  29.969  1.00  0.00     0.074 A 
ATOM     58  C   UNL A   1      41.623  32.758  30.562  1.00  0.00     0.031 C 
ATOM     59  C   UNL A   1      45.894  29.007  33.055  1.00  0.00     0.029 A 
ATOM     60  C   UNL A   1      45.152  28.102  33.914  1.00  0.00     0.049 A 
ATOM     61  H   UNL A   1      43.608  28.798  35.184  1.00  0.00     0.167 HD
ATOM     62  C   UNL A   1      43.597  32.306  28.932  1.00  0.00     0.034 A 
ATOM     63  C   UNL A   1      44.907  26.777  33.661  1.00  0.00     0.034 A 
ATOM     64  C   UNL A   1      44.665  31.301  28.922  1.00  0.00     0.049 A 
ATOM     65  C   UNL A   1      44.904  26.502  32.160  1.00  0.00     0.074 A 
ATOM     66  C   UNL A   1      45.980  31.269  29.352  1.00  0.00     0.029 A 
ATOM     67  N   UNL A   1      44.305  29.987  28.707  1.00  0.00    -0.354 N 
ATOM     68  N   UNL A   1      45.016  27.438  31.254  1.00  0.00    -0.248 NA
ATOM     69  C   UNL A   1      44.754  25.184  31.554  1.00  0.00     0.031 C 
ATOM     70  C   UNL A   1      46.376  29.895  29.437  1.00  0.00     0.029 A 
ATOM     71  C   UNL A   1      45.313  29.107  29.030  1.00  0.00     0.049 A 
ATOM     72  H   UNL A   1      43.426  29.710  28.362  1.00  0.00     0.167 HD
ATOM     73  C   UNL A   1      44.949  26.911  30.001  1.00  0.00     0.074 A 
ATOM     74  C   UNL A   1      44.748  25.488  30.242  1.00  0.00     0.031 C 
ATOM     75  C   UNL A   1      45.054  27.682  28.876  1.00  0.00     0.034 A 
BRANCH  62  76
ATOM     76  C   UNL A   1      43.602  33.503  28.025  1.00  0.00     0.023 A 
ATOM     77  C   UNL A   1      43.502  34.768  28.631  1.00  0.00     0.031 A 
ATOM     78  C   UNL A   1      43.711  33.509  26.621  1.00  0.00     0.131 A 
ATOM     79  C   UNL A   1      43.462  35.948  27.876  1.00  0.00     0.055 A 
ATOM     80  C   UNL A   1      43.639  34.685  25.861  1.00  0.00     0.041 A 
ATOM     81  F   UNL A   1      43.943  32.395  25.918  1.00  0.00    -0.206 F 
ATOM     82  C   UNL A   1      43.513  35.916  26.488  1.00  0.00     0.022 A 
BRANCH  79  83
ATOM     83  S   UNL A   1      43.354  37.519  28.764  1.00  0.00     0.124 S 
ATOM     84  O   UNL A   1      43.525  37.096  30.151  1.00  0.00    -0.237 OA
ATOM     85  O   UNL A   1      44.455  38.278  28.180  1.00  0.00    -0.237 OA
ATOM     86  O   UNL A   1      42.018  38.007  28.425  1.00  0.00    -0.744 OA
ENDBRANCH  79  83
ENDBRANCH  62  76
BRANCH  63  87
ATOM     87  C   UNL A   1      43.954  26.228  34.698  1.00  0.00     0.023 A 
ATOM     88  C   UNL A   1      44.533  25.853  35.940  1.00  0.00     0.031 A 
ATOM     89  C   UNL A   1      42.608  26.632  34.706  1.00  0.00     0.131 A 
ATOM     90  C   UNL A   1      43.856  26.114  37.145  1.00  0.00     0.055 A 
ATOM     91  C   UNL A   1      41.921  26.837  35.912  1.00  0.00     0.041 A 
ATOM     92  F   UNL A   1      42.003  27.016  33.572  1.00  0.00    -0.206 F 
ATOM     93  C   UNL A   1      42.565  26.644  37.135  1.00  0.00     0.022 A 
BRANCH  90  94
ATOM     94  S   UNL A   1      44.762  26.036  38.727  1.00  0.00     0.124 S 
ATOM     95  O   UNL A   1      43.792  26.596  39.662  1.00  0.00    -0.237 OA
ATOM     96  O   UNL A   1      45.043  24.612  38.882  1.00  0.00    -0.237 OA
ATOM     97  O   UNL A   1      45.943  26.858  38.473  1.00  0.00    -0.744 OA
ENDBRANCH  90  94
ENDBRANCH  63  87
BRANCH  75  98
ATOM     98  C   UNL A   1      44.892  27.122  27.492  1.00  0.00     0.023 A 
ATOM     99  C   UNL A   1      45.912  26.373  26.907  1.00  0.00     0.031 A 
ATOM    100  C   UNL A   1      43.732  27.331  26.709  1.00  0.00     0.131 A 
ATOM    101  C   UNL A   1      45.706  25.742  25.675  1.00  0.00     0.055 A 
ATOM    102  C   UNL A   1      43.589  26.819  25.422  1.00  0.00     0.041 A 
ATOM    103  F   UNL A   1      42.658  27.981  27.178  1.00  0.00    -0.206 F 
ATOM    104  C   UNL A   1      44.568  25.986  24.909  1.00  0.00     0.022 A 
BRANCH 101 105
ATOM    105  S   UNL A   1      46.880  24.460  25.194  1.00  0.00     0.124 S 
ATOM    106  O   UNL A   1      48.106  25.218  24.968  1.00  0.00    -0.237 OA
ATOM    107  O   UNL A   1      46.875  23.605  26.380  1.00  0.00    -0.237 OA
ATOM    108  O   UNL A   1      46.276  23.872  24.002  1.00  0.00    -0.744 OA
ENDBRANCH 101 105
ENDBRANCH  75  98
ENDBRANCH  49  50
ENDBRANCH  41  44
ENDBRANCH  39  40
ENDBRANCH  38  39
ENDBRANCH   1  38
TORSDOF 18
ENDMDL
