MODEL 1
REMARK VINA RESULT:     -12.0      0.000      0.000
REMARK SMILES CCOC(=O)c1ccc(-c2ccc(C(=O)NCCCNC(=O)c3ccc(-c4c5nc(c(-c6cc(S(=O)(=O)[O-])ccc6F)c6ccc([nH]6)c(-c6cc(S(=O)(=O)[O-])ccc6F)c6nc(c(-c7cc(S(=O)(=O)[O-])ccc7F)c7ccc4[nH]7)C=C6)C=C5)cc3)o2)cc1
REMARK SMILES IDX 17 1 16 2 14 3 15 4 13 6 10 7 11 8 86 9 12 10 9 11 6 12 7 13
REMARK SMILES IDX 88 14 8 15 87 16 4 17 5 18 3 19 2 20 1 21 18 22 19 23 20 24
REMARK SMILES IDX 21 25 22 27 23 28 24 29 85 30 25 31 84 32 26 33 27 34 28 35
REMARK SMILES IDX 78 36 29 37 83 38 77 39 79 40 30 41 82 42 76 43 75 44 31 46
REMARK SMILES IDX 63 47 43 48 62 49 44 50 47 51 61 52 80 53 45 54 46 55 60 57
REMARK SMILES IDX 81 58 48 59 32 60 33 61 41 62 34 63 40 64 42 65 39 66 35 67
REMARK SMILES IDX 36 68 37 69 38 70 64 71 65 72 73 73 66 74 72 75 74 76 71 77
REMARK SMILES IDX 67 78 68 79 69 80 70 81 49 82 50 83 58 84 51 85 57 86 59 87
REMARK SMILES IDX 56 88 52 89 53 90 54 91 55 92
REMARK H PARENT 16 5 20 26 79 45 47 56
REMARK Flexibility Score: inf
ROOT
ATOM      1  C   UNL A   1      31.413  27.385  24.378  1.00  0.00     0.118 C 
ENDROOT
BRANCH   1   2
ATOM      2  N   UNL A   1      32.285  27.252  23.226  1.00  0.00    -0.349 N 
ATOM      3  C   UNL A   1      33.255  26.322  22.924  1.00  0.00     0.287 C 
ATOM      4  O   UNL A   1      33.736  26.402  21.791  1.00  0.00    -0.266 OA
ATOM      5  H   UNL A   1      32.162  27.948  22.540  1.00  0.00     0.163 HD
BRANCH   3   6
ATOM      6  C   UNL A   1      33.660  25.308  23.882  1.00  0.00     0.192 A 
ATOM      7  C   UNL A   1      33.707  23.229  24.644  1.00  0.00     0.135 A 
ATOM      8  C   UNL A   1      34.436  23.979  25.534  1.00  0.00     0.052 A 
ATOM      9  O   UNL A   1      33.236  24.017  23.642  1.00  0.00    -0.451 OA
ATOM     10  C   UNL A   1      34.443  25.297  25.025  1.00  0.00     0.057 A 
BRANCH   7  11
ATOM     11  C   UNL A   1      33.428  21.808  24.559  1.00  0.00     0.017 A 
ATOM     12  C   UNL A   1      33.173  19.062  24.055  1.00  0.00     0.060 A 
ATOM     13  C   UNL A   1      32.328  19.974  23.413  1.00  0.00     0.016 A 
ATOM     14  C   UNL A   1      34.105  19.515  24.997  1.00  0.00     0.016 A 
ATOM     15  C   UNL A   1      32.444  21.341  23.679  1.00  0.00     0.013 A 
ATOM     16  C   UNL A   1      34.236  20.886  25.239  1.00  0.00     0.013 A 
BRANCH  12  17
ATOM     17  C   UNL A   1      33.148  17.648  23.614  1.00  0.00     0.338 C 
ATOM     18  O   UNL A   1      33.650  17.270  22.570  1.00  0.00    -0.246 OA
BRANCH  17  19
ATOM     19  O   UNL A   1      32.521  16.876  24.535  1.00  0.00    -0.462 OA
BRANCH  19  20
ATOM     20  C   UNL A   1      33.279  15.755  25.017  1.00  0.00     0.230 C 
ATOM     21  C   UNL A   1      34.775  16.017  25.002  1.00  0.00     0.049 C 
ENDBRANCH  19  20
ENDBRANCH  17  19
ENDBRANCH  12  17
ENDBRANCH   7  11
ENDBRANCH   3   6
ENDBRANCH   1   2
BRANCH   1  22
ATOM     22  C   UNL A   1      32.126  28.017  25.573  1.00  0.00     0.042 C 
BRANCH  22  23
ATOM     23  C   UNL A   1      32.993  29.221  25.200  1.00  0.00     0.118 C 
BRANCH  23  24
ATOM     24  N   UNL A   1      32.454  30.464  25.732  1.00  0.00    -0.352 N 
ATOM     25  C   UNL A   1      32.794  31.177  26.855  1.00  0.00     0.251 C 
ATOM     26  H   UNL A   1      31.725  30.859  25.201  1.00  0.00     0.163 HD
ATOM     27  O   UNL A   1      32.043  32.073  27.234  1.00  0.00    -0.269 OA
BRANCH  25  28
ATOM     28  C   UNL A   1      34.031  30.877  27.614  1.00  0.00     0.039 A 
ATOM     29  C   UNL A   1      34.886  31.934  27.945  1.00  0.00     0.014 A 
ATOM     30  C   UNL A   1      34.390  29.567  27.940  1.00  0.00     0.014 A 
ATOM     31  C   UNL A   1      36.071  31.683  28.645  1.00  0.00     0.010 A 
ATOM     32  C   UNL A   1      35.543  29.324  28.688  1.00  0.00     0.010 A 
ATOM     33  C   UNL A   1      36.397  30.379  29.046  1.00  0.00    -0.014 A 
BRANCH  33  34
ATOM     34  C   UNL A   1      37.628  30.098  29.829  1.00  0.00     0.031 A 
ATOM     35  C   UNL A   1      38.700  29.208  29.261  1.00  0.00     0.074 A 
ATOM     36  C   UNL A   1      37.753  30.592  31.076  1.00  0.00     0.049 A 
ATOM     37  N   UNL A   1      39.793  28.761  29.825  1.00  0.00    -0.248 NA
ATOM     38  C   UNL A   1      38.499  28.738  27.882  1.00  0.00     0.031 C 
ATOM     39  C   UNL A   1      36.771  31.446  31.747  1.00  0.00     0.029 A 
ATOM     40  N   UNL A   1      38.749  30.440  32.006  1.00  0.00    -0.354 N 
ATOM     41  C   UNL A   1      40.404  27.944  28.878  1.00  0.00     0.074 A 
ATOM     42  C   UNL A   1      39.529  27.920  27.723  1.00  0.00     0.031 C 
ATOM     43  C   UNL A   1      37.220  31.752  32.975  1.00  0.00     0.029 A 
ATOM     44  C   UNL A   1      38.499  31.085  33.195  1.00  0.00     0.049 A 
ATOM     45  H   UNL A   1      39.567  29.918  31.839  1.00  0.00     0.167 HD
ATOM     46  C   UNL A   1      41.589  27.289  28.958  1.00  0.00     0.034 A 
ATOM     47  C   UNL A   1      39.211  31.122  34.338  1.00  0.00     0.034 A 
ATOM     48  C   UNL A   1      42.456  27.332  30.112  1.00  0.00     0.049 A 
ATOM     49  C   UNL A   1      40.517  30.374  34.411  1.00  0.00     0.074 A 
ATOM     50  C   UNL A   1      43.696  26.740  30.285  1.00  0.00     0.029 A 
ATOM     51  N   UNL A   1      42.173  28.004  31.294  1.00  0.00    -0.354 N 
ATOM     52  N   UNL A   1      41.091  29.626  33.499  1.00  0.00    -0.248 NA
ATOM     53  C   UNL A   1      41.273  30.485  35.666  1.00  0.00     0.031 C 
ATOM     54  C   UNL A   1      44.136  27.009  31.587  1.00  0.00     0.029 A 
ATOM     55  C   UNL A   1      43.202  27.823  32.207  1.00  0.00     0.049 A 
ATOM     56  H   UNL A   1      41.358  28.531  31.461  1.00  0.00     0.167 HD
ATOM     57  C   UNL A   1      42.291  29.199  34.061  1.00  0.00     0.074 A 
ATOM     58  C   UNL A   1      42.360  29.782  35.385  1.00  0.00     0.031 C 
ATOM     59  C   UNL A   1      43.250  28.401  33.528  1.00  0.00     0.034 A 
BRANCH  46  60
ATOM     60  C   UNL A   1      41.996  26.449  27.771  1.00  0.00     0.023 A 
ATOM     61  C   UNL A   1      41.650  25.089  27.678  1.00  0.00     0.031 A 
ATOM     62  C   UNL A   1      42.772  27.001  26.737  1.00  0.00     0.131 A 
ATOM     63  C   UNL A   1      42.143  24.310  26.620  1.00  0.00     0.055 A 
ATOM     64  C   UNL A   1      43.192  26.240  25.643  1.00  0.00     0.041 A 
ATOM     65  F   UNL A   1      43.149  28.289  26.778  1.00  0.00    -0.206 F 
ATOM     66  C   UNL A   1      42.892  24.881  25.589  1.00  0.00     0.022 A 
BRANCH  63  67
ATOM     67  S   UNL A   1      41.914  22.512  26.689  1.00  0.00     0.124 S 
ATOM     68  O   UNL A   1      40.473  22.408  26.913  1.00  0.00    -0.237 OA
ATOM     69  O   UNL A   1      42.389  22.084  25.379  1.00  0.00    -0.237 OA
ATOM     70  O   UNL A   1      42.744  22.104  27.820  1.00  0.00    -0.744 OA
ENDBRANCH  63  67
ENDBRANCH  46  60
BRANCH  47  71
ATOM     71  C   UNL A   1      38.705  31.884  35.513  1.00  0.00     0.023 A 
ATOM     72  C   UNL A   1      38.155  31.220  36.621  1.00  0.00     0.031 A 
ATOM     73  C   UNL A   1      38.739  33.289  35.534  1.00  0.00     0.131 A 
ATOM     74  C   UNL A   1      37.623  31.961  37.686  1.00  0.00     0.055 A 
ATOM     75  C   UNL A   1      38.248  34.021  36.616  1.00  0.00     0.041 A 
ATOM     76  F   UNL A   1      39.264  33.970  34.503  1.00  0.00    -0.206 F 
ATOM     77  C   UNL A   1      37.675  33.357  37.696  1.00  0.00     0.022 A 
BRANCH  74  78
ATOM     78  S   UNL A   1      36.799  31.072  39.036  1.00  0.00     0.124 S 
ATOM     79  O   UNL A   1      37.774  31.195  40.113  1.00  0.00    -0.237 OA
ATOM     80  O   UNL A   1      35.567  31.838  39.194  1.00  0.00    -0.237 OA
ATOM     81  O   UNL A   1      36.627  29.724  38.499  1.00  0.00    -0.744 OA
ENDBRANCH  74  78
ENDBRANCH  47  71
BRANCH  59  82
ATOM     82  C   UNL A   1      44.475  28.155  34.372  1.00  0.00     0.023 A 
ATOM     83  C   UNL A   1      44.557  27.068  35.258  1.00  0.00     0.031 A 
ATOM     84  C   UNL A   1      45.569  29.037  34.301  1.00  0.00     0.131 A 
ATOM     85  C   UNL A   1      45.687  26.918  36.076  1.00  0.00     0.055 A 
ATOM     86  C   UNL A   1      46.711  28.854  35.079  1.00  0.00     0.041 A 
ATOM     87  F   UNL A   1      45.540  30.093  33.471  1.00  0.00    -0.206 F 
ATOM     88  C   UNL A   1      46.770  27.797  35.983  1.00  0.00     0.022 A 
BRANCH  85  89
ATOM     89  S   UNL A   1      45.691  25.605  37.327  1.00  0.00     0.124 S 
ATOM     90  O   UNL A   1      45.936  26.355  38.556  1.00  0.00    -0.237 OA
ATOM     91  O   UNL A   1      44.355  25.034  37.185  1.00  0.00    -0.237 OA
ATOM     92  O   UNL A   1      46.785  24.732  36.906  1.00  0.00    -0.744 OA
ENDBRANCH  85  89
ENDBRANCH  59  82
ENDBRANCH  33  34
ENDBRANCH  25  28
ENDBRANCH  23  24
ENDBRANCH  22  23
ENDBRANCH   1  22
TORSDOF 17
ENDMDL
MODEL 2
REMARK VINA RESULT:     -12.0      2.365      3.350
REMARK SMILES CCOC(=O)c1ccc(-c2ccc(C(=O)NCCCNC(=O)c3ccc(-c4c5nc(c(-c6cc(S(=O)(=O)[O-])ccc6F)c6ccc([nH]6)c(-c6cc(S(=O)(=O)[O-])ccc6F)c6nc(c(-c7cc(S(=O)(=O)[O-])ccc7F)c7ccc4[nH]7)C=C6)C=C5)cc3)o2)cc1
REMARK SMILES IDX 17 1 16 2 14 3 15 4 13 6 10 7 11 8 86 9 12 10 9 11 6 12 7 13
REMARK SMILES IDX 88 14 8 15 87 16 4 17 5 18 3 19 2 20 1 21 18 22 19 23 20 24
REMARK SMILES IDX 21 25 22 27 23 28 24 29 85 30 25 31 84 32 26 33 27 34 28 35
REMARK SMILES IDX 78 36 29 37 83 38 77 39 79 40 30 41 82 42 76 43 75 44 31 46
REMARK SMILES IDX 63 47 43 48 62 49 44 50 47 51 61 52 80 53 45 54 46 55 60 57
REMARK SMILES IDX 81 58 48 59 32 60 33 61 41 62 34 63 40 64 42 65 39 66 35 67
REMARK SMILES IDX 36 68 37 69 38 70 64 71 65 72 73 73 66 74 72 75 74 76 71 77
REMARK SMILES IDX 67 78 68 79 69 80 70 81 49 82 50 83 58 84 51 85 57 86 59 87
REMARK SMILES IDX 56 88 52 89 53 90 54 91 55 92
REMARK H PARENT 16 5 20 26 79 45 47 56
REMARK Flexibility Score: inf
ROOT
ATOM      1  C   UNL A   1      31.861  30.591  26.762  1.00  0.00     0.118 C 
ENDROOT
BRANCH   1   2
ATOM      2  N   UNL A   1      33.106  30.203  27.399  1.00  0.00    -0.349 N 
ATOM      3  C   UNL A   1      34.069  29.290  27.027  1.00  0.00     0.287 C 
ATOM      4  O   UNL A   1      35.091  29.284  27.718  1.00  0.00    -0.266 OA
ATOM      5  H   UNL A   1      33.296  30.673  28.242  1.00  0.00     0.163 HD
BRANCH   3   6
ATOM      6  C   UNL A   1      33.884  28.412  25.885  1.00  0.00     0.192 A 
ATOM      7  C   UNL A   1      33.666  26.413  24.956  1.00  0.00     0.135 A 
ATOM      8  C   UNL A   1      33.601  27.323  23.927  1.00  0.00     0.052 A 
ATOM      9  O   UNL A   1      33.833  27.057  26.141  1.00  0.00    -0.451 OA
ATOM     10  C   UNL A   1      33.697  28.600  24.525  1.00  0.00     0.057 A 
BRANCH   7  11
ATOM     11  C   UNL A   1      33.524  24.970  24.997  1.00  0.00     0.017 A 
ATOM     12  C   UNL A   1      33.691  22.174  25.107  1.00  0.00     0.060 A 
ATOM     13  C   UNL A   1      33.744  22.831  23.873  1.00  0.00     0.016 A 
ATOM     14  C   UNL A   1      33.493  22.909  26.283  1.00  0.00     0.016 A 
ATOM     15  C   UNL A   1      33.642  24.224  23.818  1.00  0.00     0.013 A 
ATOM     16  C   UNL A   1      33.419  24.304  26.225  1.00  0.00     0.013 A 
BRANCH  12  17
ATOM     17  C   UNL A   1      33.987  20.724  25.145  1.00  0.00     0.338 C 
ATOM     18  O   UNL A   1      33.211  19.899  25.595  1.00  0.00    -0.246 OA
BRANCH  17  19
ATOM     19  O   UNL A   1      35.203  20.475  24.598  1.00  0.00    -0.462 OA
BRANCH  19  20
ATOM     20  C   UNL A   1      36.329  20.883  25.391  1.00  0.00     0.230 C 
ATOM     21  C   UNL A   1      37.312  21.734  24.607  1.00  0.00     0.049 C 
ENDBRANCH  19  20
ENDBRANCH  17  19
ENDBRANCH  12  17
ENDBRANCH   7  11
ENDBRANCH   3   6
ENDBRANCH   1   2
BRANCH   1  22
ATOM     22  C   UNL A   1      31.610  32.096  26.853  1.00  0.00     0.042 C 
BRANCH  22  23
ATOM     23  C   UNL A   1      32.889  32.920  27.011  1.00  0.00     0.118 C 
BRANCH  23  24
ATOM     24  N   UNL A   1      32.640  34.186  27.687  1.00  0.00    -0.352 N 
ATOM     25  C   UNL A   1      33.153  34.689  28.857  1.00  0.00     0.251 C 
ATOM     26  H   UNL A   1      31.999  34.777  27.230  1.00  0.00     0.163 HD
ATOM     27  O   UNL A   1      32.619  35.678  29.355  1.00  0.00    -0.269 OA
BRANCH  25  28
ATOM     28  C   UNL A   1      34.315  34.059  29.524  1.00  0.00     0.039 A 
ATOM     29  C   UNL A   1      35.601  34.384  29.076  1.00  0.00     0.014 A 
ATOM     30  C   UNL A   1      34.154  33.105  30.532  1.00  0.00     0.014 A 
ATOM     31  C   UNL A   1      36.721  33.793  29.672  1.00  0.00     0.010 A 
ATOM     32  C   UNL A   1      35.272  32.560  31.164  1.00  0.00     0.010 A 
ATOM     33  C   UNL A   1      36.567  32.896  30.739  1.00  0.00    -0.014 A 
BRANCH  33  34
ATOM     34  C   UNL A   1      37.744  32.292  31.416  1.00  0.00     0.031 A 
ATOM     35  C   UNL A   1      38.505  31.174  30.756  1.00  0.00     0.074 A 
ATOM     36  C   UNL A   1      38.091  32.709  32.649  1.00  0.00     0.049 A 
ATOM     37  N   UNL A   1      39.489  30.451  31.226  1.00  0.00    -0.248 NA
ATOM     38  C   UNL A   1      38.080  30.804  29.398  1.00  0.00     0.031 C 
ATOM     39  C   UNL A   1      37.416  33.767  33.403  1.00  0.00     0.029 A 
ATOM     40  N   UNL A   1      39.087  32.286  33.492  1.00  0.00    -0.354 N 
ATOM     41  C   UNL A   1      39.794  29.529  30.228  1.00  0.00     0.074 A 
ATOM     42  C   UNL A   1      38.852  29.756  29.151  1.00  0.00     0.031 C 
ATOM     43  C   UNL A   1      38.025  33.919  34.590  1.00  0.00     0.029 A 
ATOM     44  C   UNL A   1      39.106  32.944  34.700  1.00  0.00     0.049 A 
ATOM     45  H   UNL A   1      39.728  31.578  33.255  1.00  0.00     0.167 HD
ATOM     46  C   UNL A   1      40.776  28.593  30.206  1.00  0.00     0.034 A 
ATOM     47  C   UNL A   1      39.892  32.771  35.779  1.00  0.00     0.034 A 
ATOM     48  C   UNL A   1      41.715  28.387  31.283  1.00  0.00     0.049 A 
ATOM     49  C   UNL A   1      40.966  31.715  35.740  1.00  0.00     0.074 A 
ATOM     50  C   UNL A   1      42.773  27.495  31.349  1.00  0.00     0.029 A 
ATOM     51  N   UNL A   1      41.708  29.079  32.487  1.00  0.00    -0.354 N 
ATOM     52  N   UNL A   1      41.256  30.868  34.780  1.00  0.00    -0.248 NA
ATOM     53  C   UNL A   1      41.824  31.599  36.927  1.00  0.00     0.031 C 
ATOM     54  C   UNL A   1      43.370  27.612  32.611  1.00  0.00     0.029 A 
ATOM     55  C   UNL A   1      42.727  28.621  33.309  1.00  0.00     0.049 A 
ATOM     56  H   UNL A   1      41.070  29.792  32.723  1.00  0.00     0.167 HD
ATOM     57  C   UNL A   1      42.348  30.137  35.238  1.00  0.00     0.074 A 
ATOM     58  C   UNL A   1      42.670  30.651  36.553  1.00  0.00     0.031 C 
ATOM     59  C   UNL A   1      43.027  29.135  34.624  1.00  0.00     0.034 A 
BRANCH  46  60
ATOM     60  C   UNL A   1      40.859  27.706  28.986  1.00  0.00     0.023 A 
ATOM     61  C   UNL A   1      41.801  27.940  27.968  1.00  0.00     0.031 A 
ATOM     62  C   UNL A   1      39.962  26.636  28.818  1.00  0.00     0.131 A 
ATOM     63  C   UNL A   1      41.773  27.169  26.797  1.00  0.00     0.055 A 
ATOM     64  C   UNL A   1      39.993  25.820  27.686  1.00  0.00     0.041 A 
ATOM     65  F   UNL A   1      39.029  26.374  29.747  1.00  0.00    -0.206 F 
ATOM     66  C   UNL A   1      40.891  26.095  26.658  1.00  0.00     0.022 A 
BRANCH  63  67
ATOM     67  S   UNL A   1      42.808  27.683  25.398  1.00  0.00     0.124 S 
ATOM     68  O   UNL A   1      43.998  28.183  26.082  1.00  0.00    -0.237 OA
ATOM     69  O   UNL A   1      42.973  26.440  24.655  1.00  0.00    -0.237 OA
ATOM     70  O   UNL A   1      42.002  28.706  24.734  1.00  0.00    -0.744 OA
ENDBRANCH  63  67
ENDBRANCH  46  60
BRANCH  47  71
ATOM     71  C   UNL A   1      39.694  33.607  36.995  1.00  0.00     0.023 A 
ATOM     72  C   UNL A   1      39.108  33.069  38.152  1.00  0.00     0.031 A 
ATOM     73  C   UNL A   1      40.062  34.964  37.009  1.00  0.00     0.131 A 
ATOM     74  C   UNL A   1      38.868  33.894  39.261  1.00  0.00     0.055 A 
ATOM     75  C   UNL A   1      39.861  35.769  38.131  1.00  0.00     0.041 A 
ATOM     76  F   UNL A   1      40.635  35.522  35.931  1.00  0.00    -0.206 F 
ATOM     77  C   UNL A   1      39.250  35.238  39.262  1.00  0.00     0.022 A 
BRANCH  74  78
ATOM     78  S   UNL A   1      37.986  33.198  40.686  1.00  0.00     0.124 S 
ATOM     79  O   UNL A   1      38.588  31.874  40.791  1.00  0.00    -0.237 OA
ATOM     80  O   UNL A   1      38.327  34.144  41.743  1.00  0.00    -0.237 OA
ATOM     81  O   UNL A   1      36.588  33.217  40.262  1.00  0.00    -0.744 OA
ENDBRANCH  74  78
ENDBRANCH  47  71
BRANCH  59  82
ATOM     82  C   UNL A   1      44.213  28.566  35.361  1.00  0.00     0.023 A 
ATOM     83  C   UNL A   1      44.068  27.556  36.328  1.00  0.00     0.031 A 
ATOM     84  C   UNL A   1      45.505  29.059  35.105  1.00  0.00     0.131 A 
ATOM     85  C   UNL A   1      45.190  27.107  37.041  1.00  0.00     0.055 A 
ATOM     86  C   UNL A   1      46.624  28.571  35.780  1.00  0.00     0.041 A 
ATOM     87  F   UNL A   1      45.697  30.025  34.192  1.00  0.00    -0.206 F 
ATOM     88  C   UNL A   1      46.469  27.599  36.763  1.00  0.00     0.022 A 
BRANCH  85  89
ATOM     89  S   UNL A   1      44.947  25.927  38.396  1.00  0.00     0.124 S 
ATOM     90  O   UNL A   1      44.154  26.709  39.341  1.00  0.00    -0.237 OA
ATOM     91  O   UNL A   1      44.248  24.830  37.734  1.00  0.00    -0.237 OA
ATOM     92  O   UNL A   1      46.307  25.620  38.833  1.00  0.00    -0.744 OA
ENDBRANCH  85  89
ENDBRANCH  59  82
ENDBRANCH  33  34
ENDBRANCH  25  28
ENDBRANCH  23  24
ENDBRANCH  22  23
ENDBRANCH   1  22
TORSDOF 17
ENDMDL
MODEL 3
REMARK VINA RESULT:     -11.8      1.593      7.678
REMARK SMILES CCOC(=O)c1ccc(-c2ccc(C(=O)NCCCNC(=O)c3ccc(-c4c5nc(c(-c6cc(S(=O)(=O)[O-])ccc6F)c6ccc([nH]6)c(-c6cc(S(=O)(=O)[O-])ccc6F)c6nc(c(-c7cc(S(=O)(=O)[O-])ccc7F)c7ccc4[nH]7)C=C6)C=C5)cc3)o2)cc1
REMARK SMILES IDX 17 1 16 2 14 3 15 4 13 6 10 7 11 8 86 9 12 10 9 11 6 12 7 13
REMARK SMILES IDX 88 14 8 15 87 16 4 17 5 18 3 19 2 20 1 21 18 22 19 23 20 24
REMARK SMILES IDX 21 25 22 27 23 28 24 29 85 30 25 31 84 32 26 33 27 34 28 35
REMARK SMILES IDX 78 36 29 37 83 38 77 39 79 40 30 41 82 42 76 43 75 44 31 46
REMARK SMILES IDX 63 47 43 48 62 49 44 50 47 51 61 52 80 53 45 54 46 55 60 57
REMARK SMILES IDX 81 58 48 59 32 60 33 61 41 62 34 63 40 64 42 65 39 66 35 67
REMARK SMILES IDX 36 68 37 69 38 70 64 71 65 72 73 73 66 74 72 75 74 76 71 77
REMARK SMILES IDX 67 78 68 79 69 80 70 81 49 82 50 83 58 84 51 85 57 86 59 87
REMARK SMILES IDX 56 88 52 89 53 90 54 91 55 92
REMARK H PARENT 16 5 20 26 79 45 47 56
REMARK Flexibility Score: inf
ROOT
ATOM      1  C   UNL A   1      31.285  27.967  24.211  1.00  0.00     0.118 C 
ENDROOT
BRANCH   1   2
ATOM      2  N   UNL A   1      32.266  27.817  23.151  1.00  0.00    -0.349 N 
ATOM      3  C   UNL A   1      33.207  26.839  22.918  1.00  0.00     0.287 C 
ATOM      4  O   UNL A   1      33.809  26.924  21.845  1.00  0.00    -0.266 OA
ATOM      5  H   UNL A   1      32.256  28.539  22.483  1.00  0.00     0.163 HD
BRANCH   3   6
ATOM      6  C   UNL A   1      33.451  25.774  23.876  1.00  0.00     0.192 A 
ATOM      7  C   UNL A   1      33.284  23.676  24.569  1.00  0.00     0.135 A 
ATOM      8  C   UNL A   1      33.975  24.349  25.548  1.00  0.00     0.052 A 
ATOM      9  O   UNL A   1      32.965  24.522  23.554  1.00  0.00    -0.451 OA
ATOM     10  C   UNL A   1      34.119  25.677  25.086  1.00  0.00     0.057 A 
BRANCH   7  11
ATOM     11  C   UNL A   1      32.919  22.281  24.411  1.00  0.00     0.017 A 
ATOM     12  C   UNL A   1      32.627  19.531  23.953  1.00  0.00     0.060 A 
ATOM     13  C   UNL A   1      32.318  20.447  22.941  1.00  0.00     0.016 A 
ATOM     14  C   UNL A   1      33.023  19.990  25.215  1.00  0.00     0.016 A 
ATOM     15  C   UNL A   1      32.447  21.819  23.177  1.00  0.00     0.013 A 
ATOM     16  C   UNL A   1      33.177  21.362  25.438  1.00  0.00     0.013 A 
BRANCH  12  17
ATOM     17  C   UNL A   1      32.657  18.091  23.612  1.00  0.00     0.338 C 
ATOM     18  O   UNL A   1      32.476  17.672  22.482  1.00  0.00    -0.246 OA
BRANCH  17  19
ATOM     19  O   UNL A   1      32.930  17.349  24.714  1.00  0.00    -0.462 OA
BRANCH  19  20
ATOM     20  C   UNL A   1      33.155  15.951  24.474  1.00  0.00     0.230 C 
ATOM     21  C   UNL A   1      32.543  15.073  25.553  1.00  0.00     0.049 C 
ENDBRANCH  19  20
ENDBRANCH  17  19
ENDBRANCH  12  17
ENDBRANCH   7  11
ENDBRANCH   3   6
ENDBRANCH   1   2
BRANCH   1  22
ATOM     22  C   UNL A   1      31.916  28.445  25.518  1.00  0.00     0.042 C 
BRANCH  22  23
ATOM     23  C   UNL A   1      33.007  29.499  25.321  1.00  0.00     0.118 C 
BRANCH  23  24
ATOM     24  N   UNL A   1      32.624  30.788  25.879  1.00  0.00    -0.352 N 
ATOM     25  C   UNL A   1      33.083  31.452  26.989  1.00  0.00     0.251 C 
ATOM     26  H   UNL A   1      31.920  31.261  25.378  1.00  0.00     0.163 HD
ATOM     27  O   UNL A   1      32.446  32.421  27.400  1.00  0.00    -0.269 OA
BRANCH  25  28
ATOM     28  C   UNL A   1      34.310  31.018  27.695  1.00  0.00     0.039 A 
ATOM     29  C   UNL A   1      35.337  31.950  27.888  1.00  0.00     0.014 A 
ATOM     30  C   UNL A   1      34.489  29.695  28.107  1.00  0.00     0.014 A 
ATOM     31  C   UNL A   1      36.517  31.568  28.535  1.00  0.00     0.010 A 
ATOM     32  C   UNL A   1      35.642  29.330  28.803  1.00  0.00     0.010 A 
ATOM     33  C   UNL A   1      36.669  30.261  29.022  1.00  0.00    -0.014 A 
BRANCH  33  34
ATOM     34  C   UNL A   1      37.896  29.848  29.752  1.00  0.00     0.031 A 
ATOM     35  C   UNL A   1      38.179  30.394  31.126  1.00  0.00     0.074 A 
ATOM     36  C   UNL A   1      38.785  29.031  29.154  1.00  0.00     0.049 A 
ATOM     37  N   UNL A   1      39.238  30.238  31.878  1.00  0.00    -0.248 NA
ATOM     38  C   UNL A   1      37.141  31.252  31.716  1.00  0.00     0.031 C 
ATOM     39  C   UNL A   1      38.635  28.458  27.816  1.00  0.00     0.029 A 
ATOM     40  N   UNL A   1      39.994  28.552  29.587  1.00  0.00    -0.354 N 
ATOM     41  C   UNL A   1      39.003  30.989  33.026  1.00  0.00     0.074 A 
ATOM     42  C   UNL A   1      37.722  31.641  32.842  1.00  0.00     0.031 C 
ATOM     43  C   UNL A   1      39.706  27.694  27.543  1.00  0.00     0.029 A 
ATOM     44  C   UNL A   1      40.635  27.755  28.666  1.00  0.00     0.049 A 
ATOM     45  H   UNL A   1      40.370  28.758  30.474  1.00  0.00     0.167 HD
ATOM     46  C   UNL A   1      39.775  31.112  34.135  1.00  0.00     0.034 A 
ATOM     47  C   UNL A   1      41.841  27.157  28.714  1.00  0.00     0.034 A 
ATOM     48  C   UNL A   1      41.045  30.447  34.308  1.00  0.00     0.049 A 
ATOM     49  C   UNL A   1      42.690  27.319  29.948  1.00  0.00     0.074 A 
ATOM     50  C   UNL A   1      41.890  30.470  35.406  1.00  0.00     0.029 A 
ATOM     51  N   UNL A   1      41.657  29.641  33.357  1.00  0.00    -0.354 N 
ATOM     52  N   UNL A   1      42.443  28.014  31.034  1.00  0.00    -0.248 NA
ATOM     53  C   UNL A   1      43.975  26.608  29.965  1.00  0.00     0.031 C 
ATOM     54  C   UNL A   1      43.034  29.723  35.097  1.00  0.00     0.029 A 
ATOM     55  C   UNL A   1      42.876  29.180  33.832  1.00  0.00     0.049 A 
ATOM     56  H   UNL A   1      41.280  29.429  32.472  1.00  0.00     0.167 HD
ATOM     57  C   UNL A   1      43.532  27.801  31.875  1.00  0.00     0.074 A 
ATOM     58  C   UNL A   1      44.428  26.906  31.174  1.00  0.00     0.031 C 
ATOM     59  C   UNL A   1      43.766  28.297  33.116  1.00  0.00     0.034 A 
BRANCH  46  60
ATOM     60  C   UNL A   1      39.274  32.024  35.229  1.00  0.00     0.023 A 
ATOM     61  C   UNL A   1      39.700  33.360  35.328  1.00  0.00     0.031 A 
ATOM     62  C   UNL A   1      38.387  31.543  36.209  1.00  0.00     0.131 A 
ATOM     63  C   UNL A   1      39.306  34.144  36.422  1.00  0.00     0.055 A 
ATOM     64  C   UNL A   1      37.933  32.353  37.253  1.00  0.00     0.041 A 
ATOM     65  F   UNL A   1      37.959  30.272  36.179  1.00  0.00    -0.206 F 
ATOM     66  C   UNL A   1      38.406  33.657  37.374  1.00  0.00     0.022 A 
BRANCH  63  67
ATOM     67  S   UNL A   1      40.100  35.756  36.664  1.00  0.00     0.124 S 
ATOM     68  O   UNL A   1      39.566  36.154  37.965  1.00  0.00    -0.237 OA
ATOM     69  O   UNL A   1      41.517  35.418  36.632  1.00  0.00    -0.237 OA
ATOM     70  O   UNL A   1      39.619  36.548  35.533  1.00  0.00    -0.744 OA
ENDBRANCH  63  67
ENDBRANCH  46  60
BRANCH  47  71
ATOM     71  C   UNL A   1      42.328  26.354  27.558  1.00  0.00     0.023 A 
ATOM     72  C   UNL A   1      41.998  24.995  27.434  1.00  0.00     0.031 A 
ATOM     73  C   UNL A   1      43.154  26.927  26.576  1.00  0.00     0.131 A 
ATOM     74  C   UNL A   1      42.525  24.242  26.374  1.00  0.00     0.055 A 
ATOM     75  C   UNL A   1      43.640  26.185  25.499  1.00  0.00     0.041 A 
ATOM     76  F   UNL A   1      43.489  28.225  26.645  1.00  0.00    -0.206 F 
ATOM     77  C   UNL A   1      43.336  24.831  25.400  1.00  0.00     0.022 A 
BRANCH  74  78
ATOM     78  S   UNL A   1      42.188  22.461  26.323  1.00  0.00     0.124 S 
ATOM     79  O   UNL A   1      40.744  22.437  26.127  1.00  0.00    -0.237 OA
ATOM     80  O   UNL A   1      42.998  22.034  25.187  1.00  0.00    -0.237 OA
ATOM     81  O   UNL A   1      42.650  21.990  27.627  1.00  0.00    -0.744 OA
ENDBRANCH  74  78
ENDBRANCH  47  71
BRANCH  59  82
ATOM     82  C   UNL A   1      45.025  27.839  33.804  1.00  0.00     0.023 A 
ATOM     83  C   UNL A   1      45.025  26.760  34.706  1.00  0.00     0.031 A 
ATOM     84  C   UNL A   1      46.241  28.506  33.568  1.00  0.00     0.131 A 
ATOM     85  C   UNL A   1      46.207  26.413  35.378  1.00  0.00     0.055 A 
ATOM     86  C   UNL A   1      47.424  28.122  34.201  1.00  0.00     0.041 A 
ATOM     87  F   UNL A   1      46.295  29.543  32.717  1.00  0.00    -0.206 F 
ATOM     88  C   UNL A   1      47.409  27.078  35.121  1.00  0.00     0.022 A 
BRANCH  85  89
ATOM     89  S   UNL A   1      46.136  25.130  36.658  1.00  0.00     0.124 S 
ATOM     90  O   UNL A   1      47.200  25.548  37.567  1.00  0.00    -0.237 OA
ATOM     91  O   UNL A   1      44.774  25.268  37.165  1.00  0.00    -0.237 OA
ATOM     92  O   UNL A   1      46.400  23.895  35.922  1.00  0.00    -0.744 OA
ENDBRANCH  85  89
ENDBRANCH  59  82
ENDBRANCH  33  34
ENDBRANCH  25  28
ENDBRANCH  23  24
ENDBRANCH  22  23
ENDBRANCH   1  22
TORSDOF 17
ENDMDL
