MODEL 1
REMARK VINA RESULT:     -13.5      0.000      0.000
REMARK SMILES CC1=C([C@H](NC(=O)[C@@H]2[C@H](C)c3cc(F)ccc3N2C)C(=O)NCCCNC(=O)c2ccc(-c3c4nc(c(-c5cc(S(=O)(=O)[O-])ccc5F)c5ccc([nH]5)c(-c5cc(S(=O)(=O)[O-])ccc5F)c5nc(c(-c6cc(S(=O)(=O)[O-])ccc6F)c6ccc3[nH]6)C=C5)C=C4)cc2)[C@@H](C)N=N1
REMARK SMILES IDX 24 1 23 2 22 3 20 4 21 5 4 7 3 8 1 9 2 10 95 11 92 12 94 13
REMARK SMILES IDX 93 14 5 15 6 16 7 18 8 19 9 20 18 21 11 22 10 23 17 24 19 25
REMARK SMILES IDX 12 26 16 27 13 28 15 29 14 30 25 31 26 32 27 33 28 35 29 36
REMARK SMILES IDX 30 37 91 38 31 39 90 40 32 41 33 42 34 43 84 44 35 45 89 46
REMARK SMILES IDX 83 47 85 48 36 49 88 50 82 51 81 52 37 54 69 55 49 56 68 57
REMARK SMILES IDX 50 58 53 59 67 60 86 61 51 62 52 63 66 65 87 66 54 67 38 68
REMARK SMILES IDX 39 69 47 70 40 71 46 72 48 73 45 74 41 75 42 76 43 77 44 78
REMARK SMILES IDX 70 79 71 80 79 81 72 82 78 83 80 84 77 85 73 86 74 87 75 88
REMARK SMILES IDX 76 89 55 90 56 91 64 92 57 93 63 94 65 95 62 96 58 97 59 98
REMARK SMILES IDX 60 99 61 100
REMARK H PARENT 22 6 5 17 26 34 85 53 53 64
REMARK Flexibility Score: inf
ROOT
ATOM      1  C   UNL A   1      37.526  21.551  24.635  1.00  0.00     0.042 C 
ENDROOT
BRANCH   1   2
ATOM      2  C   UNL A   1      36.398  20.655  25.110  1.00  0.00     0.117 C 
BRANCH   2   3
ATOM      3  N   UNL A   1      35.547  21.217  26.128  1.00  0.00    -0.354 N 
ATOM      4  C   UNL A   1      34.181  21.300  26.059  1.00  0.00     0.247 C 
ATOM      5  O   UNL A   1      33.548  21.267  27.119  1.00  0.00    -0.272 OA
ATOM      6  H   UNL A   1      35.981  21.570  26.939  1.00  0.00     0.163 HD
BRANCH   4   7
ATOM      7  C   UNL A   1      33.443  21.373  24.681  1.00  0.00     0.202 C 
BRANCH   7   8
ATOM      8  C   UNL A   1      33.007  20.060  24.130  1.00  0.00     0.011 C 
ATOM      9  C   UNL A   1      31.730  20.857  22.050  1.00  0.00     0.069 C 
ATOM     10  C   UNL A   1      32.348  19.864  22.977  1.00  0.00     0.064 C 
ATOM     11  N   UNL A   1      32.372  18.555  22.575  1.00  0.00    -0.160 NA
ATOM     12  C   UNL A   1      33.377  18.679  24.590  1.00  0.00     0.156 C 
ATOM     13  N   UNL A   1      33.046  17.866  23.383  1.00  0.00    -0.181 NA
ATOM     14  C   UNL A   1      32.554  18.067  25.720  1.00  0.00     0.040 C 
ENDBRANCH   7   8
BRANCH   7  15
ATOM     15  N   UNL A   1      34.142  22.238  23.736  1.00  0.00    -0.339 N 
ATOM     16  C   UNL A   1      34.133  23.572  23.449  1.00  0.00     0.244 C 
ATOM     17  H   UNL A   1      34.771  21.740  23.168  1.00  0.00     0.164 HD
ATOM     18  O   UNL A   1      35.119  23.927  22.794  1.00  0.00    -0.273 OA
BRANCH  16  19
ATOM     19  C   UNL A   1      32.969  24.529  23.806  1.00  0.00     0.178 C 
ATOM     20  C   UNL A   1      32.093  25.012  22.573  1.00  0.00     0.050 C 
ATOM     21  N   UNL A   1      33.326  25.786  24.509  1.00  0.00    -0.362 N 
ATOM     22  C   UNL A   1      31.539  26.301  23.136  1.00  0.00    -0.016 A 
ATOM     23  C   UNL A   1      32.811  25.298  21.255  1.00  0.00     0.015 C 
ATOM     24  C   UNL A   1      32.246  26.642  24.291  1.00  0.00     0.041 A 
ATOM     25  C   UNL A   1      34.148  25.953  25.665  1.00  0.00     0.144 C 
ATOM     26  C   UNL A   1      30.538  27.120  22.638  1.00  0.00     0.045 A 
ATOM     27  C   UNL A   1      31.862  27.741  25.048  1.00  0.00     0.029 A 
ATOM     28  C   UNL A   1      30.206  28.259  23.368  1.00  0.00     0.123 A 
ATOM     29  C   UNL A   1      30.828  28.553  24.582  1.00  0.00     0.041 A 
ATOM     30  F   UNL A   1      29.272  29.098  22.900  1.00  0.00    -0.207 F 
ENDBRANCH  16  19
ENDBRANCH   7  15
ENDBRANCH   4   7
ENDBRANCH   2   3
ENDBRANCH   1   2
BRANCH   1  31
ATOM     31  C   UNL A   1      38.247  22.298  25.756  1.00  0.00     0.118 C 
BRANCH  31  32
ATOM     32  N   UNL A   1      39.615  21.865  25.965  1.00  0.00    -0.352 N 
ATOM     33  C   UNL A   1      40.731  22.402  26.540  1.00  0.00     0.251 C 
ATOM     34  H   UNL A   1      39.779  20.963  25.606  1.00  0.00     0.163 HD
ATOM     35  O   UNL A   1      41.706  21.646  26.601  1.00  0.00    -0.269 OA
BRANCH  33  36
ATOM     36  C   UNL A   1      40.877  23.798  27.029  1.00  0.00     0.039 A 
ATOM     37  C   UNL A   1      41.842  24.242  27.929  1.00  0.00     0.014 A 
ATOM     38  C   UNL A   1      39.878  24.702  26.616  1.00  0.00     0.014 A 
ATOM     39  C   UNL A   1      41.740  25.512  28.494  1.00  0.00     0.010 A 
ATOM     40  C   UNL A   1      39.789  25.982  27.154  1.00  0.00     0.010 A 
ATOM     41  C   UNL A   1      40.688  26.366  28.139  1.00  0.00    -0.014 A 
BRANCH  41  42
ATOM     42  C   UNL A   1      40.636  27.685  28.768  1.00  0.00     0.031 A 
ATOM     43  C   UNL A   1      41.623  28.664  28.227  1.00  0.00     0.074 A 
ATOM     44  C   UNL A   1      39.741  28.056  29.706  1.00  0.00     0.049 A 
ATOM     45  N   UNL A   1      42.653  29.169  28.823  1.00  0.00    -0.248 NA
ATOM     46  C   UNL A   1      41.530  29.003  26.800  1.00  0.00     0.031 C 
ATOM     47  C   UNL A   1      38.530  27.361  30.148  1.00  0.00     0.029 A 
ATOM     48  N   UNL A   1      39.701  29.214  30.423  1.00  0.00    -0.354 N 
ATOM     49  C   UNL A   1      43.251  30.030  27.903  1.00  0.00     0.074 A 
ATOM     50  C   UNL A   1      42.605  29.775  26.640  1.00  0.00     0.031 C 
ATOM     51  C   UNL A   1      37.764  28.211  30.873  1.00  0.00     0.029 A 
ATOM     52  C   UNL A   1      38.503  29.444  31.084  1.00  0.00     0.049 A 
ATOM     53  H   UNL A   1      40.462  29.836  30.468  1.00  0.00     0.167 HD
ATOM     54  C   UNL A   1      44.126  31.007  28.279  1.00  0.00     0.034 A 
ATOM     55  C   UNL A   1      38.127  30.592  31.707  1.00  0.00     0.034 A 
ATOM     56  C   UNL A   1      44.601  30.800  29.618  1.00  0.00     0.049 A 
ATOM     57  C   UNL A   1      39.350  31.383  31.986  1.00  0.00     0.074 A 
ATOM     58  C   UNL A   1      45.364  29.828  30.234  1.00  0.00     0.029 A 
ATOM     59  N   UNL A   1      43.985  31.492  30.633  1.00  0.00    -0.354 N 
ATOM     60  N   UNL A   1      40.253  31.046  32.862  1.00  0.00    -0.248 NA
ATOM     61  C   UNL A   1      39.783  32.323  30.963  1.00  0.00     0.031 C 
ATOM     62  C   UNL A   1      44.783  29.671  31.524  1.00  0.00     0.029 A 
ATOM     63  C   UNL A   1      43.748  30.599  31.647  1.00  0.00     0.049 A 
ATOM     64  H   UNL A   1      43.756  32.449  30.632  1.00  0.00     0.167 HD
ATOM     65  C   UNL A   1      41.456  31.348  32.245  1.00  0.00     0.074 A 
ATOM     66  C   UNL A   1      41.104  32.213  31.121  1.00  0.00     0.031 C 
ATOM     67  C   UNL A   1      42.595  30.649  32.523  1.00  0.00     0.034 A 
BRANCH  54  68
ATOM     68  C   UNL A   1      44.332  32.300  27.531  1.00  0.00     0.023 A 
ATOM     69  C   UNL A   1      43.705  33.501  27.911  1.00  0.00     0.031 A 
ATOM     70  C   UNL A   1      45.331  32.416  26.543  1.00  0.00     0.131 A 
ATOM     71  C   UNL A   1      44.035  34.726  27.317  1.00  0.00     0.055 A 
ATOM     72  C   UNL A   1      45.712  33.650  25.998  1.00  0.00     0.041 A 
ATOM     73  F   UNL A   1      46.005  31.338  26.112  1.00  0.00    -0.206 F 
ATOM     74  C   UNL A   1      45.062  34.814  26.384  1.00  0.00     0.022 A 
BRANCH  71  75
ATOM     75  S   UNL A   1      43.126  36.229  27.766  1.00  0.00     0.124 S 
ATOM     76  O   UNL A   1      42.587  36.651  26.472  1.00  0.00    -0.237 OA
ATOM     77  O   UNL A   1      42.144  35.705  28.715  1.00  0.00    -0.237 OA
ATOM     78  O   UNL A   1      44.146  37.088  28.342  1.00  0.00    -0.744 OA
ENDBRANCH  71  75
ENDBRANCH  54  68
BRANCH  55  79
ATOM     79  C   UNL A   1      36.809  31.264  31.590  1.00  0.00     0.023 A 
ATOM     80  C   UNL A   1      36.247  31.464  30.316  1.00  0.00     0.031 A 
ATOM     81  C   UNL A   1      36.282  32.019  32.654  1.00  0.00     0.131 A 
ATOM     82  C   UNL A   1      35.259  32.437  30.120  1.00  0.00     0.055 A 
ATOM     83  C   UNL A   1      35.277  32.975  32.460  1.00  0.00     0.041 A 
ATOM     84  F   UNL A   1      36.797  31.905  33.889  1.00  0.00    -0.206 F 
ATOM     85  C   UNL A   1      34.774  33.200  31.183  1.00  0.00     0.022 A 
BRANCH  82  86
ATOM     86  S   UNL A   1      34.667  32.806  28.446  1.00  0.00     0.124 S 
ATOM     87  O   UNL A   1      33.839  33.990  28.664  1.00  0.00    -0.237 OA
ATOM     88  O   UNL A   1      35.920  33.036  27.735  1.00  0.00    -0.237 OA
ATOM     89  O   UNL A   1      33.934  31.600  28.071  1.00  0.00    -0.744 OA
ENDBRANCH  82  86
ENDBRANCH  55  79
BRANCH  67  90
ATOM     90  C   UNL A   1      42.590  29.667  33.676  1.00  0.00     0.023 A 
ATOM     91  C   UNL A   1      43.160  30.101  34.885  1.00  0.00     0.031 A 
ATOM     92  C   UNL A   1      42.280  28.296  33.562  1.00  0.00     0.131 A 
ATOM     93  C   UNL A   1      43.452  29.186  35.901  1.00  0.00     0.055 A 
ATOM     94  C   UNL A   1      42.502  27.397  34.611  1.00  0.00     0.041 A 
ATOM     95  F   UNL A   1      41.838  27.770  32.413  1.00  0.00    -0.206 F 
ATOM     96  C   UNL A   1      43.111  27.836  35.781  1.00  0.00     0.022 A 
BRANCH  93  97
ATOM     97  S   UNL A   1      44.442  29.698  37.328  1.00  0.00     0.124 S 
ATOM     98  O   UNL A   1      43.597  30.720  37.939  1.00  0.00    -0.237 OA
ATOM     99  O   UNL A   1      44.565  28.452  38.082  1.00  0.00    -0.237 OA
ATOM    100  O   UNL A   1      45.686  30.186  36.739  1.00  0.00    -0.744 OA
ENDBRANCH  93  97
ENDBRANCH  67  90
ENDBRANCH  41  42
ENDBRANCH  33  36
ENDBRANCH  31  32
ENDBRANCH   1  31
TORSDOF 16
ENDMDL
MODEL 2
REMARK VINA RESULT:     -13.1      5.958     11.857
REMARK SMILES CC1=C([C@H](NC(=O)[C@@H]2[C@H](C)c3cc(F)ccc3N2C)C(=O)NCCCNC(=O)c2ccc(-c3c4nc(c(-c5cc(S(=O)(=O)[O-])ccc5F)c5ccc([nH]5)c(-c5cc(S(=O)(=O)[O-])ccc5F)c5nc(c(-c6cc(S(=O)(=O)[O-])ccc6F)c6ccc3[nH]6)C=C5)C=C4)cc2)[C@@H](C)N=N1
REMARK SMILES IDX 24 1 23 2 22 3 20 4 21 5 4 7 3 8 1 9 2 10 95 11 92 12 94 13
REMARK SMILES IDX 93 14 5 15 6 16 7 18 8 19 9 20 18 21 11 22 10 23 17 24 19 25
REMARK SMILES IDX 12 26 16 27 13 28 15 29 14 30 25 31 26 32 27 33 28 35 29 36
REMARK SMILES IDX 30 37 91 38 31 39 90 40 32 41 33 42 34 43 84 44 35 45 89 46
REMARK SMILES IDX 83 47 85 48 36 49 88 50 82 51 81 52 37 54 69 55 49 56 68 57
REMARK SMILES IDX 50 58 53 59 67 60 86 61 51 62 52 63 66 65 87 66 54 67 38 68
REMARK SMILES IDX 39 69 47 70 40 71 46 72 48 73 45 74 41 75 42 76 43 77 44 78
REMARK SMILES IDX 70 79 71 80 79 81 72 82 78 83 80 84 77 85 73 86 74 87 75 88
REMARK SMILES IDX 76 89 55 90 56 91 64 92 57 93 63 94 65 95 62 96 58 97 59 98
REMARK SMILES IDX 60 99 61 100
REMARK H PARENT 22 6 5 17 26 34 85 53 53 64
REMARK Flexibility Score: inf
ROOT
ATOM      1  C   UNL A   1      34.217  33.751  31.544  1.00  0.00     0.042 C 
ENDROOT
BRANCH   1   2
ATOM      2  C   UNL A   1      35.075  32.993  32.540  1.00  0.00     0.117 C 
BRANCH   2   3
ATOM      3  N   UNL A   1      35.508  31.685  32.116  1.00  0.00    -0.354 N 
ATOM      4  C   UNL A   1      36.630  31.040  32.565  1.00  0.00     0.247 C 
ATOM      5  O   UNL A   1      36.615  29.806  32.585  1.00  0.00    -0.272 OA
ATOM      6  H   UNL A   1      34.953  31.218  31.451  1.00  0.00     0.163 HD
BRANCH   4   7
ATOM      7  C   UNL A   1      37.867  31.840  33.091  1.00  0.00     0.202 C 
BRANCH   7   8
ATOM      8  C   UNL A   1      38.082  31.770  34.564  1.00  0.00     0.011 C 
ATOM      9  C   UNL A   1      36.581  33.710  35.322  1.00  0.00     0.069 C 
ATOM     10  C   UNL A   1      37.469  32.523  35.491  1.00  0.00     0.064 C 
ATOM     11  N   UNL A   1      37.618  32.021  36.756  1.00  0.00    -0.160 NA
ATOM     12  C   UNL A   1      38.831  30.737  35.355  1.00  0.00     0.156 C 
ATOM     13  N   UNL A   1      38.272  30.947  36.722  1.00  0.00    -0.181 NA
ATOM     14  C   UNL A   1      40.338  30.922  35.510  1.00  0.00     0.040 C 
ENDBRANCH   7   8
BRANCH   7  15
ATOM     15  N   UNL A   1      37.929  33.182  32.521  1.00  0.00    -0.339 N 
ATOM     16  C   UNL A   1      38.882  33.927  31.890  1.00  0.00     0.244 C 
ATOM     17  H   UNL A   1      37.079  33.668  32.615  1.00  0.00     0.164 HD
ATOM     18  O   UNL A   1      38.409  34.896  31.286  1.00  0.00    -0.273 OA
BRANCH  16  19
ATOM     19  C   UNL A   1      40.404  33.663  31.999  1.00  0.00     0.178 C 
ATOM     20  C   UNL A   1      41.030  33.918  33.435  1.00  0.00     0.050 C 
ATOM     21  N   UNL A   1      41.284  34.427  31.081  1.00  0.00    -0.362 N 
ATOM     22  C   UNL A   1      42.469  34.176  33.050  1.00  0.00    -0.016 A 
ATOM     23  C   UNL A   1      40.500  35.097  34.247  1.00  0.00     0.015 C 
ATOM     24  C   UNL A   1      42.548  34.384  31.671  1.00  0.00     0.041 A 
ATOM     25  C   UNL A   1      41.161  34.594  29.668  1.00  0.00     0.144 C 
ATOM     26  C   UNL A   1      43.592  34.272  33.857  1.00  0.00     0.045 A 
ATOM     27  C   UNL A   1      43.782  34.549  31.058  1.00  0.00     0.029 A 
ATOM     28  C   UNL A   1      44.819  34.508  33.239  1.00  0.00     0.123 A 
ATOM     29  C   UNL A   1      44.928  34.606  31.851  1.00  0.00     0.041 A 
ATOM     30  F   UNL A   1      45.921  34.647  33.986  1.00  0.00    -0.207 F 
ENDBRANCH  16  19
ENDBRANCH   7  15
ENDBRANCH   4   7
ENDBRANCH   2   3
ENDBRANCH   1   2
BRANCH   1  31
ATOM     31  C   UNL A   1      34.938  34.114  30.247  1.00  0.00     0.118 C 
BRANCH  31  32
ATOM     32  N   UNL A   1      34.560  33.290  29.114  1.00  0.00    -0.352 N 
ATOM     33  C   UNL A   1      35.026  32.138  28.548  1.00  0.00     0.251 C 
ATOM     34  H   UNL A   1      33.777  33.649  28.638  1.00  0.00     0.163 HD
ATOM     35  O   UNL A   1      34.342  31.696  27.619  1.00  0.00    -0.269 OA
BRANCH  33  36
ATOM     36  C   UNL A   1      36.281  31.430  28.912  1.00  0.00     0.039 A 
ATOM     37  C   UNL A   1      37.509  32.038  29.156  1.00  0.00     0.014 A 
ATOM     38  C   UNL A   1      36.219  30.022  28.897  1.00  0.00     0.014 A 
ATOM     39  C   UNL A   1      38.664  31.264  29.259  1.00  0.00     0.010 A 
ATOM     40  C   UNL A   1      37.364  29.244  29.030  1.00  0.00     0.010 A 
ATOM     41  C   UNL A   1      38.598  29.869  29.151  1.00  0.00    -0.014 A 
BRANCH  41  42
ATOM     42  C   UNL A   1      39.845  29.114  29.267  1.00  0.00     0.031 A 
ATOM     43  C   UNL A   1      40.178  28.685  30.655  1.00  0.00     0.074 A 
ATOM     44  C   UNL A   1      40.621  28.748  28.226  1.00  0.00     0.049 A 
ATOM     45  N   UNL A   1      41.150  29.095  31.405  1.00  0.00    -0.248 NA
ATOM     46  C   UNL A   1      39.224  27.802  31.341  1.00  0.00     0.031 C 
ATOM     47  C   UNL A   1      40.327  28.805  26.793  1.00  0.00     0.029 A 
ATOM     48  N   UNL A   1      41.847  28.154  28.257  1.00  0.00    -0.354 N 
ATOM     49  C   UNL A   1      41.036  28.394  32.605  1.00  0.00     0.074 A 
ATOM     50  C   UNL A   1      39.758  27.729  32.560  1.00  0.00     0.031 C 
ATOM     51  C   UNL A   1      41.237  28.064  26.118  1.00  0.00     0.029 A 
ATOM     52  C   UNL A   1      42.263  27.619  27.046  1.00  0.00     0.049 A 
ATOM     53  H   UNL A   1      42.395  28.110  29.074  1.00  0.00     0.167 HD
ATOM     54  C   UNL A   1      42.073  28.281  33.485  1.00  0.00     0.034 A 
ATOM     55  C   UNL A   1      43.341  26.820  26.839  1.00  0.00     0.034 A 
ATOM     56  C   UNL A   1      43.111  29.231  33.199  1.00  0.00     0.049 A 
ATOM     57  C   UNL A   1      44.264  26.989  27.987  1.00  0.00     0.074 A 
ATOM     58  C   UNL A   1      43.194  30.609  33.222  1.00  0.00     0.029 A 
ATOM     59  N   UNL A   1      44.189  28.803  32.462  1.00  0.00    -0.354 N 
ATOM     60  N   UNL A   1      44.947  28.073  28.222  1.00  0.00    -0.248 NA
ATOM     61  C   UNL A   1      44.081  26.100  29.125  1.00  0.00     0.031 C 
ATOM     62  C   UNL A   1      44.008  30.944  32.104  1.00  0.00     0.029 A 
ATOM     63  C   UNL A   1      44.431  29.756  31.506  1.00  0.00     0.049 A 
ATOM     64  H   UNL A   1      44.693  27.968  32.596  1.00  0.00     0.167 HD
ATOM     65  C   UNL A   1      44.875  28.231  29.596  1.00  0.00     0.074 A 
ATOM     66  C   UNL A   1      44.410  26.943  30.107  1.00  0.00     0.031 C 
ATOM     67  C   UNL A   1      44.922  29.467  30.174  1.00  0.00     0.034 A 
BRANCH  54  68
ATOM     68  C   UNL A   1      42.266  27.121  34.429  1.00  0.00     0.023 A 
ATOM     69  C   UNL A   1      43.037  25.994  34.093  1.00  0.00     0.031 A 
ATOM     70  C   UNL A   1      41.859  27.207  35.776  1.00  0.00     0.131 A 
ATOM     71  C   UNL A   1      43.349  25.005  35.036  1.00  0.00     0.055 A 
ATOM     72  C   UNL A   1      42.231  26.256  36.737  1.00  0.00     0.041 A 
ATOM     73  F   UNL A   1      41.131  28.246  36.214  1.00  0.00    -0.206 F 
ATOM     74  C   UNL A   1      42.979  25.146  36.368  1.00  0.00     0.022 A 
BRANCH  71  75
ATOM     75  S   UNL A   1      44.256  23.519  34.530  1.00  0.00     0.124 S 
ATOM     76  O   UNL A   1      43.306  22.884  33.615  1.00  0.00    -0.237 OA
ATOM     77  O   UNL A   1      45.442  24.099  33.901  1.00  0.00    -0.237 OA
ATOM     78  O   UNL A   1      44.498  22.822  35.782  1.00  0.00    -0.744 OA
ENDBRANCH  71  75
ENDBRANCH  54  68
BRANCH  55  79
ATOM     79  C   UNL A   1      43.369  25.575  26.031  1.00  0.00     0.023 A 
ATOM     80  C   UNL A   1      42.500  24.519  26.360  1.00  0.00     0.031 A 
ATOM     81  C   UNL A   1      44.462  25.276  25.195  1.00  0.00     0.131 A 
ATOM     82  C   UNL A   1      42.773  23.214  25.929  1.00  0.00     0.055 A 
ATOM     83  C   UNL A   1      44.718  23.975  24.746  1.00  0.00     0.041 A 
ATOM     84  F   UNL A   1      45.350  26.229  24.873  1.00  0.00    -0.206 F 
ATOM     85  C   UNL A   1      43.881  22.933  25.128  1.00  0.00     0.022 A 
BRANCH  82  86
ATOM     86  S   UNL A   1      41.744  21.834  26.501  1.00  0.00     0.124 S 
ATOM     87  O   UNL A   1      42.241  20.722  25.696  1.00  0.00    -0.237 OA
ATOM     88  O   UNL A   1      42.080  21.786  27.920  1.00  0.00    -0.237 OA
ATOM     89  O   UNL A   1      40.387  22.268  26.183  1.00  0.00    -0.744 OA
ENDBRANCH  82  86
ENDBRANCH  55  79
BRANCH  67  90
ATOM     90  C   UNL A   1      45.269  30.666  29.316  1.00  0.00     0.023 A 
ATOM     91  C   UNL A   1      46.557  31.207  29.470  1.00  0.00     0.031 A 
ATOM     92  C   UNL A   1      44.339  31.412  28.564  1.00  0.00     0.131 A 
ATOM     93  C   UNL A   1      46.867  32.463  28.939  1.00  0.00     0.055 A 
ATOM     94  C   UNL A   1      44.677  32.632  27.969  1.00  0.00     0.041 A 
ATOM     95  F   UNL A   1      43.060  31.033  28.455  1.00  0.00    -0.206 F 
ATOM     96  C   UNL A   1      45.941  33.174  28.172  1.00  0.00     0.022 A 
BRANCH  93  97
ATOM     97  S   UNL A   1      48.422  33.278  29.382  1.00  0.00     0.124 S 
ATOM     98  O   UNL A   1      49.379  32.618  28.499  1.00  0.00    -0.237 OA
ATOM     99  O   UNL A   1      48.138  34.677  29.067  1.00  0.00    -0.237 OA
ATOM    100  O   UNL A   1      48.581  32.988  30.805  1.00  0.00    -0.744 OA
ENDBRANCH  93  97
ENDBRANCH  67  90
ENDBRANCH  41  42
ENDBRANCH  33  36
ENDBRANCH  31  32
ENDBRANCH   1  31
TORSDOF 16
ENDMDL
MODEL 3
REMARK VINA RESULT:     -13.0      5.905     11.913
REMARK SMILES CC1=C([C@H](NC(=O)[C@@H]2[C@H](C)c3cc(F)ccc3N2C)C(=O)NCCCNC(=O)c2ccc(-c3c4nc(c(-c5cc(S(=O)(=O)[O-])ccc5F)c5ccc([nH]5)c(-c5cc(S(=O)(=O)[O-])ccc5F)c5nc(c(-c6cc(S(=O)(=O)[O-])ccc6F)c6ccc3[nH]6)C=C5)C=C4)cc2)[C@@H](C)N=N1
REMARK SMILES IDX 24 1 23 2 22 3 20 4 21 5 4 7 3 8 1 9 2 10 95 11 92 12 94 13
REMARK SMILES IDX 93 14 5 15 6 16 7 18 8 19 9 20 18 21 11 22 10 23 17 24 19 25
REMARK SMILES IDX 12 26 16 27 13 28 15 29 14 30 25 31 26 32 27 33 28 35 29 36
REMARK SMILES IDX 30 37 91 38 31 39 90 40 32 41 33 42 34 43 84 44 35 45 89 46
REMARK SMILES IDX 83 47 85 48 36 49 88 50 82 51 81 52 37 54 69 55 49 56 68 57
REMARK SMILES IDX 50 58 53 59 67 60 86 61 51 62 52 63 66 65 87 66 54 67 38 68
REMARK SMILES IDX 39 69 47 70 40 71 46 72 48 73 45 74 41 75 42 76 43 77 44 78
REMARK SMILES IDX 70 79 71 80 79 81 72 82 78 83 80 84 77 85 73 86 74 87 75 88
REMARK SMILES IDX 76 89 55 90 56 91 64 92 57 93 63 94 65 95 62 96 58 97 59 98
REMARK SMILES IDX 60 99 61 100
REMARK H PARENT 22 6 5 17 26 34 85 53 53 64
REMARK Flexibility Score: inf
ROOT
ATOM      1  C   UNL A   1      35.679  34.327  32.420  1.00  0.00     0.042 C 
ENDROOT
BRANCH   1   2
ATOM      2  C   UNL A   1      37.187  34.305  32.579  1.00  0.00     0.117 C 
BRANCH   2   3
ATOM      3  N   UNL A   1      37.692  34.924  33.779  1.00  0.00    -0.354 N 
ATOM      4  C   UNL A   1      38.900  34.647  34.364  1.00  0.00     0.247 C 
ATOM      5  O   UNL A   1      39.454  35.550  34.997  1.00  0.00    -0.272 OA
ATOM      6  H   UNL A   1      37.125  35.602  34.213  1.00  0.00     0.163 HD
BRANCH   4   7
ATOM      7  C   UNL A   1      39.583  33.251  34.185  1.00  0.00     0.202 C 
BRANCH   7   8
ATOM      8  C   UNL A   1      38.935  32.133  34.926  1.00  0.00     0.011 C 
ATOM      9  C   UNL A   1      37.850  30.877  32.966  1.00  0.00     0.069 C 
ATOM     10  C   UNL A   1      38.271  31.101  34.380  1.00  0.00     0.064 C 
ATOM     11  N   UNL A   1      38.073  30.076  35.268  1.00  0.00    -0.160 NA
ATOM     12  C   UNL A   1      39.051  31.777  36.380  1.00  0.00     0.156 C 
ATOM     13  N   UNL A   1      38.603  30.354  36.374  1.00  0.00    -0.181 NA
ATOM     14  C   UNL A   1      38.115  32.484  37.357  1.00  0.00     0.040 C 
ENDBRANCH   7   8
BRANCH   7  15
ATOM     15  N   UNL A   1      41.033  33.332  34.336  1.00  0.00    -0.339 N 
ATOM     16  C   UNL A   1      42.022  34.112  33.812  1.00  0.00     0.244 C 
ATOM     17  H   UNL A   1      41.381  32.662  34.966  1.00  0.00     0.164 HD
ATOM     18  O   UNL A   1      43.073  34.051  34.460  1.00  0.00    -0.273 OA
BRANCH  16  19
ATOM     19  C   UNL A   1      41.891  34.909  32.491  1.00  0.00     0.178 C 
ATOM     20  C   UNL A   1      41.189  34.128  31.301  1.00  0.00     0.050 C 
ATOM     21  N   UNL A   1      43.147  35.425  31.892  1.00  0.00    -0.362 N 
ATOM     22  C   UNL A   1      41.767  34.876  30.121  1.00  0.00    -0.016 A 
ATOM     23  C   UNL A   1      41.483  32.637  31.152  1.00  0.00     0.015 C 
ATOM     24  C   UNL A   1      42.840  35.660  30.551  1.00  0.00     0.041 A 
ATOM     25  C   UNL A   1      44.194  36.162  32.524  1.00  0.00     0.144 C 
ATOM     26  C   UNL A   1      41.407  34.822  28.783  1.00  0.00     0.045 A 
ATOM     27  C   UNL A   1      43.480  36.517  29.667  1.00  0.00     0.029 A 
ATOM     28  C   UNL A   1      42.102  35.635  27.889  1.00  0.00     0.123 A 
ATOM     29  C   UNL A   1      43.102  36.506  28.324  1.00  0.00     0.041 A 
ATOM     30  F   UNL A   1      41.812  35.582  26.583  1.00  0.00    -0.207 F 
ENDBRANCH  16  19
ENDBRANCH   7  15
ENDBRANCH   4   7
ENDBRANCH   2   3
ENDBRANCH   1   2
BRANCH   1  31
ATOM     31  C   UNL A   1      35.068  32.974  32.060  1.00  0.00     0.118 C 
BRANCH  31  32
ATOM     32  N   UNL A   1      34.554  32.903  30.705  1.00  0.00    -0.352 N 
ATOM     33  C   UNL A   1      34.892  32.227  29.568  1.00  0.00     0.251 C 
ATOM     34  H   UNL A   1      33.769  33.483  30.574  1.00  0.00     0.163 HD
ATOM     35  O   UNL A   1      34.117  32.375  28.618  1.00  0.00    -0.269 OA
BRANCH  33  36
ATOM     36  C   UNL A   1      36.113  31.400  29.372  1.00  0.00     0.039 A 
ATOM     37  C   UNL A   1      36.139  30.013  29.265  1.00  0.00     0.014 A 
ATOM     38  C   UNL A   1      37.338  32.095  29.409  1.00  0.00     0.014 A 
ATOM     39  C   UNL A   1      37.353  29.330  29.318  1.00  0.00     0.010 A 
ATOM     40  C   UNL A   1      38.554  31.420  29.432  1.00  0.00     0.010 A 
ATOM     41  C   UNL A   1      38.559  30.032  29.447  1.00  0.00    -0.014 A 
BRANCH  41  42
ATOM     42  C   UNL A   1      39.798  29.258  29.499  1.00  0.00     0.031 A 
ATOM     43  C   UNL A   1      40.186  28.807  30.867  1.00  0.00     0.074 A 
ATOM     44  C   UNL A   1      40.522  28.893  28.421  1.00  0.00     0.049 A 
ATOM     45  N   UNL A   1      41.195  29.194  31.577  1.00  0.00    -0.248 NA
ATOM     46  C   UNL A   1      39.249  27.930  31.583  1.00  0.00     0.031 C 
ATOM     47  C   UNL A   1      40.166  28.972  27.003  1.00  0.00     0.029 A 
ATOM     48  N   UNL A   1      41.740  28.281  28.391  1.00  0.00    -0.354 N 
ATOM     49  C   UNL A   1      41.124  28.480  32.773  1.00  0.00     0.074 A 
ATOM     50  C   UNL A   1      39.835  27.834  32.777  1.00  0.00     0.031 C 
ATOM     51  C   UNL A   1      41.034  28.226  26.280  1.00  0.00     0.029 A 
ATOM     52  C   UNL A   1      42.093  27.755  27.156  1.00  0.00     0.049 A 
ATOM     53  H   UNL A   1      42.322  28.220  29.182  1.00  0.00     0.167 HD
ATOM     54  C   UNL A   1      42.197  28.341  33.605  1.00  0.00     0.034 A 
ATOM     55  C   UNL A   1      43.149  26.943  26.893  1.00  0.00     0.034 A 
ATOM     56  C   UNL A   1      43.236  29.279  33.284  1.00  0.00     0.049 A 
ATOM     57  C   UNL A   1      44.124  27.084  28.001  1.00  0.00     0.074 A 
ATOM     58  C   UNL A   1      43.340  30.656  33.319  1.00  0.00     0.029 A 
ATOM     59  N   UNL A   1      44.274  28.845  32.495  1.00  0.00    -0.354 N 
ATOM     60  N   UNL A   1      44.833  28.155  28.217  1.00  0.00    -0.248 NA
ATOM     61  C   UNL A   1      43.978  26.184  29.136  1.00  0.00     0.031 C 
ATOM     62  C   UNL A   1      44.109  30.993  32.170  1.00  0.00     0.029 A 
ATOM     63  C   UNL A   1      44.488  29.806  31.540  1.00  0.00     0.049 A 
ATOM     64  H   UNL A   1      44.770  28.001  32.598  1.00  0.00     0.167 HD
ATOM     65  C   UNL A   1      44.823  28.298  29.595  1.00  0.00     0.074 A 
ATOM     66  C   UNL A   1      44.362  27.011  30.111  1.00  0.00     0.031 C 
ATOM     67  C   UNL A   1      44.915  29.526  30.184  1.00  0.00     0.034 A 
BRANCH  54  68
ATOM     68  C   UNL A   1      42.414  27.167  34.526  1.00  0.00     0.023 A 
ATOM     69  C   UNL A   1      43.247  26.086  34.188  1.00  0.00     0.031 A 
ATOM     70  C   UNL A   1      41.961  27.199  35.861  1.00  0.00     0.131 A 
ATOM     71  C   UNL A   1      43.575  25.089  35.116  1.00  0.00     0.055 A 
ATOM     72  C   UNL A   1      42.345  26.242  36.810  1.00  0.00     0.041 A 
ATOM     73  F   UNL A   1      41.171  28.192  36.299  1.00  0.00    -0.206 F 
ATOM     74  C   UNL A   1      43.156  25.178  36.438  1.00  0.00     0.022 A 
BRANCH  71  75
ATOM     75  S   UNL A   1      44.566  23.659  34.604  1.00  0.00     0.124 S 
ATOM     76  O   UNL A   1      44.158  22.646  35.579  1.00  0.00    -0.237 OA
ATOM     77  O   UNL A   1      44.088  23.445  33.238  1.00  0.00    -0.237 OA
ATOM     78  O   UNL A   1      45.935  24.134  34.714  1.00  0.00    -0.744 OA
ENDBRANCH  71  75
ENDBRANCH  54  68
BRANCH  55  79
ATOM     79  C   UNL A   1      43.123  25.707  26.070  1.00  0.00     0.023 A 
ATOM     80  C   UNL A   1      42.252  24.661  26.424  1.00  0.00     0.031 A 
ATOM     81  C   UNL A   1      44.174  25.402  25.185  1.00  0.00     0.131 A 
ATOM     82  C   UNL A   1      42.486  23.357  25.967  1.00  0.00     0.055 A 
ATOM     83  C   UNL A   1      44.390  24.103  24.710  1.00  0.00     0.041 A 
ATOM     84  F   UNL A   1      45.062  26.345  24.835  1.00  0.00    -0.206 F 
ATOM     85  C   UNL A   1      43.554  23.069  25.116  1.00  0.00     0.022 A 
BRANCH  82  86
ATOM     86  S   UNL A   1      41.460  21.987  26.567  1.00  0.00     0.124 S 
ATOM     87  O   UNL A   1      41.872  21.882  27.965  1.00  0.00    -0.237 OA
ATOM     88  O   UNL A   1      40.116  22.506  26.344  1.00  0.00    -0.237 OA
ATOM     89  O   UNL A   1      41.860  20.867  25.720  1.00  0.00    -0.744 OA
ENDBRANCH  82  86
ENDBRANCH  55  79
BRANCH  67  90
ATOM     90  C   UNL A   1      45.242  30.730  29.326  1.00  0.00     0.023 A 
ATOM     91  C   UNL A   1      46.556  31.225  29.398  1.00  0.00     0.031 A 
ATOM     92  C   UNL A   1      44.288  31.522  28.656  1.00  0.00     0.131 A 
ATOM     93  C   UNL A   1      46.871  32.481  28.869  1.00  0.00     0.055 A 
ATOM     94  C   UNL A   1      44.625  32.742  28.061  1.00  0.00     0.041 A 
ATOM     95  F   UNL A   1      42.991  31.188  28.632  1.00  0.00    -0.206 F 
ATOM     96  C   UNL A   1      45.918  33.238  28.183  1.00  0.00     0.022 A 
BRANCH  93  97
ATOM     97  S   UNL A   1      48.480  33.234  29.215  1.00  0.00     0.124 S 
ATOM     98  O   UNL A   1      48.126  34.634  29.429  1.00  0.00    -0.237 OA
ATOM     99  O   UNL A   1      48.912  32.506  30.407  1.00  0.00    -0.237 OA
ATOM    100  O   UNL A   1      49.263  32.964  28.012  1.00  0.00    -0.744 OA
ENDBRANCH  93  97
ENDBRANCH  67  90
ENDBRANCH  41  42
ENDBRANCH  33  36
ENDBRANCH  31  32
ENDBRANCH   1  31
TORSDOF 16
ENDMDL
