MODEL 1
REMARK VINA RESULT:     -10.3      0.000      0.000
REMARK SMILES CC[C@@](C)(NC(=O)NCCc1ncn[nH]1)C(=O)NCCCNC(=O)c1ccc(-c2c3nc(c(-c4cc(S(=O)(=O)[O-])ccc4F)c4ccc([nH]4)c(-c4cc(S(=O)(=O)[O-])ccc4F)c4nc(c(-c5cc(S(=O)(=O)[O-])ccc5F)c5ccc2[nH]5)C=C4)C=C3)cc1
REMARK SMILES IDX 19 1 18 2 16 3 17 4 3 6 4 7 2 8 1 9 5 10 6 11 7 13 8 14 9 16
REMARK SMILES IDX 10 17 11 18 12 19 15 20 13 21 14 22 20 24 21 25 22 26 23 27
REMARK SMILES IDX 24 29 25 30 26 31 87 32 27 33 86 34 28 35 29 36 30 37 80 38
REMARK SMILES IDX 31 39 85 40 79 41 81 42 32 43 84 44 78 45 77 46 33 48 65 49
REMARK SMILES IDX 45 50 64 51 46 52 49 53 63 54 82 55 47 56 48 57 62 59 83 60
REMARK SMILES IDX 50 61 34 62 35 63 43 64 36 65 42 66 44 67 41 68 37 69 38 70
REMARK SMILES IDX 39 71 40 72 66 73 67 74 75 75 68 76 74 77 76 78 73 79 69 80
REMARK SMILES IDX 70 81 71 82 72 83 51 84 52 85 60 86 53 87 59 88 61 89 58 90
REMARK SMILES IDX 54 91 55 92 56 93 57 94
REMARK H PARENT 18 5 5 12 8 15 15 23 22 28 81 47 49 58
REMARK Flexibility Score: inf
ROOT
ATOM      1  C   UNL A   1      32.366  27.652  26.875  1.00  0.00     0.117 C 
ENDROOT
BRANCH   1   2
ATOM      2  N   UNL A   1      31.322  26.938  26.149  1.00  0.00    -0.354 N 
ATOM      3  C   UNL A   1      31.306  26.162  25.017  1.00  0.00     0.245 C 
ATOM      4  O   UNL A   1      30.271  25.507  24.836  1.00  0.00    -0.272 OA
ATOM      5  H   UNL A   1      30.433  27.031  26.563  1.00  0.00     0.163 HD
BRANCH   3   6
ATOM      6  C   UNL A   1      32.531  26.009  24.071  1.00  0.00     0.117 C 
ATOM      7  C   UNL A   1      33.545  25.100  24.816  1.00  0.00     0.045 C 
BRANCH   6   8
ATOM      8  C   UNL A   1      32.293  25.344  22.681  1.00  0.00     0.035 C 
ATOM      9  C   UNL A   1      33.043  24.054  22.372  1.00  0.00     0.007 C 
ENDBRANCH   6   8
BRANCH   6  10
ATOM     10  N   UNL A   1      33.134  27.332  23.844  1.00  0.00    -0.324 N 
ATOM     11  C   UNL A   1      32.770  28.460  23.224  1.00  0.00     0.315 C 
ATOM     12  H   UNL A   1      34.029  27.404  24.248  1.00  0.00     0.166 HD
ATOM     13  O   UNL A   1      33.641  29.330  23.135  1.00  0.00    -0.249 OA
ATOM     14  N   UNL A   1      31.547  28.765  22.782  1.00  0.00    -0.338 N 
ATOM     15  H   UNL A   1      31.440  29.738  22.676  1.00  0.00     0.165 HD
BRANCH  14  16
ATOM     16  C   UNL A   1      30.325  28.057  22.409  1.00  0.00     0.125 C 
BRANCH  16  17
ATOM     17  C   UNL A   1      29.034  28.532  23.078  1.00  0.00     0.098 C 
BRANCH  17  18
ATOM     18  C   UNL A   1      28.617  29.927  22.789  1.00  0.00     0.125 A 
ATOM     19  N   UNL A   1      29.095  30.788  21.917  1.00  0.00    -0.220 NA
ATOM     20  N   UNL A   1      27.602  30.524  23.490  1.00  0.00    -0.263 N 
ATOM     21  C   UNL A   1      28.316  31.896  22.114  1.00  0.00     0.246 A 
ATOM     22  N   UNL A   1      27.395  31.778  23.072  1.00  0.00    -0.162 NA
ATOM     23  H   UNL A   1      27.090  30.086  24.208  1.00  0.00     0.192 HD
ENDBRANCH  17  18
ENDBRANCH  16  17
ENDBRANCH  14  16
ENDBRANCH   6  10
ENDBRANCH   3   6
ENDBRANCH   1   2
BRANCH   1  24
ATOM     24  C   UNL A   1      32.290  29.178  26.974  1.00  0.00     0.042 C 
BRANCH  24  25
ATOM     25  C   UNL A   1      33.567  30.000  26.847  1.00  0.00     0.118 C 
BRANCH  25  26
ATOM     26  N   UNL A   1      33.516  31.284  27.517  1.00  0.00    -0.352 N 
ATOM     27  C   UNL A   1      34.404  31.859  28.398  1.00  0.00     0.251 C 
ATOM     28  H   UNL A   1      32.723  31.829  27.311  1.00  0.00     0.163 HD
ATOM     29  O   UNL A   1      34.097  32.933  28.909  1.00  0.00    -0.269 OA
BRANCH  27  30
ATOM     30  C   UNL A   1      35.684  31.200  28.765  1.00  0.00     0.039 A 
ATOM     31  C   UNL A   1      36.876  31.771  28.305  1.00  0.00     0.014 A 
ATOM     32  C   UNL A   1      35.734  30.016  29.506  1.00  0.00     0.014 A 
ATOM     33  C   UNL A   1      38.107  31.192  28.634  1.00  0.00     0.010 A 
ATOM     34  C   UNL A   1      36.968  29.461  29.871  1.00  0.00     0.010 A 
ATOM     35  C   UNL A   1      38.170  30.048  29.446  1.00  0.00    -0.014 A 
BRANCH  35  36
ATOM     36  C   UNL A   1      39.489  29.515  29.890  1.00  0.00     0.031 A 
ATOM     37  C   UNL A   1      40.250  30.145  31.025  1.00  0.00     0.074 A 
ATOM     38  C   UNL A   1      40.016  28.454  29.243  1.00  0.00     0.049 A 
ATOM     39  N   UNL A   1      41.380  29.770  31.571  1.00  0.00    -0.248 NA
ATOM     40  C   UNL A   1      39.676  31.364  31.611  1.00  0.00     0.031 C 
ATOM     41  C   UNL A   1      39.406  27.787  28.091  1.00  0.00     0.029 A 
ATOM     42  N   UNL A   1      41.173  27.747  29.459  1.00  0.00    -0.354 N 
ATOM     43  C   UNL A   1      41.653  30.701  32.570  1.00  0.00     0.074 A 
ATOM     44  C   UNL A   1      40.595  31.689  32.510  1.00  0.00     0.031 C 
ATOM     45  C   UNL A   1      40.176  26.751  27.724  1.00  0.00     0.029 A 
ATOM     46  C   UNL A   1      41.351  26.697  28.588  1.00  0.00     0.049 A 
ATOM     47  H   UNL A   1      41.816  27.971  30.170  1.00  0.00     0.167 HD
ATOM     48  C   UNL A   1      42.677  30.717  33.463  1.00  0.00     0.034 A 
ATOM     49  C   UNL A   1      42.344  25.790  28.493  1.00  0.00     0.034 A 
ATOM     50  C   UNL A   1      43.735  29.732  33.500  1.00  0.00     0.049 A 
ATOM     51  C   UNL A   1      43.474  25.836  29.487  1.00  0.00     0.074 A 
ATOM     52  C   UNL A   1      44.789  29.631  34.394  1.00  0.00     0.029 A 
ATOM     53  N   UNL A   1      43.888  28.686  32.598  1.00  0.00    -0.354 N 
ATOM     54  N   UNL A   1      43.675  26.679  30.475  1.00  0.00    -0.248 NA
ATOM     55  C   UNL A   1      44.501  24.793  29.368  1.00  0.00     0.031 C 
ATOM     56  C   UNL A   1      45.615  28.575  33.989  1.00  0.00     0.029 A 
ATOM     57  C   UNL A   1      45.034  27.958  32.894  1.00  0.00     0.049 A 
ATOM     58  H   UNL A   1      43.272  28.489  31.856  1.00  0.00     0.167 HD
ATOM     59  C   UNL A   1      44.836  26.245  31.112  1.00  0.00     0.074 A 
ATOM     60  C   UNL A   1      45.270  25.054  30.412  1.00  0.00     0.031 C 
ATOM     61  C   UNL A   1      45.480  26.782  32.181  1.00  0.00     0.034 A 
BRANCH  48  62
ATOM     62  C   UNL A   1      42.715  31.856  34.459  1.00  0.00     0.023 A 
ATOM     63  C   UNL A   1      42.246  31.702  35.777  1.00  0.00     0.031 A 
ATOM     64  C   UNL A   1      43.224  33.115  34.090  1.00  0.00     0.131 A 
ATOM     65  C   UNL A   1      42.230  32.800  36.652  1.00  0.00     0.055 A 
ATOM     66  C   UNL A   1      43.279  34.181  34.989  1.00  0.00     0.041 A 
ATOM     67  F   UNL A   1      43.671  33.332  32.844  1.00  0.00    -0.206 F 
ATOM     68  C   UNL A   1      42.767  34.033  36.275  1.00  0.00     0.022 A 
BRANCH  65  69
ATOM     69  S   UNL A   1      41.375  32.632  38.242  1.00  0.00     0.124 S 
ATOM     70  O   UNL A   1      40.026  32.265  37.817  1.00  0.00    -0.237 OA
ATOM     71  O   UNL A   1      42.143  31.584  38.905  1.00  0.00    -0.237 OA
ATOM     72  O   UNL A   1      41.492  33.962  38.838  1.00  0.00    -0.744 OA
ENDBRANCH  65  69
ENDBRANCH  48  62
BRANCH  49  73
ATOM     73  C   UNL A   1      42.315  24.751  27.422  1.00  0.00     0.023 A 
ATOM     74  C   UNL A   1      41.524  23.597  27.550  1.00  0.00     0.031 A 
ATOM     75  C   UNL A   1      43.114  24.878  26.272  1.00  0.00     0.131 A 
ATOM     76  C   UNL A   1      41.587  22.594  26.571  1.00  0.00     0.055 A 
ATOM     77  C   UNL A   1      43.130  23.904  25.273  1.00  0.00     0.041 A 
ATOM     78  F   UNL A   1      43.885  25.964  26.098  1.00  0.00    -0.206 F 
ATOM     79  C   UNL A   1      42.373  22.746  25.426  1.00  0.00     0.022 A 
BRANCH  76  80
ATOM     80  S   UNL A   1      40.691  21.043  26.855  1.00  0.00     0.124 S 
ATOM     81  O   UNL A   1      39.396  21.332  26.249  1.00  0.00    -0.237 OA
ATOM     82  O   UNL A   1      41.528  20.076  26.152  1.00  0.00    -0.237 OA
ATOM     83  O   UNL A   1      40.685  20.915  28.311  1.00  0.00    -0.744 OA
ENDBRANCH  76  80
ENDBRANCH  49  73
BRANCH  61  84
ATOM     84  C   UNL A   1      46.706  26.049  32.677  1.00  0.00     0.023 A 
ATOM     85  C   UNL A   1      47.934  26.106  31.992  1.00  0.00     0.031 A 
ATOM     86  C   UNL A   1      46.632  25.237  33.823  1.00  0.00     0.131 A 
ATOM     87  C   UNL A   1      49.008  25.304  32.407  1.00  0.00     0.055 A 
ATOM     88  C   UNL A   1      47.727  24.497  34.275  1.00  0.00     0.041 A 
ATOM     89  F   UNL A   1      45.487  25.137  34.517  1.00  0.00    -0.206 F 
ATOM     90  C   UNL A   1      48.917  24.512  33.555  1.00  0.00     0.022 A 
BRANCH  87  91
ATOM     91  S   UNL A   1      50.480  25.201  31.350  1.00  0.00     0.124 S 
ATOM     92  O   UNL A   1      50.937  23.838  31.598  1.00  0.00    -0.237 OA
ATOM     93  O   UNL A   1      49.927  25.457  30.023  1.00  0.00    -0.237 OA
ATOM     94  O   UNL A   1      51.351  26.252  31.870  1.00  0.00    -0.744 OA
ENDBRANCH  87  91
ENDBRANCH  61  84
ENDBRANCH  35  36
ENDBRANCH  27  30
ENDBRANCH  25  26
ENDBRANCH  24  25
ENDBRANCH   1  24
TORSDOF 18
ENDMDL
MODEL 2
REMARK VINA RESULT:     -10.3      4.286      9.200
REMARK SMILES CC[C@@](C)(NC(=O)NCCc1ncn[nH]1)C(=O)NCCCNC(=O)c1ccc(-c2c3nc(c(-c4cc(S(=O)(=O)[O-])ccc4F)c4ccc([nH]4)c(-c4cc(S(=O)(=O)[O-])ccc4F)c4nc(c(-c5cc(S(=O)(=O)[O-])ccc5F)c5ccc2[nH]5)C=C4)C=C3)cc1
REMARK SMILES IDX 19 1 18 2 16 3 17 4 3 6 4 7 2 8 1 9 5 10 6 11 7 13 8 14 9 16
REMARK SMILES IDX 10 17 11 18 12 19 15 20 13 21 14 22 20 24 21 25 22 26 23 27
REMARK SMILES IDX 24 29 25 30 26 31 87 32 27 33 86 34 28 35 29 36 30 37 80 38
REMARK SMILES IDX 31 39 85 40 79 41 81 42 32 43 84 44 78 45 77 46 33 48 65 49
REMARK SMILES IDX 45 50 64 51 46 52 49 53 63 54 82 55 47 56 48 57 62 59 83 60
REMARK SMILES IDX 50 61 34 62 35 63 43 64 36 65 42 66 44 67 41 68 37 69 38 70
REMARK SMILES IDX 39 71 40 72 66 73 67 74 75 75 68 76 74 77 76 78 73 79 69 80
REMARK SMILES IDX 70 81 71 82 72 83 51 84 52 85 60 86 53 87 59 88 61 89 58 90
REMARK SMILES IDX 54 91 55 92 56 93 57 94
REMARK H PARENT 18 5 5 12 8 15 15 23 22 28 81 47 49 58
REMARK Flexibility Score: inf
ROOT
ATOM      1  C   UNL A   1      34.904  24.753  25.458  1.00  0.00     0.117 C 
ENDROOT
BRANCH   1   2
ATOM      2  N   UNL A   1      33.560  24.263  25.743  1.00  0.00    -0.354 N 
ATOM      3  C   UNL A   1      32.712  23.385  25.117  1.00  0.00     0.245 C 
ATOM      4  O   UNL A   1      31.737  23.019  25.787  1.00  0.00    -0.272 OA
ATOM      5  H   UNL A   1      33.178  24.647  26.566  1.00  0.00     0.163 HD
BRANCH   3   6
ATOM      6  C   UNL A   1      32.991  22.788  23.709  1.00  0.00     0.117 C 
ATOM      7  C   UNL A   1      34.128  21.748  23.896  1.00  0.00     0.045 C 
BRANCH   6   8
ATOM      8  C   UNL A   1      31.825  22.032  23.000  1.00  0.00     0.035 C 
ATOM      9  C   UNL A   1      32.073  20.594  22.561  1.00  0.00     0.007 C 
ENDBRANCH   6   8
BRANCH   6  10
ATOM     10  N   UNL A   1      33.449  23.859  22.811  1.00  0.00    -0.324 N 
ATOM     11  C   UNL A   1      32.904  24.949  22.259  1.00  0.00     0.315 C 
ATOM     12  H   UNL A   1      34.391  23.745  22.550  1.00  0.00     0.166 HD
ATOM     13  O   UNL A   1      33.600  25.536  21.426  1.00  0.00    -0.249 OA
ATOM     14  N   UNL A   1      31.734  25.505  22.587  1.00  0.00    -0.338 N 
ATOM     15  H   UNL A   1      31.699  26.448  22.306  1.00  0.00     0.165 HD
BRANCH  14  16
ATOM     16  C   UNL A   1      30.492  25.104  23.244  1.00  0.00     0.125 C 
BRANCH  16  17
ATOM     17  C   UNL A   1      29.917  26.086  24.266  1.00  0.00     0.098 C 
BRANCH  17  18
ATOM     18  C   UNL A   1      30.869  26.626  25.269  1.00  0.00     0.125 A 
ATOM     19  N   UNL A   1      32.025  27.230  25.096  1.00  0.00    -0.220 NA
ATOM     20  N   UNL A   1      30.622  26.517  26.612  1.00  0.00    -0.263 N 
ATOM     21  C   UNL A   1      32.435  27.489  26.377  1.00  0.00     0.246 A 
ATOM     22  N   UNL A   1      31.608  27.063  27.333  1.00  0.00    -0.162 NA
ATOM     23  H   UNL A   1      29.822  26.091  26.997  1.00  0.00     0.192 HD
ENDBRANCH  17  18
ENDBRANCH  16  17
ENDBRANCH  14  16
ENDBRANCH   6  10
ENDBRANCH   3   6
ENDBRANCH   1   2
BRANCH   1  24
ATOM     24  C   UNL A   1      36.108  23.945  25.948  1.00  0.00     0.042 C 
BRANCH  24  25
ATOM     25  C   UNL A   1      37.151  23.474  24.942  1.00  0.00     0.118 C 
BRANCH  25  26
ATOM     26  N   UNL A   1      38.105  22.522  25.478  1.00  0.00    -0.352 N 
ATOM     27  C   UNL A   1      39.213  22.727  26.268  1.00  0.00     0.251 C 
ATOM     28  H   UNL A   1      37.933  21.582  25.239  1.00  0.00     0.163 HD
ATOM     29  O   UNL A   1      39.926  21.761  26.525  1.00  0.00    -0.269 OA
BRANCH  27  30
ATOM     30  C   UNL A   1      39.578  24.075  26.773  1.00  0.00     0.039 A 
ATOM     31  C   UNL A   1      39.254  24.395  28.096  1.00  0.00     0.014 A 
ATOM     32  C   UNL A   1      40.184  25.042  25.965  1.00  0.00     0.014 A 
ATOM     33  C   UNL A   1      39.587  25.649  28.621  1.00  0.00     0.010 A 
ATOM     34  C   UNL A   1      40.556  26.282  26.502  1.00  0.00     0.010 A 
ATOM     35  C   UNL A   1      40.269  26.597  27.840  1.00  0.00    -0.014 A 
BRANCH  35  36
ATOM     36  C   UNL A   1      40.726  27.879  28.447  1.00  0.00     0.031 A 
ATOM     37  C   UNL A   1      42.188  28.176  28.649  1.00  0.00     0.074 A 
ATOM     38  C   UNL A   1      39.803  28.782  28.838  1.00  0.00     0.049 A 
ATOM     39  N   UNL A   1      42.754  29.264  29.109  1.00  0.00    -0.248 NA
ATOM     40  C   UNL A   1      43.134  27.106  28.307  1.00  0.00     0.031 C 
ATOM     41  C   UNL A   1      38.354  28.592  28.749  1.00  0.00     0.029 A 
ATOM     42  N   UNL A   1      39.939  30.036  29.381  1.00  0.00    -0.354 N 
ATOM     43  C   UNL A   1      44.124  29.016  29.107  1.00  0.00     0.074 A 
ATOM     44  C   UNL A   1      44.293  27.650  28.654  1.00  0.00     0.031 C 
ATOM     45  C   UNL A   1      37.737  29.700  29.190  1.00  0.00     0.029 A 
ATOM     46  C   UNL A   1      38.740  30.666  29.624  1.00  0.00     0.049 A 
ATOM     47  H   UNL A   1      40.812  30.445  29.579  1.00  0.00     0.167 HD
ATOM     48  C   UNL A   1      45.142  29.854  29.433  1.00  0.00     0.034 A 
ATOM     49  C   UNL A   1      38.473  31.884  30.137  1.00  0.00     0.034 A 
ATOM     50  C   UNL A   1      44.957  31.211  29.899  1.00  0.00     0.049 A 
ATOM     51  C   UNL A   1      39.620  32.791  30.502  1.00  0.00     0.074 A 
ATOM     52  C   UNL A   1      45.922  32.156  30.209  1.00  0.00     0.029 A 
ATOM     53  N   UNL A   1      43.729  31.814  30.141  1.00  0.00    -0.354 N 
ATOM     54  N   UNL A   1      40.912  32.567  30.420  1.00  0.00    -0.248 NA
ATOM     55  C   UNL A   1      39.271  34.125  31.008  1.00  0.00     0.031 C 
ATOM     56  C   UNL A   1      45.281  33.298  30.706  1.00  0.00     0.029 A 
ATOM     57  C   UNL A   1      43.912  33.104  30.626  1.00  0.00     0.049 A 
ATOM     58  H   UNL A   1      42.854  31.389  29.990  1.00  0.00     0.167 HD
ATOM     59  C   UNL A   1      41.526  33.746  30.836  1.00  0.00     0.074 A 
ATOM     60  C   UNL A   1      40.464  34.681  31.139  1.00  0.00     0.031 C 
ATOM     61  C   UNL A   1      42.851  34.029  30.951  1.00  0.00     0.034 A 
BRANCH  48  62
ATOM     62  C   UNL A   1      46.552  29.315  29.321  1.00  0.00     0.023 A 
ATOM     63  C   UNL A   1      47.278  29.385  28.116  1.00  0.00     0.031 A 
ATOM     64  C   UNL A   1      47.182  28.721  30.429  1.00  0.00     0.131 A 
ATOM     65  C   UNL A   1      48.555  28.810  28.030  1.00  0.00     0.055 A 
ATOM     66  C   UNL A   1      48.484  28.222  30.358  1.00  0.00     0.041 A 
ATOM     67  F   UNL A   1      46.539  28.608  31.602  1.00  0.00    -0.206 F 
ATOM     68  C   UNL A   1      49.174  28.251  29.150  1.00  0.00     0.022 A 
BRANCH  65  69
ATOM     69  S   UNL A   1      49.342  28.682  26.401  1.00  0.00     0.124 S 
ATOM     70  O   UNL A   1      50.003  29.979  26.288  1.00  0.00    -0.237 OA
ATOM     71  O   UNL A   1      50.221  27.530  26.564  1.00  0.00    -0.237 OA
ATOM     72  O   UNL A   1      48.216  28.484  25.490  1.00  0.00    -0.744 OA
ENDBRANCH  65  69
ENDBRANCH  48  62
BRANCH  49  73
ATOM     73  C   UNL A   1      37.062  32.328  30.330  1.00  0.00     0.023 A 
ATOM     74  C   UNL A   1      36.351  32.962  29.297  1.00  0.00     0.031 A 
ATOM     75  C   UNL A   1      36.416  32.162  31.568  1.00  0.00     0.131 A 
ATOM     76  C   UNL A   1      35.058  33.452  29.535  1.00  0.00     0.055 A 
ATOM     77  C   UNL A   1      35.108  32.599  31.783  1.00  0.00     0.041 A 
ATOM     78  F   UNL A   1      37.048  31.557  32.587  1.00  0.00    -0.206 F 
ATOM     79  C   UNL A   1      34.426  33.261  30.767  1.00  0.00     0.022 A 
BRANCH  76  80
ATOM     80  S   UNL A   1      34.241  34.420  28.238  1.00  0.00     0.124 S 
ATOM     81  O   UNL A   1      34.066  35.711  28.895  1.00  0.00    -0.237 OA
ATOM     82  O   UNL A   1      35.226  34.376  27.162  1.00  0.00    -0.237 OA
ATOM     83  O   UNL A   1      33.009  33.676  27.983  1.00  0.00    -0.744 OA
ENDBRANCH  76  80
ENDBRANCH  49  73
BRANCH  61  84
ATOM     84  C   UNL A   1      43.212  35.430  31.390  1.00  0.00     0.023 A 
ATOM     85  C   UNL A   1      43.534  36.440  30.464  1.00  0.00     0.031 A 
ATOM     86  C   UNL A   1      43.289  35.747  32.759  1.00  0.00     0.131 A 
ATOM     87  C   UNL A   1      43.995  37.685  30.916  1.00  0.00     0.055 A 
ATOM     88  C   UNL A   1      43.678  37.013  33.202  1.00  0.00     0.041 A 
ATOM     89  F   UNL A   1      42.999  34.825  33.691  1.00  0.00    -0.206 F 
ATOM     90  C   UNL A   1      44.054  37.984  32.280  1.00  0.00     0.022 A 
BRANCH  87  91
ATOM     91  S   UNL A   1      44.652  38.864  29.701  1.00  0.00     0.124 S 
ATOM     92  O   UNL A   1      45.743  39.488  30.443  1.00  0.00    -0.237 OA
ATOM     93  O   UNL A   1      45.046  37.990  28.601  1.00  0.00    -0.237 OA
ATOM     94  O   UNL A   1      43.514  39.738  29.421  1.00  0.00    -0.744 OA
ENDBRANCH  87  91
ENDBRANCH  61  84
ENDBRANCH  35  36
ENDBRANCH  27  30
ENDBRANCH  25  26
ENDBRANCH  24  25
ENDBRANCH   1  24
TORSDOF 18
ENDMDL
MODEL 3
REMARK VINA RESULT:     -10.1      4.596     10.028
REMARK SMILES CC[C@@](C)(NC(=O)NCCc1ncn[nH]1)C(=O)NCCCNC(=O)c1ccc(-c2c3nc(c(-c4cc(S(=O)(=O)[O-])ccc4F)c4ccc([nH]4)c(-c4cc(S(=O)(=O)[O-])ccc4F)c4nc(c(-c5cc(S(=O)(=O)[O-])ccc5F)c5ccc2[nH]5)C=C4)C=C3)cc1
REMARK SMILES IDX 19 1 18 2 16 3 17 4 3 6 4 7 2 8 1 9 5 10 6 11 7 13 8 14 9 16
REMARK SMILES IDX 10 17 11 18 12 19 15 20 13 21 14 22 20 24 21 25 22 26 23 27
REMARK SMILES IDX 24 29 25 30 26 31 87 32 27 33 86 34 28 35 29 36 30 37 80 38
REMARK SMILES IDX 31 39 85 40 79 41 81 42 32 43 84 44 78 45 77 46 33 48 65 49
REMARK SMILES IDX 45 50 64 51 46 52 49 53 63 54 82 55 47 56 48 57 62 59 83 60
REMARK SMILES IDX 50 61 34 62 35 63 43 64 36 65 42 66 44 67 41 68 37 69 38 70
REMARK SMILES IDX 39 71 40 72 66 73 67 74 75 75 68 76 74 77 76 78 73 79 69 80
REMARK SMILES IDX 70 81 71 82 72 83 51 84 52 85 60 86 53 87 59 88 61 89 58 90
REMARK SMILES IDX 54 91 55 92 56 93 57 94
REMARK H PARENT 18 5 5 12 8 15 15 23 22 28 81 47 49 58
REMARK Flexibility Score: inf
ROOT
ATOM      1  C   UNL A   1      34.892  24.360  24.640  1.00  0.00     0.117 C 
ENDROOT
BRANCH   1   2
ATOM      2  N   UNL A   1      33.918  23.555  23.911  1.00  0.00    -0.354 N 
ATOM      3  C   UNL A   1      32.656  23.098  24.194  1.00  0.00     0.245 C 
ATOM      4  O   UNL A   1      32.025  22.647  23.229  1.00  0.00    -0.272 OA
ATOM      5  H   UNL A   1      34.236  23.280  23.021  1.00  0.00     0.163 HD
BRANCH   3   6
ATOM      6  C   UNL A   1      31.996  23.228  25.596  1.00  0.00     0.117 C 
ATOM      7  C   UNL A   1      31.696  24.738  25.797  1.00  0.00     0.045 C 
BRANCH   6   8
ATOM      8  C   UNL A   1      30.647  22.483  25.832  1.00  0.00     0.035 C 
ATOM      9  C   UNL A   1      29.815  22.885  27.045  1.00  0.00     0.007 C 
ENDBRANCH   6   8
BRANCH   6  10
ATOM     10  N   UNL A   1      32.948  22.777  26.623  1.00  0.00    -0.324 N 
ATOM     11  C   UNL A   1      33.477  21.606  26.995  1.00  0.00     0.315 C 
ATOM     12  H   UNL A   1      33.279  23.523  27.173  1.00  0.00     0.166 HD
ATOM     13  O   UNL A   1      34.157  21.625  28.025  1.00  0.00    -0.249 OA
ATOM     14  N   UNL A   1      33.415  20.455  26.319  1.00  0.00    -0.338 N 
ATOM     15  H   UNL A   1      34.132  19.841  26.598  1.00  0.00     0.165 HD
BRANCH  14  16
ATOM     16  C   UNL A   1      32.578  19.854  25.283  1.00  0.00     0.125 C 
BRANCH  16  17
ATOM     17  C   UNL A   1      33.306  19.043  24.209  1.00  0.00     0.098 C 
BRANCH  17  18
ATOM     18  C   UNL A   1      33.703  17.662  24.581  1.00  0.00     0.125 A 
ATOM     19  N   UNL A   1      33.013  16.543  24.530  1.00  0.00    -0.220 NA
ATOM     20  N   UNL A   1      34.947  17.394  25.089  1.00  0.00    -0.263 N 
ATOM     21  C   UNL A   1      33.898  15.610  25.001  1.00  0.00     0.246 A 
ATOM     22  N   UNL A   1      35.090  16.091  25.361  1.00  0.00    -0.162 NA
ATOM     23  H   UNL A   1      35.646  18.072  25.235  1.00  0.00     0.192 HD
ENDBRANCH  17  18
ENDBRANCH  16  17
ENDBRANCH  14  16
ENDBRANCH   6  10
ENDBRANCH   3   6
ENDBRANCH   1   2
BRANCH   1  24
ATOM     24  C   UNL A   1      35.996  23.654  25.431  1.00  0.00     0.042 C 
BRANCH  24  25
ATOM     25  C   UNL A   1      37.328  23.357  24.754  1.00  0.00     0.118 C 
BRANCH  25  26
ATOM     26  N   UNL A   1      38.160  22.411  25.471  1.00  0.00    -0.352 N 
ATOM     27  C   UNL A   1      39.184  22.630  26.364  1.00  0.00     0.251 C 
ATOM     28  H   UNL A   1      37.962  21.463  25.290  1.00  0.00     0.163 HD
ATOM     29  O   UNL A   1      39.808  21.657  26.779  1.00  0.00    -0.269 OA
BRANCH  27  30
ATOM     30  C   UNL A   1      39.568  23.998  26.798  1.00  0.00     0.039 A 
ATOM     31  C   UNL A   1      39.261  24.386  28.107  1.00  0.00     0.014 A 
ATOM     32  C   UNL A   1      40.175  24.917  25.937  1.00  0.00     0.014 A 
ATOM     33  C   UNL A   1      39.613  25.661  28.565  1.00  0.00     0.010 A 
ATOM     34  C   UNL A   1      40.564  26.178  26.408  1.00  0.00     0.010 A 
ATOM     35  C   UNL A   1      40.295  26.562  27.731  1.00  0.00    -0.014 A 
BRANCH  35  36
ATOM     36  C   UNL A   1      40.771  27.868  28.268  1.00  0.00     0.031 A 
ATOM     37  C   UNL A   1      42.233  28.226  28.281  1.00  0.00     0.074 A 
ATOM     38  C   UNL A   1      39.868  28.736  28.769  1.00  0.00     0.049 A 
ATOM     39  N   UNL A   1      42.807  29.341  28.661  1.00  0.00    -0.248 NA
ATOM     40  C   UNL A   1      43.173  27.192  27.828  1.00  0.00     0.031 C 
ATOM     41  C   UNL A   1      38.429  28.486  28.866  1.00  0.00     0.029 A 
ATOM     42  N   UNL A   1      40.019  30.000  29.285  1.00  0.00    -0.354 N 
ATOM     43  C   UNL A   1      44.175  29.150  28.486  1.00  0.00     0.074 A 
ATOM     44  C   UNL A   1      44.342  27.787  28.022  1.00  0.00     0.031 C 
ATOM     45  C   UNL A   1      37.827  29.572  29.376  1.00  0.00     0.029 A 
ATOM     46  C   UNL A   1      38.836  30.583  29.675  1.00  0.00     0.049 A 
ATOM     47  H   UNL A   1      40.892  30.447  29.368  1.00  0.00     0.167 HD
ATOM     48  C   UNL A   1      45.190  30.032  28.676  1.00  0.00     0.034 A 
ATOM     49  C   UNL A   1      38.585  31.795  30.211  1.00  0.00     0.034 A 
ATOM     50  C   UNL A   1      45.009  31.384  29.155  1.00  0.00     0.049 A 
ATOM     51  C   UNL A   1      39.730  32.751  30.423  1.00  0.00     0.074 A 
ATOM     52  C   UNL A   1      45.965  32.372  29.335  1.00  0.00     0.029 A 
ATOM     53  N   UNL A   1      43.797  31.939  29.549  1.00  0.00    -0.354 N 
ATOM     54  N   UNL A   1      41.009  32.580  30.179  1.00  0.00    -0.248 NA
ATOM     55  C   UNL A   1      39.392  34.074  30.962  1.00  0.00     0.031 C 
ATOM     56  C   UNL A   1      45.345  33.491  29.904  1.00  0.00     0.029 A 
ATOM     57  C   UNL A   1      43.986  33.241  29.999  1.00  0.00     0.049 A 
ATOM     58  H   UNL A   1      42.928  31.478  29.512  1.00  0.00     0.167 HD
ATOM     59  C   UNL A   1      41.621  33.787  30.507  1.00  0.00     0.074 A 
ATOM     60  C   UNL A   1      40.568  34.681  30.939  1.00  0.00     0.031 C 
ATOM     61  C   UNL A   1      42.937  34.125  30.452  1.00  0.00     0.034 A 
BRANCH  48  62
ATOM     62  C   UNL A   1      46.596  29.550  28.389  1.00  0.00     0.023 A 
ATOM     63  C   UNL A   1      47.406  28.988  29.394  1.00  0.00     0.031 A 
ATOM     64  C   UNL A   1      47.139  29.655  27.095  1.00  0.00     0.131 A 
ATOM     65  C   UNL A   1      48.730  28.620  29.107  1.00  0.00     0.055 A 
ATOM     66  C   UNL A   1      48.430  29.213  26.798  1.00  0.00     0.041 A 
ATOM     67  F   UNL A   1      46.425  30.198  26.097  1.00  0.00    -0.206 F 
ATOM     68  C   UNL A   1      49.239  28.705  27.810  1.00  0.00     0.022 A 
BRANCH  65  69
ATOM     69  S   UNL A   1      49.819  28.154  30.480  1.00  0.00     0.124 S 
ATOM     70  O   UNL A   1      50.239  26.813  30.084  1.00  0.00    -0.237 OA
ATOM     71  O   UNL A   1      50.848  29.186  30.431  1.00  0.00    -0.237 OA
ATOM     72  O   UNL A   1      48.940  28.204  31.648  1.00  0.00    -0.744 OA
ENDBRANCH  65  69
ENDBRANCH  48  62
BRANCH  49  73
ATOM     73  C   UNL A   1      37.192  32.182  30.579  1.00  0.00     0.023 A 
ATOM     74  C   UNL A   1      36.316  32.736  29.631  1.00  0.00     0.031 A 
ATOM     75  C   UNL A   1      36.730  32.045  31.900  1.00  0.00     0.131 A 
ATOM     76  C   UNL A   1      35.044  33.176  30.025  1.00  0.00     0.055 A 
ATOM     77  C   UNL A   1      35.443  32.431  32.276  1.00  0.00     0.041 A 
ATOM     78  F   UNL A   1      37.525  31.517  32.845  1.00  0.00    -0.206 F 
ATOM     79  C   UNL A   1      34.596  33.014  31.339  1.00  0.00     0.022 A 
BRANCH  76  80
ATOM     80  S   UNL A   1      34.010  34.045  28.816  1.00  0.00     0.124 S 
ATOM     81  O   UNL A   1      34.953  35.005  28.252  1.00  0.00    -0.237 OA
ATOM     82  O   UNL A   1      33.596  32.958  27.935  1.00  0.00    -0.237 OA
ATOM     83  O   UNL A   1      32.943  34.623  29.632  1.00  0.00    -0.744 OA
ENDBRANCH  76  80
ENDBRANCH  49  73
BRANCH  61  84
ATOM     84  C   UNL A   1      43.292  35.544  30.835  1.00  0.00     0.023 A 
ATOM     85  C   UNL A   1      43.423  35.941  32.178  1.00  0.00     0.031 A 
ATOM     86  C   UNL A   1      43.450  36.528  29.842  1.00  0.00     0.131 A 
ATOM     87  C   UNL A   1      43.618  37.294  32.494  1.00  0.00     0.055 A 
ATOM     88  C   UNL A   1      43.719  37.861  30.160  1.00  0.00     0.041 A 
ATOM     89  F   UNL A   1      43.334  36.212  28.541  1.00  0.00    -0.206 F 
ATOM     90  C   UNL A   1      43.784  38.255  31.493  1.00  0.00     0.022 A 
BRANCH  87  91
ATOM     91  S   UNL A   1      43.514  37.807  34.233  1.00  0.00     0.124 S 
ATOM     92  O   UNL A   1      44.771  37.303  34.774  1.00  0.00    -0.237 OA
ATOM     93  O   UNL A   1      43.404  39.258  34.122  1.00  0.00    -0.237 OA
ATOM     94  O   UNL A   1      42.313  37.131  34.719  1.00  0.00    -0.744 OA
ENDBRANCH  87  91
ENDBRANCH  61  84
ENDBRANCH  35  36
ENDBRANCH  27  30
ENDBRANCH  25  26
ENDBRANCH  24  25
ENDBRANCH   1  24
TORSDOF 18
ENDMDL
