MODEL 1
REMARK VINA RESULT:      -9.8      0.000      0.000
REMARK SMILES C[C@H](C(=O)NCCCNC(=O)c1ccc(-c2c3nc(c(-c4cc(S(=O)(=O)[O-])ccc4F)c4ccc([nH]4)c(-c4cc(S(=O)(=O)[O-])ccc4F)c4nc(c(-c5cc(S(=O)(=O)[O-])ccc5F)c5ccc2[nH]5)C=C4)C=C3)cc1)c1cccc(C(=O)c2ccccc2)c1
REMARK SMILES IDX 7 1 6 2 5 3 3 4 4 5 2 7 1 8 75 9 76 10 88 11 77 12 79 13
REMARK SMILES IDX 78 14 80 15 81 16 82 17 83 18 87 19 84 20 86 21 85 22 8 23
REMARK SMILES IDX 9 24 10 25 11 27 12 28 13 29 74 30 14 31 73 32 15 33 16 34
REMARK SMILES IDX 17 35 67 36 18 37 72 38 66 39 68 40 19 41 71 42 65 43 64 44
REMARK SMILES IDX 20 46 52 47 32 48 51 49 33 50 36 51 50 52 69 53 34 54 35 55
REMARK SMILES IDX 49 57 70 58 37 59 21 60 22 61 30 62 23 63 29 64 31 65 28 66
REMARK SMILES IDX 24 67 25 68 26 69 27 70 53 71 54 72 62 73 55 74 61 75 63 76
REMARK SMILES IDX 60 77 56 78 57 79 58 80 59 81 38 82 39 83 47 84 40 85 46 86
REMARK SMILES IDX 48 87 45 88 41 89 42 90 43 91 44 92
REMARK H PARENT 5 6 9 26 68 45 36 56
REMARK Flexibility Score: inf
ROOT
ATOM      1  C   UNL A   1      42.206  19.738  26.380  1.00  0.00     0.042 C 
ENDROOT
BRANCH   1   2
ATOM      2  C   UNL A   1      43.425  20.394  25.736  1.00  0.00     0.117 C 
BRANCH   2   3
ATOM      3  N   UNL A   1      43.175  21.767  25.337  1.00  0.00    -0.356 N 
ATOM      4  C   UNL A   1      44.040  22.818  25.223  1.00  0.00     0.227 C 
ATOM      5  O   UNL A   1      43.575  23.908  24.878  1.00  0.00    -0.274 OA
ATOM      6  H   UNL A   1      42.239  21.971  25.114  1.00  0.00     0.163 HD
BRANCH   4   7
ATOM      7  C   UNL A   1      45.531  22.632  25.537  1.00  0.00     0.105 C 
ATOM      8  C   UNL A   1      46.355  22.798  24.251  1.00  0.00     0.023 C 
BRANCH   7   9
ATOM      9  C   UNL A   1      45.971  23.585  26.642  1.00  0.00    -0.035 A 
ATOM     10  C   UNL A   1      47.169  24.304  26.521  1.00  0.00     0.004 A 
ATOM     11  C   UNL A   1      45.225  23.724  27.825  1.00  0.00     0.016 A 
ATOM     12  C   UNL A   1      47.633  25.099  27.569  1.00  0.00     0.001 A 
ATOM     13  C   UNL A   1      45.675  24.532  28.879  1.00  0.00     0.023 A 
ATOM     14  C   UNL A   1      46.892  25.209  28.744  1.00  0.00     0.012 A 
BRANCH  13  15
ATOM     15  C   UNL A   1      44.879  24.752  30.123  1.00  0.00     0.193 C 
ATOM     16  O   UNL A   1      44.536  23.800  30.818  1.00  0.00    -0.289 OA
BRANCH  15  17
ATOM     17  C   UNL A   1      44.569  26.112  30.612  1.00  0.00     0.022 A 
ATOM     18  C   UNL A   1      45.619  27.034  30.696  1.00  0.00     0.012 A 
ATOM     19  C   UNL A   1      43.272  26.481  30.980  1.00  0.00     0.012 A 
ATOM     20  C   UNL A   1      45.359  28.344  31.097  1.00  0.00     0.001 A 
ATOM     21  C   UNL A   1      43.017  27.796  31.374  1.00  0.00     0.001 A 
ATOM     22  C   UNL A   1      44.058  28.726  31.425  1.00  0.00     0.000 A 
ENDBRANCH  15  17
ENDBRANCH  13  15
ENDBRANCH   7   9
ENDBRANCH   4   7
ENDBRANCH   2   3
ENDBRANCH   1   2
BRANCH   1  23
ATOM     23  C   UNL A   1      41.311  20.692  27.168  1.00  0.00     0.118 C 
BRANCH  23  24
ATOM     24  N   UNL A   1      40.000  20.857  26.559  1.00  0.00    -0.352 N 
ATOM     25  C   UNL A   1      39.183  21.952  26.467  1.00  0.00     0.251 C 
ATOM     26  H   UNL A   1      39.640  20.041  26.142  1.00  0.00     0.163 HD
ATOM     27  O   UNL A   1      38.026  21.778  26.074  1.00  0.00    -0.269 OA
BRANCH  25  28
ATOM     28  C   UNL A   1      39.639  23.313  26.835  1.00  0.00     0.039 A 
ATOM     29  C   UNL A   1      40.437  23.456  27.975  1.00  0.00     0.014 A 
ATOM     30  C   UNL A   1      39.243  24.452  26.127  1.00  0.00     0.014 A 
ATOM     31  C   UNL A   1      40.871  24.722  28.375  1.00  0.00     0.010 A 
ATOM     32  C   UNL A   1      39.736  25.709  26.485  1.00  0.00     0.010 A 
ATOM     33  C   UNL A   1      40.549  25.859  27.617  1.00  0.00    -0.014 A 
BRANCH  33  34
ATOM     34  C   UNL A   1      41.065  27.198  28.011  1.00  0.00     0.031 A 
ATOM     35  C   UNL A   1      42.487  27.595  27.717  1.00  0.00     0.074 A 
ATOM     36  C   UNL A   1      40.248  28.053  28.659  1.00  0.00     0.049 A 
ATOM     37  N   UNL A   1      43.101  28.723  27.968  1.00  0.00    -0.248 NA
ATOM     38  C   UNL A   1      43.337  26.580  27.078  1.00  0.00     0.031 C 
ATOM     39  C   UNL A   1      38.866  27.765  29.049  1.00  0.00     0.029 A 
ATOM     40  N   UNL A   1      40.455  29.336  29.098  1.00  0.00    -0.354 N 
ATOM     41  C   UNL A   1      44.408  28.555  27.524  1.00  0.00     0.074 A 
ATOM     42  C   UNL A   1      44.511  27.193  27.044  1.00  0.00     0.031 C 
ATOM     43  C   UNL A   1      38.340  28.849  29.639  1.00  0.00     0.029 A 
ATOM     44  C   UNL A   1      39.353  29.898  29.700  1.00  0.00     0.049 A 
ATOM     45  H   UNL A   1      41.312  29.810  28.994  1.00  0.00     0.167 HD
ATOM     46  C   UNL A   1      45.420  29.459  27.496  1.00  0.00     0.034 A 
ATOM     47  C   UNL A   1      39.176  31.121  30.239  1.00  0.00     0.034 A 
ATOM     48  C   UNL A   1      45.301  30.817  27.973  1.00  0.00     0.049 A 
ATOM     49  C   UNL A   1      40.313  32.107  30.193  1.00  0.00     0.074 A 
ATOM     50  C   UNL A   1      46.245  31.829  27.944  1.00  0.00     0.029 A 
ATOM     51  N   UNL A   1      44.170  31.352  28.577  1.00  0.00    -0.354 N 
ATOM     52  N   UNL A   1      41.524  31.952  29.711  1.00  0.00    -0.248 NA
ATOM     53  C   UNL A   1      40.050  33.441  30.748  1.00  0.00     0.031 C 
ATOM     54  C   UNL A   1      45.708  32.953  28.582  1.00  0.00     0.029 A 
ATOM     55  C   UNL A   1      44.403  32.669  28.949  1.00  0.00     0.049 A 
ATOM     56  H   UNL A   1      43.325  30.868  28.720  1.00  0.00     0.167 HD
ATOM     57  C   UNL A   1      42.161  33.177  29.888  1.00  0.00     0.074 A 
ATOM     58  C   UNL A   1      41.189  34.065  30.493  1.00  0.00     0.031 C 
ATOM     59  C   UNL A   1      43.434  33.537  29.577  1.00  0.00     0.034 A 
BRANCH  46  60
ATOM     60  C   UNL A   1      46.751  28.992  26.949  1.00  0.00     0.023 A 
ATOM     61  C   UNL A   1      46.918  28.667  25.591  1.00  0.00     0.031 A 
ATOM     62  C   UNL A   1      47.862  28.846  27.801  1.00  0.00     0.131 A 
ATOM     63  C   UNL A   1      48.139  28.140  25.140  1.00  0.00     0.055 A 
ATOM     64  C   UNL A   1      49.097  28.396  27.329  1.00  0.00     0.041 A 
ATOM     65  F   UNL A   1      47.760  29.122  29.110  1.00  0.00    -0.206 F 
ATOM     66  C   UNL A   1      49.237  28.025  25.995  1.00  0.00     0.022 A 
BRANCH  63  67
ATOM     67  S   UNL A   1      48.225  27.472  23.456  1.00  0.00     0.124 S 
ATOM     68  O   UNL A   1      47.152  28.208  22.791  1.00  0.00    -0.237 OA
ATOM     69  O   UNL A   1      49.583  27.817  23.050  1.00  0.00    -0.237 OA
ATOM     70  O   UNL A   1      47.972  26.045  23.639  1.00  0.00    -0.744 OA
ENDBRANCH  63  67
ENDBRANCH  46  60
BRANCH  47  71
ATOM     71  C   UNL A   1      37.874  31.487  30.863  1.00  0.00     0.023 A 
ATOM     72  C   UNL A   1      36.886  32.166  30.134  1.00  0.00     0.031 A 
ATOM     73  C   UNL A   1      37.613  31.192  32.214  1.00  0.00     0.131 A 
ATOM     74  C   UNL A   1      35.701  32.569  30.768  1.00  0.00     0.055 A 
ATOM     75  C   UNL A   1      36.412  31.553  32.827  1.00  0.00     0.041 A 
ATOM     76  F   UNL A   1      38.520  30.535  32.953  1.00  0.00    -0.206 F 
ATOM     77  C   UNL A   1      35.452  32.256  32.106  1.00  0.00     0.022 A 
BRANCH  74  78
ATOM     78  S   UNL A   1      34.516  33.576  29.834  1.00  0.00     0.124 S 
ATOM     79  O   UNL A   1      33.714  32.555  29.171  1.00  0.00    -0.237 OA
ATOM     80  O   UNL A   1      33.852  34.324  30.896  1.00  0.00    -0.237 OA
ATOM     81  O   UNL A   1      35.367  34.373  28.952  1.00  0.00    -0.744 OA
ENDBRANCH  74  78
ENDBRANCH  47  71
BRANCH  59  82
ATOM     82  C   UNL A   1      43.824  34.965  29.874  1.00  0.00     0.023 A 
ATOM     83  C   UNL A   1      44.198  35.373  31.167  1.00  0.00     0.031 A 
ATOM     84  C   UNL A   1      43.775  35.940  28.862  1.00  0.00     0.131 A 
ATOM     85  C   UNL A   1      44.439  36.730  31.430  1.00  0.00     0.055 A 
ATOM     86  C   UNL A   1      44.079  37.278  29.116  1.00  0.00     0.041 A 
ATOM     87  F   UNL A   1      43.422  35.608  27.610  1.00  0.00    -0.206 F 
ATOM     88  C   UNL A   1      44.396  37.683  30.410  1.00  0.00     0.022 A 
BRANCH  85  89
ATOM     89  S   UNL A   1      44.692  37.249  33.149  1.00  0.00     0.124 S 
ATOM     90  O   UNL A   1      45.915  38.040  33.051  1.00  0.00    -0.237 OA
ATOM     91  O   UNL A   1      43.471  37.997  33.433  1.00  0.00    -0.237 OA
ATOM     92  O   UNL A   1      44.828  35.986  33.873  1.00  0.00    -0.744 OA
ENDBRANCH  85  89
ENDBRANCH  59  82
ENDBRANCH  33  34
ENDBRANCH  25  28
ENDBRANCH  23  24
ENDBRANCH   1  23
TORSDOF 16
ENDMDL
MODEL 2
REMARK VINA RESULT:      -9.7      5.505     10.546
REMARK SMILES C[C@H](C(=O)NCCCNC(=O)c1ccc(-c2c3nc(c(-c4cc(S(=O)(=O)[O-])ccc4F)c4ccc([nH]4)c(-c4cc(S(=O)(=O)[O-])ccc4F)c4nc(c(-c5cc(S(=O)(=O)[O-])ccc5F)c5ccc2[nH]5)C=C4)C=C3)cc1)c1cccc(C(=O)c2ccccc2)c1
REMARK SMILES IDX 7 1 6 2 5 3 3 4 4 5 2 7 1 8 75 9 76 10 88 11 77 12 79 13
REMARK SMILES IDX 78 14 80 15 81 16 82 17 83 18 87 19 84 20 86 21 85 22 8 23
REMARK SMILES IDX 9 24 10 25 11 27 12 28 13 29 74 30 14 31 73 32 15 33 16 34
REMARK SMILES IDX 17 35 67 36 18 37 72 38 66 39 68 40 19 41 71 42 65 43 64 44
REMARK SMILES IDX 20 46 52 47 32 48 51 49 33 50 36 51 50 52 69 53 34 54 35 55
REMARK SMILES IDX 49 57 70 58 37 59 21 60 22 61 30 62 23 63 29 64 31 65 28 66
REMARK SMILES IDX 24 67 25 68 26 69 27 70 53 71 54 72 62 73 55 74 61 75 63 76
REMARK SMILES IDX 60 77 56 78 57 79 58 80 59 81 38 82 39 83 47 84 40 85 46 86
REMARK SMILES IDX 48 87 45 88 41 89 42 90 43 91 44 92
REMARK H PARENT 5 6 9 26 68 45 36 56
REMARK Flexibility Score: inf
ROOT
ATOM      1  C   UNL A   1      31.340  31.952  26.597  1.00  0.00     0.042 C 
ENDROOT
BRANCH   1   2
ATOM      2  C   UNL A   1      31.432  30.728  25.690  1.00  0.00     0.117 C 
BRANCH   2   3
ATOM      3  N   UNL A   1      32.499  29.824  26.078  1.00  0.00    -0.356 N 
ATOM      4  C   UNL A   1      33.174  28.894  25.339  1.00  0.00     0.227 C 
ATOM      5  O   UNL A   1      34.039  28.225  25.910  1.00  0.00    -0.274 OA
ATOM      6  H   UNL A   1      32.779  29.890  27.019  1.00  0.00     0.163 HD
BRANCH   4   7
ATOM      7  C   UNL A   1      32.836  28.692  23.854  1.00  0.00     0.105 C 
ATOM      8  C   UNL A   1      34.110  28.848  23.010  1.00  0.00     0.023 C 
BRANCH   7   9
ATOM      9  C   UNL A   1      32.149  27.350  23.637  1.00  0.00    -0.035 A 
ATOM     10  C   UNL A   1      30.818  27.164  24.036  1.00  0.00     0.004 A 
ATOM     11  C   UNL A   1      32.842  26.256  23.090  1.00  0.00     0.016 A 
ATOM     12  C   UNL A   1      30.212  25.911  23.937  1.00  0.00     0.001 A 
ATOM     13  C   UNL A   1      32.238  24.997  22.971  1.00  0.00     0.023 A 
ATOM     14  C   UNL A   1      30.920  24.831  23.412  1.00  0.00     0.012 A 
BRANCH  13  15
ATOM     15  C   UNL A   1      32.922  23.829  22.339  1.00  0.00     0.193 C 
ATOM     16  O   UNL A   1      33.416  23.930  21.220  1.00  0.00    -0.289 OA
BRANCH  15  17
ATOM     17  C   UNL A   1      33.115  22.559  23.069  1.00  0.00     0.022 A 
ATOM     18  C   UNL A   1      34.218  22.455  23.924  1.00  0.00     0.012 A 
ATOM     19  C   UNL A   1      32.230  21.486  22.921  1.00  0.00     0.012 A 
ATOM     20  C   UNL A   1      34.405  21.295  24.675  1.00  0.00     0.001 A 
ATOM     21  C   UNL A   1      32.419  20.330  23.681  1.00  0.00     0.001 A 
ATOM     22  C   UNL A   1      33.500  20.239  24.561  1.00  0.00     0.000 A 
ENDBRANCH  15  17
ENDBRANCH  13  15
ENDBRANCH   7   9
ENDBRANCH   4   7
ENDBRANCH   2   3
ENDBRANCH   1   2
BRANCH   1  23
ATOM     23  C   UNL A   1      32.666  32.392  27.210  1.00  0.00     0.118 C 
BRANCH  23  24
ATOM     24  N   UNL A   1      32.688  33.811  27.532  1.00  0.00    -0.352 N 
ATOM     25  C   UNL A   1      33.424  34.514  28.449  1.00  0.00     0.251 C 
ATOM     26  H   UNL A   1      32.066  34.359  27.000  1.00  0.00     0.163 HD
ATOM     27  O   UNL A   1      33.109  35.687  28.666  1.00  0.00    -0.269 OA
BRANCH  25  28
ATOM     28  C   UNL A   1      34.559  33.908  29.183  1.00  0.00     0.039 A 
ATOM     29  C   UNL A   1      34.278  32.938  30.151  1.00  0.00     0.014 A 
ATOM     30  C   UNL A   1      35.882  34.322  28.991  1.00  0.00     0.014 A 
ATOM     31  C   UNL A   1      35.314  32.356  30.886  1.00  0.00     0.010 A 
ATOM     32  C   UNL A   1      36.923  33.689  29.674  1.00  0.00     0.010 A 
ATOM     33  C   UNL A   1      36.650  32.705  30.634  1.00  0.00    -0.014 A 
BRANCH  33  34
ATOM     34  C   UNL A   1      37.755  32.038  31.375  1.00  0.00     0.031 A 
ATOM     35  C   UNL A   1      38.567  30.946  30.732  1.00  0.00     0.074 A 
ATOM     36  C   UNL A   1      38.012  32.408  32.646  1.00  0.00     0.049 A 
ATOM     37  N   UNL A   1      39.576  30.269  31.218  1.00  0.00    -0.248 NA
ATOM     38  C   UNL A   1      38.177  30.546  29.372  1.00  0.00     0.031 C 
ATOM     39  C   UNL A   1      37.260  33.416  33.398  1.00  0.00     0.029 A 
ATOM     40  N   UNL A   1      38.975  31.987  33.528  1.00  0.00    -0.354 N 
ATOM     41  C   UNL A   1      39.940  29.361  30.229  1.00  0.00     0.074 A 
ATOM     42  C   UNL A   1      39.000  29.535  29.141  1.00  0.00     0.031 C 
ATOM     43  C   UNL A   1      37.811  33.559  34.614  1.00  0.00     0.029 A 
ATOM     44  C   UNL A   1      38.931  32.632  34.743  1.00  0.00     0.049 A 
ATOM     45  H   UNL A   1      39.634  31.289  33.313  1.00  0.00     0.167 HD
ATOM     46  C   UNL A   1      40.974  28.482  30.218  1.00  0.00     0.034 A 
ATOM     47  C   UNL A   1      39.706  32.495  35.837  1.00  0.00     0.034 A 
ATOM     48  C   UNL A   1      41.907  28.323  31.310  1.00  0.00     0.049 A 
ATOM     49  C   UNL A   1      40.849  31.516  35.800  1.00  0.00     0.074 A 
ATOM     50  C   UNL A   1      43.020  27.503  31.383  1.00  0.00     0.029 A 
ATOM     51  N   UNL A   1      41.832  28.993  32.525  1.00  0.00    -0.354 N 
ATOM     52  N   UNL A   1      41.217  30.710  34.832  1.00  0.00    -0.248 NA
ATOM     53  C   UNL A   1      41.692  31.444  37.000  1.00  0.00     0.031 C 
ATOM     54  C   UNL A   1      43.580  27.630  32.660  1.00  0.00     0.029 A 
ATOM     55  C   UNL A   1      42.861  28.583  33.362  1.00  0.00     0.049 A 
ATOM     56  H   UNL A   1      41.149  29.663  32.758  1.00  0.00     0.167 HD
ATOM     57  C   UNL A   1      42.349  30.048  35.300  1.00  0.00     0.074 A 
ATOM     58  C   UNL A   1      42.616  30.573  36.625  1.00  0.00     0.031 C 
ATOM     59  C   UNL A   1      43.101  29.094  34.692  1.00  0.00     0.034 A 
BRANCH  46  60
ATOM     60  C   UNL A   1      41.131  27.610  28.993  1.00  0.00     0.023 A 
ATOM     61  C   UNL A   1      42.150  27.836  28.051  1.00  0.00     0.031 A 
ATOM     62  C   UNL A   1      40.233  26.554  28.748  1.00  0.00     0.131 A 
ATOM     63  C   UNL A   1      42.202  27.071  26.875  1.00  0.00     0.055 A 
ATOM     64  C   UNL A   1      40.339  25.745  27.615  1.00  0.00     0.041 A 
ATOM     65  F   UNL A   1      39.228  26.300  29.600  1.00  0.00    -0.206 F 
ATOM     66  C   UNL A   1      41.318  26.011  26.661  1.00  0.00     0.022 A 
BRANCH  63  67
ATOM     67  S   UNL A   1      43.349  27.576  25.563  1.00  0.00     0.124 S 
ATOM     68  O   UNL A   1      42.426  27.986  24.507  1.00  0.00    -0.237 OA
ATOM     69  O   UNL A   1      44.106  28.646  26.201  1.00  0.00    -0.237 OA
ATOM     70  O   UNL A   1      44.106  26.358  25.281  1.00  0.00    -0.744 OA
ENDBRANCH  63  67
ENDBRANCH  46  60
BRANCH  47  71
ATOM     71  C   UNL A   1      39.435  33.306  37.057  1.00  0.00     0.023 A 
ATOM     72  C   UNL A   1      40.072  34.539  37.264  1.00  0.00     0.031 A 
ATOM     73  C   UNL A   1      38.559  32.839  38.053  1.00  0.00     0.131 A 
ATOM     74  C   UNL A   1      39.860  35.245  38.458  1.00  0.00     0.055 A 
ATOM     75  C   UNL A   1      38.314  33.568  39.218  1.00  0.00     0.041 A 
ATOM     76  F   UNL A   1      37.917  31.671  37.900  1.00  0.00    -0.206 F 
ATOM     77  C   UNL A   1      38.976  34.774  39.431  1.00  0.00     0.022 A 
BRANCH  74  78
ATOM     78  S   UNL A   1      40.815  36.758  38.754  1.00  0.00     0.124 S 
ATOM     79  O   UNL A   1      41.544  36.901  37.499  1.00  0.00    -0.237 OA
ATOM     80  O   UNL A   1      39.762  37.737  39.000  1.00  0.00    -0.237 OA
ATOM     81  O   UNL A   1      41.634  36.421  39.917  1.00  0.00    -0.744 OA
ENDBRANCH  74  78
ENDBRANCH  47  71
BRANCH  59  82
ATOM     82  C   UNL A   1      44.296  28.583  35.461  1.00  0.00     0.023 A 
ATOM     83  C   UNL A   1      44.175  27.554  36.411  1.00  0.00     0.031 A 
ATOM     84  C   UNL A   1      45.562  29.165  35.274  1.00  0.00     0.131 A 
ATOM     85  C   UNL A   1      45.283  27.188  37.191  1.00  0.00     0.055 A 
ATOM     86  C   UNL A   1      46.676  28.751  36.006  1.00  0.00     0.041 A 
ATOM     87  F   UNL A   1      45.736  30.153  34.382  1.00  0.00    -0.206 F 
ATOM     88  C   UNL A   1      46.537  27.770  36.984  1.00  0.00     0.022 A 
BRANCH  85  89
ATOM     89  S   UNL A   1      45.036  26.024  38.559  1.00  0.00     0.124 S 
ATOM     90  O   UNL A   1      43.781  26.496  39.137  1.00  0.00    -0.237 OA
ATOM     91  O   UNL A   1      44.977  24.739  37.871  1.00  0.00    -0.237 OA
ATOM     92  O   UNL A   1      46.217  26.224  39.398  1.00  0.00    -0.744 OA
ENDBRANCH  85  89
ENDBRANCH  59  82
ENDBRANCH  33  34
ENDBRANCH  25  28
ENDBRANCH  23  24
ENDBRANCH   1  23
TORSDOF 16
ENDMDL
MODEL 3
REMARK VINA RESULT:      -9.7      6.056     10.783
REMARK SMILES C[C@H](C(=O)NCCCNC(=O)c1ccc(-c2c3nc(c(-c4cc(S(=O)(=O)[O-])ccc4F)c4ccc([nH]4)c(-c4cc(S(=O)(=O)[O-])ccc4F)c4nc(c(-c5cc(S(=O)(=O)[O-])ccc5F)c5ccc2[nH]5)C=C4)C=C3)cc1)c1cccc(C(=O)c2ccccc2)c1
REMARK SMILES IDX 7 1 6 2 5 3 3 4 4 5 2 7 1 8 75 9 76 10 88 11 77 12 79 13
REMARK SMILES IDX 78 14 80 15 81 16 82 17 83 18 87 19 84 20 86 21 85 22 8 23
REMARK SMILES IDX 9 24 10 25 11 27 12 28 13 29 74 30 14 31 73 32 15 33 16 34
REMARK SMILES IDX 17 35 67 36 18 37 72 38 66 39 68 40 19 41 71 42 65 43 64 44
REMARK SMILES IDX 20 46 52 47 32 48 51 49 33 50 36 51 50 52 69 53 34 54 35 55
REMARK SMILES IDX 49 57 70 58 37 59 21 60 22 61 30 62 23 63 29 64 31 65 28 66
REMARK SMILES IDX 24 67 25 68 26 69 27 70 53 71 54 72 62 73 55 74 61 75 63 76
REMARK SMILES IDX 60 77 56 78 57 79 58 80 59 81 38 82 39 83 47 84 40 85 46 86
REMARK SMILES IDX 48 87 45 88 41 89 42 90 43 91 44 92
REMARK H PARENT 5 6 9 26 68 45 36 56
REMARK Flexibility Score: inf
ROOT
ATOM      1  C   UNL A   1      31.278  32.324  26.523  1.00  0.00     0.042 C 
ENDROOT
BRANCH   1   2
ATOM      2  C   UNL A   1      31.369  30.952  25.860  1.00  0.00     0.117 C 
BRANCH   2   3
ATOM      3  N   UNL A   1      32.560  30.220  26.252  1.00  0.00    -0.356 N 
ATOM      4  C   UNL A   1      33.291  29.299  25.558  1.00  0.00     0.227 C 
ATOM      5  O   UNL A   1      34.265  28.796  26.123  1.00  0.00    -0.274 OA
ATOM      6  H   UNL A   1      32.890  30.417  27.157  1.00  0.00     0.163 HD
BRANCH   4   7
ATOM      7  C   UNL A   1      32.885  28.904  24.131  1.00  0.00     0.105 C 
ATOM      8  C   UNL A   1      34.079  28.255  23.414  1.00  0.00     0.023 C 
BRANCH   7   9
ATOM      9  C   UNL A   1      31.655  28.004  24.151  1.00  0.00    -0.035 A 
ATOM     10  C   UNL A   1      30.577  28.260  23.293  1.00  0.00     0.004 A 
ATOM     11  C   UNL A   1      31.546  26.940  25.063  1.00  0.00     0.016 A 
ATOM     12  C   UNL A   1      29.405  27.507  23.375  1.00  0.00     0.001 A 
ATOM     13  C   UNL A   1      30.378  26.167  25.143  1.00  0.00     0.023 A 
ATOM     14  C   UNL A   1      29.304  26.469  24.299  1.00  0.00     0.012 A 
BRANCH  13  15
ATOM     15  C   UNL A   1      30.250  24.991  26.055  1.00  0.00     0.193 C 
ATOM     16  O   UNL A   1      29.317  24.919  26.849  1.00  0.00    -0.289 OA
BRANCH  15  17
ATOM     17  C   UNL A   1      31.172  23.839  25.964  1.00  0.00     0.022 A 
ATOM     18  C   UNL A   1      31.148  23.071  24.794  1.00  0.00     0.012 A 
ATOM     19  C   UNL A   1      32.048  23.517  27.005  1.00  0.00     0.012 A 
ATOM     20  C   UNL A   1      32.041  22.011  24.644  1.00  0.00     0.001 A 
ATOM     21  C   UNL A   1      32.944  22.458  26.845  1.00  0.00     0.001 A 
ATOM     22  C   UNL A   1      32.945  21.713  25.665  1.00  0.00     0.000 A 
ENDBRANCH  15  17
ENDBRANCH  13  15
ENDBRANCH   7   9
ENDBRANCH   4   7
ENDBRANCH   2   3
ENDBRANCH   1   2
BRANCH   1  23
ATOM     23  C   UNL A   1      32.525  32.742  27.296  1.00  0.00     0.118 C 
BRANCH  23  24
ATOM     24  N   UNL A   1      32.483  34.136  27.712  1.00  0.00    -0.352 N 
ATOM     25  C   UNL A   1      33.175  34.805  28.686  1.00  0.00     0.251 C 
ATOM     26  H   UNL A   1      31.847  34.692  27.206  1.00  0.00     0.163 HD
ATOM     27  O   UNL A   1      32.808  35.947  28.975  1.00  0.00    -0.269 OA
BRANCH  25  28
ATOM     28  C   UNL A   1      34.323  34.199  29.399  1.00  0.00     0.039 A 
ATOM     29  C   UNL A   1      34.056  33.330  30.463  1.00  0.00     0.014 A 
ATOM     30  C   UNL A   1      35.650  34.518  29.091  1.00  0.00     0.014 A 
ATOM     31  C   UNL A   1      35.107  32.753  31.180  1.00  0.00     0.010 A 
ATOM     32  C   UNL A   1      36.700  33.886  29.761  1.00  0.00     0.010 A 
ATOM     33  C   UNL A   1      36.440  33.002  30.818  1.00  0.00    -0.014 A 
BRANCH  33  34
ATOM     34  C   UNL A   1      37.556  32.337  31.544  1.00  0.00     0.031 A 
ATOM     35  C   UNL A   1      38.310  31.194  30.920  1.00  0.00     0.074 A 
ATOM     36  C   UNL A   1      37.874  32.755  32.786  1.00  0.00     0.049 A 
ATOM     37  N   UNL A   1      39.320  30.510  31.396  1.00  0.00    -0.248 NA
ATOM     38  C   UNL A   1      37.854  30.745  29.597  1.00  0.00     0.031 C 
ATOM     39  C   UNL A   1      37.182  33.818  33.520  1.00  0.00     0.029 A 
ATOM     40  N   UNL A   1      38.860  32.347  33.647  1.00  0.00    -0.354 N 
ATOM     41  C   UNL A   1      39.617  29.548  30.436  1.00  0.00     0.074 A 
ATOM     42  C   UNL A   1      38.639  29.701  29.380  1.00  0.00     0.031 C 
ATOM     43  C   UNL A   1      37.785  33.999  34.705  1.00  0.00     0.029 A 
ATOM     44  C   UNL A   1      38.883  33.046  34.832  1.00  0.00     0.049 A 
ATOM     45  H   UNL A   1      39.490  31.620  33.439  1.00  0.00     0.167 HD
ATOM     46  C   UNL A   1      40.626  28.640  30.426  1.00  0.00     0.034 A 
ATOM     47  C   UNL A   1      39.698  32.936  35.900  1.00  0.00     0.034 A 
ATOM     48  C   UNL A   1      41.598  28.503  31.486  1.00  0.00     0.049 A 
ATOM     49  C   UNL A   1      40.811  31.923  35.863  1.00  0.00     0.074 A 
ATOM     50  C   UNL A   1      42.689  27.654  31.553  1.00  0.00     0.029 A 
ATOM     51  N   UNL A   1      41.591  29.228  32.671  1.00  0.00    -0.354 N 
ATOM     52  N   UNL A   1      41.118  31.063  34.919  1.00  0.00    -0.248 NA
ATOM     53  C   UNL A   1      41.700  31.879  37.031  1.00  0.00     0.031 C 
ATOM     54  C   UNL A   1      43.304  27.821  32.799  1.00  0.00     0.029 A 
ATOM     55  C   UNL A   1      42.641  28.826  33.485  1.00  0.00     0.049 A 
ATOM     56  H   UNL A   1      40.936  29.927  32.900  1.00  0.00     0.167 HD
ATOM     57  C   UNL A   1      42.249  30.390  35.372  1.00  0.00     0.074 A 
ATOM     58  C   UNL A   1      42.584  30.966  36.660  1.00  0.00     0.031 C 
ATOM     59  C   UNL A   1      42.949  29.389  34.779  1.00  0.00     0.034 A 
BRANCH  46  60
ATOM     60  C   UNL A   1      40.708  27.709  29.236  1.00  0.00     0.023 A 
ATOM     61  C   UNL A   1      41.634  27.918  28.199  1.00  0.00     0.031 A 
ATOM     62  C   UNL A   1      39.832  26.614  29.124  1.00  0.00     0.131 A 
ATOM     63  C   UNL A   1      41.613  27.094  27.062  1.00  0.00     0.055 A 
ATOM     64  C   UNL A   1      39.869  25.750  28.027  1.00  0.00     0.041 A 
ATOM     65  F   UNL A   1      38.913  26.373  30.072  1.00  0.00    -0.206 F 
ATOM     66  C   UNL A   1      40.753  25.997  26.980  1.00  0.00     0.022 A 
BRANCH  63  67
ATOM     67  S   UNL A   1      42.623  27.565  25.631  1.00  0.00     0.124 S 
ATOM     68  O   UNL A   1      42.078  28.881  25.305  1.00  0.00    -0.237 OA
ATOM     69  O   UNL A   1      43.974  27.552  26.181  1.00  0.00    -0.237 OA
ATOM     70  O   UNL A   1      42.339  26.520  24.650  1.00  0.00    -0.744 OA
ENDBRANCH  63  67
ENDBRANCH  46  60
BRANCH  47  71
ATOM     71  C   UNL A   1      39.500  33.808  37.091  1.00  0.00     0.023 A 
ATOM     72  C   UNL A   1      38.866  33.324  38.246  1.00  0.00     0.031 A 
ATOM     73  C   UNL A   1      39.910  35.153  37.077  1.00  0.00     0.131 A 
ATOM     74  C   UNL A   1      38.621  34.188  39.324  1.00  0.00     0.055 A 
ATOM     75  C   UNL A   1      39.707  35.996  38.171  1.00  0.00     0.041 A 
ATOM     76  F   UNL A   1      40.530  35.662  36.001  1.00  0.00    -0.206 F 
ATOM     77  C   UNL A   1      39.048  35.517  39.299  1.00  0.00     0.022 A 
BRANCH  74  78
ATOM     78  S   UNL A   1      37.667  33.566  40.736  1.00  0.00     0.124 S 
ATOM     79  O   UNL A   1      38.613  32.646  41.354  1.00  0.00    -0.237 OA
ATOM     80  O   UNL A   1      37.388  34.793  41.476  1.00  0.00    -0.237 OA
ATOM     81  O   UNL A   1      36.503  32.941  40.110  1.00  0.00    -0.744 OA
ENDBRANCH  74  78
ENDBRANCH  47  71
BRANCH  59  82
ATOM     82  C   UNL A   1      44.159  28.878  35.523  1.00  0.00     0.023 A 
ATOM     83  C   UNL A   1      44.064  27.825  36.449  1.00  0.00     0.031 A 
ATOM     84  C   UNL A   1      45.415  29.482  35.337  1.00  0.00     0.131 A 
ATOM     85  C   UNL A   1      45.186  27.457  37.208  1.00  0.00     0.055 A 
ATOM     86  C   UNL A   1      46.542  29.068  36.047  1.00  0.00     0.041 A 
ATOM     87  F   UNL A   1      45.564  30.494  34.466  1.00  0.00    -0.206 F 
ATOM     88  C   UNL A   1      46.429  28.062  37.002  1.00  0.00     0.022 A 
BRANCH  85  89
ATOM     89  S   UNL A   1      44.971  26.257  38.551  1.00  0.00     0.124 S 
ATOM     90  O   UNL A   1      44.016  25.318  37.971  1.00  0.00    -0.237 OA
ATOM     91  O   UNL A   1      46.327  25.752  38.740  1.00  0.00    -0.237 OA
ATOM     92  O   UNL A   1      44.452  27.066  39.654  1.00  0.00    -0.744 OA
ENDBRANCH  85  89
ENDBRANCH  59  82
ENDBRANCH  33  34
ENDBRANCH  25  28
ENDBRANCH  23  24
ENDBRANCH   1  23
TORSDOF 16
ENDMDL
