MODEL 1
REMARK VINA RESULT:     -13.9      0.000      0.000
REMARK SMILES Cc1ccc(-c2nc(C)cc(N3CCCC[C@H]3C(=O)NCCCNC(=O)c3ccc(-c4c5nc(c(-c6cc(S(=O)(=O)[O-])ccc6F)c6ccc([nH]6)c(-c6cc(S(=O)(=O)[O-])ccc6F)c6nc(c(-c7cc(S(=O)(=O)[O-])ccc7F)c7ccc4[nH]7)C=C6)C=C5)cc3)n2)cc1
REMARK SMILES IDX 22 1 21 2 20 3 18 4 19 5 17 7 12 8 13 9 14 10 16 11 15 12
REMARK SMILES IDX 11 13 6 14 7 15 90 16 8 17 9 18 10 19 5 20 1 21 2 22 3 23
REMARK SMILES IDX 92 24 4 25 91 26 23 27 24 28 25 29 26 31 27 32 28 33 89 34
REMARK SMILES IDX 29 35 88 36 30 37 31 38 32 39 82 40 33 41 87 42 81 43 83 44
REMARK SMILES IDX 34 45 86 46 80 47 79 48 35 50 67 51 47 52 66 53 48 54 51 55
REMARK SMILES IDX 65 56 84 57 49 58 50 59 64 61 85 62 52 63 36 64 37 65 45 66
REMARK SMILES IDX 38 67 44 68 46 69 43 70 39 71 40 72 41 73 42 74 68 75 69 76
REMARK SMILES IDX 77 77 70 78 76 79 78 80 75 81 71 82 72 83 73 84 74 85 53 86
REMARK SMILES IDX 54 87 62 88 55 89 61 90 63 91 60 92 56 93 57 94 58 95 59 96
REMARK H PARENT 20 6 24 30 83 49 51 60
REMARK Flexibility Score: inf
ROOT
ATOM      1  C   UNL A   1      33.799  30.285  27.682  1.00  0.00     0.042 C 
ENDROOT
BRANCH   1   2
ATOM      2  C   UNL A   1      33.919  28.973  26.913  1.00  0.00     0.117 C 
BRANCH   2   3
ATOM      3  N   UNL A   1      32.732  28.148  27.072  1.00  0.00    -0.354 N 
ATOM      4  C   UNL A   1      32.239  27.058  26.441  1.00  0.00     0.242 C 
ATOM      5  O   UNL A   1      31.188  26.608  26.930  1.00  0.00    -0.273 OA
ATOM      6  H   UNL A   1      32.156  28.452  27.811  1.00  0.00     0.163 HD
BRANCH   4   7
ATOM      7  C   UNL A   1      32.905  26.300  25.246  1.00  0.00     0.173 C 
ATOM      8  N   UNL A   1      32.611  24.851  25.391  1.00  0.00    -0.344 N 
ATOM      9  C   UNL A   1      31.288  24.397  24.984  1.00  0.00     0.119 C 
ATOM     10  C   UNL A   1      31.045  24.711  23.513  1.00  0.00     0.022 C 
ATOM     11  C   UNL A   1      32.648  26.660  23.774  1.00  0.00     0.035 C 
ATOM     12  C   UNL A   1      31.301  26.186  23.227  1.00  0.00     0.004 C 
BRANCH   8  13
ATOM     13  C   UNL A   1      33.658  23.954  25.317  1.00  0.00     0.133 A 
ATOM     14  C   UNL A   1      34.421  21.802  25.121  1.00  0.00     0.161 A 
ATOM     15  N   UNL A   1      35.710  22.139  25.297  1.00  0.00    -0.233 NA
ATOM     16  N   UNL A   1      33.383  22.654  25.136  1.00  0.00    -0.211 NA
ATOM     17  C   UNL A   1      35.960  23.452  25.466  1.00  0.00     0.043 A 
ATOM     18  C   UNL A   1      37.390  23.845  25.677  1.00  0.00     0.067 C 
ATOM     19  C   UNL A   1      34.957  24.401  25.468  1.00  0.00     0.070 A 
BRANCH  14  20
ATOM     20  C   UNL A   1      34.111  20.397  24.857  1.00  0.00     0.019 A 
ATOM     21  C   UNL A   1      33.218  16.241  24.038  1.00  0.00     0.044 C 
ATOM     22  C   UNL A   1      33.534  17.677  24.333  1.00  0.00    -0.051 A 
ATOM     23  C   UNL A   1      32.503  18.619  24.420  1.00  0.00     0.004 A 
ATOM     24  C   UNL A   1      34.856  18.099  24.499  1.00  0.00     0.004 A 
ATOM     25  C   UNL A   1      32.788  19.961  24.689  1.00  0.00     0.012 A 
ATOM     26  C   UNL A   1      35.140  19.445  24.750  1.00  0.00     0.012 A 
ENDBRANCH  14  20
ENDBRANCH   8  13
ENDBRANCH   4   7
ENDBRANCH   2   3
ENDBRANCH   1   2
BRANCH   1  27
ATOM     27  C   UNL A   1      35.056  31.154  27.610  1.00  0.00     0.118 C 
BRANCH  27  28
ATOM     28  N   UNL A   1      35.467  31.671  28.905  1.00  0.00    -0.352 N 
ATOM     29  C   UNL A   1      36.325  31.081  29.845  1.00  0.00     0.251 C 
ATOM     30  H   UNL A   1      35.095  32.549  29.154  1.00  0.00     0.163 HD
ATOM     31  O   UNL A   1      36.631  31.619  30.881  1.00  0.00    -0.269 OA
BRANCH  29  32
ATOM     32  C   UNL A   1      36.946  29.799  29.447  1.00  0.00     0.039 A 
ATOM     33  C   UNL A   1      37.344  28.956  30.485  1.00  0.00     0.014 A 
ATOM     34  C   UNL A   1      37.424  29.637  28.151  1.00  0.00     0.014 A 
ATOM     35  C   UNL A   1      38.427  28.106  30.278  1.00  0.00     0.010 A 
ATOM     36  C   UNL A   1      38.552  28.850  27.968  1.00  0.00     0.010 A 
ATOM     37  C   UNL A   1      39.101  28.156  29.054  1.00  0.00    -0.014 A 
BRANCH  37  38
ATOM     38  C   UNL A   1      40.484  27.694  28.933  1.00  0.00     0.031 A 
ATOM     39  C   UNL A   1      40.800  26.329  28.469  1.00  0.00     0.074 A 
ATOM     40  C   UNL A   1      41.502  28.499  29.314  1.00  0.00     0.049 A 
ATOM     41  N   UNL A   1      41.796  25.628  28.902  1.00  0.00    -0.248 NA
ATOM     42  C   UNL A   1      39.977  25.628  27.495  1.00  0.00     0.031 C 
ATOM     43  C   UNL A   1      42.932  28.264  29.132  1.00  0.00     0.029 A 
ATOM     44  N   UNL A   1      41.442  29.592  30.170  1.00  0.00    -0.354 N 
ATOM     45  C   UNL A   1      41.912  24.523  28.089  1.00  0.00     0.074 A 
ATOM     46  C   UNL A   1      40.716  24.537  27.275  1.00  0.00     0.031 C 
ATOM     47  C   UNL A   1      43.609  29.003  30.025  1.00  0.00     0.029 A 
ATOM     48  C   UNL A   1      42.640  29.655  30.891  1.00  0.00     0.049 A 
ATOM     49  H   UNL A   1      40.685  30.216  30.254  1.00  0.00     0.167 HD
ATOM     50  C   UNL A   1      43.065  23.792  28.083  1.00  0.00     0.034 A 
ATOM     51  C   UNL A   1      42.651  29.624  32.253  1.00  0.00     0.034 A 
ATOM     52  C   UNL A   1      44.056  24.317  29.023  1.00  0.00     0.049 A 
ATOM     53  C   UNL A   1      43.377  28.427  32.829  1.00  0.00     0.074 A 
ATOM     54  C   UNL A   1      45.178  25.112  28.848  1.00  0.00     0.029 A 
ATOM     55  N   UNL A   1      43.822  24.266  30.393  1.00  0.00    -0.354 N 
ATOM     56  N   UNL A   1      43.755  27.391  32.132  1.00  0.00    -0.248 NA
ATOM     57  C   UNL A   1      43.690  28.285  34.249  1.00  0.00     0.031 C 
ATOM     58  C   UNL A   1      45.579  25.594  30.119  1.00  0.00     0.029 A 
ATOM     59  C   UNL A   1      44.721  25.070  31.070  1.00  0.00     0.049 A 
ATOM     60  H   UNL A   1      43.115  23.732  30.821  1.00  0.00     0.167 HD
ATOM     61  C   UNL A   1      44.280  26.441  32.971  1.00  0.00     0.074 A 
ATOM     62  C   UNL A   1      44.260  27.069  34.281  1.00  0.00     0.031 C 
ATOM     63  C   UNL A   1      44.661  25.208  32.520  1.00  0.00     0.034 A 
BRANCH  50  64
ATOM     64  C   UNL A   1      43.408  22.812  26.979  1.00  0.00     0.023 A 
ATOM     65  C   UNL A   1      42.860  21.512  27.001  1.00  0.00     0.031 A 
ATOM     66  C   UNL A   1      44.297  23.073  25.920  1.00  0.00     0.131 A 
ATOM     67  C   UNL A   1      43.293  20.518  26.103  1.00  0.00     0.055 A 
ATOM     68  C   UNL A   1      44.784  22.067  25.073  1.00  0.00     0.041 A 
ATOM     69  F   UNL A   1      44.694  24.321  25.631  1.00  0.00    -0.206 F 
ATOM     70  C   UNL A   1      44.296  20.774  25.175  1.00  0.00     0.022 A 
BRANCH  67  71
ATOM     71  S   UNL A   1      42.515  18.879  26.158  1.00  0.00     0.124 S 
ATOM     72  O   UNL A   1      43.401  18.082  25.317  1.00  0.00    -0.237 OA
ATOM     73  O   UNL A   1      42.534  18.579  27.585  1.00  0.00    -0.237 OA
ATOM     74  O   UNL A   1      41.185  19.117  25.597  1.00  0.00    -0.744 OA
ENDBRANCH  67  71
ENDBRANCH  50  64
BRANCH  51  75
ATOM     75  C   UNL A   1      41.476  30.293  32.880  1.00  0.00     0.023 A 
ATOM     76  C   UNL A   1      41.423  31.703  32.840  1.00  0.00     0.031 A 
ATOM     77  C   UNL A   1      40.298  29.598  33.187  1.00  0.00     0.131 A 
ATOM     78  C   UNL A   1      40.197  32.368  32.977  1.00  0.00     0.055 A 
ATOM     79  C   UNL A   1      39.083  30.272  33.366  1.00  0.00     0.041 A 
ATOM     80  F   UNL A   1      40.279  28.258  33.203  1.00  0.00    -0.206 F 
ATOM     81  C   UNL A   1      39.021  31.658  33.223  1.00  0.00     0.022 A 
BRANCH  78  82
ATOM     82  S   UNL A   1      40.085  34.147  32.630  1.00  0.00     0.124 S 
ATOM     83  O   UNL A   1      41.472  34.578  32.749  1.00  0.00    -0.237 OA
ATOM     84  O   UNL A   1      39.522  34.195  31.284  1.00  0.00    -0.237 OA
ATOM     85  O   UNL A   1      39.178  34.625  33.674  1.00  0.00    -0.744 OA
ENDBRANCH  78  82
ENDBRANCH  51  75
BRANCH  63  86
ATOM     86  C   UNL A   1      45.089  24.051  33.398  1.00  0.00     0.023 A 
ATOM     87  C   UNL A   1      46.375  23.931  33.946  1.00  0.00     0.031 A 
ATOM     88  C   UNL A   1      44.164  23.047  33.775  1.00  0.00     0.131 A 
ATOM     89  C   UNL A   1      46.728  22.825  34.740  1.00  0.00     0.055 A 
ATOM     90  C   UNL A   1      44.494  21.990  34.628  1.00  0.00     0.041 A 
ATOM     91  F   UNL A   1      42.898  23.053  33.330  1.00  0.00    -0.206 F 
ATOM     92  C   UNL A   1      45.790  21.861  35.103  1.00  0.00     0.022 A 
BRANCH  89  93
ATOM     93  S   UNL A   1      48.464  22.633  35.228  1.00  0.00     0.124 S 
ATOM     94  O   UNL A   1      49.159  23.301  34.131  1.00  0.00    -0.237 OA
ATOM     95  O   UNL A   1      48.505  23.318  36.516  1.00  0.00    -0.237 OA
ATOM     96  O   UNL A   1      48.649  21.184  35.288  1.00  0.00    -0.744 OA
ENDBRANCH  89  93
ENDBRANCH  63  86
ENDBRANCH  37  38
ENDBRANCH  29  32
ENDBRANCH  27  28
ENDBRANCH   1  27
TORSDOF 15
ENDMDL
MODEL 2
REMARK VINA RESULT:     -13.8      1.398      2.172
REMARK SMILES Cc1ccc(-c2nc(C)cc(N3CCCC[C@H]3C(=O)NCCCNC(=O)c3ccc(-c4c5nc(c(-c6cc(S(=O)(=O)[O-])ccc6F)c6ccc([nH]6)c(-c6cc(S(=O)(=O)[O-])ccc6F)c6nc(c(-c7cc(S(=O)(=O)[O-])ccc7F)c7ccc4[nH]7)C=C6)C=C5)cc3)n2)cc1
REMARK SMILES IDX 22 1 21 2 20 3 18 4 19 5 17 7 12 8 13 9 14 10 16 11 15 12
REMARK SMILES IDX 11 13 6 14 7 15 90 16 8 17 9 18 10 19 5 20 1 21 2 22 3 23
REMARK SMILES IDX 92 24 4 25 91 26 23 27 24 28 25 29 26 31 27 32 28 33 89 34
REMARK SMILES IDX 29 35 88 36 30 37 31 38 32 39 82 40 33 41 87 42 81 43 83 44
REMARK SMILES IDX 34 45 86 46 80 47 79 48 35 50 67 51 47 52 66 53 48 54 51 55
REMARK SMILES IDX 65 56 84 57 49 58 50 59 64 61 85 62 52 63 36 64 37 65 45 66
REMARK SMILES IDX 38 67 44 68 46 69 43 70 39 71 40 72 41 73 42 74 68 75 69 76
REMARK SMILES IDX 77 77 70 78 76 79 78 80 75 81 71 82 72 83 73 84 74 85 53 86
REMARK SMILES IDX 54 87 62 88 55 89 61 90 63 91 60 92 56 93 57 94 58 95 59 96
REMARK H PARENT 20 6 24 30 83 49 51 60
REMARK Flexibility Score: inf
ROOT
ATOM      1  C   UNL A   1      34.011  29.478  27.673  1.00  0.00     0.042 C 
ENDROOT
BRANCH   1   2
ATOM      2  C   UNL A   1      32.751  29.554  26.817  1.00  0.00     0.117 C 
BRANCH   2   3
ATOM      3  N   UNL A   1      31.932  28.361  26.962  1.00  0.00    -0.354 N 
ATOM      4  C   UNL A   1      31.909  27.145  26.371  1.00  0.00     0.242 C 
ATOM      5  O   UNL A   1      31.058  26.362  26.830  1.00  0.00    -0.273 OA
ATOM      6  H   UNL A   1      31.235  28.462  27.651  1.00  0.00     0.163 HD
BRANCH   4   7
ATOM      7  C   UNL A   1      32.884  26.637  25.259  1.00  0.00     0.173 C 
ATOM      8  N   UNL A   1      32.151  25.673  24.399  1.00  0.00    -0.344 N 
ATOM      9  C   UNL A   1      31.248  26.228  23.399  1.00  0.00     0.119 C 
ATOM     10  C   UNL A   1      32.009  27.130  22.434  1.00  0.00     0.022 C 
ATOM     11  C   UNL A   1      33.649  27.581  24.316  1.00  0.00     0.035 C 
ATOM     12  C   UNL A   1      32.803  28.185  23.195  1.00  0.00     0.004 C 
BRANCH   8  13
ATOM     13  C   UNL A   1      32.725  24.443  24.146  1.00  0.00     0.133 A 
ATOM     14  C   UNL A   1      34.520  23.025  24.278  1.00  0.00     0.161 A 
ATOM     15  N   UNL A   1      33.936  22.060  23.546  1.00  0.00    -0.233 NA
ATOM     16  N   UNL A   1      33.971  24.211  24.585  1.00  0.00    -0.211 NA
ATOM     17  C   UNL A   1      32.680  22.314  23.128  1.00  0.00     0.043 A 
ATOM     18  C   UNL A   1      32.018  21.256  22.301  1.00  0.00     0.067 C 
ATOM     19  C   UNL A   1      32.029  23.496  23.420  1.00  0.00     0.070 A 
BRANCH  14  20
ATOM     20  C   UNL A   1      35.854  22.760  24.819  1.00  0.00     0.019 A 
ATOM     21  C   UNL A   1      39.781  21.946  26.446  1.00  0.00     0.044 C 
ATOM     22  C   UNL A   1      38.426  22.224  25.869  1.00  0.00    -0.051 A 
ATOM     23  C   UNL A   1      37.848  23.491  26.012  1.00  0.00     0.004 A 
ATOM     24  C   UNL A   1      37.709  21.222  25.208  1.00  0.00     0.004 A 
ATOM     25  C   UNL A   1      36.582  23.758  25.483  1.00  0.00     0.012 A 
ATOM     26  C   UNL A   1      36.435  21.487  24.696  1.00  0.00     0.012 A 
ENDBRANCH  14  20
ENDBRANCH   8  13
ENDBRANCH   4   7
ENDBRANCH   2   3
ENDBRANCH   1   2
BRANCH   1  27
ATOM     27  C   UNL A   1      35.036  30.567  27.351  1.00  0.00     0.118 C 
BRANCH  27  28
ATOM     28  N   UNL A   1      35.560  31.226  28.535  1.00  0.00    -0.352 N 
ATOM     29  C   UNL A   1      36.654  30.850  29.329  1.00  0.00     0.251 C 
ATOM     30  H   UNL A   1      35.085  32.042  28.817  1.00  0.00     0.163 HD
ATOM     31  O   UNL A   1      37.029  31.495  30.277  1.00  0.00    -0.269 OA
BRANCH  29  32
ATOM     32  C   UNL A   1      37.416  29.669  28.870  1.00  0.00     0.039 A 
ATOM     33  C   UNL A   1      37.698  28.702  29.835  1.00  0.00     0.014 A 
ATOM     34  C   UNL A   1      38.108  29.720  27.665  1.00  0.00     0.014 A 
ATOM     35  C   UNL A   1      38.856  27.940  29.700  1.00  0.00     0.010 A 
ATOM     36  C   UNL A   1      39.301  29.019  27.569  1.00  0.00     0.010 A 
ATOM     37  C   UNL A   1      39.713  28.198  28.627  1.00  0.00    -0.014 A 
BRANCH  37  38
ATOM     38  C   UNL A   1      41.126  27.820  28.680  1.00  0.00     0.031 A 
ATOM     39  C   UNL A   1      41.600  26.539  28.121  1.00  0.00     0.074 A 
ATOM     40  C   UNL A   1      42.017  28.620  29.310  1.00  0.00     0.049 A 
ATOM     41  N   UNL A   1      42.561  25.839  28.627  1.00  0.00    -0.248 NA
ATOM     42  C   UNL A   1      40.986  25.925  26.953  1.00  0.00     0.031 C 
ATOM     43  C   UNL A   1      43.470  28.477  29.337  1.00  0.00     0.029 A 
ATOM     44  N   UNL A   1      41.752  29.596  30.264  1.00  0.00    -0.354 N 
ATOM     45  C   UNL A   1      42.874  24.848  27.724  1.00  0.00     0.074 A 
ATOM     46  C   UNL A   1      41.821  24.905  26.734  1.00  0.00     0.031 C 
ATOM     47  C   UNL A   1      43.949  29.131  30.406  1.00  0.00     0.029 A 
ATOM     48  C   UNL A   1      42.817  29.626  31.172  1.00  0.00     0.049 A 
ATOM     49  H   UNL A   1      40.952  30.168  30.295  1.00  0.00     0.167 HD
ATOM     50  C   UNL A   1      44.060  24.179  27.822  1.00  0.00     0.034 A 
ATOM     51  C   UNL A   1      42.617  29.429  32.505  1.00  0.00     0.034 A 
ATOM     52  C   UNL A   1      44.856  24.631  28.963  1.00  0.00     0.049 A 
ATOM     53  C   UNL A   1      43.323  28.205  33.052  1.00  0.00     0.074 A 
ATOM     54  C   UNL A   1      45.937  25.493  29.064  1.00  0.00     0.029 A 
ATOM     55  N   UNL A   1      44.417  24.401  30.263  1.00  0.00    -0.354 N 
ATOM     56  N   UNL A   1      43.873  27.282  32.312  1.00  0.00    -0.248 NA
ATOM     57  C   UNL A   1      43.421  27.905  34.478  1.00  0.00     0.031 C 
ATOM     58  C   UNL A   1      46.103  25.834  30.430  1.00  0.00     0.029 A 
ATOM     59  C   UNL A   1      45.144  25.157  31.164  1.00  0.00     0.049 A 
ATOM     60  H   UNL A   1      43.689  23.785  30.507  1.00  0.00     0.167 HD
ATOM     61  C   UNL A   1      44.323  26.262  33.111  1.00  0.00     0.074 A 
ATOM     62  C   UNL A   1      44.058  26.723  34.463  1.00  0.00     0.031 C 
ATOM     63  C   UNL A   1      44.850  25.113  32.591  1.00  0.00     0.034 A 
BRANCH  50  64
ATOM     64  C   UNL A   1      44.635  23.359  26.684  1.00  0.00     0.023 A 
ATOM     65  C   UNL A   1      44.095  22.089  26.393  1.00  0.00     0.031 A 
ATOM     66  C   UNL A   1      45.734  23.741  25.892  1.00  0.00     0.131 A 
ATOM     67  C   UNL A   1      44.711  21.222  25.471  1.00  0.00     0.055 A 
ATOM     68  C   UNL A   1      46.393  22.855  25.030  1.00  0.00     0.041 A 
ATOM     69  F   UNL A   1      46.186  25.004  25.885  1.00  0.00    -0.206 F 
ATOM     70  C   UNL A   1      45.894  21.577  24.830  1.00  0.00     0.022 A 
BRANCH  67  71
ATOM     71  S   UNL A   1      43.939  19.620  25.111  1.00  0.00     0.124 S 
ATOM     72  O   UNL A   1      44.297  19.404  23.714  1.00  0.00    -0.237 OA
ATOM     73  O   UNL A   1      44.581  18.745  26.086  1.00  0.00    -0.237 OA
ATOM     74  O   UNL A   1      42.518  19.868  25.351  1.00  0.00    -0.744 OA
ENDBRANCH  67  71
ENDBRANCH  50  64
BRANCH  51  75
ATOM     75  C   UNL A   1      41.318  29.959  33.005  1.00  0.00     0.023 A 
ATOM     76  C   UNL A   1      41.178  31.359  33.117  1.00  0.00     0.031 A 
ATOM     77  C   UNL A   1      40.156  29.177  33.038  1.00  0.00     0.131 A 
ATOM     78  C   UNL A   1      39.903  31.944  33.127  1.00  0.00     0.055 A 
ATOM     79  C   UNL A   1      38.886  29.764  33.092  1.00  0.00     0.041 A 
ATOM     80  F   UNL A   1      40.223  27.845  32.899  1.00  0.00    -0.206 F 
ATOM     81  C   UNL A   1      38.754  31.153  33.098  1.00  0.00     0.022 A 
BRANCH  78  82
ATOM     82  S   UNL A   1      39.729  33.744  32.970  1.00  0.00     0.124 S 
ATOM     83  O   UNL A   1      40.181  34.218  34.272  1.00  0.00    -0.237 OA
ATOM     84  O   UNL A   1      40.597  34.071  31.842  1.00  0.00    -0.237 OA
ATOM     85  O   UNL A   1      38.302  33.909  32.693  1.00  0.00    -0.744 OA
ENDBRANCH  78  82
ENDBRANCH  51  75
BRANCH  63  86
ATOM     86  C   UNL A   1      45.212  23.879  33.389  1.00  0.00     0.023 A 
ATOM     87  C   UNL A   1      46.459  23.695  34.006  1.00  0.00     0.031 A 
ATOM     88  C   UNL A   1      44.258  22.858  33.617  1.00  0.00     0.131 A 
ATOM     89  C   UNL A   1      46.753  22.520  34.721  1.00  0.00     0.055 A 
ATOM     90  C   UNL A   1      44.525  21.726  34.393  1.00  0.00     0.041 A 
ATOM     91  F   UNL A   1      43.024  22.918  33.094  1.00  0.00    -0.206 F 
ATOM     92  C   UNL A   1      45.787  21.540  34.936  1.00  0.00     0.022 A 
BRANCH  89  93
ATOM     93  S   UNL A   1      48.452  22.264  35.300  1.00  0.00     0.124 S 
ATOM     94  O   UNL A   1      49.036  23.589  35.107  1.00  0.00    -0.237 OA
ATOM     95  O   UNL A   1      48.252  21.855  36.686  1.00  0.00    -0.237 OA
ATOM     96  O   UNL A   1      48.968  21.224  34.412  1.00  0.00    -0.744 OA
ENDBRANCH  89  93
ENDBRANCH  63  86
ENDBRANCH  37  38
ENDBRANCH  29  32
ENDBRANCH  27  28
ENDBRANCH   1  27
TORSDOF 15
ENDMDL
MODEL 3
REMARK VINA RESULT:     -13.5      1.988      2.838
REMARK SMILES Cc1ccc(-c2nc(C)cc(N3CCCC[C@H]3C(=O)NCCCNC(=O)c3ccc(-c4c5nc(c(-c6cc(S(=O)(=O)[O-])ccc6F)c6ccc([nH]6)c(-c6cc(S(=O)(=O)[O-])ccc6F)c6nc(c(-c7cc(S(=O)(=O)[O-])ccc7F)c7ccc4[nH]7)C=C6)C=C5)cc3)n2)cc1
REMARK SMILES IDX 22 1 21 2 20 3 18 4 19 5 17 7 12 8 13 9 14 10 16 11 15 12
REMARK SMILES IDX 11 13 6 14 7 15 90 16 8 17 9 18 10 19 5 20 1 21 2 22 3 23
REMARK SMILES IDX 92 24 4 25 91 26 23 27 24 28 25 29 26 31 27 32 28 33 89 34
REMARK SMILES IDX 29 35 88 36 30 37 31 38 32 39 82 40 33 41 87 42 81 43 83 44
REMARK SMILES IDX 34 45 86 46 80 47 79 48 35 50 67 51 47 52 66 53 48 54 51 55
REMARK SMILES IDX 65 56 84 57 49 58 50 59 64 61 85 62 52 63 36 64 37 65 45 66
REMARK SMILES IDX 38 67 44 68 46 69 43 70 39 71 40 72 41 73 42 74 68 75 69 76
REMARK SMILES IDX 77 77 70 78 76 79 78 80 75 81 71 82 72 83 73 84 74 85 53 86
REMARK SMILES IDX 54 87 62 88 55 89 61 90 63 91 60 92 56 93 57 94 58 95 59 96
REMARK H PARENT 20 6 24 30 83 49 51 60
REMARK Flexibility Score: inf
ROOT
ATOM      1  C   UNL A   1      32.352  30.593  26.779  1.00  0.00     0.042 C 
ENDROOT
BRANCH   1   2
ATOM      2  C   UNL A   1      31.940  29.809  25.537  1.00  0.00     0.117 C 
BRANCH   2   3
ATOM      3  N   UNL A   1      33.055  29.633  24.620  1.00  0.00    -0.354 N 
ATOM      4  C   UNL A   1      33.459  28.642  23.793  1.00  0.00     0.242 C 
ATOM      5  O   UNL A   1      34.468  28.911  23.117  1.00  0.00    -0.273 OA
ATOM      6  H   UNL A   1      33.651  30.416  24.594  1.00  0.00     0.163 HD
BRANCH   4   7
ATOM      7  C   UNL A   1      32.738  27.273  23.566  1.00  0.00     0.173 C 
ATOM      8  N   UNL A   1      33.051  26.385  24.715  1.00  0.00    -0.344 N 
ATOM      9  C   UNL A   1      32.309  26.607  25.949  1.00  0.00     0.119 C 
ATOM     10  C   UNL A   1      30.813  26.443  25.710  1.00  0.00     0.022 C 
ATOM     11  C   UNL A   1      31.227  27.151  23.309  1.00  0.00     0.035 C 
ATOM     12  C   UNL A   1      30.353  27.321  24.552  1.00  0.00     0.004 C 
BRANCH   8  13
ATOM     13  C   UNL A   1      33.517  25.111  24.456  1.00  0.00     0.133 A 
ATOM     14  C   UNL A   1      35.179  23.539  24.591  1.00  0.00     0.161 A 
ATOM     15  N   UNL A   1      34.519  22.635  23.846  1.00  0.00    -0.233 NA
ATOM     16  N   UNL A   1      34.733  24.766  24.905  1.00  0.00    -0.211 NA
ATOM     17  C   UNL A   1      33.295  23.002  23.419  1.00  0.00     0.043 A 
ATOM     18  C   UNL A   1      32.551  22.013  22.576  1.00  0.00     0.067 C 
ATOM     19  C   UNL A   1      32.747  24.234  23.716  1.00  0.00     0.070 A 
BRANCH  14  20
ATOM     20  C   UNL A   1      36.479  23.153  25.142  1.00  0.00     0.019 A 
ATOM     21  C   UNL A   1      40.342  22.045  26.749  1.00  0.00     0.044 C 
ATOM     22  C   UNL A   1      38.999  22.432  26.206  1.00  0.00    -0.051 A 
ATOM     23  C   UNL A   1      38.293  21.545  25.385  1.00  0.00     0.004 A 
ATOM     24  C   UNL A   1      38.447  23.685  26.485  1.00  0.00     0.004 A 
ATOM     25  C   UNL A   1      37.042  21.898  24.869  1.00  0.00     0.012 A 
ATOM     26  C   UNL A   1      37.205  24.042  25.953  1.00  0.00     0.012 A 
ENDBRANCH  14  20
ENDBRANCH   8  13
ENDBRANCH   4   7
ENDBRANCH   2   3
ENDBRANCH   1   2
BRANCH   1  27
ATOM     27  C   UNL A   1      33.798  30.341  27.210  1.00  0.00     0.118 C 
BRANCH  27  28
ATOM     28  N   UNL A   1      34.259  31.268  28.230  1.00  0.00    -0.352 N 
ATOM     29  C   UNL A   1      35.450  31.226  28.970  1.00  0.00     0.251 C 
ATOM     30  H   UNL A   1      33.657  32.023  28.428  1.00  0.00     0.163 HD
ATOM     31  O   UNL A   1      35.753  32.074  29.774  1.00  0.00    -0.269 OA
BRANCH  29  32
ATOM     32  C   UNL A   1      36.392  30.139  28.628  1.00  0.00     0.039 A 
ATOM     33  C   UNL A   1      36.697  29.241  29.651  1.00  0.00     0.014 A 
ATOM     34  C   UNL A   1      37.183  30.244  27.490  1.00  0.00     0.014 A 
ATOM     35  C   UNL A   1      37.947  28.628  29.651  1.00  0.00     0.010 A 
ATOM     36  C   UNL A   1      38.457  29.697  27.530  1.00  0.00     0.010 A 
ATOM     37  C   UNL A   1      38.865  28.963  28.651  1.00  0.00    -0.014 A 
BRANCH  37  38
ATOM     38  C   UNL A   1      40.302  28.768  28.847  1.00  0.00     0.031 A 
ATOM     39  C   UNL A   1      41.003  27.601  28.278  1.00  0.00     0.074 A 
ATOM     40  C   UNL A   1      41.003  29.630  29.619  1.00  0.00     0.049 A 
ATOM     41  N   UNL A   1      41.990  26.997  28.852  1.00  0.00    -0.248 NA
ATOM     42  C   UNL A   1      40.608  26.996  27.015  1.00  0.00     0.031 C 
ATOM     43  C   UNL A   1      42.450  29.674  29.806  1.00  0.00     0.029 A 
ATOM     44  N   UNL A   1      40.506  30.494  30.588  1.00  0.00    -0.354 N 
ATOM     45  C   UNL A   1      42.531  26.121  27.939  1.00  0.00     0.074 A 
ATOM     46  C   UNL A   1      41.592  26.110  26.838  1.00  0.00     0.031 C 
ATOM     47  C   UNL A   1      42.718  30.308  30.958  1.00  0.00     0.029 A 
ATOM     48  C   UNL A   1      41.453  30.598  31.614  1.00  0.00     0.049 A 
ATOM     49  H   UNL A   1      39.637  30.955  30.557  1.00  0.00     0.167 HD
ATOM     50  C   UNL A   1      43.779  25.605  28.137  1.00  0.00     0.034 A 
ATOM     51  C   UNL A   1      41.140  30.284  32.902  1.00  0.00     0.034 A 
ATOM     52  C   UNL A   1      44.379  26.075  29.385  1.00  0.00     0.049 A 
ATOM     53  C   UNL A   1      41.943  29.127  33.459  1.00  0.00     0.074 A 
ATOM     54  C   UNL A   1      45.315  27.060  29.658  1.00  0.00     0.029 A 
ATOM     55  N   UNL A   1      43.837  25.700  30.611  1.00  0.00    -0.354 N 
ATOM     56  N   UNL A   1      42.689  28.336  32.738  1.00  0.00    -0.248 NA
ATOM     57  C   UNL A   1      41.926  28.743  34.868  1.00  0.00     0.031 C 
ATOM     58  C   UNL A   1      45.285  27.323  31.051  1.00  0.00     0.029 A 
ATOM     59  C   UNL A   1      44.353  26.478  31.630  1.00  0.00     0.049 A 
ATOM     60  H   UNL A   1      43.178  24.979  30.735  1.00  0.00     0.167 HD
ATOM     61  C   UNL A   1      43.186  27.330  33.527  1.00  0.00     0.074 A 
ATOM     62  C   UNL A   1      42.716  27.657  34.862  1.00  0.00     0.031 C 
ATOM     63  C   UNL A   1      43.917  26.297  33.009  1.00  0.00     0.034 A 
BRANCH  50  64
ATOM     64  C   UNL A   1      44.580  24.948  27.030  1.00  0.00     0.023 A 
ATOM     65  C   UNL A   1      44.306  23.613  26.664  1.00  0.00     0.031 A 
ATOM     66  C   UNL A   1      45.646  25.553  26.340  1.00  0.00     0.131 A 
ATOM     67  C   UNL A   1      45.139  22.908  25.775  1.00  0.00     0.055 A 
ATOM     68  C   UNL A   1      46.520  24.834  25.512  1.00  0.00     0.041 A 
ATOM     69  F   UNL A   1      45.857  26.876  26.400  1.00  0.00    -0.206 F 
ATOM     70  C   UNL A   1      46.281  23.496  25.242  1.00  0.00     0.022 A 
BRANCH  67  71
ATOM     71  S   UNL A   1      44.704  21.208  25.315  1.00  0.00     0.124 S 
ATOM     72  O   UNL A   1      43.521  20.954  26.130  1.00  0.00    -0.237 OA
ATOM     73  O   UNL A   1      44.486  21.326  23.878  1.00  0.00    -0.237 OA
ATOM     74  O   UNL A   1      45.890  20.440  25.696  1.00  0.00    -0.744 OA
ENDBRANCH  67  71
ENDBRANCH  50  64
BRANCH  51  75
ATOM     75  C   UNL A   1      39.735  30.606  33.276  1.00  0.00     0.023 A 
ATOM     76  C   UNL A   1      39.383  31.967  33.405  1.00  0.00     0.031 A 
ATOM     77  C   UNL A   1      38.700  29.667  33.170  1.00  0.00     0.131 A 
ATOM     78  C   UNL A   1      38.043  32.365  33.296  1.00  0.00     0.055 A 
ATOM     79  C   UNL A   1      37.359  30.066  33.105  1.00  0.00     0.041 A 
ATOM     80  F   UNL A   1      38.973  28.364  33.008  1.00  0.00    -0.206 F 
ATOM     81  C   UNL A   1      37.028  31.421  33.130  1.00  0.00     0.022 A 
BRANCH  78  82
ATOM     82  S   UNL A   1      37.626  34.127  33.164  1.00  0.00     0.124 S 
ATOM     83  O   UNL A   1      38.652  34.625  32.257  1.00  0.00    -0.237 OA
ATOM     84  O   UNL A   1      36.266  34.114  32.632  1.00  0.00    -0.237 OA
ATOM     85  O   UNL A   1      37.722  34.588  34.548  1.00  0.00    -0.744 OA
ENDBRANCH  78  82
ENDBRANCH  51  75
BRANCH  63  86
ATOM     86  C   UNL A   1      44.356  25.067  33.775  1.00  0.00     0.023 A 
ATOM     87  C   UNL A   1      45.700  24.727  33.986  1.00  0.00     0.031 A 
ATOM     88  C   UNL A   1      43.403  24.220  34.392  1.00  0.00     0.131 A 
ATOM     89  C   UNL A   1      46.056  23.561  34.689  1.00  0.00     0.055 A 
ATOM     90  C   UNL A   1      43.759  23.105  35.156  1.00  0.00     0.041 A 
ATOM     91  F   UNL A   1      42.085  24.442  34.277  1.00  0.00    -0.206 F 
ATOM     92  C   UNL A   1      45.094  22.756  35.294  1.00  0.00     0.022 A 
BRANCH  89  93
ATOM     93  S   UNL A   1      47.803  23.078  34.731  1.00  0.00     0.124 S 
ATOM     94  O   UNL A   1      48.428  24.149  33.959  1.00  0.00    -0.237 OA
ATOM     95  O   UNL A   1      48.093  23.075  36.161  1.00  0.00    -0.237 OA
ATOM     96  O   UNL A   1      47.815  21.764  34.090  1.00  0.00    -0.744 OA
ENDBRANCH  89  93
ENDBRANCH  63  86
ENDBRANCH  37  38
ENDBRANCH  29  32
ENDBRANCH  27  28
ENDBRANCH   1  27
TORSDOF 15
ENDMDL
