MODEL 1
REMARK VINA RESULT:     -11.4      0.000      0.000
REMARK SMILES CC(C)(C)[N@H+](CCC(=O)Nc1ccccc1F)CC(=O)NCCCNC(=O)c1ccc(-c2c3nc(c(-c4cc(S(=O)(=O)[O-])ccc4F)c4ccc([nH]4)c(-c4cc(S(=O)(=O)[O-])ccc4F)c4nc(c(-c5cc(S(=O)(=O)[O-])ccc5F)c5ccc2[nH]5)C=C4)C=C3)cc1
REMARK SMILES IDX 22 1 21 2 19 3 20 4 18 6 5 7 2 9 1 10 3 11 4 12 6 13 7 14
REMARK SMILES IDX 8 15 9 16 10 17 11 19 12 20 16 21 13 22 15 23 17 24 14 25
REMARK SMILES IDX 23 26 24 27 25 28 26 29 27 31 28 32 29 33 90 34 30 35 89 36
REMARK SMILES IDX 31 37 32 38 33 39 83 40 34 41 88 42 82 43 84 44 35 45 87 46
REMARK SMILES IDX 81 47 80 48 36 50 68 51 48 52 67 53 49 54 52 55 66 56 85 57
REMARK SMILES IDX 50 58 51 59 65 61 86 62 53 63 37 64 38 65 46 66 39 67 45 68
REMARK SMILES IDX 47 69 44 70 40 71 41 72 42 73 43 74 69 75 70 76 78 77 71 78
REMARK SMILES IDX 77 79 79 80 76 81 72 82 73 83 74 84 75 85 54 86 55 87 63 88
REMARK SMILES IDX 56 89 62 90 64 91 61 92 57 93 58 94 59 95 60 96
REMARK H PARENT 21 5 5 8 10 18 25 30 84 49 52 60
REMARK Flexibility Score: inf
ROOT
ATOM      1  C   UNL A   1      32.420  28.173  23.187  1.00  0.00     0.118 C 
ENDROOT
BRANCH   1   2
ATOM      2  N   UNL A   1      32.584  27.239  22.093  1.00  0.00    -0.351 N 
ATOM      3  C   UNL A   1      32.948  25.924  22.104  1.00  0.00     0.275 C 
ATOM      4  O   UNL A   1      33.162  25.393  21.010  1.00  0.00    -0.269 OA
ATOM      5  H   UNL A   1      32.403  27.610  21.200  1.00  0.00     0.163 HD
BRANCH   3   6
ATOM      6  C   UNL A   1      32.853  25.082  23.373  1.00  0.00     0.363 C 
BRANCH   6   7
ATOM      7  N   UNL A   1      31.510  24.694  23.864  1.00  0.00    -0.323 N 
ATOM      8  H   UNL A   1      30.828  25.219  23.318  1.00  0.00     0.349 HD
BRANCH   7   9
ATOM      9  C   UNL A   1      31.317  25.070  25.333  1.00  0.00     0.090 C 
ATOM     10  C   UNL A   1      30.766  23.878  26.163  1.00  0.00     0.078 C 
ATOM     11  C   UNL A   1      30.272  26.201  25.482  1.00  0.00     0.078 C 
ATOM     12  C   UNL A   1      32.616  25.530  26.057  1.00  0.00     0.078 C 
ENDBRANCH   7   9
BRANCH   7  13
ATOM     13  C   UNL A   1      31.247  23.236  23.648  1.00  0.00     0.273 C 
BRANCH  13  14
ATOM     14  C   UNL A   1      32.345  22.145  23.567  1.00  0.00     0.161 C 
BRANCH  14  15
ATOM     15  C   UNL A   1      32.672  21.112  24.654  1.00  0.00     0.230 C 
ATOM     16  O   UNL A   1      31.803  20.286  24.969  1.00  0.00    -0.275 OA
ATOM     17  N   UNL A   1      33.876  20.976  25.274  1.00  0.00    -0.323 N 
ATOM     18  H   UNL A   1      33.982  20.146  25.792  1.00  0.00     0.170 HD
BRANCH  17  19
ATOM     19  C   UNL A   1      34.989  21.825  25.292  1.00  0.00     0.077 A 
ATOM     20  C   UNL A   1      35.949  21.666  24.284  1.00  0.00     0.029 A 
ATOM     21  C   UNL A   1      35.153  22.833  26.238  1.00  0.00     0.146 A 
ATOM     22  C   UNL A   1      36.986  22.592  24.160  1.00  0.00     0.002 A 
ATOM     23  C   UNL A   1      36.206  23.735  26.141  1.00  0.00     0.041 A 
ATOM     24  F   UNL A   1      34.287  22.958  27.254  1.00  0.00    -0.205 F 
ATOM     25  C   UNL A   1      37.110  23.631  25.083  1.00  0.00     0.003 A 
ENDBRANCH  17  19
ENDBRANCH  14  15
ENDBRANCH  13  14
ENDBRANCH   7  13
ENDBRANCH   6   7
ENDBRANCH   3   6
ENDBRANCH   1   2
BRANCH   1  26
ATOM     26  C   UNL A   1      33.736  28.796  23.620  1.00  0.00     0.042 C 
BRANCH  26  27
ATOM     27  C   UNL A   1      33.823  28.951  25.127  1.00  0.00     0.118 C 
BRANCH  27  28
ATOM     28  N   UNL A   1      33.128  30.147  25.579  1.00  0.00    -0.352 N 
ATOM     29  C   UNL A   1      33.295  30.819  26.763  1.00  0.00     0.251 C 
ATOM     30  H   UNL A   1      32.459  30.519  24.961  1.00  0.00     0.163 HD
ATOM     31  O   UNL A   1      32.448  31.618  27.142  1.00  0.00    -0.269 OA
BRANCH  29  32
ATOM     32  C   UNL A   1      34.509  30.557  27.560  1.00  0.00     0.039 A 
ATOM     33  C   UNL A   1      35.499  31.535  27.638  1.00  0.00     0.014 A 
ATOM     34  C   UNL A   1      34.664  29.331  28.220  1.00  0.00     0.014 A 
ATOM     35  C   UNL A   1      36.646  31.281  28.389  1.00  0.00     0.010 A 
ATOM     36  C   UNL A   1      35.756  29.122  29.046  1.00  0.00     0.010 A 
ATOM     37  C   UNL A   1      36.777  30.076  29.101  1.00  0.00    -0.014 A 
BRANCH  37  38
ATOM     38  C   UNL A   1      38.018  29.769  29.847  1.00  0.00     0.031 A 
ATOM     39  C   UNL A   1      38.181  30.285  31.251  1.00  0.00     0.074 A 
ATOM     40  C   UNL A   1      38.981  29.040  29.253  1.00  0.00     0.049 A 
ATOM     41  N   UNL A   1      39.178  30.117  32.078  1.00  0.00    -0.248 NA
ATOM     42  C   UNL A   1      37.098  31.129  31.788  1.00  0.00     0.031 C 
ATOM     43  C   UNL A   1      38.930  28.541  27.876  1.00  0.00     0.029 A 
ATOM     44  N   UNL A   1      40.176  28.572  29.732  1.00  0.00    -0.354 N 
ATOM     45  C   UNL A   1      38.846  30.838  33.220  1.00  0.00     0.074 A 
ATOM     46  C   UNL A   1      37.593  31.505  32.956  1.00  0.00     0.031 C 
ATOM     47  C   UNL A   1      40.014  27.784  27.644  1.00  0.00     0.029 A 
ATOM     48  C   UNL A   1      40.852  27.774  28.838  1.00  0.00     0.049 A 
ATOM     49  H   UNL A   1      40.518  28.786  30.629  1.00  0.00     0.167 HD
ATOM     50  C   UNL A   1      39.512  30.904  34.396  1.00  0.00     0.034 A 
ATOM     51  C   UNL A   1      42.010  27.100  28.977  1.00  0.00     0.034 A 
ATOM     52  C   UNL A   1      40.736  30.193  34.647  1.00  0.00     0.049 A 
ATOM     53  C   UNL A   1      42.727  27.177  30.298  1.00  0.00     0.074 A 
ATOM     54  C   UNL A   1      41.474  30.135  35.815  1.00  0.00     0.029 A 
ATOM     55  N   UNL A   1      41.399  29.409  33.712  1.00  0.00    -0.354 N 
ATOM     56  N   UNL A   1      42.386  27.841  31.378  1.00  0.00    -0.248 NA
ATOM     57  C   UNL A   1      43.976  26.416  30.425  1.00  0.00     0.031 C 
ATOM     58  C   UNL A   1      42.612  29.363  35.568  1.00  0.00     0.029 A 
ATOM     59  C   UNL A   1      42.549  28.882  34.269  1.00  0.00     0.049 A 
ATOM     60  H   UNL A   1      41.094  29.251  32.788  1.00  0.00     0.167 HD
ATOM     61  C   UNL A   1      43.367  27.562  32.322  1.00  0.00     0.074 A 
ATOM     62  C   UNL A   1      44.314  26.668  31.684  1.00  0.00     0.031 C 
ATOM     63  C   UNL A   1      43.473  27.998  33.602  1.00  0.00     0.034 A 
BRANCH  50  64
ATOM     64  C   UNL A   1      38.933  31.766  35.488  1.00  0.00     0.023 A 
ATOM     65  C   UNL A   1      38.341  31.204  36.634  1.00  0.00     0.031 A 
ATOM     66  C   UNL A   1      38.988  33.167  35.392  1.00  0.00     0.131 A 
ATOM     67  C   UNL A   1      37.786  32.039  37.615  1.00  0.00     0.055 A 
ATOM     68  C   UNL A   1      38.494  33.993  36.403  1.00  0.00     0.041 A 
ATOM     69  F   UNL A   1      39.524  33.756  34.311  1.00  0.00    -0.206 F 
ATOM     70  C   UNL A   1      37.882  33.430  37.520  1.00  0.00     0.022 A 
BRANCH  67  71
ATOM     71  S   UNL A   1      36.868  31.285  38.983  1.00  0.00     0.124 S 
ATOM     72  O   UNL A   1      35.679  32.132  39.041  1.00  0.00    -0.237 OA
ATOM     73  O   UNL A   1      36.658  29.921  38.512  1.00  0.00    -0.237 OA
ATOM     74  O   UNL A   1      37.777  31.418  40.121  1.00  0.00    -0.744 OA
ENDBRANCH  67  71
ENDBRANCH  50  64
BRANCH  51  75
ATOM     75  C   UNL A   1      42.529  26.282  27.847  1.00  0.00     0.023 A 
ATOM     76  C   UNL A   1      42.078  24.969  27.637  1.00  0.00     0.031 A 
ATOM     77  C   UNL A   1      43.454  26.817  26.934  1.00  0.00     0.131 A 
ATOM     78  C   UNL A   1      42.563  24.230  26.546  1.00  0.00     0.055 A 
ATOM     79  C   UNL A   1      43.905  26.092  25.829  1.00  0.00     0.041 A 
ATOM     80  F   UNL A   1      43.904  28.073  27.082  1.00  0.00    -0.206 F 
ATOM     81  C   UNL A   1      43.463  24.788  25.633  1.00  0.00     0.022 A 
BRANCH  78  82
ATOM     82  S   UNL A   1      42.014  22.513  26.340  1.00  0.00     0.124 S 
ATOM     83  O   UNL A   1      40.569  22.643  26.492  1.00  0.00    -0.237 OA
ATOM     84  O   UNL A   1      42.495  22.198  24.998  1.00  0.00    -0.237 OA
ATOM     85  O   UNL A   1      42.695  21.806  27.423  1.00  0.00    -0.744 OA
ENDBRANCH  78  82
ENDBRANCH  51  75
BRANCH  63  86
ATOM     86  C   UNL A   1      44.635  27.499  34.412  1.00  0.00     0.023 A 
ATOM     87  C   UNL A   1      44.571  26.280  35.104  1.00  0.00     0.031 A 
ATOM     88  C   UNL A   1      45.850  28.207  34.406  1.00  0.00     0.131 A 
ATOM     89  C   UNL A   1      45.706  25.805  35.774  1.00  0.00     0.055 A 
ATOM     90  C   UNL A   1      46.987  27.709  35.039  1.00  0.00     0.041 A 
ATOM     91  F   UNL A   1      45.956  29.372  33.747  1.00  0.00    -0.206 F 
ATOM     92  C   UNL A   1      46.919  26.502  35.729  1.00  0.00     0.022 A 
BRANCH  89  93
ATOM     93  S   UNL A   1      45.581  24.260  36.713  1.00  0.00     0.124 S 
ATOM     94  O   UNL A   1      46.932  23.723  36.591  1.00  0.00    -0.237 OA
ATOM     95  O   UNL A   1      45.199  24.726  38.042  1.00  0.00    -0.237 OA
ATOM     96  O   UNL A   1      44.547  23.509  36.003  1.00  0.00    -0.744 OA
ENDBRANCH  89  93
ENDBRANCH  63  86
ENDBRANCH  37  38
ENDBRANCH  29  32
ENDBRANCH  27  28
ENDBRANCH  26  27
ENDBRANCH   1  26
TORSDOF 19
ENDMDL
MODEL 2
REMARK VINA RESULT:     -11.0      1.878      2.538
REMARK SMILES CC(C)(C)[N@H+](CCC(=O)Nc1ccccc1F)CC(=O)NCCCNC(=O)c1ccc(-c2c3nc(c(-c4cc(S(=O)(=O)[O-])ccc4F)c4ccc([nH]4)c(-c4cc(S(=O)(=O)[O-])ccc4F)c4nc(c(-c5cc(S(=O)(=O)[O-])ccc5F)c5ccc2[nH]5)C=C4)C=C3)cc1
REMARK SMILES IDX 22 1 21 2 19 3 20 4 18 6 5 7 2 9 1 10 3 11 4 12 6 13 7 14
REMARK SMILES IDX 8 15 9 16 10 17 11 19 12 20 16 21 13 22 15 23 17 24 14 25
REMARK SMILES IDX 23 26 24 27 25 28 26 29 27 31 28 32 29 33 90 34 30 35 89 36
REMARK SMILES IDX 31 37 32 38 33 39 83 40 34 41 88 42 82 43 84 44 35 45 87 46
REMARK SMILES IDX 81 47 80 48 36 50 68 51 48 52 67 53 49 54 52 55 66 56 85 57
REMARK SMILES IDX 50 58 51 59 65 61 86 62 53 63 37 64 38 65 46 66 39 67 45 68
REMARK SMILES IDX 47 69 44 70 40 71 41 72 42 73 43 74 69 75 70 76 78 77 71 78
REMARK SMILES IDX 77 79 79 80 76 81 72 82 73 83 74 84 75 85 54 86 55 87 63 88
REMARK SMILES IDX 56 89 62 90 64 91 61 92 57 93 58 94 59 95 60 96
REMARK H PARENT 21 5 5 8 10 18 25 30 84 49 52 60
REMARK Flexibility Score: inf
ROOT
ATOM      1  C   UNL A   1      32.472  28.147  23.897  1.00  0.00     0.118 C 
ENDROOT
BRANCH   1   2
ATOM      2  N   UNL A   1      32.732  27.417  22.674  1.00  0.00    -0.351 N 
ATOM      3  C   UNL A   1      33.308  26.196  22.482  1.00  0.00     0.275 C 
ATOM      4  O   UNL A   1      33.551  25.867  21.317  1.00  0.00    -0.269 OA
ATOM      5  H   UNL A   1      32.447  27.874  21.850  1.00  0.00     0.163 HD
BRANCH   3   6
ATOM      6  C   UNL A   1      33.419  25.181  23.616  1.00  0.00     0.363 C 
BRANCH   6   7
ATOM      7  N   UNL A   1      32.301  24.230  23.824  1.00  0.00    -0.323 N 
ATOM      8  H   UNL A   1      31.612  24.412  23.095  1.00  0.00     0.349 HD
BRANCH   7   9
ATOM      9  C   UNL A   1      31.617  24.451  25.173  1.00  0.00     0.090 C 
ATOM     10  C   UNL A   1      30.376  25.377  25.042  1.00  0.00     0.078 C 
ATOM     11  C   UNL A   1      32.567  25.164  26.166  1.00  0.00     0.078 C 
ATOM     12  C   UNL A   1      31.108  23.149  25.859  1.00  0.00     0.078 C 
ENDBRANCH   7   9
BRANCH   7  13
ATOM     13  C   UNL A   1      32.755  22.811  23.683  1.00  0.00     0.273 C 
BRANCH  13  14
ATOM     14  C   UNL A   1      34.199  22.317  23.954  1.00  0.00     0.161 C 
BRANCH  14  15
ATOM     15  C   UNL A   1      34.686  21.611  25.227  1.00  0.00     0.230 C 
ATOM     16  O   UNL A   1      35.277  22.280  26.088  1.00  0.00    -0.275 OA
ATOM     17  N   UNL A   1      34.472  20.302  25.533  1.00  0.00    -0.323 N 
ATOM     18  H   UNL A   1      34.669  20.058  26.466  1.00  0.00     0.170 HD
BRANCH  17  19
ATOM     19  C   UNL A   1      34.014  19.247  24.735  1.00  0.00     0.077 A 
ATOM     20  C   UNL A   1      32.697  19.309  24.261  1.00  0.00     0.029 A 
ATOM     21  C   UNL A   1      34.821  18.173  24.368  1.00  0.00     0.146 A 
ATOM     22  C   UNL A   1      32.249  18.372  23.329  1.00  0.00     0.002 A 
ATOM     23  C   UNL A   1      34.366  17.215  23.470  1.00  0.00     0.041 A 
ATOM     24  F   UNL A   1      36.060  18.054  24.867  1.00  0.00    -0.205 F 
ATOM     25  C   UNL A   1      33.086  17.330  22.927  1.00  0.00     0.003 A 
ENDBRANCH  17  19
ENDBRANCH  14  15
ENDBRANCH  13  14
ENDBRANCH   7  13
ENDBRANCH   6   7
ENDBRANCH   3   6
ENDBRANCH   1   2
BRANCH   1  26
ATOM     26  C   UNL A   1      33.733  28.752  24.490  1.00  0.00     0.042 C 
BRANCH  26  27
ATOM     27  C   UNL A   1      33.570  29.073  25.964  1.00  0.00     0.118 C 
BRANCH  27  28
ATOM     28  N   UNL A   1      33.238  30.475  26.170  1.00  0.00    -0.352 N 
ATOM     29  C   UNL A   1      33.728  31.323  27.129  1.00  0.00     0.251 C 
ATOM     30  H   UNL A   1      32.583  30.861  25.544  1.00  0.00     0.163 HD
ATOM     31  O   UNL A   1      33.150  32.374  27.376  1.00  0.00    -0.269 OA
BRANCH  29  32
ATOM     32  C   UNL A   1      34.959  30.941  27.849  1.00  0.00     0.039 A 
ATOM     33  C   UNL A   1      35.050  29.672  28.422  1.00  0.00     0.014 A 
ATOM     34  C   UNL A   1      36.016  31.852  27.963  1.00  0.00     0.014 A 
ATOM     35  C   UNL A   1      36.212  29.318  29.104  1.00  0.00     0.010 A 
ATOM     36  C   UNL A   1      37.207  31.461  28.552  1.00  0.00     0.010 A 
ATOM     37  C   UNL A   1      37.299  30.208  29.168  1.00  0.00    -0.014 A 
BRANCH  37  38
ATOM     38  C   UNL A   1      38.511  29.868  29.945  1.00  0.00     0.031 A 
ATOM     39  C   UNL A   1      38.673  30.416  31.336  1.00  0.00     0.074 A 
ATOM     40  C   UNL A   1      39.450  29.079  29.389  1.00  0.00     0.049 A 
ATOM     41  N   UNL A   1      39.648  30.228  32.186  1.00  0.00    -0.248 NA
ATOM     42  C   UNL A   1      37.621  31.323  31.830  1.00  0.00     0.031 C 
ATOM     43  C   UNL A   1      39.401  28.544  28.026  1.00  0.00     0.029 A 
ATOM     44  N   UNL A   1      40.615  28.573  29.903  1.00  0.00    -0.354 N 
ATOM     45  C   UNL A   1      39.328  30.995  33.301  1.00  0.00     0.074 A 
ATOM     46  C   UNL A   1      38.112  31.710  32.996  1.00  0.00     0.031 C 
ATOM     47  C   UNL A   1      40.453  27.732  27.836  1.00  0.00     0.029 A 
ATOM     48  C   UNL A   1      41.270  27.720  29.045  1.00  0.00     0.049 A 
ATOM     49  H   UNL A   1      40.951  28.797  30.800  1.00  0.00     0.167 HD
ATOM     50  C   UNL A   1      39.977  31.066  34.487  1.00  0.00     0.034 A 
ATOM     51  C   UNL A   1      42.394  26.999  29.223  1.00  0.00     0.034 A 
ATOM     52  C   UNL A   1      41.164  30.309  34.780  1.00  0.00     0.049 A 
ATOM     53  C   UNL A   1      43.091  27.082  30.555  1.00  0.00     0.074 A 
ATOM     54  C   UNL A   1      41.878  30.252  35.962  1.00  0.00     0.029 A 
ATOM     55  N   UNL A   1      41.806  29.470  33.879  1.00  0.00    -0.354 N 
ATOM     56  N   UNL A   1      42.761  27.792  31.610  1.00  0.00    -0.248 NA
ATOM     57  C   UNL A   1      44.302  26.271  30.727  1.00  0.00     0.031 C 
ATOM     58  C   UNL A   1      42.984  29.423  35.759  1.00  0.00     0.029 A 
ATOM     59  C   UNL A   1      42.922  28.909  34.472  1.00  0.00     0.049 A 
ATOM     60  H   UNL A   1      41.510  29.299  32.956  1.00  0.00     0.167 HD
ATOM     61  C   UNL A   1      43.713  27.497  32.579  1.00  0.00     0.074 A 
ATOM     62  C   UNL A   1      44.629  26.544  31.984  1.00  0.00     0.031 C 
ATOM     63  C   UNL A   1      43.816  27.965  33.847  1.00  0.00     0.034 A 
BRANCH  50  64
ATOM     64  C   UNL A   1      39.419  31.984  35.543  1.00  0.00     0.023 A 
ATOM     65  C   UNL A   1      39.853  33.317  35.666  1.00  0.00     0.031 A 
ATOM     66  C   UNL A   1      38.428  31.528  36.430  1.00  0.00     0.131 A 
ATOM     67  C   UNL A   1      39.332  34.131  36.681  1.00  0.00     0.055 A 
ATOM     68  C   UNL A   1      37.865  32.363  37.395  1.00  0.00     0.041 A 
ATOM     69  F   UNL A   1      37.992  30.259  36.371  1.00  0.00    -0.206 F 
ATOM     70  C   UNL A   1      38.322  33.672  37.530  1.00  0.00     0.022 A 
BRANCH  67  71
ATOM     71  S   UNL A   1      40.045  35.779  36.929  1.00  0.00     0.124 S 
ATOM     72  O   UNL A   1      39.369  36.211  38.149  1.00  0.00    -0.237 OA
ATOM     73  O   UNL A   1      41.470  35.493  37.054  1.00  0.00    -0.237 OA
ATOM     74  O   UNL A   1      39.660  36.505  35.719  1.00  0.00    -0.744 OA
ENDBRANCH  67  71
ENDBRANCH  50  64
BRANCH  51  75
ATOM     75  C   UNL A   1      42.895  26.126  28.127  1.00  0.00     0.023 A 
ATOM     76  C   UNL A   1      42.449  24.802  27.995  1.00  0.00     0.031 A 
ATOM     77  C   UNL A   1      43.796  26.619  27.167  1.00  0.00     0.131 A 
ATOM     78  C   UNL A   1      42.916  24.010  26.934  1.00  0.00     0.055 A 
ATOM     79  C   UNL A   1      44.229  25.840  26.092  1.00  0.00     0.041 A 
ATOM     80  F   UNL A   1      44.240  27.884  27.240  1.00  0.00    -0.206 F 
ATOM     81  C   UNL A   1      43.792  24.525  25.975  1.00  0.00     0.022 A 
BRANCH  78  82
ATOM     82  S   UNL A   1      42.376  22.282  26.830  1.00  0.00     0.124 S 
ATOM     83  O   UNL A   1      43.350  21.721  25.900  1.00  0.00    -0.237 OA
ATOM     84  O   UNL A   1      42.484  21.843  28.218  1.00  0.00    -0.237 OA
ATOM     85  O   UNL A   1      41.010  22.381  26.317  1.00  0.00    -0.744 OA
ENDBRANCH  78  82
ENDBRANCH  51  75
BRANCH  63  86
ATOM     86  C   UNL A   1      44.941  27.439  34.693  1.00  0.00     0.023 A 
ATOM     87  C   UNL A   1      44.797  26.265  35.448  1.00  0.00     0.031 A 
ATOM     88  C   UNL A   1      46.198  28.067  34.658  1.00  0.00     0.131 A 
ATOM     89  C   UNL A   1      45.896  25.756  36.152  1.00  0.00     0.055 A 
ATOM     90  C   UNL A   1      47.298  27.535  35.327  1.00  0.00     0.041 A 
ATOM     91  F   UNL A   1      46.380  29.187  33.940  1.00  0.00    -0.206 F 
ATOM     92  C   UNL A   1      47.151  26.372  36.080  1.00  0.00     0.022 A 
BRANCH  89  93
ATOM     93  S   UNL A   1      45.670  24.275  37.171  1.00  0.00     0.124 S 
ATOM     94  O   UNL A   1      44.884  23.420  36.288  1.00  0.00    -0.237 OA
ATOM     95  O   UNL A   1      47.043  23.845  37.416  1.00  0.00    -0.237 OA
ATOM     96  O   UNL A   1      44.960  24.773  38.347  1.00  0.00    -0.744 OA
ENDBRANCH  89  93
ENDBRANCH  63  86
ENDBRANCH  37  38
ENDBRANCH  29  32
ENDBRANCH  27  28
ENDBRANCH  26  27
ENDBRANCH   1  26
TORSDOF 19
ENDMDL
MODEL 3
REMARK VINA RESULT:     -11.0      4.753      9.356
REMARK SMILES CC(C)(C)[N@H+](CCC(=O)Nc1ccccc1F)CC(=O)NCCCNC(=O)c1ccc(-c2c3nc(c(-c4cc(S(=O)(=O)[O-])ccc4F)c4ccc([nH]4)c(-c4cc(S(=O)(=O)[O-])ccc4F)c4nc(c(-c5cc(S(=O)(=O)[O-])ccc5F)c5ccc2[nH]5)C=C4)C=C3)cc1
REMARK SMILES IDX 22 1 21 2 19 3 20 4 18 6 5 7 2 9 1 10 3 11 4 12 6 13 7 14
REMARK SMILES IDX 8 15 9 16 10 17 11 19 12 20 16 21 13 22 15 23 17 24 14 25
REMARK SMILES IDX 23 26 24 27 25 28 26 29 27 31 28 32 29 33 90 34 30 35 89 36
REMARK SMILES IDX 31 37 32 38 33 39 83 40 34 41 88 42 82 43 84 44 35 45 87 46
REMARK SMILES IDX 81 47 80 48 36 50 68 51 48 52 67 53 49 54 52 55 66 56 85 57
REMARK SMILES IDX 50 58 51 59 65 61 86 62 53 63 37 64 38 65 46 66 39 67 45 68
REMARK SMILES IDX 47 69 44 70 40 71 41 72 42 73 43 74 69 75 70 76 78 77 71 78
REMARK SMILES IDX 77 79 79 80 76 81 72 82 73 83 74 84 75 85 54 86 55 87 63 88
REMARK SMILES IDX 56 89 62 90 64 91 61 92 57 93 58 94 59 95 60 96
REMARK H PARENT 21 5 5 8 10 18 25 30 84 49 52 60
REMARK Flexibility Score: inf
ROOT
ATOM      1  C   UNL A   1      34.829  22.860  24.200  1.00  0.00     0.118 C 
ENDROOT
BRANCH   1   2
ATOM      2  N   UNL A   1      34.798  24.074  23.411  1.00  0.00    -0.351 N 
ATOM      3  C   UNL A   1      33.750  24.705  22.808  1.00  0.00     0.275 C 
ATOM      4  O   UNL A   1      34.021  25.651  22.061  1.00  0.00    -0.269 OA
ATOM      5  H   UNL A   1      35.670  24.513  23.290  1.00  0.00     0.163 HD
BRANCH   3   6
ATOM      6  C   UNL A   1      32.308  24.430  23.223  1.00  0.00     0.363 C 
BRANCH   6   7
ATOM      7  N   UNL A   1      31.617  25.424  24.077  1.00  0.00    -0.323 N 
ATOM      8  H   UNL A   1      32.274  26.186  24.243  1.00  0.00     0.349 HD
BRANCH   7   9
ATOM      9  C   UNL A   1      31.240  24.833  25.436  1.00  0.00     0.090 C 
ATOM     10  C   UNL A   1      32.384  25.006  26.473  1.00  0.00     0.078 C 
ATOM     11  C   UNL A   1      30.998  23.309  25.330  1.00  0.00     0.078 C 
ATOM     12  C   UNL A   1      29.975  25.467  26.086  1.00  0.00     0.078 C 
ENDBRANCH   7   9
BRANCH   7  13
ATOM     13  C   UNL A   1      30.414  25.994  23.392  1.00  0.00     0.273 C 
BRANCH  13  14
ATOM     14  C   UNL A   1      29.960  27.472  23.496  1.00  0.00     0.161 C 
BRANCH  14  15
ATOM     15  C   UNL A   1      30.700  28.686  22.916  1.00  0.00     0.230 C 
ATOM     16  O   UNL A   1      30.413  29.065  21.771  1.00  0.00    -0.275 OA
ATOM     17  N   UNL A   1      31.618  29.439  23.581  1.00  0.00    -0.323 N 
ATOM     18  H   UNL A   1      31.846  30.292  23.145  1.00  0.00     0.170 HD
BRANCH  17  19
ATOM     19  C   UNL A   1      32.291  29.196  24.784  1.00  0.00     0.077 A 
ATOM     20  C   UNL A   1      31.668  29.596  25.973  1.00  0.00     0.029 A 
ATOM     21  C   UNL A   1      33.521  28.547  24.843  1.00  0.00     0.146 A 
ATOM     22  C   UNL A   1      32.216  29.228  27.203  1.00  0.00     0.002 A 
ATOM     23  C   UNL A   1      34.091  28.212  26.066  1.00  0.00     0.041 A 
ATOM     24  F   UNL A   1      34.171  28.220  23.717  1.00  0.00    -0.205 F 
ATOM     25  C   UNL A   1      33.423  28.529  27.250  1.00  0.00     0.003 A 
ENDBRANCH  17  19
ENDBRANCH  14  15
ENDBRANCH  13  14
ENDBRANCH   7  13
ENDBRANCH   6   7
ENDBRANCH   3   6
ENDBRANCH   1   2
BRANCH   1  26
ATOM     26  C   UNL A   1      35.372  23.094  25.600  1.00  0.00     0.042 C 
BRANCH  26  27
ATOM     27  C   UNL A   1      36.797  23.616  25.577  1.00  0.00     0.118 C 
BRANCH  27  28
ATOM     28  N   UNL A   1      37.745  22.590  25.985  1.00  0.00    -0.352 N 
ATOM     29  C   UNL A   1      39.021  22.766  26.458  1.00  0.00     0.251 C 
ATOM     30  H   UNL A   1      37.435  21.659  25.914  1.00  0.00     0.163 HD
ATOM     31  O   UNL A   1      39.805  21.826  26.477  1.00  0.00    -0.269 OA
BRANCH  29  32
ATOM     32  C   UNL A   1      39.420  24.103  26.939  1.00  0.00     0.039 A 
ATOM     33  C   UNL A   1      39.993  25.008  26.045  1.00  0.00     0.014 A 
ATOM     34  C   UNL A   1      39.233  24.449  28.283  1.00  0.00     0.014 A 
ATOM     35  C   UNL A   1      40.372  26.267  26.506  1.00  0.00     0.010 A 
ATOM     36  C   UNL A   1      39.516  25.735  28.713  1.00  0.00     0.010 A 
ATOM     37  C   UNL A   1      40.130  26.640  27.840  1.00  0.00    -0.014 A 
BRANCH  37  38
ATOM     38  C   UNL A   1      40.587  27.949  28.355  1.00  0.00     0.031 A 
ATOM     39  C   UNL A   1      42.054  28.280  28.330  1.00  0.00     0.074 A 
ATOM     40  C   UNL A   1      39.682  28.818  28.843  1.00  0.00     0.049 A 
ATOM     41  N   UNL A   1      42.658  29.372  28.718  1.00  0.00    -0.248 NA
ATOM     42  C   UNL A   1      42.972  27.237  27.836  1.00  0.00     0.031 C 
ATOM     43  C   UNL A   1      38.243  28.561  28.955  1.00  0.00     0.029 A 
ATOM     44  N   UNL A   1      39.828  30.095  29.317  1.00  0.00    -0.354 N 
ATOM     45  C   UNL A   1      44.016  29.141  28.522  1.00  0.00     0.074 A 
ATOM     46  C   UNL A   1      44.157  27.784  28.054  1.00  0.00     0.031 C 
ATOM     47  C   UNL A   1      37.633  29.670  29.402  1.00  0.00     0.029 A 
ATOM     48  C   UNL A   1      38.638  30.700  29.646  1.00  0.00     0.049 A 
ATOM     49  H   UNL A   1      40.702  30.537  29.412  1.00  0.00     0.167 HD
ATOM     50  C   UNL A   1      45.047  30.002  28.687  1.00  0.00     0.034 A 
ATOM     51  C   UNL A   1      38.387  31.950  30.080  1.00  0.00     0.034 A 
ATOM     52  C   UNL A   1      44.874  31.364  29.114  1.00  0.00     0.049 A 
ATOM     53  C   UNL A   1      39.548  32.895  30.242  1.00  0.00     0.074 A 
ATOM     54  C   UNL A   1      45.833  32.348  29.262  1.00  0.00     0.029 A 
ATOM     55  N   UNL A   1      43.654  31.935  29.453  1.00  0.00    -0.354 N 
ATOM     56  N   UNL A   1      40.824  32.671  30.027  1.00  0.00    -0.248 NA
ATOM     57  C   UNL A   1      39.242  34.257  30.698  1.00  0.00     0.031 C 
ATOM     58  C   UNL A   1      45.201  33.497  29.747  1.00  0.00     0.029 A 
ATOM     59  C   UNL A   1      43.839  33.251  29.834  1.00  0.00     0.049 A 
ATOM     60  H   UNL A   1      42.785  31.471  29.427  1.00  0.00     0.167 HD
ATOM     61  C   UNL A   1      41.472  33.869  30.301  1.00  0.00     0.074 A 
ATOM     62  C   UNL A   1      40.447  34.815  30.697  1.00  0.00     0.031 C 
ATOM     63  C   UNL A   1      42.794  34.164  30.226  1.00  0.00     0.034 A 
BRANCH  50  64
ATOM     64  C   UNL A   1      46.439  29.499  28.405  1.00  0.00     0.023 A 
ATOM     65  C   UNL A   1      47.230  28.917  29.412  1.00  0.00     0.031 A 
ATOM     66  C   UNL A   1      46.977  29.586  27.109  1.00  0.00     0.131 A 
ATOM     67  C   UNL A   1      48.532  28.487  29.117  1.00  0.00     0.055 A 
ATOM     68  C   UNL A   1      48.249  29.097  26.807  1.00  0.00     0.041 A 
ATOM     69  F   UNL A   1      46.274  30.152  26.115  1.00  0.00    -0.206 F 
ATOM     70  C   UNL A   1      49.037  28.549  27.816  1.00  0.00     0.022 A 
BRANCH  67  71
ATOM     71  S   UNL A   1      49.588  27.915  30.474  1.00  0.00     0.124 S 
ATOM     72  O   UNL A   1      49.348  26.475  30.445  1.00  0.00    -0.237 OA
ATOM     73  O   UNL A   1      50.914  28.350  30.051  1.00  0.00    -0.237 OA
ATOM     74  O   UNL A   1      49.049  28.607  31.644  1.00  0.00    -0.744 OA
ENDBRANCH  67  71
ENDBRANCH  50  64
BRANCH  51  75
ATOM     75  C   UNL A   1      36.986  32.372  30.354  1.00  0.00     0.023 A 
ATOM     76  C   UNL A   1      36.156  32.838  29.323  1.00  0.00     0.031 A 
ATOM     77  C   UNL A   1      36.444  32.273  31.647  1.00  0.00     0.131 A 
ATOM     78  C   UNL A   1      34.829  33.201  29.605  1.00  0.00     0.055 A 
ATOM     79  C   UNL A   1      35.113  32.599  31.916  1.00  0.00     0.041 A 
ATOM     80  F   UNL A   1      37.193  31.818  32.664  1.00  0.00    -0.206 F 
ATOM     81  C   UNL A   1      34.299  33.071  30.892  1.00  0.00     0.022 A 
BRANCH  78  82
ATOM     82  S   UNL A   1      33.801  33.865  28.267  1.00  0.00     0.124 S 
ATOM     83  O   UNL A   1      33.256  32.647  27.678  1.00  0.00    -0.237 OA
ATOM     84  O   UNL A   1      32.856  34.706  28.995  1.00  0.00    -0.237 OA
ATOM     85  O   UNL A   1      34.756  34.589  27.430  1.00  0.00    -0.744 OA
ENDBRANCH  78  82
ENDBRANCH  51  75
BRANCH  63  86
ATOM     86  C   UNL A   1      43.212  35.569  30.551  1.00  0.00     0.023 A 
ATOM     87  C   UNL A   1      43.510  35.955  31.867  1.00  0.00     0.031 A 
ATOM     88  C   UNL A   1      43.409  36.500  29.515  1.00  0.00     0.131 A 
ATOM     89  C   UNL A   1      43.983  37.250  32.117  1.00  0.00     0.055 A 
ATOM     90  C   UNL A   1      43.919  37.772  29.765  1.00  0.00     0.041 A 
ATOM     91  F   UNL A   1      43.145  36.167  28.241  1.00  0.00    -0.206 F 
ATOM     92  C   UNL A   1      44.209  38.154  31.073  1.00  0.00     0.022 A 
BRANCH  89  93
ATOM     93  S   UNL A   1      44.301  37.746  33.831  1.00  0.00     0.124 S 
ATOM     94  O   UNL A   1      45.500  36.978  34.149  1.00  0.00    -0.237 OA
ATOM     95  O   UNL A   1      44.482  39.189  33.716  1.00  0.00    -0.237 OA
ATOM     96  O   UNL A   1      43.091  37.331  34.538  1.00  0.00    -0.744 OA
ENDBRANCH  89  93
ENDBRANCH  63  86
ENDBRANCH  37  38
ENDBRANCH  29  32
ENDBRANCH  27  28
ENDBRANCH  26  27
ENDBRANCH   1  26
TORSDOF 19
ENDMDL
