MODEL 1
REMARK VINA RESULT:     -12.2      0.000      0.000
REMARK SMILES COCCN1C(=O)C[C@H](C(=O)NCCCNC(=O)c2ccc(-c3c4nc(c(-c5cc(S(=O)(=O)[O-])ccc5F)c5ccc([nH]5)c(-c5cc(S(=O)(=O)[O-])ccc5F)c5nc(c(-c6cc(S(=O)(=O)[O-])ccc6F)c6ccc3[nH]6)C=C5)C=C4)cc2)[C@@H]1c1ccccc1N1CCOCC1
REMARK SMILES IDX 14 1 13 2 12 3 10 4 11 5 9 7 5 8 6 9 82 10 7 11 8 12 4 13
REMARK SMILES IDX 3 14 2 15 1 16 83 17 84 18 88 19 85 20 87 21 86 22 89 23
REMARK SMILES IDX 90 24 94 25 91 26 93 27 92 28 15 29 16 30 17 31 18 33 19 34
REMARK SMILES IDX 20 35 81 36 21 37 80 38 22 39 23 40 24 41 74 42 25 43 79 44
REMARK SMILES IDX 73 45 75 46 26 47 78 48 72 49 71 50 27 52 59 53 39 54 58 55
REMARK SMILES IDX 40 56 43 57 57 58 76 59 41 60 42 61 56 63 77 64 44 65 28 66
REMARK SMILES IDX 29 67 37 68 30 69 36 70 38 71 35 72 31 73 32 74 33 75 34 76
REMARK SMILES IDX 60 77 61 78 69 79 62 80 68 81 70 82 67 83 63 84 64 85 65 86
REMARK SMILES IDX 66 87 45 88 46 89 54 90 47 91 53 92 55 93 52 94 48 95 49 96
REMARK SMILES IDX 50 97 51 98
REMARK H PARENT 12 6 16 32 75 51 43 62
REMARK Flexibility Score: inf
ROOT
ATOM      1  C   UNL A   1      31.442  32.090  26.779  1.00  0.00     0.042 C 
ENDROOT
BRANCH   1   2
ATOM      2  C   UNL A   1      31.651  30.798  26.034  1.00  0.00     0.117 C 
BRANCH   2   3
ATOM      3  N   UNL A   1      31.489  29.640  26.887  1.00  0.00    -0.356 N 
ATOM      4  C   UNL A   1      32.072  28.424  26.803  1.00  0.00     0.226 C 
ATOM      5  O   UNL A   1      31.776  27.589  27.663  1.00  0.00    -0.275 OA
ATOM      6  H   UNL A   1      30.861  29.756  27.638  1.00  0.00     0.163 HD
BRANCH   4   7
ATOM      7  C   UNL A   1      32.936  28.015  25.641  1.00  0.00     0.115 C 
ATOM      8  N   UNL A   1      33.231  26.901  23.608  1.00  0.00    -0.332 N 
ATOM      9  C   UNL A   1      33.810  26.079  24.561  1.00  0.00     0.224 C 
ATOM     10  C   UNL A   1      32.440  28.005  24.181  1.00  0.00     0.130 C 
ATOM     11  O   UNL A   1      34.452  25.060  24.352  1.00  0.00    -0.275 OA
ATOM     12  C   UNL A   1      33.575  26.656  25.919  1.00  0.00     0.116 C 
BRANCH   8  13
ATOM     13  C   UNL A   1      33.524  26.732  22.184  1.00  0.00     0.148 C 
BRANCH  13  14
ATOM     14  C   UNL A   1      32.540  25.845  21.410  1.00  0.00     0.181 C 
BRANCH  14  15
ATOM     15  O   UNL A   1      33.064  25.287  20.204  1.00  0.00    -0.383 OA
ATOM     16  C   UNL A   1      32.209  25.414  19.079  1.00  0.00     0.194 C 
ENDBRANCH  14  15
ENDBRANCH  13  14
ENDBRANCH   8  13
BRANCH  10  17
ATOM     17  C   UNL A   1      30.953  28.010  23.818  1.00  0.00    -0.001 A 
ATOM     18  C   UNL A   1      30.388  29.137  23.167  1.00  0.00     0.008 A 
ATOM     19  C   UNL A   1      30.105  26.893  24.070  1.00  0.00     0.042 A 
ATOM     20  C   UNL A   1      29.044  29.187  22.793  1.00  0.00     0.001 A 
ATOM     21  C   UNL A   1      28.745  26.984  23.692  1.00  0.00     0.026 A 
ATOM     22  C   UNL A   1      28.219  28.111  23.059  1.00  0.00     0.002 A 
BRANCH  19  23
ATOM     23  N   UNL A   1      30.598  25.691  24.581  1.00  0.00    -0.367 N 
ATOM     24  C   UNL A   1      30.269  25.326  25.967  1.00  0.00     0.145 C 
ATOM     25  C   UNL A   1      30.637  24.503  23.688  1.00  0.00     0.145 C 
ATOM     26  C   UNL A   1      31.282  24.273  26.446  1.00  0.00     0.181 C 
ATOM     27  C   UNL A   1      31.537  23.398  24.270  1.00  0.00     0.181 C 
ATOM     28  O   UNL A   1      31.203  23.089  25.635  1.00  0.00    -0.378 OA
ENDBRANCH  19  23
ENDBRANCH  10  17
ENDBRANCH   4   7
ENDBRANCH   2   3
ENDBRANCH   1   2
BRANCH   1  29
ATOM     29  C   UNL A   1      32.769  32.675  27.220  1.00  0.00     0.118 C 
BRANCH  29  30
ATOM     30  N   UNL A   1      32.645  34.052  27.697  1.00  0.00    -0.352 N 
ATOM     31  C   UNL A   1      33.343  34.681  28.701  1.00  0.00     0.251 C 
ATOM     32  H   UNL A   1      31.971  34.603  27.236  1.00  0.00     0.163 HD
ATOM     33  O   UNL A   1      32.989  35.782  29.108  1.00  0.00    -0.269 OA
BRANCH  31  34
ATOM     34  C   UNL A   1      34.497  33.981  29.296  1.00  0.00     0.039 A 
ATOM     35  C   UNL A   1      35.790  34.440  29.047  1.00  0.00     0.014 A 
ATOM     36  C   UNL A   1      34.279  32.922  30.181  1.00  0.00     0.014 A 
ATOM     37  C   UNL A   1      36.860  33.874  29.743  1.00  0.00     0.010 A 
ATOM     38  C   UNL A   1      35.318  32.474  30.978  1.00  0.00     0.010 A 
ATOM     39  C   UNL A   1      36.627  32.913  30.742  1.00  0.00    -0.014 A 
BRANCH  39  40
ATOM     40  C   UNL A   1      37.740  32.283  31.497  1.00  0.00     0.031 A 
ATOM     41  C   UNL A   1      38.510  31.153  30.858  1.00  0.00     0.074 A 
ATOM     42  C   UNL A   1      38.016  32.674  32.756  1.00  0.00     0.049 A 
ATOM     43  N   UNL A   1      39.451  30.400  31.361  1.00  0.00    -0.248 NA
ATOM     44  C   UNL A   1      38.127  30.788  29.483  1.00  0.00     0.031 C 
ATOM     45  C   UNL A   1      37.299  33.712  33.502  1.00  0.00     0.029 A 
ATOM     46  N   UNL A   1      38.977  32.243  33.634  1.00  0.00    -0.354 N 
ATOM     47  C   UNL A   1      39.747  29.460  30.378  1.00  0.00     0.074 A 
ATOM     48  C   UNL A   1      38.818  29.677  29.294  1.00  0.00     0.031 C 
ATOM     49  C   UNL A   1      37.876  33.866  34.705  1.00  0.00     0.029 A 
ATOM     50  C   UNL A   1      38.971  32.912  34.836  1.00  0.00     0.049 A 
ATOM     51  H   UNL A   1      39.613  31.521  33.424  1.00  0.00     0.167 HD
ATOM     52  C   UNL A   1      40.732  28.529  30.359  1.00  0.00     0.034 A 
ATOM     53  C   UNL A   1      39.764  32.770  35.917  1.00  0.00     0.034 A 
ATOM     54  C   UNL A   1      41.675  28.358  31.435  1.00  0.00     0.049 A 
ATOM     55  C   UNL A   1      40.870  31.745  35.867  1.00  0.00     0.074 A 
ATOM     56  C   UNL A   1      42.746  27.486  31.514  1.00  0.00     0.029 A 
ATOM     57  N   UNL A   1      41.663  29.081  32.621  1.00  0.00    -0.354 N 
ATOM     58  N   UNL A   1      41.170  30.895  34.909  1.00  0.00    -0.248 NA
ATOM     59  C   UNL A   1      41.759  31.678  37.032  1.00  0.00     0.031 C 
ATOM     60  C   UNL A   1      43.342  27.640  32.771  1.00  0.00     0.029 A 
ATOM     61  C   UNL A   1      42.697  28.666  33.443  1.00  0.00     0.049 A 
ATOM     62  H   UNL A   1      41.013  29.787  32.844  1.00  0.00     0.167 HD
ATOM     63  C   UNL A   1      42.311  30.223  35.344  1.00  0.00     0.074 A 
ATOM     64  C   UNL A   1      42.649  30.781  36.637  1.00  0.00     0.031 C 
ATOM     65  C   UNL A   1      43.017  29.237  34.731  1.00  0.00     0.034 A 
BRANCH  52  66
ATOM     66  C   UNL A   1      40.817  27.634  29.143  1.00  0.00     0.023 A 
ATOM     67  C   UNL A   1      41.771  27.849  28.131  1.00  0.00     0.031 A 
ATOM     68  C   UNL A   1      39.897  26.588  28.963  1.00  0.00     0.131 A 
ATOM     69  C   UNL A   1      41.722  27.097  26.948  1.00  0.00     0.055 A 
ATOM     70  C   UNL A   1      39.916  25.778  27.824  1.00  0.00     0.041 A 
ATOM     71  F   UNL A   1      38.946  26.346  29.878  1.00  0.00    -0.206 F 
ATOM     72  C   UNL A   1      40.820  26.043  26.799  1.00  0.00     0.022 A 
BRANCH  69  73
ATOM     73  S   UNL A   1      42.740  27.629  25.543  1.00  0.00     0.124 S 
ATOM     74  O   UNL A   1      44.012  27.927  26.198  1.00  0.00    -0.237 OA
ATOM     75  O   UNL A   1      42.726  26.455  24.679  1.00  0.00    -0.237 OA
ATOM     76  O   UNL A   1      42.028  28.795  25.025  1.00  0.00    -0.744 OA
ENDBRANCH  69  73
ENDBRANCH  52  66
BRANCH  53  77
ATOM     77  C   UNL A   1      39.565  33.621  37.125  1.00  0.00     0.023 A 
ATOM     78  C   UNL A   1      38.925  33.115  38.269  1.00  0.00     0.031 A 
ATOM     79  C   UNL A   1      39.968  34.968  37.141  1.00  0.00     0.131 A 
ATOM     80  C   UNL A   1      38.654  33.963  39.355  1.00  0.00     0.055 A 
ATOM     81  C   UNL A   1      39.747  35.793  38.246  1.00  0.00     0.041 A 
ATOM     82  F   UNL A   1      40.593  35.501  36.079  1.00  0.00    -0.206 F 
ATOM     83  C   UNL A   1      39.072  35.295  39.356  1.00  0.00     0.022 A 
BRANCH  80  84
ATOM     84  S   UNL A   1      37.661  33.321  40.731  1.00  0.00     0.124 S 
ATOM     85  O   UNL A   1      36.380  33.072  40.082  1.00  0.00    -0.237 OA
ATOM     86  O   UNL A   1      38.421  32.139  41.126  1.00  0.00    -0.237 OA
ATOM     87  O   UNL A   1      37.671  34.417  41.697  1.00  0.00    -0.744 OA
ENDBRANCH  80  84
ENDBRANCH  53  77
BRANCH  65  88
ATOM     88  C   UNL A   1      44.264  28.754  35.432  1.00  0.00     0.023 A 
ATOM     89  C   UNL A   1      44.234  27.696  36.357  1.00  0.00     0.031 A 
ATOM     90  C   UNL A   1      45.496  29.388  35.194  1.00  0.00     0.131 A 
ATOM     91  C   UNL A   1      45.394  27.358  37.069  1.00  0.00     0.055 A 
ATOM     92  C   UNL A   1      46.664  28.998  35.850  1.00  0.00     0.041 A 
ATOM     93  F   UNL A   1      45.585  30.405  34.321  1.00  0.00    -0.206 F 
ATOM     94  C   UNL A   1      46.613  27.990  36.808  1.00  0.00     0.022 A 
BRANCH  91  95
ATOM     95  S   UNL A   1      45.259  26.175  38.437  1.00  0.00     0.124 S 
ATOM     96  O   UNL A   1      44.667  25.015  37.777  1.00  0.00    -0.237 OA
ATOM     97  O   UNL A   1      46.648  26.028  38.858  1.00  0.00    -0.237 OA
ATOM     98  O   UNL A   1      44.389  26.856  39.393  1.00  0.00    -0.744 OA
ENDBRANCH  91  95
ENDBRANCH  65  88
ENDBRANCH  39  40
ENDBRANCH  31  34
ENDBRANCH  29  30
ENDBRANCH   1  29
TORSDOF 18
ENDMDL
MODEL 2
REMARK VINA RESULT:     -11.9      0.819      7.598
REMARK SMILES COCCN1C(=O)C[C@H](C(=O)NCCCNC(=O)c2ccc(-c3c4nc(c(-c5cc(S(=O)(=O)[O-])ccc5F)c5ccc([nH]5)c(-c5cc(S(=O)(=O)[O-])ccc5F)c5nc(c(-c6cc(S(=O)(=O)[O-])ccc6F)c6ccc3[nH]6)C=C5)C=C4)cc2)[C@@H]1c1ccccc1N1CCOCC1
REMARK SMILES IDX 14 1 13 2 12 3 10 4 11 5 9 7 5 8 6 9 82 10 7 11 8 12 4 13
REMARK SMILES IDX 3 14 2 15 1 16 83 17 84 18 88 19 85 20 87 21 86 22 89 23
REMARK SMILES IDX 90 24 94 25 91 26 93 27 92 28 15 29 16 30 17 31 18 33 19 34
REMARK SMILES IDX 20 35 81 36 21 37 80 38 22 39 23 40 24 41 74 42 25 43 79 44
REMARK SMILES IDX 73 45 75 46 26 47 78 48 72 49 71 50 27 52 59 53 39 54 58 55
REMARK SMILES IDX 40 56 43 57 57 58 76 59 41 60 42 61 56 63 77 64 44 65 28 66
REMARK SMILES IDX 29 67 37 68 30 69 36 70 38 71 35 72 31 73 32 74 33 75 34 76
REMARK SMILES IDX 60 77 61 78 69 79 62 80 68 81 70 82 67 83 63 84 64 85 65 86
REMARK SMILES IDX 66 87 45 88 46 89 54 90 47 91 53 92 55 93 52 94 48 95 49 96
REMARK SMILES IDX 50 97 51 98
REMARK H PARENT 12 6 16 32 75 51 43 62
REMARK Flexibility Score: inf
ROOT
ATOM      1  C   UNL A   1      31.827  32.056  27.065  1.00  0.00     0.042 C 
ENDROOT
BRANCH   1   2
ATOM      2  C   UNL A   1      32.227  30.771  26.388  1.00  0.00     0.117 C 
BRANCH   2   3
ATOM      3  N   UNL A   1      31.726  29.606  27.084  1.00  0.00    -0.356 N 
ATOM      4  C   UNL A   1      32.028  28.301  26.902  1.00  0.00     0.226 C 
ATOM      5  O   UNL A   1      31.468  27.479  27.633  1.00  0.00    -0.275 OA
ATOM      6  H   UNL A   1      31.069  29.791  27.795  1.00  0.00     0.163 HD
BRANCH   4   7
ATOM      7  C   UNL A   1      32.889  27.817  25.767  1.00  0.00     0.115 C 
ATOM      8  N   UNL A   1      33.148  26.694  23.734  1.00  0.00    -0.332 N 
ATOM      9  C   UNL A   1      33.608  25.812  24.698  1.00  0.00     0.224 C 
ATOM     10  C   UNL A   1      32.449  27.867  24.290  1.00  0.00     0.130 C 
ATOM     11  O   UNL A   1      34.153  24.736  24.501  1.00  0.00    -0.275 OA
ATOM     12  C   UNL A   1      33.381  26.400  26.053  1.00  0.00     0.116 C 
BRANCH   8  13
ATOM     13  C   UNL A   1      33.475  26.508  22.319  1.00  0.00     0.148 C 
BRANCH  13  14
ATOM     14  C   UNL A   1      32.696  25.396  21.605  1.00  0.00     0.181 C 
BRANCH  14  15
ATOM     15  O   UNL A   1      33.497  24.297  21.168  1.00  0.00    -0.383 OA
ATOM     16  C   UNL A   1      33.035  23.027  21.602  1.00  0.00     0.194 C 
ENDBRANCH  14  15
ENDBRANCH  13  14
ENDBRANCH   8  13
BRANCH  10  17
ATOM     17  C   UNL A   1      30.985  28.022  23.874  1.00  0.00    -0.001 A 
ATOM     18  C   UNL A   1      30.558  29.205  23.216  1.00  0.00     0.008 A 
ATOM     19  C   UNL A   1      30.022  26.992  24.082  1.00  0.00     0.042 A 
ATOM     20  C   UNL A   1      29.240  29.391  22.795  1.00  0.00     0.001 A 
ATOM     21  C   UNL A   1      28.692  27.220  23.656  1.00  0.00     0.026 A 
ATOM     22  C   UNL A   1      28.304  28.398  23.018  1.00  0.00     0.002 A 
BRANCH  19  23
ATOM     23  N   UNL A   1      30.376  25.743  24.595  1.00  0.00    -0.367 N 
ATOM     24  C   UNL A   1      29.949  25.395  25.959  1.00  0.00     0.145 C 
ATOM     25  C   UNL A   1      30.343  24.567  23.686  1.00  0.00     0.145 C 
ATOM     26  C   UNL A   1      30.835  24.245  26.466  1.00  0.00     0.181 C 
ATOM     27  C   UNL A   1      31.108  23.375  24.290  1.00  0.00     0.181 C 
ATOM     28  O   UNL A   1      30.682  23.084  25.633  1.00  0.00    -0.378 OA
ENDBRANCH  19  23
ENDBRANCH  10  17
ENDBRANCH   4   7
ENDBRANCH   2   3
ENDBRANCH   1   2
BRANCH   1  29
ATOM     29  C   UNL A   1      33.053  32.843  27.488  1.00  0.00     0.118 C 
BRANCH  29  30
ATOM     30  N   UNL A   1      32.721  34.182  27.971  1.00  0.00    -0.352 N 
ATOM     31  C   UNL A   1      33.242  34.863  29.047  1.00  0.00     0.251 C 
ATOM     32  H   UNL A   1      32.032  34.662  27.457  1.00  0.00     0.163 HD
ATOM     33  O   UNL A   1      32.722  35.903  29.435  1.00  0.00    -0.269 OA
BRANCH  31  34
ATOM     34  C   UNL A   1      34.411  34.288  29.739  1.00  0.00     0.039 A 
ATOM     35  C   UNL A   1      34.223  33.421  30.814  1.00  0.00     0.014 A 
ATOM     36  C   UNL A   1      35.695  34.542  29.249  1.00  0.00     0.014 A 
ATOM     37  C   UNL A   1      35.325  32.757  31.355  1.00  0.00     0.010 A 
ATOM     38  C   UNL A   1      36.756  33.767  29.683  1.00  0.00     0.010 A 
ATOM     39  C   UNL A   1      36.595  32.895  30.769  1.00  0.00    -0.014 A 
BRANCH  39  40
ATOM     40  C   UNL A   1      37.792  32.212  31.320  1.00  0.00     0.031 A 
ATOM     41  C   UNL A   1      38.391  32.713  32.612  1.00  0.00     0.074 A 
ATOM     42  C   UNL A   1      38.369  31.198  30.646  1.00  0.00     0.049 A 
ATOM     43  N   UNL A   1      39.480  32.333  33.225  1.00  0.00    -0.248 NA
ATOM     44  C   UNL A   1      37.697  33.834  33.270  1.00  0.00     0.031 C 
ATOM     45  C   UNL A   1      37.918  30.668  29.356  1.00  0.00     0.029 A 
ATOM     46  N   UNL A   1      39.464  30.431  30.952  1.00  0.00    -0.354 N 
ATOM     47  C   UNL A   1      39.612  33.185  34.318  1.00  0.00     0.074 A 
ATOM     48  C   UNL A   1      38.551  34.160  34.224  1.00  0.00     0.031 C 
ATOM     49  C   UNL A   1      38.702  29.634  29.007  1.00  0.00     0.029 A 
ATOM     50  C   UNL A   1      39.736  29.456  30.020  1.00  0.00     0.049 A 
ATOM     51  H   UNL A   1      40.006  30.566  31.763  1.00  0.00     0.167 HD
ATOM     52  C   UNL A   1      40.508  33.133  35.334  1.00  0.00     0.034 A 
ATOM     53  C   UNL A   1      40.709  28.523  29.994  1.00  0.00     0.034 A 
ATOM     54  C   UNL A   1      41.534  32.126  35.429  1.00  0.00     0.049 A 
ATOM     55  C   UNL A   1      41.682  28.467  31.145  1.00  0.00     0.074 A 
ATOM     56  C   UNL A   1      42.469  31.937  36.431  1.00  0.00     0.029 A 
ATOM     57  N   UNL A   1      41.754  31.128  34.487  1.00  0.00    -0.354 N 
ATOM     58  N   UNL A   1      41.765  29.249  32.199  1.00  0.00    -0.248 NA
ATOM     59  C   UNL A   1      42.675  27.388  31.116  1.00  0.00     0.031 C 
ATOM     60  C   UNL A   1      43.291  30.865  36.065  1.00  0.00     0.029 A 
ATOM     61  C   UNL A   1      42.818  30.332  34.876  1.00  0.00     0.049 A 
ATOM     62  H   UNL A   1      41.229  31.006  33.662  1.00  0.00     0.167 HD
ATOM     63  C   UNL A   1      42.795  28.725  32.978  1.00  0.00     0.074 A 
ATOM     64  C   UNL A   1      43.285  27.555  32.278  1.00  0.00     0.031 C 
ATOM     65  C   UNL A   1      43.290  29.168  34.163  1.00  0.00     0.034 A 
BRANCH  52  66
ATOM     66  C   UNL A   1      40.412  34.203  36.398  1.00  0.00     0.023 A 
ATOM     67  C   UNL A   1      39.946  33.916  37.695  1.00  0.00     0.031 A 
ATOM     68  C   UNL A   1      40.734  35.537  36.100  1.00  0.00     0.131 A 
ATOM     69  C   UNL A   1      39.724  34.957  38.608  1.00  0.00     0.055 A 
ATOM     70  C   UNL A   1      40.604  36.556  37.047  1.00  0.00     0.041 A 
ATOM     71  F   UNL A   1      41.161  35.881  34.875  1.00  0.00    -0.206 F 
ATOM     72  C   UNL A   1      40.077  36.272  38.304  1.00  0.00     0.022 A 
BRANCH  69  73
ATOM     73  S   UNL A   1      38.809  34.591  40.132  1.00  0.00     0.124 S 
ATOM     74  O   UNL A   1      39.827  33.907  40.928  1.00  0.00    -0.237 OA
ATOM     75  O   UNL A   1      38.420  35.917  40.596  1.00  0.00    -0.237 OA
ATOM     76  O   UNL A   1      37.711  33.741  39.677  1.00  0.00    -0.744 OA
ENDBRANCH  69  73
ENDBRANCH  52  66
BRANCH  53  77
ATOM     77  C   UNL A   1      40.807  27.556  28.862  1.00  0.00     0.023 A 
ATOM     78  C   UNL A   1      41.766  27.724  27.849  1.00  0.00     0.031 A 
ATOM     79  C   UNL A   1      39.913  26.477  28.748  1.00  0.00     0.131 A 
ATOM     80  C   UNL A   1      41.772  26.864  26.740  1.00  0.00     0.055 A 
ATOM     81  C   UNL A   1      39.961  25.590  27.671  1.00  0.00     0.041 A 
ATOM     82  F   UNL A   1      38.983  26.264  29.692  1.00  0.00    -0.206 F 
ATOM     83  C   UNL A   1      40.884  25.790  26.650  1.00  0.00     0.022 A 
BRANCH  80  84
ATOM     84  S   UNL A   1      42.901  27.226  25.366  1.00  0.00     0.124 S 
ATOM     85  O   UNL A   1      44.125  27.582  26.074  1.00  0.00    -0.237 OA
ATOM     86  O   UNL A   1      42.921  25.955  24.648  1.00  0.00    -0.237 OA
ATOM     87  O   UNL A   1      42.241  28.325  24.665  1.00  0.00    -0.744 OA
ENDBRANCH  80  84
ENDBRANCH  53  77
BRANCH  65  88
ATOM     88  C   UNL A   1      44.376  28.335  34.803  1.00  0.00     0.023 A 
ATOM     89  C   UNL A   1      44.090  27.364  35.777  1.00  0.00     0.031 A 
ATOM     90  C   UNL A   1      45.721  28.543  34.452  1.00  0.00     0.131 A 
ATOM     91  C   UNL A   1      45.139  26.696  36.426  1.00  0.00     0.055 A 
ATOM     92  C   UNL A   1      46.757  27.822  35.047  1.00  0.00     0.041 A 
ATOM     93  F   UNL A   1      46.054  29.458  33.527  1.00  0.00    -0.206 F 
ATOM     94  C   UNL A   1      46.470  26.905  36.055  1.00  0.00     0.022 A 
BRANCH  91  95
ATOM     95  S   UNL A   1      44.749  25.650  37.856  1.00  0.00     0.124 S 
ATOM     96  O   UNL A   1      46.033  25.591  38.547  1.00  0.00    -0.237 OA
ATOM     97  O   UNL A   1      43.701  26.415  38.523  1.00  0.00    -0.237 OA
ATOM     98  O   UNL A   1      44.312  24.394  37.251  1.00  0.00    -0.744 OA
ENDBRANCH  91  95
ENDBRANCH  65  88
ENDBRANCH  39  40
ENDBRANCH  31  34
ENDBRANCH  29  30
ENDBRANCH   1  29
TORSDOF 18
ENDMDL
MODEL 3
REMARK VINA RESULT:     -11.8      6.192      9.670
REMARK SMILES COCCN1C(=O)C[C@H](C(=O)NCCCNC(=O)c2ccc(-c3c4nc(c(-c5cc(S(=O)(=O)[O-])ccc5F)c5ccc([nH]5)c(-c5cc(S(=O)(=O)[O-])ccc5F)c5nc(c(-c6cc(S(=O)(=O)[O-])ccc6F)c6ccc3[nH]6)C=C5)C=C4)cc2)[C@@H]1c1ccccc1N1CCOCC1
REMARK SMILES IDX 14 1 13 2 12 3 10 4 11 5 9 7 5 8 6 9 82 10 7 11 8 12 4 13
REMARK SMILES IDX 3 14 2 15 1 16 83 17 84 18 88 19 85 20 87 21 86 22 89 23
REMARK SMILES IDX 90 24 94 25 91 26 93 27 92 28 15 29 16 30 17 31 18 33 19 34
REMARK SMILES IDX 20 35 81 36 21 37 80 38 22 39 23 40 24 41 74 42 25 43 79 44
REMARK SMILES IDX 73 45 75 46 26 47 78 48 72 49 71 50 27 52 59 53 39 54 58 55
REMARK SMILES IDX 40 56 43 57 57 58 76 59 41 60 42 61 56 63 77 64 44 65 28 66
REMARK SMILES IDX 29 67 37 68 30 69 36 70 38 71 35 72 31 73 32 74 33 75 34 76
REMARK SMILES IDX 60 77 61 78 69 79 62 80 68 81 70 82 67 83 63 84 64 85 65 86
REMARK SMILES IDX 66 87 45 88 46 89 54 90 47 91 53 92 55 93 52 94 48 95 49 96
REMARK SMILES IDX 50 97 51 98
REMARK H PARENT 12 6 16 32 75 51 43 62
REMARK Flexibility Score: inf
ROOT
ATOM      1  C   UNL A   1      38.262  19.969  24.991  1.00  0.00     0.042 C 
ENDROOT
BRANCH   1   2
ATOM      2  C   UNL A   1      37.055  20.850  25.185  1.00  0.00     0.117 C 
BRANCH   2   3
ATOM      3  N   UNL A   1      36.895  21.806  24.111  1.00  0.00    -0.356 N 
ATOM      4  C   UNL A   1      36.165  22.943  24.075  1.00  0.00     0.226 C 
ATOM      5  O   UNL A   1      36.192  23.605  23.034  1.00  0.00    -0.275 OA
ATOM      6  H   UNL A   1      37.390  21.597  23.285  1.00  0.00     0.163 HD
BRANCH   4   7
ATOM      7  C   UNL A   1      35.226  23.341  25.182  1.00  0.00     0.115 C 
ATOM      8  N   UNL A   1      33.065  23.599  26.034  1.00  0.00    -0.332 N 
ATOM      9  C   UNL A   1      33.469  24.874  25.672  1.00  0.00     0.224 C 
ATOM     10  C   UNL A   1      33.965  22.535  25.552  1.00  0.00     0.130 C 
ATOM     11  O   UNL A   1      32.867  25.916  25.883  1.00  0.00    -0.275 OA
ATOM     12  C   UNL A   1      34.806  24.799  25.010  1.00  0.00     0.116 C 
BRANCH   8  13
ATOM     13  C   UNL A   1      31.927  23.391  26.930  1.00  0.00     0.148 C 
BRANCH  13  14
ATOM     14  C   UNL A   1      30.638  24.127  26.539  1.00  0.00     0.181 C 
BRANCH  14  15
ATOM     15  O   UNL A   1      29.503  23.803  27.342  1.00  0.00    -0.383 OA
ATOM     16  C   UNL A   1      29.188  22.420  27.382  1.00  0.00     0.194 C 
ENDBRANCH  14  15
ENDBRANCH  13  14
ENDBRANCH   8  13
BRANCH  10  17
ATOM     17  C   UNL A   1      33.333  21.515  24.602  1.00  0.00    -0.001 A 
ATOM     18  C   UNL A   1      33.393  20.131  24.909  1.00  0.00     0.008 A 
ATOM     19  C   UNL A   1      32.634  21.906  23.423  1.00  0.00     0.042 A 
ATOM     20  C   UNL A   1      32.814  19.159  24.090  1.00  0.00     0.001 A 
ATOM     21  C   UNL A   1      32.074  20.894  22.608  1.00  0.00     0.026 A 
ATOM     22  C   UNL A   1      32.157  19.541  22.935  1.00  0.00     0.002 A 
BRANCH  19  23
ATOM     23  N   UNL A   1      32.406  23.247  23.109  1.00  0.00    -0.367 N 
ATOM     24  C   UNL A   1      33.151  23.847  21.992  1.00  0.00     0.145 C 
ATOM     25  C   UNL A   1      31.015  23.769  23.195  1.00  0.00     0.145 C 
ATOM     26  C   UNL A   1      33.113  25.376  22.150  1.00  0.00     0.181 C 
ATOM     27  C   UNL A   1      30.998  25.308  23.192  1.00  0.00     0.181 C 
ATOM     28  O   UNL A   1      31.760  25.857  22.102  1.00  0.00    -0.378 OA
ENDBRANCH  19  23
ENDBRANCH  10  17
ENDBRANCH   4   7
ENDBRANCH   2   3
ENDBRANCH   1   2
BRANCH   1  29
ATOM     29  C   UNL A   1      39.324  20.279  26.027  1.00  0.00     0.118 C 
BRANCH  29  30
ATOM     30  N   UNL A   1      40.427  19.320  26.005  1.00  0.00    -0.352 N 
ATOM     31  C   UNL A   1      41.778  19.559  26.096  1.00  0.00     0.251 C 
ATOM     32  H   UNL A   1      40.167  18.374  25.913  1.00  0.00     0.163 HD
ATOM     33  O   UNL A   1      42.584  18.663  25.870  1.00  0.00    -0.269 OA
BRANCH  31  34
ATOM     34  C   UNL A   1      42.226  20.924  26.433  1.00  0.00     0.039 A 
ATOM     35  C   UNL A   1      42.391  21.868  25.421  1.00  0.00     0.014 A 
ATOM     36  C   UNL A   1      42.388  21.284  27.773  1.00  0.00     0.014 A 
ATOM     37  C   UNL A   1      42.654  23.195  25.765  1.00  0.00     0.010 A 
ATOM     38  C   UNL A   1      42.493  22.622  28.112  1.00  0.00     0.010 A 
ATOM     39  C   UNL A   1      42.669  23.590  27.113  1.00  0.00    -0.014 A 
BRANCH  39  40
ATOM     40  C   UNL A   1      42.954  24.990  27.518  1.00  0.00     0.031 A 
ATOM     41  C   UNL A   1      44.353  25.529  27.352  1.00  0.00     0.074 A 
ATOM     42  C   UNL A   1      41.991  25.746  28.080  1.00  0.00     0.049 A 
ATOM     43  N   UNL A   1      44.849  26.681  27.719  1.00  0.00    -0.248 NA
ATOM     44  C   UNL A   1      45.341  24.624  26.739  1.00  0.00     0.031 C 
ATOM     45  C   UNL A   1      40.617  25.312  28.350  1.00  0.00     0.029 A 
ATOM     46  N   UNL A   1      42.021  27.041  28.528  1.00  0.00    -0.354 N 
ATOM     47  C   UNL A   1      46.205  26.623  27.408  1.00  0.00     0.074 A 
ATOM     48  C   UNL A   1      46.468  25.290  26.918  1.00  0.00     0.031 C 
ATOM     49  C   UNL A   1      39.927  26.339  28.874  1.00  0.00     0.029 A 
ATOM     50  C   UNL A   1      40.815  27.487  29.019  1.00  0.00     0.049 A 
ATOM     51  H   UNL A   1      42.830  27.602  28.502  1.00  0.00     0.167 HD
ATOM     52  C   UNL A   1      47.137  27.603  27.481  1.00  0.00     0.034 A 
ATOM     53  C   UNL A   1      40.470  28.688  29.525  1.00  0.00     0.034 A 
ATOM     54  C   UNL A   1      46.843  28.939  27.935  1.00  0.00     0.049 A 
ATOM     55  C   UNL A   1      41.516  29.773  29.576  1.00  0.00     0.074 A 
ATOM     56  C   UNL A   1      47.687  30.032  28.009  1.00  0.00     0.029 A 
ATOM     57  N   UNL A   1      45.600  29.365  28.387  1.00  0.00    -0.354 N 
ATOM     58  N   UNL A   1      42.784  29.720  29.231  1.00  0.00    -0.248 NA
ATOM     59  C   UNL A   1      41.079  31.088  30.058  1.00  0.00     0.031 C 
ATOM     60  C   UNL A   1      46.971  31.100  28.562  1.00  0.00     0.029 A 
ATOM     61  C   UNL A   1      45.658  30.699  28.755  1.00  0.00     0.049 A 
ATOM     62  H   UNL A   1      44.795  28.800  28.438  1.00  0.00     0.167 HD
ATOM     63  C   UNL A   1      43.281  31.008  29.418  1.00  0.00     0.074 A 
ATOM     64  C   UNL A   1      42.172  31.813  29.887  1.00  0.00     0.031 C 
ATOM     65  C   UNL A   1      44.539  31.484  29.219  1.00  0.00     0.034 A 
BRANCH  52  66
ATOM     66  C   UNL A   1      48.549  27.249  27.072  1.00  0.00     0.023 A 
ATOM     67  C   UNL A   1      49.075  27.631  25.823  1.00  0.00     0.031 A 
ATOM     68  C   UNL A   1      49.362  26.471  27.913  1.00  0.00     0.131 A 
ATOM     69  C   UNL A   1      50.329  27.155  25.414  1.00  0.00     0.055 A 
ATOM     70  C   UNL A   1      50.651  26.083  27.538  1.00  0.00     0.041 A 
ATOM     71  F   UNL A   1      48.912  26.054  29.106  1.00  0.00    -0.206 F 
ATOM     72  C   UNL A   1      51.134  26.408  26.274  1.00  0.00     0.022 A 
BRANCH  69  73
ATOM     73  S   UNL A   1      50.818  27.385  23.681  1.00  0.00     0.124 S 
ATOM     74  O   UNL A   1      50.968  28.837  23.607  1.00  0.00    -0.237 OA
ATOM     75  O   UNL A   1      52.050  26.611  23.594  1.00  0.00    -0.237 OA
ATOM     76  O   UNL A   1      49.686  26.845  22.931  1.00  0.00    -0.744 OA
ENDBRANCH  69  73
ENDBRANCH  52  66
BRANCH  53  77
ATOM     77  C   UNL A   1      39.080  28.942  30.003  1.00  0.00     0.023 A 
ATOM     78  C   UNL A   1      38.123  29.535  29.164  1.00  0.00     0.031 A 
ATOM     79  C   UNL A   1      38.699  28.641  31.323  1.00  0.00     0.131 A 
ATOM     80  C   UNL A   1      36.854  29.862  29.667  1.00  0.00     0.055 A 
ATOM     81  C   UNL A   1      37.417  28.917  31.802  1.00  0.00     0.041 A 
ATOM     82  F   UNL A   1      39.571  28.065  32.166  1.00  0.00    -0.206 F 
ATOM     83  C   UNL A   1      36.490  29.545  30.976  1.00  0.00     0.022 A 
BRANCH  80  84
ATOM     84  S   UNL A   1      35.714  30.795  28.608  1.00  0.00     0.124 S 
ATOM     85  O   UNL A   1      35.003  29.724  27.920  1.00  0.00    -0.237 OA
ATOM     86  O   UNL A   1      34.941  31.551  29.588  1.00  0.00    -0.237 OA
ATOM     87  O   UNL A   1      36.605  31.594  27.770  1.00  0.00    -0.744 OA
ENDBRANCH  80  84
ENDBRANCH  53  77
BRANCH  65  88
ATOM     88  C   UNL A   1      44.752  32.962  29.446  1.00  0.00     0.023 A 
ATOM     89  C   UNL A   1      44.420  33.919  28.473  1.00  0.00     0.031 A 
ATOM     90  C   UNL A   1      45.330  33.413  30.646  1.00  0.00     0.131 A 
ATOM     91  C   UNL A   1      44.742  35.268  28.681  1.00  0.00     0.055 A 
ATOM     92  C   UNL A   1      45.579  34.766  30.880  1.00  0.00     0.041 A 
ATOM     93  F   UNL A   1      45.668  32.544  31.613  1.00  0.00    -0.206 F 
ATOM     94  C   UNL A   1      45.303  35.700  29.886  1.00  0.00     0.022 A 
BRANCH  91  95
ATOM     95  S   UNL A   1      44.543  36.430  27.303  1.00  0.00     0.124 S 
ATOM     96  O   UNL A   1      45.928  36.777  26.996  1.00  0.00    -0.237 OA
ATOM     97  O   UNL A   1      43.855  35.616  26.307  1.00  0.00    -0.237 OA
ATOM     98  O   UNL A   1      43.747  37.511  27.880  1.00  0.00    -0.744 OA
ENDBRANCH  91  95
ENDBRANCH  65  88
ENDBRANCH  39  40
ENDBRANCH  31  34
ENDBRANCH  29  30
ENDBRANCH   1  29
TORSDOF 18
ENDMDL
