MODEL 1
REMARK VINA RESULT:     -10.6      0.000      0.000
REMARK SMILES CC(C)[C@H](NC(=O)CC[NH3+])C(=O)NCCCNC(=O)c1ccc(-c2c3nc(c(-c4cc(S(=O)(=O)[O-])ccc4F)c4ccc([nH]4)c(-c4cc(S(=O)(=O)[O-])ccc4F)c4nc(c(-c5cc(S(=O)(=O)[O-])ccc5F)c5ccc2[nH]5)C=C4)C=C3)cc1
REMARK SMILES IDX 14 1 13 2 11 3 12 4 4 6 2 7 1 8 3 9 5 10 6 11 7 13 8 14 9 15
REMARK SMILES IDX 10 16 15 20 16 21 17 22 18 23 19 25 20 26 21 27 82 28 22 29
REMARK SMILES IDX 81 30 23 31 24 32 25 33 75 34 26 35 80 36 74 37 76 38 27 39
REMARK SMILES IDX 79 40 73 41 72 42 28 44 60 45 40 46 59 47 41 48 44 49 58 50
REMARK SMILES IDX 77 51 42 52 43 53 57 55 78 56 45 57 29 58 30 59 38 60 31 61
REMARK SMILES IDX 37 62 39 63 36 64 32 65 33 66 34 67 35 68 61 69 62 70 70 71
REMARK SMILES IDX 63 72 69 73 71 74 68 75 64 76 65 77 66 78 67 79 46 80 47 81
REMARK SMILES IDX 55 82 48 83 54 84 56 85 53 86 49 87 50 88 51 89 52 90
REMARK H PARENT 13 5 5 12 10 17 10 18 10 19 17 24 76 43 44 54
REMARK Flexibility Score: inf
ROOT
ATOM      1  C   UNL A   1      31.223  30.859  26.380  1.00  0.00     0.117 C 
ENDROOT
BRANCH   1   2
ATOM      2  N   UNL A   1      32.295  30.273  25.612  1.00  0.00    -0.354 N 
ATOM      3  C   UNL A   1      32.233  29.384  24.589  1.00  0.00     0.242 C 
ATOM      4  O   UNL A   1      33.268  29.202  23.939  1.00  0.00    -0.273 OA
ATOM      5  H   UNL A   1      33.202  30.558  25.867  1.00  0.00     0.163 HD
BRANCH   3   6
ATOM      6  C   UNL A   1      30.908  28.707  24.174  1.00  0.00     0.173 C 
BRANCH   6   7
ATOM      7  C   UNL A   1      30.852  27.176  24.488  1.00  0.00     0.015 C 
ATOM      8  C   UNL A   1      31.139  26.720  25.926  1.00  0.00     0.010 C 
ATOM      9  C   UNL A   1      29.527  26.542  24.042  1.00  0.00     0.010 C 
ENDBRANCH   6   7
BRANCH   6  10
ATOM     10  N   UNL A   1      30.487  29.056  22.811  1.00  0.00    -0.344 N 
ATOM     11  C   UNL A   1      29.406  29.783  22.409  1.00  0.00     0.226 C 
ATOM     12  H   UNL A   1      31.065  28.719  22.088  1.00  0.00     0.164 HD
ATOM     13  O   UNL A   1      29.156  29.833  21.204  1.00  0.00    -0.275 OA
BRANCH  11  14
ATOM     14  C   UNL A   1      28.539  30.505  23.415  1.00  0.00     0.161 C 
BRANCH  14  15
ATOM     15  C   UNL A   1      28.834  31.999  23.474  1.00  0.00     0.268 C 
BRANCH  15  16
ATOM     16  N   UNL A   1      29.312  32.547  22.206  1.00  0.00    -0.357 N 
ATOM     17  H   UNL A   1      29.792  31.816  21.680  1.00  0.00     0.344 HD
ATOM     18  H   UNL A   1      29.958  33.314  22.390  1.00  0.00     0.344 HD
ATOM     19  H   UNL A   1      28.520  32.892  21.664  1.00  0.00     0.344 HD
ENDBRANCH  15  16
ENDBRANCH  14  15
ENDBRANCH  11  14
ENDBRANCH   6  10
ENDBRANCH   3   6
ENDBRANCH   1   2
BRANCH   1  20
ATOM     20  C   UNL A   1      31.362  32.357  26.545  1.00  0.00     0.042 C 
BRANCH  20  21
ATOM     21  C   UNL A   1      32.683  32.787  27.155  1.00  0.00     0.118 C 
BRANCH  21  22
ATOM     22  N   UNL A   1      32.637  34.123  27.735  1.00  0.00    -0.352 N 
ATOM     23  C   UNL A   1      33.372  34.672  28.762  1.00  0.00     0.251 C 
ATOM     24  H   UNL A   1      31.976  34.729  27.328  1.00  0.00     0.163 HD
ATOM     25  O   UNL A   1      33.048  35.753  29.228  1.00  0.00    -0.269 OA
BRANCH  23  26
ATOM     26  C   UNL A   1      34.525  33.925  29.312  1.00  0.00     0.039 A 
ATOM     27  C   UNL A   1      35.820  34.315  28.965  1.00  0.00     0.014 A 
ATOM     28  C   UNL A   1      34.326  32.864  30.195  1.00  0.00     0.014 A 
ATOM     29  C   UNL A   1      36.911  33.695  29.577  1.00  0.00     0.010 A 
ATOM     30  C   UNL A   1      35.402  32.340  30.895  1.00  0.00     0.010 A 
ATOM     31  C   UNL A   1      36.710  32.738  30.584  1.00  0.00    -0.014 A 
BRANCH  31  32
ATOM     32  C   UNL A   1      37.847  32.120  31.314  1.00  0.00     0.031 A 
ATOM     33  C   UNL A   1      38.622  30.996  30.678  1.00  0.00     0.074 A 
ATOM     34  C   UNL A   1      38.124  32.509  32.574  1.00  0.00     0.049 A 
ATOM     35  N   UNL A   1      39.581  30.262  31.178  1.00  0.00    -0.248 NA
ATOM     36  C   UNL A   1      38.229  30.617  29.311  1.00  0.00     0.031 C 
ATOM     37  C   UNL A   1      37.397  33.537  33.322  1.00  0.00     0.029 A 
ATOM     38  N   UNL A   1      39.084  32.077  33.455  1.00  0.00    -0.354 N 
ATOM     39  C   UNL A   1      39.884  29.318  30.201  1.00  0.00     0.074 A 
ATOM     40  C   UNL A   1      38.950  29.526  29.116  1.00  0.00     0.031 C 
ATOM     41  C   UNL A   1      37.957  33.679  34.534  1.00  0.00     0.029 A 
ATOM     42  C   UNL A   1      39.048  32.720  34.669  1.00  0.00     0.049 A 
ATOM     43  H   UNL A   1      39.736  31.373  33.237  1.00  0.00     0.167 HD
ATOM     44  C   UNL A   1      40.870  28.388  30.195  1.00  0.00     0.034 A 
ATOM     45  C   UNL A   1      39.802  32.549  35.773  1.00  0.00     0.034 A 
ATOM     46  C   UNL A   1      41.805  28.217  31.280  1.00  0.00     0.049 A 
ATOM     47  C   UNL A   1      40.898  31.516  35.748  1.00  0.00     0.074 A 
ATOM     48  C   UNL A   1      42.895  27.368  31.355  1.00  0.00     0.029 A 
ATOM     49  N   UNL A   1      41.754  28.904  32.489  1.00  0.00    -0.354 N 
ATOM     50  N   UNL A   1      41.225  30.682  34.787  1.00  0.00    -0.248 NA
ATOM     51  C   UNL A   1      41.737  31.413  36.948  1.00  0.00     0.031 C 
ATOM     52  C   UNL A   1      43.455  27.486  32.632  1.00  0.00     0.029 A 
ATOM     53  C   UNL A   1      42.770  28.470  33.327  1.00  0.00     0.049 A 
ATOM     54  H   UNL A   1      41.094  29.596  32.715  1.00  0.00     0.167 HD
ATOM     55  C   UNL A   1      42.322  29.969  35.260  1.00  0.00     0.074 A 
ATOM     56  C   UNL A   1      42.612  30.487  36.583  1.00  0.00     0.031 C 
ATOM     57  C   UNL A   1      43.031  28.980  34.654  1.00  0.00     0.034 A 
BRANCH  44  58
ATOM     58  C   UNL A   1      40.957  27.477  28.990  1.00  0.00     0.023 A 
ATOM     59  C   UNL A   1      41.943  27.647  28.001  1.00  0.00     0.031 A 
ATOM     60  C   UNL A   1      40.003  26.462  28.792  1.00  0.00     0.131 A 
ATOM     61  C   UNL A   1      41.891  26.895  26.818  1.00  0.00     0.055 A 
ATOM     62  C   UNL A   1      40.017  25.649  27.658  1.00  0.00     0.041 A 
ATOM     63  F   UNL A   1      39.024  26.260  29.688  1.00  0.00    -0.206 F 
ATOM     64  C   UNL A   1      40.950  25.877  26.651  1.00  0.00     0.022 A 
BRANCH  61  65
ATOM     65  S   UNL A   1      42.948  27.394  25.430  1.00  0.00     0.124 S 
ATOM     66  O   UNL A   1      42.153  28.460  24.823  1.00  0.00    -0.237 OA
ATOM     67  O   UNL A   1      44.173  27.813  26.102  1.00  0.00    -0.237 OA
ATOM     68  O   UNL A   1      43.058  26.176  24.629  1.00  0.00    -0.744 OA
ENDBRANCH  61  65
ENDBRANCH  44  58
BRANCH  45  69
ATOM     69  C   UNL A   1      39.542  33.369  36.991  1.00  0.00     0.023 A 
ATOM     70  C   UNL A   1      40.239  34.565  37.224  1.00  0.00     0.031 A 
ATOM     71  C   UNL A   1      38.589  32.964  37.943  1.00  0.00     0.131 A 
ATOM     72  C   UNL A   1      39.996  35.298  38.397  1.00  0.00     0.055 A 
ATOM     73  C   UNL A   1      38.317  33.721  39.084  1.00  0.00     0.041 A 
ATOM     74  F   UNL A   1      37.888  31.834  37.762  1.00  0.00    -0.206 F 
ATOM     75  C   UNL A   1      39.031  34.892  39.320  1.00  0.00     0.022 A 
BRANCH  72  76
ATOM     76  S   UNL A   1      41.003  36.771  38.727  1.00  0.00     0.124 S 
ATOM     77  O   UNL A   1      41.748  36.908  37.480  1.00  0.00    -0.237 OA
ATOM     78  O   UNL A   1      39.984  37.785  38.980  1.00  0.00    -0.237 OA
ATOM     79  O   UNL A   1      41.797  36.386  39.892  1.00  0.00    -0.744 OA
ENDBRANCH  72  76
ENDBRANCH  45  69
BRANCH  57  80
ATOM     80  C   UNL A   1      44.211  28.422  35.413  1.00  0.00     0.023 A 
ATOM     81  C   UNL A   1      44.068  27.372  36.337  1.00  0.00     0.031 A 
ATOM     82  C   UNL A   1      45.497  28.956  35.213  1.00  0.00     0.131 A 
ATOM     83  C   UNL A   1      45.179  26.930  37.068  1.00  0.00     0.055 A 
ATOM     84  C   UNL A   1      46.611  28.468  35.896  1.00  0.00     0.041 A 
ATOM     85  F   UNL A   1      45.691  29.963  34.347  1.00  0.00    -0.206 F 
ATOM     86  C   UNL A   1      46.453  27.457  36.840  1.00  0.00     0.022 A 
BRANCH  83  87
ATOM     87  S   UNL A   1      44.922  25.723  38.398  1.00  0.00     0.124 S 
ATOM     88  O   UNL A   1      44.071  24.733  37.747  1.00  0.00    -0.237 OA
ATOM     89  O   UNL A   1      46.283  25.294  38.698  1.00  0.00    -0.237 OA
ATOM     90  O   UNL A   1      44.272  26.503  39.449  1.00  0.00    -0.744 OA
ENDBRANCH  83  87
ENDBRANCH  57  80
ENDBRANCH  31  32
ENDBRANCH  23  26
ENDBRANCH  21  22
ENDBRANCH  20  21
ENDBRANCH   1  20
TORSDOF 18
ENDMDL
MODEL 2
REMARK VINA RESULT:     -10.1      2.017      2.288
REMARK SMILES CC(C)[C@H](NC(=O)CC[NH3+])C(=O)NCCCNC(=O)c1ccc(-c2c3nc(c(-c4cc(S(=O)(=O)[O-])ccc4F)c4ccc([nH]4)c(-c4cc(S(=O)(=O)[O-])ccc4F)c4nc(c(-c5cc(S(=O)(=O)[O-])ccc5F)c5ccc2[nH]5)C=C4)C=C3)cc1
REMARK SMILES IDX 14 1 13 2 11 3 12 4 4 6 2 7 1 8 3 9 5 10 6 11 7 13 8 14 9 15
REMARK SMILES IDX 10 16 15 20 16 21 17 22 18 23 19 25 20 26 21 27 82 28 22 29
REMARK SMILES IDX 81 30 23 31 24 32 25 33 75 34 26 35 80 36 74 37 76 38 27 39
REMARK SMILES IDX 79 40 73 41 72 42 28 44 60 45 40 46 59 47 41 48 44 49 58 50
REMARK SMILES IDX 77 51 42 52 43 53 57 55 78 56 45 57 29 58 30 59 38 60 31 61
REMARK SMILES IDX 37 62 39 63 36 64 32 65 33 66 34 67 35 68 61 69 62 70 70 71
REMARK SMILES IDX 63 72 69 73 71 74 68 75 64 76 65 77 66 78 67 79 46 80 47 81
REMARK SMILES IDX 55 82 48 83 54 84 56 85 53 86 49 87 50 88 51 89 52 90
REMARK H PARENT 13 5 5 12 10 17 10 18 10 19 17 24 76 43 44 54
REMARK Flexibility Score: inf
ROOT
ATOM      1  C   UNL A   1      31.751  30.262  26.578  1.00  0.00     0.117 C 
ENDROOT
BRANCH   1   2
ATOM      2  N   UNL A   1      32.772  29.917  25.618  1.00  0.00    -0.354 N 
ATOM      3  C   UNL A   1      32.649  29.314  24.410  1.00  0.00     0.242 C 
ATOM      4  O   UNL A   1      33.637  29.330  23.669  1.00  0.00    -0.273 OA
ATOM      5  H   UNL A   1      33.692  30.154  25.877  1.00  0.00     0.163 HD
BRANCH   3   6
ATOM      6  C   UNL A   1      31.305  28.727  23.923  1.00  0.00     0.173 C 
BRANCH   6   7
ATOM      7  C   UNL A   1      31.222  27.168  24.014  1.00  0.00     0.015 C 
ATOM      8  C   UNL A   1      29.929  26.541  24.553  1.00  0.00     0.010 C 
ATOM      9  C   UNL A   1      31.558  26.492  22.677  1.00  0.00     0.010 C 
ENDBRANCH   6   7
BRANCH   6  10
ATOM     10  N   UNL A   1      30.871  29.277  22.632  1.00  0.00    -0.344 N 
ATOM     11  C   UNL A   1      29.732  29.963  22.333  1.00  0.00     0.226 C 
ATOM     12  H   UNL A   1      31.489  29.131  21.879  1.00  0.00     0.164 HD
ATOM     13  O   UNL A   1      29.495  30.207  21.149  1.00  0.00    -0.275 OA
BRANCH  11  14
ATOM     14  C   UNL A   1      28.786  30.410  23.424  1.00  0.00     0.161 C 
BRANCH  14  15
ATOM     15  C   UNL A   1      29.030  31.850  23.856  1.00  0.00     0.268 C 
BRANCH  15  16
ATOM     16  N   UNL A   1      29.167  32.777  22.734  1.00  0.00    -0.357 N 
ATOM     17  H   UNL A   1      28.564  33.586  22.886  1.00  0.00     0.344 HD
ATOM     18  H   UNL A   1      28.896  32.308  21.871  1.00  0.00     0.344 HD
ATOM     19  H   UNL A   1      30.137  33.085  22.664  1.00  0.00     0.344 HD
ENDBRANCH  15  16
ENDBRANCH  14  15
ENDBRANCH  11  14
ENDBRANCH   6  10
ENDBRANCH   3   6
ENDBRANCH   1   2
BRANCH   1  20
ATOM     20  C   UNL A   1      31.559  31.754  26.730  1.00  0.00     0.042 C 
BRANCH  20  21
ATOM     21  C   UNL A   1      32.850  32.518  26.967  1.00  0.00     0.118 C 
BRANCH  21  22
ATOM     22  N   UNL A   1      32.644  33.791  27.645  1.00  0.00    -0.352 N 
ATOM     23  C   UNL A   1      33.276  34.324  28.747  1.00  0.00     0.251 C 
ATOM     24  H   UNL A   1      31.942  34.361  27.254  1.00  0.00     0.163 HD
ATOM     25  O   UNL A   1      32.825  35.325  29.279  1.00  0.00    -0.269 OA
BRANCH  23  26
ATOM     26  C   UNL A   1      34.474  33.650  29.295  1.00  0.00     0.039 A 
ATOM     27  C   UNL A   1      35.739  34.169  29.010  1.00  0.00     0.014 A 
ATOM     28  C   UNL A   1      34.345  32.528  30.114  1.00  0.00     0.014 A 
ATOM     29  C   UNL A   1      36.863  33.613  29.624  1.00  0.00     0.010 A 
ATOM     30  C   UNL A   1      35.443  32.063  30.820  1.00  0.00     0.010 A 
ATOM     31  C   UNL A   1      36.719  32.588  30.574  1.00  0.00    -0.014 A 
BRANCH  31  32
ATOM     32  C   UNL A   1      37.886  32.032  31.306  1.00  0.00     0.031 A 
ATOM     33  C   UNL A   1      38.722  30.952  30.672  1.00  0.00     0.074 A 
ATOM     34  C   UNL A   1      38.138  32.435  32.567  1.00  0.00     0.049 A 
ATOM     35  N   UNL A   1      39.717  30.270  31.176  1.00  0.00    -0.248 NA
ATOM     36  C   UNL A   1      38.353  30.552  29.305  1.00  0.00     0.031 C 
ATOM     37  C   UNL A   1      37.354  33.422  33.313  1.00  0.00     0.029 A 
ATOM     38  N   UNL A   1      39.116  32.054  33.451  1.00  0.00    -0.354 N 
ATOM     39  C   UNL A   1      40.073  29.344  30.199  1.00  0.00     0.074 A 
ATOM     40  C   UNL A   1      39.133  29.501  29.112  1.00  0.00     0.031 C 
ATOM     41  C   UNL A   1      37.902  33.594  34.527  1.00  0.00     0.029 A 
ATOM     42  C   UNL A   1      39.043  32.695  34.666  1.00  0.00     0.049 A 
ATOM     43  H   UNL A   1      39.806  31.387  33.235  1.00  0.00     0.167 HD
ATOM     44  C   UNL A   1      41.108  28.468  30.196  1.00  0.00     0.034 A 
ATOM     45  C   UNL A   1      39.801  32.564  35.772  1.00  0.00     0.034 A 
ATOM     46  C   UNL A   1      42.048  28.347  31.284  1.00  0.00     0.049 A 
ATOM     47  C   UNL A   1      40.952  31.592  35.750  1.00  0.00     0.074 A 
ATOM     48  C   UNL A   1      43.181  27.558  31.362  1.00  0.00     0.029 A 
ATOM     49  N   UNL A   1      41.956  29.030  32.492  1.00  0.00    -0.354 N 
ATOM     50  N   UNL A   1      41.326  30.777  34.790  1.00  0.00    -0.248 NA
ATOM     51  C   UNL A   1      41.791  31.534  36.952  1.00  0.00     0.031 C 
ATOM     52  C   UNL A   1      43.731  27.705  32.641  1.00  0.00     0.029 A 
ATOM     53  C   UNL A   1      42.992  28.651  33.334  1.00  0.00     0.049 A 
ATOM     54  H   UNL A   1      41.259  29.686  32.717  1.00  0.00     0.167 HD
ATOM     55  C   UNL A   1      42.458  30.124  35.266  1.00  0.00     0.074 A 
ATOM     56  C   UNL A   1      42.715  30.655  36.590  1.00  0.00     0.031 C 
ATOM     57  C   UNL A   1      43.221  29.174  34.662  1.00  0.00     0.034 A 
BRANCH  44  58
ATOM     58  C   UNL A   1      41.247  27.563  28.991  1.00  0.00     0.023 A 
ATOM     59  C   UNL A   1      42.267  27.747  28.040  1.00  0.00     0.031 A 
ATOM     60  C   UNL A   1      40.311  26.540  28.755  1.00  0.00     0.131 A 
ATOM     61  C   UNL A   1      42.265  27.000  26.852  1.00  0.00     0.055 A 
ATOM     62  C   UNL A   1      40.374  25.732  27.618  1.00  0.00     0.041 A 
ATOM     63  F   UNL A   1      39.302  26.326  29.613  1.00  0.00    -0.206 F 
ATOM     64  C   UNL A   1      41.341  25.973  26.647  1.00  0.00     0.022 A 
BRANCH  61  65
ATOM     65  S   UNL A   1      43.367  27.515  25.506  1.00  0.00     0.124 S 
ATOM     66  O   UNL A   1      42.409  27.909  24.475  1.00  0.00    -0.237 OA
ATOM     67  O   UNL A   1      44.127  28.598  26.119  1.00  0.00    -0.237 OA
ATOM     68  O   UNL A   1      44.131  26.305  25.207  1.00  0.00    -0.744 OA
ENDBRANCH  61  65
ENDBRANCH  44  58
BRANCH  45  69
ATOM     69  C   UNL A   1      39.494  33.369  36.988  1.00  0.00     0.023 A 
ATOM     70  C   UNL A   1      38.774  32.818  38.061  1.00  0.00     0.031 A 
ATOM     71  C   UNL A   1      39.916  34.706  37.094  1.00  0.00     0.131 A 
ATOM     72  C   UNL A   1      38.471  33.611  39.179  1.00  0.00     0.055 A 
ATOM     73  C   UNL A   1      39.653  35.476  38.229  1.00  0.00     0.041 A 
ATOM     74  F   UNL A   1      40.617  35.276  36.102  1.00  0.00    -0.206 F 
ATOM     75  C   UNL A   1      38.917  34.931  39.277  1.00  0.00     0.022 A 
BRANCH  72  76
ATOM     76  S   UNL A   1      37.432  32.907  40.490  1.00  0.00     0.124 S 
ATOM     77  O   UNL A   1      37.615  33.874  41.567  1.00  0.00    -0.237 OA
ATOM     78  O   UNL A   1      36.116  32.892  39.858  1.00  0.00    -0.237 OA
ATOM     79  O   UNL A   1      38.023  31.591  40.723  1.00  0.00    -0.744 OA
ENDBRANCH  72  76
ENDBRANCH  45  69
BRANCH  57  80
ATOM     80  C   UNL A   1      44.426  28.680  35.424  1.00  0.00     0.023 A 
ATOM     81  C   UNL A   1      45.706  29.225  35.220  1.00  0.00     0.031 A 
ATOM     82  C   UNL A   1      44.292  27.642  36.363  1.00  0.00     0.131 A 
ATOM     83  C   UNL A   1      46.809  28.690  35.901  1.00  0.00     0.055 A 
ATOM     84  C   UNL A   1      45.383  27.157  37.086  1.00  0.00     0.041 A 
ATOM     85  F   UNL A   1      43.095  27.081  36.595  1.00  0.00    -0.206 F 
ATOM     86  C   UNL A   1      46.653  27.673  36.846  1.00  0.00     0.022 A 
BRANCH  83  87
ATOM     87  S   UNL A   1      48.470  29.272  35.461  1.00  0.00     0.124 S 
ATOM     88  O   UNL A   1      48.241  30.695  35.233  1.00  0.00    -0.237 OA
ATOM     89  O   UNL A   1      49.245  28.933  36.648  1.00  0.00    -0.237 OA
ATOM     90  O   UNL A   1      48.799  28.498  34.264  1.00  0.00    -0.744 OA
ENDBRANCH  83  87
ENDBRANCH  57  80
ENDBRANCH  31  32
ENDBRANCH  23  26
ENDBRANCH  21  22
ENDBRANCH  20  21
ENDBRANCH   1  20
TORSDOF 18
ENDMDL
MODEL 3
REMARK VINA RESULT:     -10.1      4.177      9.612
REMARK SMILES CC(C)[C@H](NC(=O)CC[NH3+])C(=O)NCCCNC(=O)c1ccc(-c2c3nc(c(-c4cc(S(=O)(=O)[O-])ccc4F)c4ccc([nH]4)c(-c4cc(S(=O)(=O)[O-])ccc4F)c4nc(c(-c5cc(S(=O)(=O)[O-])ccc5F)c5ccc2[nH]5)C=C4)C=C3)cc1
REMARK SMILES IDX 14 1 13 2 11 3 12 4 4 6 2 7 1 8 3 9 5 10 6 11 7 13 8 14 9 15
REMARK SMILES IDX 10 16 15 20 16 21 17 22 18 23 19 25 20 26 21 27 82 28 22 29
REMARK SMILES IDX 81 30 23 31 24 32 25 33 75 34 26 35 80 36 74 37 76 38 27 39
REMARK SMILES IDX 79 40 73 41 72 42 28 44 60 45 40 46 59 47 41 48 44 49 58 50
REMARK SMILES IDX 77 51 42 52 43 53 57 55 78 56 45 57 29 58 30 59 38 60 31 61
REMARK SMILES IDX 37 62 39 63 36 64 32 65 33 66 34 67 35 68 61 69 62 70 70 71
REMARK SMILES IDX 63 72 69 73 71 74 68 75 64 76 65 77 66 78 67 79 46 80 47 81
REMARK SMILES IDX 55 82 48 83 54 84 56 85 53 86 49 87 50 88 51 89 52 90
REMARK H PARENT 13 5 5 12 10 17 10 18 10 19 17 24 76 43 44 54
REMARK Flexibility Score: inf
ROOT
ATOM      1  C   UNL A   1      32.971  27.251  25.315  1.00  0.00     0.117 C 
ENDROOT
BRANCH   1   2
ATOM      2  N   UNL A   1      32.128  26.432  26.153  1.00  0.00    -0.354 N 
ATOM      3  C   UNL A   1      32.046  25.081  26.232  1.00  0.00     0.242 C 
ATOM      4  O   UNL A   1      31.415  24.610  27.184  1.00  0.00    -0.273 OA
ATOM      5  H   UNL A   1      31.525  26.925  26.755  1.00  0.00     0.163 HD
BRANCH   3   6
ATOM      6  C   UNL A   1      32.796  24.158  25.245  1.00  0.00     0.173 C 
BRANCH   6   7
ATOM      7  C   UNL A   1      31.908  23.627  24.073  1.00  0.00     0.015 C 
ATOM      8  C   UNL A   1      30.705  24.473  23.634  1.00  0.00     0.010 C 
ATOM      9  C   UNL A   1      32.737  23.294  22.824  1.00  0.00     0.010 C 
ENDBRANCH   6   7
BRANCH   6  10
ATOM     10  N   UNL A   1      33.586  23.119  25.918  1.00  0.00    -0.344 N 
ATOM     11  C   UNL A   1      34.906  22.814  25.766  1.00  0.00     0.226 C 
ATOM     12  H   UNL A   1      33.095  22.565  26.568  1.00  0.00     0.164 HD
ATOM     13  O   UNL A   1      35.336  21.803  26.324  1.00  0.00    -0.275 OA
BRANCH  11  14
ATOM     14  C   UNL A   1      35.814  23.693  24.938  1.00  0.00     0.161 C 
BRANCH  14  15
ATOM     15  C   UNL A   1      37.288  23.361  25.134  1.00  0.00     0.268 C 
BRANCH  15  16
ATOM     16  N   UNL A   1      37.725  23.461  26.526  1.00  0.00    -0.357 N 
ATOM     17  H   UNL A   1      38.272  24.313  26.650  1.00  0.00     0.344 HD
ATOM     18  H   UNL A   1      38.297  22.651  26.762  1.00  0.00     0.344 HD
ATOM     19  H   UNL A   1      36.908  23.490  27.137  1.00  0.00     0.344 HD
ENDBRANCH  15  16
ENDBRANCH  14  15
ENDBRANCH  11  14
ENDBRANCH   6  10
ENDBRANCH   3   6
ENDBRANCH   1   2
BRANCH   1  20
ATOM     20  C   UNL A   1      33.845  28.203  26.102  1.00  0.00     0.042 C 
BRANCH  20  21
ATOM     21  C   UNL A   1      33.113  28.927  27.217  1.00  0.00     0.118 C 
BRANCH  21  22
ATOM     22  N   UNL A   1      33.372  30.361  27.234  1.00  0.00    -0.352 N 
ATOM     23  C   UNL A   1      34.451  31.064  27.721  1.00  0.00     0.251 C 
ATOM     24  H   UNL A   1      32.662  30.915  26.834  1.00  0.00     0.163 HD
ATOM     25  O   UNL A   1      34.391  32.279  27.814  1.00  0.00    -0.269 OA
BRANCH  23  26
ATOM     26  C   UNL A   1      35.659  30.330  28.161  1.00  0.00     0.039 A 
ATOM     27  C   UNL A   1      36.773  30.283  27.321  1.00  0.00     0.014 A 
ATOM     28  C   UNL A   1      35.699  29.719  29.415  1.00  0.00     0.014 A 
ATOM     29  C   UNL A   1      37.955  29.700  27.782  1.00  0.00     0.010 A 
ATOM     30  C   UNL A   1      36.907  29.259  29.916  1.00  0.00     0.010 A 
ATOM     31  C   UNL A   1      38.048  29.228  29.101  1.00  0.00    -0.014 A 
BRANCH  31  32
ATOM     32  C   UNL A   1      39.314  28.678  29.649  1.00  0.00     0.031 A 
ATOM     33  C   UNL A   1      39.984  29.359  30.813  1.00  0.00     0.074 A 
ATOM     34  C   UNL A   1      39.902  27.626  29.046  1.00  0.00     0.049 A 
ATOM     35  N   UNL A   1      41.134  29.098  31.377  1.00  0.00    -0.248 NA
ATOM     36  C   UNL A   1      39.286  30.520  31.387  1.00  0.00     0.031 C 
ATOM     37  C   UNL A   1      39.385  26.928  27.866  1.00  0.00     0.029 A 
ATOM     38  N   UNL A   1      41.070  26.966  29.334  1.00  0.00    -0.354 N 
ATOM     39  C   UNL A   1      41.310  30.078  32.349  1.00  0.00     0.074 A 
ATOM     40  C   UNL A   1      40.186  30.981  32.239  1.00  0.00     0.031 C 
ATOM     41  C   UNL A   1      40.214  25.920  27.553  1.00  0.00     0.029 A 
ATOM     42  C   UNL A   1      41.344  25.928  28.475  1.00  0.00     0.049 A 
ATOM     43  H   UNL A   1      41.656  27.212  30.086  1.00  0.00     0.167 HD
ATOM     44  C   UNL A   1      42.298  30.194  33.270  1.00  0.00     0.034 A 
ATOM     45  C   UNL A   1      42.394  25.085  28.427  1.00  0.00     0.034 A 
ATOM     46  C   UNL A   1      43.397  29.265  33.375  1.00  0.00     0.049 A 
ATOM     47  C   UNL A   1      43.480  25.222  29.461  1.00  0.00     0.074 A 
ATOM     48  C   UNL A   1      44.411  29.231  34.316  1.00  0.00     0.029 A 
ATOM     49  N   UNL A   1      43.631  28.209  32.501  1.00  0.00    -0.354 N 
ATOM     50  N   UNL A   1      43.595  26.107  30.426  1.00  0.00    -0.248 NA
ATOM     51  C   UNL A   1      44.569  24.240  29.411  1.00  0.00     0.031 C 
ATOM     52  C   UNL A   1      45.296  28.205  33.967  1.00  0.00     0.029 A 
ATOM     53  C   UNL A   1      44.793  27.542  32.859  1.00  0.00     0.049 A 
ATOM     54  H   UNL A   1      43.056  27.971  31.740  1.00  0.00     0.167 HD
ATOM     55  C   UNL A   1      44.759  25.773  31.111  1.00  0.00     0.074 A 
ATOM     56  C   UNL A   1      45.298  24.595  30.460  1.00  0.00     0.031 C 
ATOM     57  C   UNL A   1      45.329  26.381  32.185  1.00  0.00     0.034 A 
BRANCH  44  58
ATOM     58  C   UNL A   1      42.238  31.383  34.205  1.00  0.00     0.023 A 
ATOM     59  C   UNL A   1      41.414  31.388  35.345  1.00  0.00     0.031 A 
ATOM     60  C   UNL A   1      42.967  32.551  33.922  1.00  0.00     0.131 A 
ATOM     61  C   UNL A   1      41.255  32.564  36.093  1.00  0.00     0.055 A 
ATOM     62  C   UNL A   1      42.882  33.687  34.729  1.00  0.00     0.041 A 
ATOM     63  F   UNL A   1      43.757  32.618  32.839  1.00  0.00    -0.206 F 
ATOM     64  C   UNL A   1      42.005  33.707  35.809  1.00  0.00     0.022 A 
BRANCH  61  65
ATOM     65  S   UNL A   1      39.919  32.633  37.320  1.00  0.00     0.124 S 
ATOM     66  O   UNL A   1      39.072  31.521  36.896  1.00  0.00    -0.237 OA
ATOM     67  O   UNL A   1      40.636  32.449  38.576  1.00  0.00    -0.237 OA
ATOM     68  O   UNL A   1      39.339  33.960  37.119  1.00  0.00    -0.744 OA
ENDBRANCH  61  65
ENDBRANCH  44  58
BRANCH  45  69
ATOM     69  C   UNL A   1      42.470  24.044  27.362  1.00  0.00     0.023 A 
ATOM     70  C   UNL A   1      41.667  22.893  27.413  1.00  0.00     0.031 A 
ATOM     71  C   UNL A   1      43.352  24.186  26.276  1.00  0.00     0.131 A 
ATOM     72  C   UNL A   1      41.784  21.915  26.413  1.00  0.00     0.055 A 
ATOM     73  C   UNL A   1      43.430  23.232  25.260  1.00  0.00     0.041 A 
ATOM     74  F   UNL A   1      44.133  25.273  26.175  1.00  0.00    -0.206 F 
ATOM     75  C   UNL A   1      42.650  22.082  25.330  1.00  0.00     0.022 A 
BRANCH  72  76
ATOM     76  S   UNL A   1      40.824  20.384  26.576  1.00  0.00     0.124 S 
ATOM     77  O   UNL A   1      40.900  20.136  28.012  1.00  0.00    -0.237 OA
ATOM     78  O   UNL A   1      39.518  20.789  26.064  1.00  0.00    -0.237 OA
ATOM     79  O   UNL A   1      41.552  19.434  25.738  1.00  0.00    -0.744 OA
ENDBRANCH  72  76
ENDBRANCH  45  69
BRANCH  57  80
ATOM     80  C   UNL A   1      46.585  25.753  32.738  1.00  0.00     0.023 A 
ATOM     81  C   UNL A   1      47.851  26.019  32.188  1.00  0.00     0.031 A 
ATOM     82  C   UNL A   1      46.511  24.868  33.829  1.00  0.00     0.131 A 
ATOM     83  C   UNL A   1      48.983  25.362  32.691  1.00  0.00     0.055 A 
ATOM     84  C   UNL A   1      47.649  24.267  34.367  1.00  0.00     0.041 A 
ATOM     85  F   UNL A   1      45.328  24.573  34.391  1.00  0.00    -0.206 F 
ATOM     86  C   UNL A   1      48.893  24.502  33.789  1.00  0.00     0.022 A 
BRANCH  83  87
ATOM     87  S   UNL A   1      50.565  25.566  31.826  1.00  0.00     0.124 S 
ATOM     88  O   UNL A   1      50.260  26.644  30.891  1.00  0.00    -0.237 OA
ATOM     89  O   UNL A   1      51.475  25.904  32.915  1.00  0.00    -0.237 OA
ATOM     90  O   UNL A   1      50.792  24.259  31.212  1.00  0.00    -0.744 OA
ENDBRANCH  83  87
ENDBRANCH  57  80
ENDBRANCH  31  32
ENDBRANCH  23  26
ENDBRANCH  21  22
ENDBRANCH  20  21
ENDBRANCH   1  20
TORSDOF 18
ENDMDL
