MODEL 1
REMARK VINA RESULT:     -12.0      0.000      0.000
REMARK SMILES CC[C@H]1CC[C@](C(=O)NCCCNC(=O)c2ccc(-c3c4nc(c(-c5cc(S(=O)(=O)[O-])ccc5F)c5ccc([nH]5)c(-c5cc(S(=O)(=O)[O-])ccc5F)c5nc(c(-c6cc(S(=O)(=O)[O-])ccc6F)c6ccc3[nH]6)C=C5)C=C4)cc2)([C@H]2CCC[C@@H](S(C)(=O)=O)C2)CC1
REMARK SMILES IDX 11 1 10 2 9 3 7 4 8 5 6 7 3 8 90 9 4 10 89 11 5 12 2 13 1 14
REMARK SMILES IDX 79 15 80 16 88 17 81 18 83 19 82 20 84 21 85 22 86 23 87 24
REMARK SMILES IDX 12 25 13 26 14 27 15 29 16 30 17 31 78 32 18 33 77 34 19 35
REMARK SMILES IDX 20 36 21 37 71 38 22 39 76 40 70 41 72 42 23 43 75 44 69 45
REMARK SMILES IDX 68 46 24 48 56 49 36 50 55 51 37 52 40 53 54 54 73 55 38 56
REMARK SMILES IDX 39 57 53 59 74 60 41 61 25 62 26 63 34 64 27 65 33 66 35 67
REMARK SMILES IDX 32 68 28 69 29 70 30 71 31 72 57 73 58 74 66 75 59 76 65 77
REMARK SMILES IDX 67 78 64 79 60 80 61 81 62 82 63 83 42 84 43 85 51 86 44 87
REMARK SMILES IDX 50 88 52 89 49 90 45 91 46 92 47 93 48 94
REMARK H PARENT 9 6 13 28 72 47 40 58
REMARK Flexibility Score: inf
ROOT
ATOM      1  C   UNL A   1      35.767  22.105  25.081  1.00  0.00     0.042 C 
ENDROOT
BRANCH   1   2
ATOM      2  C   UNL A   1      34.483  22.121  25.878  1.00  0.00     0.117 C 
BRANCH   2   3
ATOM      3  N   UNL A   1      34.250  23.410  26.492  1.00  0.00    -0.356 N 
ATOM      4  C   UNL A   1      32.974  23.877  26.526  1.00  0.00     0.226 C 
ATOM      5  O   UNL A   1      32.228  23.497  27.427  1.00  0.00    -0.274 OA
ATOM      6  H   UNL A   1      34.992  23.931  26.875  1.00  0.00     0.163 HD
BRANCH   4   7
ATOM      7  C   UNL A   1      32.518  24.858  25.438  1.00  0.00     0.052 C 
ATOM      8  C   UNL A   1      31.918  22.982  23.058  1.00  0.00    -0.011 C 
ATOM      9  C   UNL A   1      31.067  23.035  24.339  1.00  0.00     0.005 C 
ATOM     10  C   UNL A   1      33.250  23.740  23.150  1.00  0.00     0.005 C 
ATOM     11  C   UNL A   1      31.084  24.402  25.051  1.00  0.00     0.017 C 
ATOM     12  C   UNL A   1      33.313  24.921  24.105  1.00  0.00     0.017 C 
BRANCH   8  13
ATOM     13  C   UNL A   1      32.224  21.556  22.517  1.00  0.00    -0.000 C 
ATOM     14  C   UNL A   1      32.378  20.448  23.543  1.00  0.00     0.004 C 
ENDBRANCH   8  13
BRANCH   7  15
ATOM     15  C   UNL A   1      32.544  26.330  26.063  1.00  0.00     0.006 C 
ATOM     16  C   UNL A   1      33.806  27.193  25.885  1.00  0.00     0.005 C 
ATOM     17  C   UNL A   1      31.278  27.207  25.865  1.00  0.00     0.024 C 
ATOM     18  C   UNL A   1      33.830  28.151  24.697  1.00  0.00     0.002 C 
ATOM     19  C   UNL A   1      31.226  28.235  24.731  1.00  0.00     0.108 C 
ATOM     20  C   UNL A   1      32.551  28.935  24.428  1.00  0.00     0.020 C 
BRANCH  19  21
ATOM     21  S   UNL A   1      30.316  27.812  23.225  1.00  0.00     0.150 S 
ATOM     22  C   UNL A   1      30.054  29.322  22.321  1.00  0.00     0.158 C 
ATOM     23  O   UNL A   1      31.211  27.012  22.409  1.00  0.00    -0.229 OA
ATOM     24  O   UNL A   1      29.008  27.286  23.572  1.00  0.00    -0.229 OA
ENDBRANCH  19  21
ENDBRANCH   7  15
ENDBRANCH   4   7
ENDBRANCH   2   3
ENDBRANCH   1   2
BRANCH   1  25
ATOM     25  C   UNL A   1      36.806  22.982  25.752  1.00  0.00     0.118 C 
BRANCH  25  26
ATOM     26  N   UNL A   1      37.967  22.193  26.149  1.00  0.00    -0.352 N 
ATOM     27  C   UNL A   1      39.246  22.590  26.461  1.00  0.00     0.251 C 
ATOM     28  H   UNL A   1      37.811  21.223  26.201  1.00  0.00     0.163 HD
ATOM     29  O   UNL A   1      40.158  21.771  26.388  1.00  0.00    -0.269 OA
BRANCH  27  30
ATOM     30  C   UNL A   1      39.523  23.983  26.878  1.00  0.00     0.039 A 
ATOM     31  C   UNL A   1      40.080  24.881  25.964  1.00  0.00     0.014 A 
ATOM     32  C   UNL A   1      39.316  24.387  28.197  1.00  0.00     0.014 A 
ATOM     33  C   UNL A   1      40.412  26.176  26.375  1.00  0.00     0.010 A 
ATOM     34  C   UNL A   1      39.498  25.709  28.564  1.00  0.00     0.010 A 
ATOM     35  C   UNL A   1      40.113  26.602  27.680  1.00  0.00    -0.014 A 
BRANCH  35  36
ATOM     36  C   UNL A   1      40.549  27.922  28.202  1.00  0.00     0.031 A 
ATOM     37  C   UNL A   1      42.028  28.217  28.300  1.00  0.00     0.074 A 
ATOM     38  C   UNL A   1      39.641  28.810  28.646  1.00  0.00     0.049 A 
ATOM     39  N   UNL A   1      42.640  29.230  28.857  1.00  0.00    -0.248 NA
ATOM     40  C   UNL A   1      42.941  27.202  27.750  1.00  0.00     0.031 C 
ATOM     41  C   UNL A   1      38.189  28.612  28.646  1.00  0.00     0.029 A 
ATOM     42  N   UNL A   1      39.806  30.057  29.190  1.00  0.00    -0.354 N 
ATOM     43  C   UNL A   1      44.001  28.946  28.764  1.00  0.00     0.074 A 
ATOM     44  C   UNL A   1      44.116  27.630  28.178  1.00  0.00     0.031 C 
ATOM     45  C   UNL A   1      37.597  29.715  29.131  1.00  0.00     0.029 A 
ATOM     46  C   UNL A   1      38.623  30.677  29.515  1.00  0.00     0.049 A 
ATOM     47  H   UNL A   1      40.688  30.469  29.333  1.00  0.00     0.167 HD
ATOM     48  C   UNL A   1      45.058  29.726  29.101  1.00  0.00     0.034 A 
ATOM     49  C   UNL A   1      38.400  31.889  30.061  1.00  0.00     0.034 A 
ATOM     50  C   UNL A   1      44.914  31.060  29.626  1.00  0.00     0.049 A 
ATOM     51  C   UNL A   1      39.585  32.764  30.377  1.00  0.00     0.074 A 
ATOM     52  C   UNL A   1      45.901  31.973  29.954  1.00  0.00     0.029 A 
ATOM     53  N   UNL A   1      43.697  31.680  29.882  1.00  0.00    -0.354 N 
ATOM     54  N   UNL A   1      40.867  32.497  30.257  1.00  0.00    -0.248 NA
ATOM     55  C   UNL A   1      39.295  34.112  30.878  1.00  0.00     0.031 C 
ATOM     56  C   UNL A   1      45.280  33.126  30.451  1.00  0.00     0.029 A 
ATOM     57  C   UNL A   1      43.906  32.959  30.369  1.00  0.00     0.049 A 
ATOM     58  H   UNL A   1      42.814  31.269  29.739  1.00  0.00     0.167 HD
ATOM     59  C   UNL A   1      41.534  33.660  30.631  1.00  0.00     0.074 A 
ATOM     60  C   UNL A   1      40.511  34.630  30.967  1.00  0.00     0.031 C 
ATOM     61  C   UNL A   1      42.868  33.909  30.690  1.00  0.00     0.034 A 
BRANCH  48  62
ATOM     62  C   UNL A   1      46.442  29.144  28.916  1.00  0.00     0.023 A 
ATOM     63  C   UNL A   1      47.049  29.064  27.649  1.00  0.00     0.031 A 
ATOM     64  C   UNL A   1      47.144  28.608  30.010  1.00  0.00     0.131 A 
ATOM     65  C   UNL A   1      48.263  28.378  27.492  1.00  0.00     0.055 A 
ATOM     66  C   UNL A   1      48.399  28.011  29.861  1.00  0.00     0.041 A 
ATOM     67  F   UNL A   1      46.613  28.634  31.243  1.00  0.00    -0.206 F 
ATOM     68  C   UNL A   1      48.956  27.875  28.594  1.00  0.00     0.022 A 
BRANCH  65  69
ATOM     69  S   UNL A   1      48.836  28.010  25.810  1.00  0.00     0.124 S 
ATOM     70  O   UNL A   1      50.018  28.864  25.710  1.00  0.00    -0.237 OA
ATOM     71  O   UNL A   1      49.088  26.575  25.869  1.00  0.00    -0.237 OA
ATOM     72  O   UNL A   1      47.710  28.413  24.969  1.00  0.00    -0.744 OA
ENDBRANCH  65  69
ENDBRANCH  48  62
BRANCH  49  73
ATOM     73  C   UNL A   1      37.007  32.356  30.316  1.00  0.00     0.023 A 
ATOM     74  C   UNL A   1      36.260  32.975  29.301  1.00  0.00     0.031 A 
ATOM     75  C   UNL A   1      36.413  32.219  31.581  1.00  0.00     0.131 A 
ATOM     76  C   UNL A   1      34.980  33.477  29.581  1.00  0.00     0.055 A 
ATOM     77  C   UNL A   1      35.119  32.674  31.841  1.00  0.00     0.041 A 
ATOM     78  F   UNL A   1      37.079  31.622  32.584  1.00  0.00    -0.206 F 
ATOM     79  C   UNL A   1      34.400  33.321  30.841  1.00  0.00     0.022 A 
BRANCH  76  80
ATOM     80  S   UNL A   1      34.115  34.413  28.290  1.00  0.00     0.124 S 
ATOM     81  O   UNL A   1      33.790  35.652  28.988  1.00  0.00    -0.237 OA
ATOM     82  O   UNL A   1      35.135  34.509  27.251  1.00  0.00    -0.237 OA
ATOM     83  O   UNL A   1      32.973  33.563  27.962  1.00  0.00    -0.744 OA
ENDBRANCH  76  80
ENDBRANCH  49  73
BRANCH  61  84
ATOM     84  C   UNL A   1      43.282  35.307  31.070  1.00  0.00     0.023 A 
ATOM     85  C   UNL A   1      43.497  36.305  30.106  1.00  0.00     0.031 A 
ATOM     86  C   UNL A   1      43.482  35.636  32.423  1.00  0.00     0.131 A 
ATOM     87  C   UNL A   1      43.961  37.567  30.501  1.00  0.00     0.055 A 
ATOM     88  C   UNL A   1      43.884  36.912  32.815  1.00  0.00     0.041 A 
ATOM     89  F   UNL A   1      43.290  34.718  33.385  1.00  0.00    -0.206 F 
ATOM     90  C   UNL A   1      44.141  37.882  31.851  1.00  0.00     0.022 A 
BRANCH  87  91
ATOM     91  S   UNL A   1      44.430  38.761  29.219  1.00  0.00     0.124 S 
ATOM     92  O   UNL A   1      43.256  38.752  28.352  1.00  0.00    -0.237 OA
ATOM     93  O   UNL A   1      44.641  39.981  29.991  1.00  0.00    -0.237 OA
ATOM     94  O   UNL A   1      45.637  38.180  28.635  1.00  0.00    -0.744 OA
ENDBRANCH  87  91
ENDBRANCH  61  84
ENDBRANCH  35  36
ENDBRANCH  27  30
ENDBRANCH  25  26
ENDBRANCH   1  25
TORSDOF 16
ENDMDL
MODEL 2
REMARK VINA RESULT:     -11.9      4.740      9.726
REMARK SMILES CC[C@H]1CC[C@](C(=O)NCCCNC(=O)c2ccc(-c3c4nc(c(-c5cc(S(=O)(=O)[O-])ccc5F)c5ccc([nH]5)c(-c5cc(S(=O)(=O)[O-])ccc5F)c5nc(c(-c6cc(S(=O)(=O)[O-])ccc6F)c6ccc3[nH]6)C=C5)C=C4)cc2)([C@H]2CCC[C@@H](S(C)(=O)=O)C2)CC1
REMARK SMILES IDX 11 1 10 2 9 3 7 4 8 5 6 7 3 8 90 9 4 10 89 11 5 12 2 13 1 14
REMARK SMILES IDX 79 15 80 16 88 17 81 18 83 19 82 20 84 21 85 22 86 23 87 24
REMARK SMILES IDX 12 25 13 26 14 27 15 29 16 30 17 31 78 32 18 33 77 34 19 35
REMARK SMILES IDX 20 36 21 37 71 38 22 39 76 40 70 41 72 42 23 43 75 44 69 45
REMARK SMILES IDX 68 46 24 48 56 49 36 50 55 51 37 52 40 53 54 54 73 55 38 56
REMARK SMILES IDX 39 57 53 59 74 60 41 61 25 62 26 63 34 64 27 65 33 66 35 67
REMARK SMILES IDX 32 68 28 69 29 70 30 71 31 72 57 73 58 74 66 75 59 76 65 77
REMARK SMILES IDX 67 78 64 79 60 80 61 81 62 82 63 83 42 84 43 85 51 86 44 87
REMARK SMILES IDX 50 88 52 89 49 90 45 91 46 92 47 93 48 94
REMARK H PARENT 9 6 13 28 72 47 40 58
REMARK Flexibility Score: inf
ROOT
ATOM      1  C   UNL A   1      32.099  29.684  25.876  1.00  0.00     0.042 C 
ENDROOT
BRANCH   1   2
ATOM      2  C   UNL A   1      31.405  28.358  26.083  1.00  0.00     0.117 C 
BRANCH   2   3
ATOM      3  N   UNL A   1      32.277  27.244  25.783  1.00  0.00    -0.356 N 
ATOM      4  C   UNL A   1      32.709  27.102  24.501  1.00  0.00     0.226 C 
ATOM      5  O   UNL A   1      33.683  27.752  24.129  1.00  0.00    -0.274 OA
ATOM      6  H   UNL A   1      32.551  26.610  26.484  1.00  0.00     0.163 HD
BRANCH   4   7
ATOM      7  C   UNL A   1      31.961  26.136  23.574  1.00  0.00     0.052 C 
ATOM      8  C   UNL A   1      29.451  27.763  22.800  1.00  0.00    -0.011 C 
ATOM      9  C   UNL A   1      30.874  28.107  22.323  1.00  0.00     0.005 C 
ATOM     10  C   UNL A   1      29.394  26.704  23.910  1.00  0.00     0.005 C 
ATOM     11  C   UNL A   1      31.817  26.893  22.224  1.00  0.00     0.017 C 
ATOM     12  C   UNL A   1      30.524  25.688  23.960  1.00  0.00     0.017 C 
BRANCH   8  13
ATOM     13  C   UNL A   1      28.589  28.974  23.259  1.00  0.00    -0.000 C 
ATOM     14  C   UNL A   1      29.279  30.324  23.328  1.00  0.00     0.004 C 
ENDBRANCH   8  13
BRANCH   7  15
ATOM     15  C   UNL A   1      32.839  24.806  23.439  1.00  0.00     0.006 C 
ATOM     16  C   UNL A   1      34.357  24.888  23.672  1.00  0.00     0.005 C 
ATOM     17  C   UNL A   1      32.278  23.516  24.097  1.00  0.00     0.024 C 
ATOM     18  C   UNL A   1      34.863  24.576  25.077  1.00  0.00     0.002 C 
ATOM     19  C   UNL A   1      32.761  23.091  25.486  1.00  0.00     0.108 C 
ATOM     20  C   UNL A   1      34.235  23.375  25.776  1.00  0.00     0.020 C 
BRANCH  19  21
ATOM     21  S   UNL A   1      31.704  23.441  26.913  1.00  0.00     0.150 S 
ATOM     22  C   UNL A   1      30.122  22.690  26.600  1.00  0.00     0.158 C 
ATOM     23  O   UNL A   1      32.270  22.718  28.037  1.00  0.00    -0.229 OA
ATOM     24  O   UNL A   1      31.486  24.873  27.024  1.00  0.00    -0.229 OA
ENDBRANCH  19  21
ENDBRANCH   7  15
ENDBRANCH   4   7
ENDBRANCH   2   3
ENDBRANCH   1   2
BRANCH   1  25
ATOM     25  C   UNL A   1      32.644  30.198  27.194  1.00  0.00     0.118 C 
BRANCH  25  26
ATOM     26  N   UNL A   1      32.973  31.616  27.097  1.00  0.00    -0.352 N 
ATOM     27  C   UNL A   1      33.994  32.333  27.675  1.00  0.00     0.251 C 
ATOM     28  H   UNL A   1      32.369  32.144  26.528  1.00  0.00     0.163 HD
ATOM     29  O   UNL A   1      33.877  33.550  27.790  1.00  0.00    -0.269 OA
BRANCH  27  30
ATOM     30  C   UNL A   1      35.217  31.651  28.155  1.00  0.00     0.039 A 
ATOM     31  C   UNL A   1      35.175  30.287  28.459  1.00  0.00     0.014 A 
ATOM     32  C   UNL A   1      36.388  32.370  28.390  1.00  0.00     0.014 A 
ATOM     33  C   UNL A   1      36.309  29.657  28.983  1.00  0.00     0.010 A 
ATOM     34  C   UNL A   1      37.552  31.718  28.760  1.00  0.00     0.010 A 
ATOM     35  C   UNL A   1      37.511  30.369  29.128  1.00  0.00    -0.014 A 
BRANCH  35  36
ATOM     36  C   UNL A   1      38.705  29.782  29.786  1.00  0.00     0.031 A 
ATOM     37  C   UNL A   1      39.076  30.247  31.175  1.00  0.00     0.074 A 
ATOM     38  C   UNL A   1      39.482  28.904  29.126  1.00  0.00     0.049 A 
ATOM     39  N   UNL A   1      40.147  29.990  31.881  1.00  0.00    -0.248 NA
ATOM     40  C   UNL A   1      38.142  31.176  31.832  1.00  0.00     0.031 C 
ATOM     41  C   UNL A   1      39.248  28.422  27.762  1.00  0.00     0.029 A 
ATOM     42  N   UNL A   1      40.631  28.265  29.511  1.00  0.00    -0.354 N 
ATOM     43  C   UNL A   1      40.033  30.762  33.035  1.00  0.00     0.074 A 
ATOM     44  C   UNL A   1      38.835  31.557  32.891  1.00  0.00     0.031 C 
ATOM     45  C   UNL A   1      40.204  27.535  27.441  1.00  0.00     0.029 A 
ATOM     46  C   UNL A   1      41.139  27.418  28.554  1.00  0.00     0.049 A 
ATOM     47  H   UNL A   1      41.052  28.399  30.390  1.00  0.00     0.167 HD
ATOM     48  C   UNL A   1      40.832  30.778  34.131  1.00  0.00     0.034 A 
ATOM     49  C   UNL A   1      42.237  26.638  28.580  1.00  0.00     0.034 A 
ATOM     50  C   UNL A   1      41.986  29.927  34.274  1.00  0.00     0.049 A 
ATOM     51  C   UNL A   1      43.082  26.627  29.828  1.00  0.00     0.074 A 
ATOM     52  C   UNL A   1      42.844  29.806  35.353  1.00  0.00     0.029 A 
ATOM     53  N   UNL A   1      42.433  29.034  33.308  1.00  0.00    -0.354 N 
ATOM     54  N   UNL A   1      42.946  27.339  30.925  1.00  0.00    -0.248 NA
ATOM     55  C   UNL A   1      44.211  25.691  29.853  1.00  0.00     0.031 C 
ATOM     56  C   UNL A   1      43.835  28.874  35.020  1.00  0.00     0.029 A 
ATOM     57  C   UNL A   1      43.556  28.363  33.761  1.00  0.00     0.049 A 
ATOM     58  H   UNL A   1      42.012  28.899  32.428  1.00  0.00     0.167 HD
ATOM     59  C   UNL A   1      43.952  26.906  31.785  1.00  0.00     0.074 A 
ATOM     60  C   UNL A   1      44.673  25.864  31.081  1.00  0.00     0.031 C 
ATOM     61  C   UNL A   1      44.252  27.324  33.041  1.00  0.00     0.034 A 
BRANCH  48  62
ATOM     62  C   UNL A   1      40.479  31.748  35.237  1.00  0.00     0.023 A 
ATOM     63  C   UNL A   1      39.534  31.428  36.230  1.00  0.00     0.031 A 
ATOM     64  C   UNL A   1      41.051  33.032  35.271  1.00  0.00     0.131 A 
ATOM     65  C   UNL A   1      39.117  32.405  37.147  1.00  0.00     0.055 A 
ATOM     66  C   UNL A   1      40.702  33.970  36.247  1.00  0.00     0.041 A 
ATOM     67  F   UNL A   1      41.944  33.407  34.343  1.00  0.00    -0.206 F 
ATOM     68  C   UNL A   1      39.715  33.666  37.179  1.00  0.00     0.022 A 
BRANCH  65  69
ATOM     69  S   UNL A   1      37.669  32.057  38.182  1.00  0.00     0.124 S 
ATOM     70  O   UNL A   1      38.209  32.273  39.523  1.00  0.00    -0.237 OA
ATOM     71  O   UNL A   1      36.702  33.044  37.716  1.00  0.00    -0.237 OA
ATOM     72  O   UNL A   1      37.346  30.667  37.863  1.00  0.00    -0.744 OA
ENDBRANCH  65  69
ENDBRANCH  48  62
BRANCH  49  73
ATOM     73  C   UNL A   1      42.584  25.785  27.408  1.00  0.00     0.023 A 
ATOM     74  C   UNL A   1      42.130  24.459  27.323  1.00  0.00     0.031 A 
ATOM     75  C   UNL A   1      43.396  26.270  26.369  1.00  0.00     0.131 A 
ATOM     76  C   UNL A   1      42.530  23.648  26.251  1.00  0.00     0.055 A 
ATOM     77  C   UNL A   1      43.750  25.475  25.277  1.00  0.00     0.041 A 
ATOM     78  F   UNL A   1      43.846  27.536  26.393  1.00  0.00    -0.206 F 
ATOM     79  C   UNL A   1      43.327  24.151  25.221  1.00  0.00     0.022 A 
BRANCH  76  80
ATOM     80  S   UNL A   1      42.057  21.897  26.264  1.00  0.00     0.124 S 
ATOM     81  O   UNL A   1      40.624  21.974  26.004  1.00  0.00    -0.237 OA
ATOM     82  O   UNL A   1      42.878  21.355  25.186  1.00  0.00    -0.237 OA
ATOM     83  O   UNL A   1      42.426  21.456  27.607  1.00  0.00    -0.744 OA
ENDBRANCH  76  80
ENDBRANCH  49  73
BRANCH  61  84
ATOM     84  C   UNL A   1      45.370  26.603  33.750  1.00  0.00     0.023 A 
ATOM     85  C   UNL A   1      45.130  25.489  34.571  1.00  0.00     0.031 A 
ATOM     86  C   UNL A   1      46.695  27.052  33.610  1.00  0.00     0.131 A 
ATOM     87  C   UNL A   1      46.191  24.901  35.274  1.00  0.00     0.055 A 
ATOM     88  C   UNL A   1      47.755  26.424  34.263  1.00  0.00     0.041 A 
ATOM     89  F   UNL A   1      46.979  28.113  32.836  1.00  0.00    -0.206 F 
ATOM     90  C   UNL A   1      47.504  25.351  35.113  1.00  0.00     0.022 A 
BRANCH  87  91
ATOM     91  S   UNL A   1      45.816  23.605  36.486  1.00  0.00     0.124 S 
ATOM     92  O   UNL A   1      44.985  24.321  37.450  1.00  0.00    -0.237 OA
ATOM     93  O   UNL A   1      45.131  22.606  35.672  1.00  0.00    -0.237 OA
ATOM     94  O   UNL A   1      47.133  23.205  36.979  1.00  0.00    -0.744 OA
ENDBRANCH  87  91
ENDBRANCH  61  84
ENDBRANCH  35  36
ENDBRANCH  27  30
ENDBRANCH  25  26
ENDBRANCH   1  25
TORSDOF 16
ENDMDL
MODEL 3
REMARK VINA RESULT:     -11.9      4.674      9.562
REMARK SMILES CC[C@H]1CC[C@](C(=O)NCCCNC(=O)c2ccc(-c3c4nc(c(-c5cc(S(=O)(=O)[O-])ccc5F)c5ccc([nH]5)c(-c5cc(S(=O)(=O)[O-])ccc5F)c5nc(c(-c6cc(S(=O)(=O)[O-])ccc6F)c6ccc3[nH]6)C=C5)C=C4)cc2)([C@H]2CCC[C@@H](S(C)(=O)=O)C2)CC1
REMARK SMILES IDX 11 1 10 2 9 3 7 4 8 5 6 7 3 8 90 9 4 10 89 11 5 12 2 13 1 14
REMARK SMILES IDX 79 15 80 16 88 17 81 18 83 19 82 20 84 21 85 22 86 23 87 24
REMARK SMILES IDX 12 25 13 26 14 27 15 29 16 30 17 31 78 32 18 33 77 34 19 35
REMARK SMILES IDX 20 36 21 37 71 38 22 39 76 40 70 41 72 42 23 43 75 44 69 45
REMARK SMILES IDX 68 46 24 48 56 49 36 50 55 51 37 52 40 53 54 54 73 55 38 56
REMARK SMILES IDX 39 57 53 59 74 60 41 61 25 62 26 63 34 64 27 65 33 66 35 67
REMARK SMILES IDX 32 68 28 69 29 70 30 71 31 72 57 73 58 74 66 75 59 76 65 77
REMARK SMILES IDX 67 78 64 79 60 80 61 81 62 82 63 83 42 84 43 85 51 86 44 87
REMARK SMILES IDX 50 88 52 89 49 90 45 91 46 92 47 93 48 94
REMARK H PARENT 9 6 13 28 72 47 40 58
REMARK Flexibility Score: inf
ROOT
ATOM      1  C   UNL A   1      32.341  29.998  25.404  1.00  0.00     0.042 C 
ENDROOT
BRANCH   1   2
ATOM      2  C   UNL A   1      32.051  28.515  25.390  1.00  0.00     0.117 C 
BRANCH   2   3
ATOM      3  N   UNL A   1      33.266  27.732  25.347  1.00  0.00    -0.356 N 
ATOM      4  C   UNL A   1      33.554  27.067  24.197  1.00  0.00     0.226 C 
ATOM      5  O   UNL A   1      34.110  27.675  23.285  1.00  0.00    -0.274 OA
ATOM      6  H   UNL A   1      33.867  27.683  26.126  1.00  0.00     0.163 HD
BRANCH   4   7
ATOM      7  C   UNL A   1      33.173  25.585  24.087  1.00  0.00     0.052 C 
ATOM      8  C   UNL A   1      30.112  25.712  23.685  1.00  0.00    -0.011 C 
ATOM      9  C   UNL A   1      31.133  26.172  22.628  1.00  0.00     0.005 C 
ATOM     10  C   UNL A   1      30.717  25.429  25.068  1.00  0.00     0.005 C 
ATOM     11  C   UNL A   1      32.488  25.441  22.699  1.00  0.00     0.017 C 
ATOM     12  C   UNL A   1      32.172  24.990  25.115  1.00  0.00     0.017 C 
BRANCH   8  13
ATOM     13  C   UNL A   1      28.890  26.652  23.888  1.00  0.00    -0.000 C 
ATOM     14  C   UNL A   1      28.948  28.012  23.217  1.00  0.00     0.004 C 
ENDBRANCH   8  13
BRANCH   7  15
ATOM     15  C   UNL A   1      34.516  24.723  24.198  1.00  0.00     0.006 C 
ATOM     16  C   UNL A   1      35.171  24.539  25.578  1.00  0.00     0.005 C 
ATOM     17  C   UNL A   1      34.567  23.385  23.411  1.00  0.00     0.024 C 
ATOM     18  C   UNL A   1      34.799  23.284  26.362  1.00  0.00     0.002 C 
ATOM     19  C   UNL A   1      34.259  22.065  24.123  1.00  0.00     0.108 C 
ATOM     20  C   UNL A   1      34.738  21.981  25.572  1.00  0.00     0.020 C 
BRANCH  19  21
ATOM     21  S   UNL A   1      32.622  21.326  23.900  1.00  0.00     0.150 S 
ATOM     22  C   UNL A   1      31.724  21.555  25.418  1.00  0.00     0.158 C 
ATOM     23  O   UNL A   1      31.934  22.132  22.907  1.00  0.00    -0.229 OA
ATOM     24  O   UNL A   1      32.752  19.895  23.688  1.00  0.00    -0.229 OA
ENDBRANCH  19  21
ENDBRANCH   7  15
ENDBRANCH   4   7
ENDBRANCH   2   3
ENDBRANCH   1   2
BRANCH   1  25
ATOM     25  C   UNL A   1      32.075  30.567  26.784  1.00  0.00     0.118 C 
BRANCH  25  26
ATOM     26  N   UNL A   1      32.303  32.009  26.799  1.00  0.00    -0.352 N 
ATOM     27  C   UNL A   1      33.222  32.755  27.497  1.00  0.00     0.251 C 
ATOM     28  H   UNL A   1      31.704  32.529  26.217  1.00  0.00     0.163 HD
ATOM     29  O   UNL A   1      33.006  33.951  27.675  1.00  0.00    -0.269 OA
BRANCH  27  30
ATOM     30  C   UNL A   1      34.454  32.130  28.029  1.00  0.00     0.039 A 
ATOM     31  C   UNL A   1      34.476  30.758  28.292  1.00  0.00     0.014 A 
ATOM     32  C   UNL A   1      35.566  32.909  28.350  1.00  0.00     0.014 A 
ATOM     33  C   UNL A   1      35.614  30.179  28.864  1.00  0.00     0.010 A 
ATOM     34  C   UNL A   1      36.744  32.314  28.770  1.00  0.00     0.010 A 
ATOM     35  C   UNL A   1      36.761  30.953  29.098  1.00  0.00    -0.014 A 
BRANCH  35  36
ATOM     36  C   UNL A   1      37.949  30.417  29.808  1.00  0.00     0.031 A 
ATOM     37  C   UNL A   1      38.198  30.838  31.238  1.00  0.00     0.074 A 
ATOM     38  C   UNL A   1      38.825  29.625  29.163  1.00  0.00     0.049 A 
ATOM     39  N   UNL A   1      39.237  30.620  32.001  1.00  0.00    -0.248 NA
ATOM     40  C   UNL A   1      37.162  31.671  31.870  1.00  0.00     0.031 C 
ATOM     41  C   UNL A   1      38.713  29.194  27.767  1.00  0.00     0.029 A 
ATOM     42  N   UNL A   1      39.990  29.046  29.596  1.00  0.00    -0.354 N 
ATOM     43  C   UNL A   1      38.996  31.326  33.178  1.00  0.00     0.074 A 
ATOM     44  C   UNL A   1      37.758  32.046  32.989  1.00  0.00     0.031 C 
ATOM     45  C   UNL A   1      39.747  28.389  27.473  1.00  0.00     0.029 A 
ATOM     46  C   UNL A   1      40.615  28.282  28.639  1.00  0.00     0.049 A 
ATOM     47  H   UNL A   1      40.344  29.165  30.507  1.00  0.00     0.167 HD
ATOM     48  C   UNL A   1      39.721  31.342  34.325  1.00  0.00     0.034 A 
ATOM     49  C   UNL A   1      41.761  27.576  28.705  1.00  0.00     0.034 A 
ATOM     50  C   UNL A   1      40.919  30.565  34.507  1.00  0.00     0.049 A 
ATOM     51  C   UNL A   1      42.523  27.561  30.005  1.00  0.00     0.074 A 
ATOM     52  C   UNL A   1      41.714  30.449  35.635  1.00  0.00     0.029 A 
ATOM     53  N   UNL A   1      41.488  29.751  33.535  1.00  0.00    -0.354 N 
ATOM     54  N   UNL A   1      42.269  28.209  31.120  1.00  0.00    -0.248 NA
ATOM     55  C   UNL A   1      43.710  26.703  30.064  1.00  0.00     0.031 C 
ATOM     56  C   UNL A   1      42.786  29.602  35.328  1.00  0.00     0.029 A 
ATOM     57  C   UNL A   1      42.624  29.135  34.032  1.00  0.00     0.049 A 
ATOM     58  H   UNL A   1      41.134  29.630  32.624  1.00  0.00     0.167 HD
ATOM     59  C   UNL A   1      43.245  27.803  32.025  1.00  0.00     0.074 A 
ATOM     60  C   UNL A   1      44.081  26.847  31.327  1.00  0.00     0.031 C 
ATOM     61  C   UNL A   1      43.435  28.180  33.316  1.00  0.00     0.034 A 
BRANCH  48  62
ATOM     62  C   UNL A   1      39.232  32.233  35.446  1.00  0.00     0.023 A 
ATOM     63  C   UNL A   1      39.619  33.583  35.542  1.00  0.00     0.031 A 
ATOM     64  C   UNL A   1      38.414  31.715  36.465  1.00  0.00     0.131 A 
ATOM     65  C   UNL A   1      39.274  34.334  36.676  1.00  0.00     0.055 A 
ATOM     66  C   UNL A   1      37.994  32.497  37.544  1.00  0.00     0.041 A 
ATOM     67  F   UNL A   1      38.025  30.430  36.443  1.00  0.00    -0.206 F 
ATOM     68  C   UNL A   1      38.441  33.810  37.665  1.00  0.00     0.022 A 
BRANCH  65  69
ATOM     69  S   UNL A   1      40.068  35.948  36.916  1.00  0.00     0.124 S 
ATOM     70  O   UNL A   1      39.792  36.604  35.640  1.00  0.00    -0.237 OA
ATOM     71  O   UNL A   1      39.360  36.480  38.075  1.00  0.00    -0.237 OA
ATOM     72  O   UNL A   1      41.472  35.609  37.144  1.00  0.00    -0.744 OA
ENDBRANCH  65  69
ENDBRANCH  48  62
BRANCH  49  73
ATOM     73  C   UNL A   1      42.240  26.805  27.522  1.00  0.00     0.023 A 
ATOM     74  C   UNL A   1      41.954  25.437  27.391  1.00  0.00     0.031 A 
ATOM     75  C   UNL A   1      43.013  27.415  26.520  1.00  0.00     0.131 A 
ATOM     76  C   UNL A   1      42.478  24.711  26.311  1.00  0.00     0.055 A 
ATOM     77  C   UNL A   1      43.490  26.700  25.420  1.00  0.00     0.041 A 
ATOM     78  F   UNL A   1      43.305  28.724  26.589  1.00  0.00    -0.206 F 
ATOM     79  C   UNL A   1      43.235  25.336  25.319  1.00  0.00     0.022 A 
BRANCH  76  80
ATOM     80  S   UNL A   1      42.222  22.916  26.266  1.00  0.00     0.124 S 
ATOM     81  O   UNL A   1      42.733  22.576  24.943  1.00  0.00    -0.237 OA
ATOM     82  O   UNL A   1      43.026  22.468  27.400  1.00  0.00    -0.237 OA
ATOM     83  O   UNL A   1      40.778  22.775  26.435  1.00  0.00    -0.744 OA
ENDBRANCH  76  80
ENDBRANCH  49  73
BRANCH  61  84
ATOM     84  C   UNL A   1      44.553  27.501  34.066  1.00  0.00     0.023 A 
ATOM     85  C   UNL A   1      44.346  26.321  34.797  1.00  0.00     0.031 A 
ATOM     86  C   UNL A   1      45.843  28.060  34.058  1.00  0.00     0.131 A 
ATOM     87  C   UNL A   1      45.396  25.771  35.545  1.00  0.00     0.055 A 
ATOM     88  C   UNL A   1      46.900  27.474  34.754  1.00  0.00     0.041 A 
ATOM     89  F   UNL A   1      46.096  29.188  33.374  1.00  0.00    -0.206 F 
ATOM     90  C   UNL A   1      46.676  26.330  35.515  1.00  0.00     0.022 A 
BRANCH  87  91
ATOM     91  S   UNL A   1      45.041  24.372  36.643  1.00  0.00     0.124 S 
ATOM     92  O   UNL A   1      46.380  23.885  36.958  1.00  0.00    -0.237 OA
ATOM     93  O   UNL A   1      44.321  25.012  37.739  1.00  0.00    -0.237 OA
ATOM     94  O   UNL A   1      44.236  23.479  35.812  1.00  0.00    -0.744 OA
ENDBRANCH  87  91
ENDBRANCH  61  84
ENDBRANCH  35  36
ENDBRANCH  27  30
ENDBRANCH  25  26
ENDBRANCH   1  25
TORSDOF 16
ENDMDL
