MODEL 1
REMARK VINA RESULT:     -13.7      0.000      0.000
REMARK SMILES O=C(NCCCNC(=O)c1nn(Cc2ccc(F)cc2)c2c1CN(C(=O)[C@H]1CC1(F)F)CC2)c1ccc(-c2c3nc(c(-c4cc(S(=O)(=O)[O-])ccc4F)c4ccc([nH]4)c(-c4cc(S(=O)(=O)[O-])ccc4F)c4nc(c(-c5cc(S(=O)(=O)[O-])ccc5F)c5ccc2[nH]5)C=C4)C=C3)cc1
REMARK SMILES IDX 4 1 3 2 1 3 2 4 34 6 35 7 96 8 36 9 95 10 37 11 38 12 39 13
REMARK SMILES IDX 89 14 40 15 94 16 88 17 90 18 41 19 93 20 87 21 86 22 42 24
REMARK SMILES IDX 74 25 54 26 73 27 55 28 58 29 72 30 91 31 56 32 57 33 71 35
REMARK SMILES IDX 92 36 59 37 43 38 44 39 52 40 45 41 51 42 53 43 50 44 46 45
REMARK SMILES IDX 47 46 48 47 49 48 75 49 76 50 84 51 77 52 83 53 85 54 82 55
REMARK SMILES IDX 78 56 79 57 80 58 81 59 60 60 61 61 69 62 62 63 68 64 70 65
REMARK SMILES IDX 67 66 63 67 64 68 65 69 66 70 5 71 6 72 7 73 8 74 9 76 10 77
REMARK SMILES IDX 11 78 22 79 12 80 21 81 23 82 33 83 24 84 32 85 13 86 14 87
REMARK SMILES IDX 15 88 20 89 16 90 19 91 17 92 18 93 25 94 26 95 27 96 28 97
REMARK SMILES IDX 29 98 30 99 31 100
REMARK H PARENT 3 5 90 23 58 34 7 75
REMARK Flexibility Score: inf
ROOT
ATOM      1  C   UNL A   1      35.080  29.224  27.199  1.00  0.00     0.118 C 
ENDROOT
BRANCH   1   2
ATOM      2  N   UNL A   1      35.171  29.762  28.541  1.00  0.00    -0.352 N 
ATOM      3  O   UNL A   1      35.974  30.735  30.356  1.00  0.00    -0.269 OA
ATOM      4  C   UNL A   1      36.208  29.981  29.407  1.00  0.00     0.251 C 
ATOM      5  H   UNL A   1      34.299  30.030  28.910  1.00  0.00     0.163 HD
BRANCH   4   6
ATOM      6  C   UNL A   1      37.523  29.292  29.341  1.00  0.00     0.039 A 
ATOM      7  C   UNL A   1      38.017  28.368  30.266  1.00  0.00     0.014 A 
ATOM      8  C   UNL A   1      38.351  29.692  28.276  1.00  0.00     0.014 A 
ATOM      9  C   UNL A   1      39.350  27.967  30.214  1.00  0.00     0.010 A 
ATOM     10  C   UNL A   1      39.673  29.286  28.213  1.00  0.00     0.010 A 
ATOM     11  C   UNL A   1      40.187  28.470  29.219  1.00  0.00    -0.014 A 
BRANCH  11  12
ATOM     12  C   UNL A   1      41.579  28.026  29.151  1.00  0.00     0.031 A 
ATOM     13  C   UNL A   1      41.783  26.722  28.438  1.00  0.00     0.074 A 
ATOM     14  C   UNL A   1      42.588  28.853  29.512  1.00  0.00     0.049 A 
ATOM     15  N   UNL A   1      42.460  25.685  28.815  1.00  0.00    -0.248 NA
ATOM     16  C   UNL A   1      41.047  26.509  27.173  1.00  0.00     0.031 C 
ATOM     17  C   UNL A   1      42.491  30.244  29.970  1.00  0.00     0.029 A 
ATOM     18  N   UNL A   1      43.935  28.678  29.420  1.00  0.00    -0.354 N 
ATOM     19  C   UNL A   1      42.394  24.769  27.763  1.00  0.00     0.074 A 
ATOM     20  C   UNL A   1      41.410  25.271  26.841  1.00  0.00     0.031 C 
ATOM     21  C   UNL A   1      43.696  30.845  29.848  1.00  0.00     0.029 A 
ATOM     22  C   UNL A   1      44.676  29.862  29.418  1.00  0.00     0.049 A 
ATOM     23  H   UNL A   1      44.353  27.788  29.360  1.00  0.00     0.167 HD
ATOM     24  C   UNL A   1      43.280  23.743  27.620  1.00  0.00     0.034 A 
ATOM     25  C   UNL A   1      45.966  30.026  29.000  1.00  0.00     0.034 A 
ATOM     26  C   UNL A   1      43.964  23.452  28.850  1.00  0.00     0.049 A 
ATOM     27  C   UNL A   1      46.581  28.672  29.009  1.00  0.00     0.074 A 
ATOM     28  C   UNL A   1      43.553  23.000  30.088  1.00  0.00     0.029 A 
ATOM     29  N   UNL A   1      45.205  24.006  29.052  1.00  0.00    -0.354 N 
ATOM     30  N   UNL A   1      46.748  27.966  30.095  1.00  0.00    -0.248 NA
ATOM     31  C   UNL A   1      46.520  27.910  27.770  1.00  0.00     0.031 C 
ATOM     32  C   UNL A   1      44.304  23.772  31.022  1.00  0.00     0.029 A 
ATOM     33  C   UNL A   1      45.186  24.579  30.302  1.00  0.00     0.049 A 
ATOM     34  H   UNL A   1      45.962  23.994  28.422  1.00  0.00     0.167 HD
ATOM     35  C   UNL A   1      46.392  26.675  29.739  1.00  0.00     0.074 A 
ATOM     36  C   UNL A   1      46.308  26.692  28.277  1.00  0.00     0.031 C 
ATOM     37  C   UNL A   1      45.914  25.782  30.654  1.00  0.00     0.034 A 
BRANCH  24  38
ATOM     38  C   UNL A   1      43.722  23.194  26.290  1.00  0.00     0.023 A 
ATOM     39  C   UNL A   1      43.587  21.818  26.022  1.00  0.00     0.031 A 
ATOM     40  C   UNL A   1      44.511  23.933  25.378  1.00  0.00     0.131 A 
ATOM     41  C   UNL A   1      44.235  21.237  24.914  1.00  0.00     0.055 A 
ATOM     42  C   UNL A   1      45.110  23.362  24.253  1.00  0.00     0.041 A 
ATOM     43  F   UNL A   1      44.816  25.222  25.587  1.00  0.00    -0.206 F 
ATOM     44  C   UNL A   1      44.989  22.003  24.026  1.00  0.00     0.022 A 
BRANCH  41  45
ATOM     45  S   UNL A   1      44.176  19.436  24.703  1.00  0.00     0.124 S 
ATOM     46  O   UNL A   1      42.804  19.129  25.090  1.00  0.00    -0.237 OA
ATOM     47  O   UNL A   1      44.494  19.286  23.287  1.00  0.00    -0.237 OA
ATOM     48  O   UNL A   1      45.204  18.951  25.622  1.00  0.00    -0.744 OA
ENDBRANCH  41  45
ENDBRANCH  24  38
BRANCH  25  49
ATOM     49  C   UNL A   1      46.533  31.163  28.201  1.00  0.00     0.023 A 
ATOM     50  C   UNL A   1      45.784  31.867  27.226  1.00  0.00     0.031 A 
ATOM     51  C   UNL A   1      47.762  31.749  28.580  1.00  0.00     0.131 A 
ATOM     52  C   UNL A   1      46.272  33.085  26.682  1.00  0.00     0.055 A 
ATOM     53  C   UNL A   1      48.237  32.949  28.041  1.00  0.00     0.041 A 
ATOM     54  F   UNL A   1      48.512  31.227  29.562  1.00  0.00    -0.206 F 
ATOM     55  C   UNL A   1      47.488  33.629  27.096  1.00  0.00     0.022 A 
BRANCH  52  56
ATOM     56  S   UNL A   1      45.275  34.057  25.500  1.00  0.00     0.124 S 
ATOM     57  O   UNL A   1      44.445  34.863  26.388  1.00  0.00    -0.237 OA
ATOM     58  O   UNL A   1      46.290  34.774  24.736  1.00  0.00    -0.237 OA
ATOM     59  O   UNL A   1      44.551  33.035  24.742  1.00  0.00    -0.744 OA
ENDBRANCH  52  56
ENDBRANCH  25  49
BRANCH  37  60
ATOM     60  C   UNL A   1      45.973  26.135  32.126  1.00  0.00     0.023 A 
ATOM     61  C   UNL A   1      44.897  26.641  32.894  1.00  0.00     0.031 A 
ATOM     62  C   UNL A   1      47.149  25.778  32.811  1.00  0.00     0.131 A 
ATOM     63  C   UNL A   1      45.029  26.765  34.296  1.00  0.00     0.055 A 
ATOM     64  C   UNL A   1      47.269  25.891  34.194  1.00  0.00     0.041 A 
ATOM     65  F   UNL A   1      48.191  25.258  32.141  1.00  0.00    -0.206 F 
ATOM     66  C   UNL A   1      46.209  26.389  34.943  1.00  0.00     0.022 A 
BRANCH  63  67
ATOM     67  S   UNL A   1      43.655  27.399  35.318  1.00  0.00     0.124 S 
ATOM     68  O   UNL A   1      44.260  28.521  36.025  1.00  0.00    -0.237 OA
ATOM     69  O   UNL A   1      42.642  27.723  34.317  1.00  0.00    -0.237 OA
ATOM     70  O   UNL A   1      43.304  26.261  36.172  1.00  0.00    -0.744 OA
ENDBRANCH  63  67
ENDBRANCH  37  60
ENDBRANCH  11  12
ENDBRANCH   4   6
ENDBRANCH   1   2
BRANCH   1  71
ATOM     71  C   UNL A   1      33.668  28.896  26.717  1.00  0.00     0.042 C 
BRANCH  71  72
ATOM     72  C   UNL A   1      33.106  29.871  25.677  1.00  0.00     0.118 C 
BRANCH  72  73
ATOM     73  N   UNL A   1      33.589  29.582  24.330  1.00  0.00    -0.351 N 
ATOM     74  C   UNL A   1      33.066  28.760  23.355  1.00  0.00     0.272 C 
ATOM     75  H   UNL A   1      34.419  30.047  24.079  1.00  0.00     0.163 HD
ATOM     76  O   UNL A   1      33.778  28.490  22.385  1.00  0.00    -0.267 OA
BRANCH  74  77
ATOM     77  C   UNL A   1      31.718  28.194  23.503  1.00  0.00     0.155 A 
ATOM     78  N   UNL A   1      30.617  28.791  23.006  1.00  0.00    -0.167 NA
ATOM     79  C   UNL A   1      31.375  26.947  24.093  1.00  0.00     0.026 A 
ATOM     80  N   UNL A   1      29.578  28.043  23.442  1.00  0.00    -0.264 N 
ATOM     81  C   UNL A   1      29.995  26.937  24.117  1.00  0.00     0.046 A 
ATOM     82  C   UNL A   1      32.232  25.874  24.677  1.00  0.00     0.159 C 
ATOM     83  C   UNL A   1      29.175  25.890  24.777  1.00  0.00     0.078 C 
ATOM     84  N   UNL A   1      31.367  24.766  25.152  1.00  0.00    -0.337 N 
ATOM     85  C   UNL A   1      30.087  25.153  25.783  1.00  0.00     0.126 C 
BRANCH  80  86
ATOM     86  C   UNL A   1      28.218  28.372  23.024  1.00  0.00     0.180 C 
BRANCH  86  87
ATOM     87  C   UNL A   1      28.062  29.799  22.560  1.00  0.00    -0.026 A 
ATOM     88  C   UNL A   1      27.880  30.828  23.500  1.00  0.00     0.008 A 
ATOM     89  C   UNL A   1      28.139  30.129  21.195  1.00  0.00     0.008 A 
ATOM     90  C   UNL A   1      27.802  32.155  23.091  1.00  0.00     0.039 A 
ATOM     91  C   UNL A   1      28.064  31.464  20.788  1.00  0.00     0.039 A 
ATOM     92  C   UNL A   1      27.911  32.463  21.742  1.00  0.00     0.123 A 
ATOM     93  F   UNL A   1      27.898  33.748  21.373  1.00  0.00    -0.207 F 
ENDBRANCH  86  87
ENDBRANCH  80  86
BRANCH  84  94
ATOM     94  C   UNL A   1      31.828  23.460  25.017  1.00  0.00     0.232 C 
ATOM     95  O   UNL A   1      31.766  22.625  25.901  1.00  0.00    -0.274 OA
BRANCH  94  96
ATOM     96  C   UNL A   1      32.339  23.064  23.686  1.00  0.00     0.154 C 
ATOM     97  C   UNL A   1      33.704  22.422  23.508  1.00  0.00     0.097 C 
ATOM     98  C   UNL A   1      32.465  21.629  23.335  1.00  0.00     0.260 C 
ATOM     99  F   UNL A   1      32.222  20.598  24.210  1.00  0.00    -0.206 F 
ATOM    100  F   UNL A   1      32.136  21.179  22.074  1.00  0.00    -0.206 F 
ENDBRANCH  94  96
ENDBRANCH  84  94
ENDBRANCH  74  77
ENDBRANCH  72  73
ENDBRANCH  71  72
ENDBRANCH   1  71
TORSDOF 17
ENDMDL
MODEL 2
REMARK VINA RESULT:     -13.6      2.146      6.787
REMARK SMILES O=C(NCCCNC(=O)c1nn(Cc2ccc(F)cc2)c2c1CN(C(=O)[C@H]1CC1(F)F)CC2)c1ccc(-c2c3nc(c(-c4cc(S(=O)(=O)[O-])ccc4F)c4ccc([nH]4)c(-c4cc(S(=O)(=O)[O-])ccc4F)c4nc(c(-c5cc(S(=O)(=O)[O-])ccc5F)c5ccc2[nH]5)C=C4)C=C3)cc1
REMARK SMILES IDX 4 1 3 2 1 3 2 4 34 6 35 7 96 8 36 9 95 10 37 11 38 12 39 13
REMARK SMILES IDX 89 14 40 15 94 16 88 17 90 18 41 19 93 20 87 21 86 22 42 24
REMARK SMILES IDX 74 25 54 26 73 27 55 28 58 29 72 30 91 31 56 32 57 33 71 35
REMARK SMILES IDX 92 36 59 37 43 38 44 39 52 40 45 41 51 42 53 43 50 44 46 45
REMARK SMILES IDX 47 46 48 47 49 48 75 49 76 50 84 51 77 52 83 53 85 54 82 55
REMARK SMILES IDX 78 56 79 57 80 58 81 59 60 60 61 61 69 62 62 63 68 64 70 65
REMARK SMILES IDX 67 66 63 67 64 68 65 69 66 70 5 71 6 72 7 73 8 74 9 76 10 77
REMARK SMILES IDX 11 78 22 79 12 80 21 81 23 82 33 83 24 84 32 85 13 86 14 87
REMARK SMILES IDX 15 88 20 89 16 90 19 91 17 92 18 93 25 94 26 95 27 96 28 97
REMARK SMILES IDX 29 98 30 99 31 100
REMARK H PARENT 3 5 90 23 58 34 7 75
REMARK Flexibility Score: inf
ROOT
ATOM      1  C   UNL A   1      33.981  31.121  27.236  1.00  0.00     0.118 C 
ENDROOT
BRANCH   1   2
ATOM      2  N   UNL A   1      34.151  31.684  28.560  1.00  0.00    -0.352 N 
ATOM      3  O   UNL A   1      35.074  32.643  30.324  1.00  0.00    -0.269 OA
ATOM      4  C   UNL A   1      35.227  31.852  29.388  1.00  0.00     0.251 C 
ATOM      5  H   UNL A   1      33.310  32.019  28.947  1.00  0.00     0.163 HD
BRANCH   4   6
ATOM      6  C   UNL A   1      36.490  31.073  29.301  1.00  0.00     0.039 A 
ATOM      7  C   UNL A   1      36.595  29.684  29.187  1.00  0.00     0.014 A 
ATOM      8  C   UNL A   1      37.666  31.833  29.426  1.00  0.00     0.014 A 
ATOM      9  C   UNL A   1      37.830  29.059  29.342  1.00  0.00     0.010 A 
ATOM     10  C   UNL A   1      38.899  31.217  29.569  1.00  0.00     0.010 A 
ATOM     11  C   UNL A   1      38.969  29.825  29.586  1.00  0.00    -0.014 A 
BRANCH  11  12
ATOM     12  C   UNL A   1      40.269  29.167  29.723  1.00  0.00     0.031 A 
ATOM     13  C   UNL A   1      40.727  28.984  31.139  1.00  0.00     0.074 A 
ATOM     14  C   UNL A   1      40.867  28.589  28.656  1.00  0.00     0.049 A 
ATOM     15  N   UNL A   1      41.876  29.267  31.666  1.00  0.00    -0.248 NA
ATOM     16  C   UNL A   1      39.734  28.511  32.127  1.00  0.00     0.031 C 
ATOM     17  C   UNL A   1      40.359  28.490  27.283  1.00  0.00     0.029 A 
ATOM     18  N   UNL A   1      42.004  27.841  28.593  1.00  0.00    -0.354 N 
ATOM     19  C   UNL A   1      41.815  28.838  32.994  1.00  0.00     0.074 A 
ATOM     20  C   UNL A   1      40.441  28.504  33.256  1.00  0.00     0.031 C 
ATOM     21  C   UNL A   1      41.030  27.519  26.621  1.00  0.00     0.029 A 
ATOM     22  C   UNL A   1      42.090  27.008  27.475  1.00  0.00     0.049 A 
ATOM     23  H   UNL A   1      42.709  27.885  29.279  1.00  0.00     0.167 HD
ATOM     24  C   UNL A   1      42.928  28.610  33.748  1.00  0.00     0.034 A 
ATOM     25  C   UNL A   1      42.906  25.925  27.315  1.00  0.00     0.034 A 
ATOM     26  C   UNL A   1      44.085  29.266  33.205  1.00  0.00     0.049 A 
ATOM     27  C   UNL A   1      43.999  26.078  28.310  1.00  0.00     0.074 A 
ATOM     28  C   UNL A   1      44.426  30.588  33.000  1.00  0.00     0.029 A 
ATOM     29  N   UNL A   1      44.931  28.537  32.404  1.00  0.00    -0.354 N 
ATOM     30  N   UNL A   1      44.862  27.058  28.285  1.00  0.00    -0.248 NA
ATOM     31  C   UNL A   1      43.804  25.449  29.609  1.00  0.00     0.031 C 
ATOM     32  C   UNL A   1      45.060  30.604  31.722  1.00  0.00     0.029 A 
ATOM     33  C   UNL A   1      45.148  29.286  31.270  1.00  0.00     0.049 A 
ATOM     34  H   UNL A   1      45.309  27.650  32.603  1.00  0.00     0.167 HD
ATOM     35  C   UNL A   1      44.997  27.448  29.609  1.00  0.00     0.074 A 
ATOM     36  C   UNL A   1      44.358  26.384  30.386  1.00  0.00     0.031 C 
ATOM     37  C   UNL A   1      45.351  28.720  29.951  1.00  0.00     0.034 A 
BRANCH  24  38
ATOM     38  C   UNL A   1      43.013  27.560  34.823  1.00  0.00     0.023 A 
ATOM     39  C   UNL A   1      43.646  26.332  34.552  1.00  0.00     0.031 A 
ATOM     40  C   UNL A   1      42.263  27.625  36.021  1.00  0.00     0.131 A 
ATOM     41  C   UNL A   1      43.501  25.241  35.432  1.00  0.00     0.055 A 
ATOM     42  C   UNL A   1      42.164  26.557  36.915  1.00  0.00     0.041 A 
ATOM     43  F   UNL A   1      41.516  28.693  36.332  1.00  0.00    -0.206 F 
ATOM     44  C   UNL A   1      42.770  25.350  36.614  1.00  0.00     0.022 A 
BRANCH  41  45
ATOM     45  S   UNL A   1      44.190  23.629  34.961  1.00  0.00     0.124 S 
ATOM     46  O   UNL A   1      44.635  23.102  36.247  1.00  0.00    -0.237 OA
ATOM     47  O   UNL A   1      43.036  22.970  34.360  1.00  0.00    -0.237 OA
ATOM     48  O   UNL A   1      45.261  23.976  34.029  1.00  0.00    -0.744 OA
ENDBRANCH  41  45
ENDBRANCH  24  38
BRANCH  25  49
ATOM     49  C   UNL A   1      42.562  24.603  26.691  1.00  0.00     0.023 A 
ATOM     50  C   UNL A   1      43.484  23.852  25.921  1.00  0.00     0.031 A 
ATOM     51  C   UNL A   1      41.379  23.929  27.071  1.00  0.00     0.131 A 
ATOM     52  C   UNL A   1      43.202  22.506  25.569  1.00  0.00     0.055 A 
ATOM     53  C   UNL A   1      41.108  22.602  26.722  1.00  0.00     0.041 A 
ATOM     54  F   UNL A   1      40.477  24.504  27.881  1.00  0.00    -0.206 F 
ATOM     55  C   UNL A   1      42.024  21.880  25.977  1.00  0.00     0.022 A 
BRANCH  52  56
ATOM     56  S   UNL A   1      44.423  21.492  24.663  1.00  0.00     0.124 S 
ATOM     57  O   UNL A   1      44.473  22.158  23.366  1.00  0.00    -0.237 OA
ATOM     58  O   UNL A   1      45.615  21.605  25.495  1.00  0.00    -0.237 OA
ATOM     59  O   UNL A   1      43.816  20.160  24.646  1.00  0.00    -0.744 OA
ENDBRANCH  52  56
ENDBRANCH  25  49
BRANCH  37  60
ATOM     60  C   UNL A   1      45.814  29.673  28.867  1.00  0.00     0.023 A 
ATOM     61  C   UNL A   1      44.989  30.592  28.174  1.00  0.00     0.031 A 
ATOM     62  C   UNL A   1      47.201  29.753  28.651  1.00  0.00     0.131 A 
ATOM     63  C   UNL A   1      45.572  31.547  27.310  1.00  0.00     0.055 A 
ATOM     64  C   UNL A   1      47.770  30.704  27.807  1.00  0.00     0.041 A 
ATOM     65  F   UNL A   1      48.037  28.930  29.307  1.00  0.00    -0.206 F 
ATOM     66  C   UNL A   1      46.956  31.604  27.130  1.00  0.00     0.022 A 
BRANCH  63  67
ATOM     67  S   UNL A   1      44.540  32.758  26.414  1.00  0.00     0.124 S 
ATOM     68  O   UNL A   1      43.667  31.915  25.608  1.00  0.00    -0.237 OA
ATOM     69  O   UNL A   1      43.912  33.502  27.503  1.00  0.00    -0.237 OA
ATOM     70  O   UNL A   1      45.512  33.539  25.643  1.00  0.00    -0.744 OA
ENDBRANCH  63  67
ENDBRANCH  37  60
ENDBRANCH  11  12
ENDBRANCH   4   6
ENDBRANCH   1   2
BRANCH   1  71
ATOM     71  C   UNL A   1      33.160  29.834  27.169  1.00  0.00     0.042 C 
BRANCH  71  72
ATOM     72  C   UNL A   1      33.869  28.660  26.486  1.00  0.00     0.118 C 
BRANCH  72  73
ATOM     73  N   UNL A   1      34.222  28.956  25.100  1.00  0.00    -0.351 N 
ATOM     74  C   UNL A   1      33.603  28.585  23.926  1.00  0.00     0.272 C 
ATOM     75  H   UNL A   1      35.030  29.507  24.987  1.00  0.00     0.163 HD
ATOM     76  O   UNL A   1      34.220  28.752  22.871  1.00  0.00    -0.267 OA
BRANCH  74  77
ATOM     77  C   UNL A   1      32.269  27.969  23.950  1.00  0.00     0.155 A 
ATOM     78  N   UNL A   1      31.205  28.508  23.322  1.00  0.00    -0.167 NA
ATOM     79  C   UNL A   1      31.913  26.726  24.540  1.00  0.00     0.026 A 
ATOM     80  N   UNL A   1      30.155  27.730  23.671  1.00  0.00    -0.264 N 
ATOM     81  C   UNL A   1      30.540  26.660  24.420  1.00  0.00     0.046 A 
ATOM     82  C   UNL A   1      32.743  25.704  25.243  1.00  0.00     0.159 C 
ATOM     83  C   UNL A   1      29.694  25.599  25.023  1.00  0.00     0.078 C 
ATOM     84  N   UNL A   1      31.875  24.575  25.660  1.00  0.00    -0.337 N 
ATOM     85  C   UNL A   1      30.522  24.927  26.141  1.00  0.00     0.126 C 
BRANCH  80  86
ATOM     86  C   UNL A   1      28.835  27.992  23.104  1.00  0.00     0.180 C 
BRANCH  86  87
ATOM     87  C   UNL A   1      28.608  29.442  22.758  1.00  0.00    -0.026 A 
ATOM     88  C   UNL A   1      27.832  30.253  23.605  1.00  0.00     0.008 A 
ATOM     89  C   UNL A   1      29.198  30.017  21.618  1.00  0.00     0.008 A 
ATOM     90  C   UNL A   1      27.670  31.608  23.334  1.00  0.00     0.039 A 
ATOM     91  C   UNL A   1      29.036  31.380  21.352  1.00  0.00     0.039 A 
ATOM     92  C   UNL A   1      28.286  32.163  22.222  1.00  0.00     0.123 A 
ATOM     93  F   UNL A   1      28.172  33.478  22.012  1.00  0.00    -0.207 F 
ENDBRANCH  86  87
ENDBRANCH  80  86
BRANCH  84  94
ATOM     94  C   UNL A   1      32.397  23.286  25.615  1.00  0.00     0.232 C 
ATOM     95  O   UNL A   1      32.322  22.492  26.534  1.00  0.00    -0.274 OA
BRANCH  94  96
ATOM     96  C   UNL A   1      32.994  22.849  24.333  1.00  0.00     0.154 C 
ATOM     97  C   UNL A   1      32.549  21.577  23.632  1.00  0.00     0.097 C 
ATOM     98  C   UNL A   1      32.197  22.907  23.084  1.00  0.00     0.260 C 
ATOM     99  F   UNL A   1      30.872  23.263  23.031  1.00  0.00    -0.206 F 
ATOM    100  F   UNL A   1      32.774  23.309  21.898  1.00  0.00    -0.206 F 
ENDBRANCH  94  96
ENDBRANCH  84  94
ENDBRANCH  74  77
ENDBRANCH  72  73
ENDBRANCH  71  72
ENDBRANCH   1  71
TORSDOF 17
ENDMDL
MODEL 3
REMARK VINA RESULT:     -13.6      2.369      8.067
REMARK SMILES O=C(NCCCNC(=O)c1nn(Cc2ccc(F)cc2)c2c1CN(C(=O)[C@H]1CC1(F)F)CC2)c1ccc(-c2c3nc(c(-c4cc(S(=O)(=O)[O-])ccc4F)c4ccc([nH]4)c(-c4cc(S(=O)(=O)[O-])ccc4F)c4nc(c(-c5cc(S(=O)(=O)[O-])ccc5F)c5ccc2[nH]5)C=C4)C=C3)cc1
REMARK SMILES IDX 4 1 3 2 1 3 2 4 34 6 35 7 96 8 36 9 95 10 37 11 38 12 39 13
REMARK SMILES IDX 89 14 40 15 94 16 88 17 90 18 41 19 93 20 87 21 86 22 42 24
REMARK SMILES IDX 74 25 54 26 73 27 55 28 58 29 72 30 91 31 56 32 57 33 71 35
REMARK SMILES IDX 92 36 59 37 43 38 44 39 52 40 45 41 51 42 53 43 50 44 46 45
REMARK SMILES IDX 47 46 48 47 49 48 75 49 76 50 84 51 77 52 83 53 85 54 82 55
REMARK SMILES IDX 78 56 79 57 80 58 81 59 60 60 61 61 69 62 62 63 68 64 70 65
REMARK SMILES IDX 67 66 63 67 64 68 65 69 66 70 5 71 6 72 7 73 8 74 9 76 10 77
REMARK SMILES IDX 11 78 22 79 12 80 21 81 23 82 33 83 24 84 32 85 13 86 14 87
REMARK SMILES IDX 15 88 20 89 16 90 19 91 17 92 18 93 25 94 26 95 27 96 28 97
REMARK SMILES IDX 29 98 30 99 31 100
REMARK H PARENT 3 5 90 23 58 34 7 75
REMARK Flexibility Score: inf
ROOT
ATOM      1  C   UNL A   1      35.130  30.838  27.516  1.00  0.00     0.118 C 
ENDROOT
BRANCH   1   2
ATOM      2  N   UNL A   1      34.828  31.235  28.876  1.00  0.00    -0.352 N 
ATOM      3  O   UNL A   1      35.035  32.100  30.899  1.00  0.00    -0.269 OA
ATOM      4  C   UNL A   1      35.591  31.489  29.983  1.00  0.00     0.251 C 
ATOM      5  H   UNL A   1      33.864  31.349  29.039  1.00  0.00     0.163 HD
BRANCH   4   6
ATOM      6  C   UNL A   1      36.974  30.982  30.189  1.00  0.00     0.039 A 
ATOM      7  C   UNL A   1      38.150  31.730  30.083  1.00  0.00     0.014 A 
ATOM      8  C   UNL A   1      37.070  29.601  30.434  1.00  0.00     0.014 A 
ATOM      9  C   UNL A   1      39.389  31.092  30.075  1.00  0.00     0.010 A 
ATOM     10  C   UNL A   1      38.300  28.964  30.439  1.00  0.00     0.010 A 
ATOM     11  C   UNL A   1      39.455  29.705  30.199  1.00  0.00    -0.014 A 
BRANCH  11  12
ATOM     12  C   UNL A   1      40.758  29.041  30.217  1.00  0.00     0.031 A 
ATOM     13  C   UNL A   1      41.322  28.815  31.589  1.00  0.00     0.074 A 
ATOM     14  C   UNL A   1      41.272  28.494  29.092  1.00  0.00     0.049 A 
ATOM     15  N   UNL A   1      42.509  29.080  32.035  1.00  0.00    -0.248 NA
ATOM     16  C   UNL A   1      40.405  28.314  32.634  1.00  0.00     0.031 C 
ATOM     17  C   UNL A   1      40.660  28.438  27.759  1.00  0.00     0.029 A 
ATOM     18  N   UNL A   1      42.397  27.747  28.919  1.00  0.00    -0.354 N 
ATOM     19  C   UNL A   1      42.547  28.612  33.350  1.00  0.00     0.074 A 
ATOM     20  C   UNL A   1      41.196  28.272  33.706  1.00  0.00     0.031 C 
ATOM     21  C   UNL A   1      41.275  27.486  27.019  1.00  0.00     0.029 A 
ATOM     22  C   UNL A   1      42.395  26.948  27.774  1.00  0.00     0.049 A 
ATOM     23  H   UNL A   1      43.153  27.769  29.551  1.00  0.00     0.167 HD
ATOM     24  C   UNL A   1      43.714  28.360  34.010  1.00  0.00     0.034 A 
ATOM     25  C   UNL A   1      43.192  25.868  27.520  1.00  0.00     0.034 A 
ATOM     26  C   UNL A   1      44.829  29.030  33.401  1.00  0.00     0.049 A 
ATOM     27  C   UNL A   1      44.358  25.990  28.434  1.00  0.00     0.074 A 
ATOM     28  C   UNL A   1      45.158  30.357  33.209  1.00  0.00     0.029 A 
ATOM     29  N   UNL A   1      45.609  28.324  32.516  1.00  0.00    -0.354 N 
ATOM     30  N   UNL A   1      45.221  26.969  28.372  1.00  0.00    -0.248 NA
ATOM     31  C   UNL A   1      44.260  25.323  29.724  1.00  0.00     0.031 C 
ATOM     32  C   UNL A   1      45.693  30.410  31.888  1.00  0.00     0.029 A 
ATOM     33  C   UNL A   1      45.741  29.106  31.392  1.00  0.00     0.049 A 
ATOM     34  H   UNL A   1      45.997  27.431  32.659  1.00  0.00     0.167 HD
ATOM     35  C   UNL A   1      45.458  27.319  29.693  1.00  0.00     0.074 A 
ATOM     36  C   UNL A   1      44.875  26.233  30.485  1.00  0.00     0.031 C 
ATOM     37  C   UNL A   1      45.842  28.580  30.045  1.00  0.00     0.034 A 
BRANCH  24  38
ATOM     38  C   UNL A   1      43.876  27.278  35.044  1.00  0.00     0.023 A 
ATOM     39  C   UNL A   1      44.329  26.002  34.656  1.00  0.00     0.031 A 
ATOM     40  C   UNL A   1      43.352  27.382  36.353  1.00  0.00     0.131 A 
ATOM     41  C   UNL A   1      44.228  24.907  35.537  1.00  0.00     0.055 A 
ATOM     42  C   UNL A   1      43.301  26.306  37.241  1.00  0.00     0.041 A 
ATOM     43  F   UNL A   1      42.779  28.509  36.799  1.00  0.00    -0.206 F 
ATOM     44  C   UNL A   1      43.724  25.055  36.828  1.00  0.00     0.022 A 
BRANCH  41  45
ATOM     45  S   UNL A   1      44.663  23.250  34.938  1.00  0.00     0.124 S 
ATOM     46  O   UNL A   1      45.850  23.520  34.134  1.00  0.00    -0.237 OA
ATOM     47  O   UNL A   1      44.882  22.525  36.185  1.00  0.00    -0.237 OA
ATOM     48  O   UNL A   1      43.482  22.840  34.182  1.00  0.00    -0.744 OA
ENDBRANCH  41  45
ENDBRANCH  24  38
BRANCH  25  49
ATOM     49  C   UNL A   1      42.797  24.567  26.886  1.00  0.00     0.023 A 
ATOM     50  C   UNL A   1      43.646  23.850  26.006  1.00  0.00     0.031 A 
ATOM     51  C   UNL A   1      41.658  23.871  27.351  1.00  0.00     0.131 A 
ATOM     52  C   UNL A   1      43.338  22.514  25.635  1.00  0.00     0.055 A 
ATOM     53  C   UNL A   1      41.361  22.555  26.982  1.00  0.00     0.041 A 
ATOM     54  F   UNL A   1      40.833  24.410  28.261  1.00  0.00    -0.206 F 
ATOM     55  C   UNL A   1      42.206  21.866  26.130  1.00  0.00     0.022 A 
BRANCH  52  56
ATOM     56  S   UNL A   1      44.473  21.541  24.585  1.00  0.00     0.124 S 
ATOM     57  O   UNL A   1      44.377  22.234  23.305  1.00  0.00    -0.237 OA
ATOM     58  O   UNL A   1      45.744  21.658  25.290  1.00  0.00    -0.237 OA
ATOM     59  O   UNL A   1      43.888  20.200  24.601  1.00  0.00    -0.744 OA
ENDBRANCH  52  56
ENDBRANCH  25  49
BRANCH  37  60
ATOM     60  C   UNL A   1      46.224  29.563  28.957  1.00  0.00     0.023 A 
ATOM     61  C   UNL A   1      45.324  30.395  28.248  1.00  0.00     0.031 A 
ATOM     62  C   UNL A   1      47.600  29.773  28.755  1.00  0.00     0.131 A 
ATOM     63  C   UNL A   1      45.823  31.394  27.381  1.00  0.00     0.055 A 
ATOM     64  C   UNL A   1      48.086  30.768  27.910  1.00  0.00     0.041 A 
ATOM     65  F   UNL A   1      48.503  29.039  29.428  1.00  0.00    -0.206 F 
ATOM     66  C   UNL A   1      47.198  31.581  27.216  1.00  0.00     0.022 A 
BRANCH  63  67
ATOM     67  S   UNL A   1      44.691  32.495  26.464  1.00  0.00     0.124 S 
ATOM     68  O   UNL A   1      43.749  31.565  25.855  1.00  0.00    -0.237 OA
ATOM     69  O   UNL A   1      44.171  33.361  27.519  1.00  0.00    -0.237 OA
ATOM     70  O   UNL A   1      45.570  33.180  25.512  1.00  0.00    -0.744 OA
ENDBRANCH  63  67
ENDBRANCH  37  60
ENDBRANCH  11  12
ENDBRANCH   4   6
ENDBRANCH   1   2
BRANCH   1  71
ATOM     71  C   UNL A   1      35.374  29.345  27.307  1.00  0.00     0.042 C 
BRANCH  71  72
ATOM     72  C   UNL A   1      34.180  28.579  26.727  1.00  0.00     0.118 C 
BRANCH  72  73
ATOM     73  N   UNL A   1      33.074  28.476  27.675  1.00  0.00    -0.351 N 
ATOM     74  C   UNL A   1      31.834  27.892  27.535  1.00  0.00     0.272 C 
ATOM     75  H   UNL A   1      33.240  28.891  28.552  1.00  0.00     0.163 HD
ATOM     76  O   UNL A   1      30.979  28.141  28.388  1.00  0.00    -0.267 OA
BRANCH  74  77
ATOM     77  C   UNL A   1      31.540  27.038  26.375  1.00  0.00     0.155 A 
ATOM     78  N   UNL A   1      31.470  25.694  26.458  1.00  0.00    -0.167 NA
ATOM     79  C   UNL A   1      31.218  27.466  25.059  1.00  0.00     0.026 A 
ATOM     80  N   UNL A   1      31.304  25.268  25.185  1.00  0.00    -0.264 N 
ATOM     81  C   UNL A   1      31.169  26.306  24.313  1.00  0.00     0.046 A 
ATOM     82  C   UNL A   1      31.053  28.835  24.489  1.00  0.00     0.159 C 
ATOM     83  C   UNL A   1      31.005  26.261  22.839  1.00  0.00     0.078 C 
ATOM     84  N   UNL A   1      30.703  28.726  23.052  1.00  0.00    -0.337 N 
ATOM     85  C   UNL A   1      31.379  27.655  22.289  1.00  0.00     0.126 C 
BRANCH  80  86
ATOM     86  C   UNL A   1      31.118  23.845  24.913  1.00  0.00     0.180 C 
BRANCH  86  87
ATOM     87  C   UNL A   1      32.393  23.045  25.006  1.00  0.00    -0.026 A 
ATOM     88  C   UNL A   1      32.626  22.224  26.123  1.00  0.00     0.008 A 
ATOM     89  C   UNL A   1      33.342  23.070  23.969  1.00  0.00     0.008 A 
ATOM     90  C   UNL A   1      33.766  21.429  26.192  1.00  0.00     0.039 A 
ATOM     91  C   UNL A   1      34.484  22.267  24.041  1.00  0.00     0.039 A 
ATOM     92  C   UNL A   1      34.676  21.445  25.144  1.00  0.00     0.123 A 
ATOM     93  F   UNL A   1      35.732  20.628  25.197  1.00  0.00    -0.207 F 
ENDBRANCH  86  87
ENDBRANCH  80  86
BRANCH  84  94
ATOM     94  C   UNL A   1      29.811  29.648  22.514  1.00  0.00     0.232 C 
ATOM     95  O   UNL A   1      29.641  29.810  21.320  1.00  0.00    -0.274 OA
BRANCH  94  96
ATOM     96  C   UNL A   1      28.969  30.403  23.470  1.00  0.00     0.154 C 
ATOM     97  C   UNL A   1      29.315  31.817  23.902  1.00  0.00     0.097 C 
ATOM     98  C   UNL A   1      28.168  31.559  23.002  1.00  0.00     0.260 C 
ATOM     99  F   UNL A   1      28.213  32.061  21.725  1.00  0.00    -0.206 F 
ATOM    100  F   UNL A   1      26.891  31.770  23.478  1.00  0.00    -0.206 F 
ENDBRANCH  94  96
ENDBRANCH  84  94
ENDBRANCH  74  77
ENDBRANCH  72  73
ENDBRANCH  71  72
ENDBRANCH   1  71
TORSDOF 17
ENDMDL
