MODEL 1
REMARK VINA RESULT:     -12.0      0.000      0.000
REMARK SMILES Nc1cc(C(=O)NCCCNC(=O)c2ccc(-c3c4nc(c(-c5cc(S(=O)(=O)[O-])ccc5F)c5ccc([nH]5)c(-c5cc(S(=O)(=O)[O-])ccc5F)c5nc(c(-c6cc(S(=O)(=O)[O-])ccc6F)c6ccc3[nH]6)C=C5)C=C4)cc2)nc2ccccc12
REMARK SMILES IDX 10 1 9 2 8 3 7 4 5 5 6 6 4 8 2 9 3 10 83 11 78 12 82 13
REMARK SMILES IDX 77 14 79 15 81 16 80 17 1 18 11 21 12 22 13 24 14 25 15 26
REMARK SMILES IDX 76 27 16 28 75 29 17 30 18 31 19 32 69 33 20 34 74 35 68 36
REMARK SMILES IDX 70 37 21 38 73 39 67 40 66 41 22 43 54 44 34 45 53 46 35 47
REMARK SMILES IDX 38 48 52 49 71 50 36 51 37 52 51 54 72 55 39 56 23 57 24 58
REMARK SMILES IDX 32 59 25 60 31 61 33 62 30 63 26 64 27 65 28 66 29 67 55 68
REMARK SMILES IDX 56 69 64 70 57 71 63 72 65 73 62 74 58 75 59 76 60 77 61 78
REMARK SMILES IDX 40 79 41 80 49 81 42 82 48 83 50 84 47 85 43 86 44 87 45 88
REMARK SMILES IDX 46 89
REMARK H PARENT 7 7 1 19 1 20 11 23 70 42 38 53
REMARK Flexibility Score: inf
ROOT
ATOM      1  C   UNL A   1      36.994  21.865  25.168  1.00  0.00     0.118 C 
ENDROOT
BRANCH   1   2
ATOM      2  C   UNL A   1      35.747  21.823  26.046  1.00  0.00     0.042 C 
BRANCH   2   3
ATOM      3  C   UNL A   1      34.468  21.545  25.259  1.00  0.00     0.118 C 
BRANCH   3   4
ATOM      4  N   UNL A   1      34.448  22.281  24.010  1.00  0.00    -0.351 N 
ATOM      5  C   UNL A   1      33.925  23.499  23.637  1.00  0.00     0.269 C 
ATOM      6  O   UNL A   1      34.154  23.841  22.473  1.00  0.00    -0.268 OA
ATOM      7  H   UNL A   1      34.904  21.812  23.274  1.00  0.00     0.163 HD
BRANCH   5   8
ATOM      8  C   UNL A   1      33.140  24.414  24.545  1.00  0.00     0.130 A 
ATOM      9  C   UNL A   1      31.207  25.111  25.795  1.00  0.00     0.043 A 
ATOM     10  C   UNL A   1      31.832  24.200  24.942  1.00  0.00     0.060 A 
ATOM     11  C   UNL A   1      31.922  26.249  26.227  1.00  0.00     0.023 A 
ATOM     12  C   UNL A   1      33.230  26.417  25.727  1.00  0.00     0.073 A 
ATOM     13  C   UNL A   1      31.401  27.227  27.109  1.00  0.00     0.012 A 
ATOM     14  N   UNL A   1      33.825  25.522  24.928  1.00  0.00    -0.242 NA
ATOM     15  C   UNL A   1      33.943  27.556  26.074  1.00  0.00     0.029 A 
ATOM     16  C   UNL A   1      32.139  28.362  27.445  1.00  0.00     0.001 A 
ATOM     17  C   UNL A   1      33.409  28.533  26.916  1.00  0.00     0.002 A 
BRANCH   9  18
ATOM     18  N   UNL A   1      29.924  24.809  26.257  1.00  0.00    -0.398 N 
ATOM     19  H   UNL A   1      29.520  25.347  26.974  1.00  0.00     0.156 HD
ATOM     20  H   UNL A   1      29.424  24.057  25.863  1.00  0.00     0.156 HD
ENDBRANCH   9  18
ENDBRANCH   5   8
ENDBRANCH   3   4
ENDBRANCH   2   3
ENDBRANCH   1   2
BRANCH   1  21
ATOM     21  N   UNL A   1      37.953  20.829  25.532  1.00  0.00    -0.352 N 
ATOM     22  C   UNL A   1      39.216  20.935  26.069  1.00  0.00     0.251 C 
ATOM     23  H   UNL A   1      37.650  19.907  25.368  1.00  0.00     0.163 HD
ATOM     24  O   UNL A   1      39.943  19.951  26.088  1.00  0.00    -0.269 OA
BRANCH  22  25
ATOM     25  C   UNL A   1      39.699  22.234  26.591  1.00  0.00     0.039 A 
ATOM     26  C   UNL A   1      39.152  23.435  26.137  1.00  0.00     0.014 A 
ATOM     27  C   UNL A   1      40.709  22.248  27.557  1.00  0.00     0.014 A 
ATOM     28  C   UNL A   1      39.733  24.642  26.509  1.00  0.00     0.010 A 
ATOM     29  C   UNL A   1      41.226  23.467  28.004  1.00  0.00     0.010 A 
ATOM     30  C   UNL A   1      40.781  24.674  27.442  1.00  0.00    -0.014 A 
BRANCH  30  31
ATOM     31  C   UNL A   1      41.396  25.977  27.810  1.00  0.00     0.031 A 
ATOM     32  C   UNL A   1      42.788  26.324  27.356  1.00  0.00     0.074 A 
ATOM     33  C   UNL A   1      40.672  26.871  28.512  1.00  0.00     0.049 A 
ATOM     34  N   UNL A   1      43.470  27.422  27.558  1.00  0.00    -0.248 NA
ATOM     35  C   UNL A   1      43.515  25.305  26.581  1.00  0.00     0.031 C 
ATOM     36  C   UNL A   1      39.311  26.641  28.998  1.00  0.00     0.029 A 
ATOM     37  N   UNL A   1      40.960  28.149  28.920  1.00  0.00    -0.354 N 
ATOM     38  C   UNL A   1      44.704  27.225  26.949  1.00  0.00     0.074 A 
ATOM     39  C   UNL A   1      44.697  25.882  26.411  1.00  0.00     0.031 C 
ATOM     40  C   UNL A   1      38.863  27.757  29.590  1.00  0.00     0.029 A 
ATOM     41  C   UNL A   1      39.927  28.757  29.595  1.00  0.00     0.049 A 
ATOM     42  H   UNL A   1      41.824  28.589  28.745  1.00  0.00     0.167 HD
ATOM     43  C   UNL A   1      45.740  28.090  26.836  1.00  0.00     0.034 A 
ATOM     44  C   UNL A   1      39.844  29.976  30.169  1.00  0.00     0.034 A 
ATOM     45  C   UNL A   1      45.721  29.430  27.366  1.00  0.00     0.049 A 
ATOM     46  C   UNL A   1      41.020  30.909  30.060  1.00  0.00     0.074 A 
ATOM     47  C   UNL A   1      46.710  30.394  27.282  1.00  0.00     0.029 A 
ATOM     48  N   UNL A   1      44.670  30.000  28.072  1.00  0.00    -0.354 N 
ATOM     49  N   UNL A   1      42.164  30.722  29.444  1.00  0.00    -0.248 NA
ATOM     50  C   UNL A   1      40.901  32.219  30.714  1.00  0.00     0.031 C 
ATOM     51  C   UNL A   1      46.288  31.517  27.996  1.00  0.00     0.029 A 
ATOM     52  C   UNL A   1      44.999  31.290  28.455  1.00  0.00     0.049 A 
ATOM     53  H   UNL A   1      43.816  29.552  28.272  1.00  0.00     0.167 HD
ATOM     54  C   UNL A   1      42.892  31.895  29.619  1.00  0.00     0.074 A 
ATOM     55  C   UNL A   1      42.048  32.795  30.376  1.00  0.00     0.031 C 
ATOM     56  C   UNL A   1      44.147  32.191  29.197  1.00  0.00     0.034 A 
BRANCH  43  57
ATOM     57  C   UNL A   1      46.985  27.643  26.107  1.00  0.00     0.023 A 
ATOM     58  C   UNL A   1      47.138  27.924  24.736  1.00  0.00     0.031 A 
ATOM     59  C   UNL A   1      47.954  26.836  26.729  1.00  0.00     0.131 A 
ATOM     60  C   UNL A   1      48.214  27.375  24.026  1.00  0.00     0.055 A 
ATOM     61  C   UNL A   1      49.050  26.329  26.027  1.00  0.00     0.041 A 
ATOM     62  F   UNL A   1      47.857  26.535  28.035  1.00  0.00    -0.206 F 
ATOM     63  C   UNL A   1      49.175  26.587  24.666  1.00  0.00     0.022 A 
BRANCH  60  64
ATOM     64  S   UNL A   1      48.369  27.600  22.232  1.00  0.00     0.124 S 
ATOM     65  O   UNL A   1      48.585  26.227  21.778  1.00  0.00    -0.237 OA
ATOM     66  O   UNL A   1      47.074  28.175  21.884  1.00  0.00    -0.237 OA
ATOM     67  O   UNL A   1      49.516  28.489  22.088  1.00  0.00    -0.744 OA
ENDBRANCH  60  64
ENDBRANCH  43  57
BRANCH  44  68
ATOM     68  C   UNL A   1      38.574  30.366  30.849  1.00  0.00     0.023 A 
ATOM     69  C   UNL A   1      37.536  30.991  30.131  1.00  0.00     0.031 A 
ATOM     70  C   UNL A   1      38.433  30.247  32.241  1.00  0.00     0.131 A 
ATOM     71  C   UNL A   1      36.453  31.554  30.818  1.00  0.00     0.055 A 
ATOM     72  C   UNL A   1      37.311  30.738  32.913  1.00  0.00     0.041 A 
ATOM     73  F   UNL A   1      39.400  29.671  32.972  1.00  0.00    -0.206 F 
ATOM     74  C   UNL A   1      36.325  31.416  32.202  1.00  0.00     0.022 A 
BRANCH  71  75
ATOM     75  S   UNL A   1      35.262  32.620  29.957  1.00  0.00     0.124 S 
ATOM     76  O   UNL A   1      36.118  33.692  29.458  1.00  0.00    -0.237 OA
ATOM     77  O   UNL A   1      34.732  31.712  28.943  1.00  0.00    -0.237 OA
ATOM     78  O   UNL A   1      34.320  33.000  31.004  1.00  0.00    -0.744 OA
ENDBRANCH  71  75
ENDBRANCH  44  68
BRANCH  56  79
ATOM     79  C   UNL A   1      44.721  33.550  29.523  1.00  0.00     0.023 A 
ATOM     80  C   UNL A   1      44.615  34.599  28.587  1.00  0.00     0.031 A 
ATOM     81  C   UNL A   1      45.511  33.758  30.666  1.00  0.00     0.131 A 
ATOM     82  C   UNL A   1      45.333  35.785  28.783  1.00  0.00     0.055 A 
ATOM     83  C   UNL A   1      46.180  34.964  30.885  1.00  0.00     0.041 A 
ATOM     84  F   UNL A   1      45.655  32.787  31.582  1.00  0.00    -0.206 F 
ATOM     85  C   UNL A   1      46.107  35.977  29.933  1.00  0.00     0.022 A 
BRANCH  82  86
ATOM     86  S   UNL A   1      45.374  37.075  27.509  1.00  0.00     0.124 S 
ATOM     87  O   UNL A   1      45.976  38.193  28.231  1.00  0.00    -0.237 OA
ATOM     88  O   UNL A   1      46.217  36.468  26.484  1.00  0.00    -0.237 OA
ATOM     89  O   UNL A   1      43.972  37.255  27.144  1.00  0.00    -0.744 OA
ENDBRANCH  82  86
ENDBRANCH  56  79
ENDBRANCH  30  31
ENDBRANCH  22  25
ENDBRANCH   1  21
TORSDOF 14
ENDMDL
MODEL 2
REMARK VINA RESULT:     -12.0      1.349      1.774
REMARK SMILES Nc1cc(C(=O)NCCCNC(=O)c2ccc(-c3c4nc(c(-c5cc(S(=O)(=O)[O-])ccc5F)c5ccc([nH]5)c(-c5cc(S(=O)(=O)[O-])ccc5F)c5nc(c(-c6cc(S(=O)(=O)[O-])ccc6F)c6ccc3[nH]6)C=C5)C=C4)cc2)nc2ccccc12
REMARK SMILES IDX 10 1 9 2 8 3 7 4 5 5 6 6 4 8 2 9 3 10 83 11 78 12 82 13
REMARK SMILES IDX 77 14 79 15 81 16 80 17 1 18 11 21 12 22 13 24 14 25 15 26
REMARK SMILES IDX 76 27 16 28 75 29 17 30 18 31 19 32 69 33 20 34 74 35 68 36
REMARK SMILES IDX 70 37 21 38 73 39 67 40 66 41 22 43 54 44 34 45 53 46 35 47
REMARK SMILES IDX 38 48 52 49 71 50 36 51 37 52 51 54 72 55 39 56 23 57 24 58
REMARK SMILES IDX 32 59 25 60 31 61 33 62 30 63 26 64 27 65 28 66 29 67 55 68
REMARK SMILES IDX 56 69 64 70 57 71 63 72 65 73 62 74 58 75 59 76 60 77 61 78
REMARK SMILES IDX 40 79 41 80 49 81 42 82 48 83 50 84 47 85 43 86 44 87 45 88
REMARK SMILES IDX 46 89
REMARK H PARENT 7 7 1 19 1 20 11 23 70 42 38 53
REMARK Flexibility Score: inf
ROOT
ATOM      1  C   UNL A   1      37.494  21.685  24.892  1.00  0.00     0.118 C 
ENDROOT
BRANCH   1   2
ATOM      2  C   UNL A   1      36.077  21.174  24.646  1.00  0.00     0.042 C 
BRANCH   2   3
ATOM      3  C   UNL A   1      35.237  21.099  25.919  1.00  0.00     0.118 C 
BRANCH   3   4
ATOM      4  N   UNL A   1      34.052  20.288  25.721  1.00  0.00    -0.351 N 
ATOM      5  C   UNL A   1      32.815  20.537  25.170  1.00  0.00     0.269 C 
ATOM      6  O   UNL A   1      32.053  19.568  25.116  1.00  0.00    -0.268 OA
ATOM      7  H   UNL A   1      34.153  19.365  26.048  1.00  0.00     0.163 HD
BRANCH   5   8
ATOM      8  C   UNL A   1      32.367  21.873  24.627  1.00  0.00     0.130 A 
ATOM      9  C   UNL A   1      32.217  23.617  22.978  1.00  0.00     0.043 A 
ATOM     10  C   UNL A   1      32.698  22.369  23.379  1.00  0.00     0.060 A 
ATOM     11  C   UNL A   1      31.409  24.359  23.866  1.00  0.00     0.023 A 
ATOM     12  C   UNL A   1      31.169  23.801  25.139  1.00  0.00     0.073 A 
ATOM     13  C   UNL A   1      30.847  25.622  23.561  1.00  0.00     0.012 A 
ATOM     14  N   UNL A   1      31.618  22.593  25.502  1.00  0.00    -0.242 NA
ATOM     15  C   UNL A   1      30.436  24.529  26.067  1.00  0.00     0.029 A 
ATOM     16  C   UNL A   1      30.109  26.332  24.509  1.00  0.00     0.001 A 
ATOM     17  C   UNL A   1      29.914  25.789  25.770  1.00  0.00     0.002 A 
BRANCH   9  18
ATOM     18  N   UNL A   1      32.486  24.038  21.674  1.00  0.00    -0.398 N 
ATOM     19  H   UNL A   1      33.410  24.039  21.338  1.00  0.00     0.156 HD
ATOM     20  H   UNL A   1      31.749  24.335  21.091  1.00  0.00     0.156 HD
ENDBRANCH   9  18
ENDBRANCH   5   8
ENDBRANCH   3   4
ENDBRANCH   2   3
ENDBRANCH   1   2
BRANCH   1  21
ATOM     21  N   UNL A   1      38.355  20.654  25.460  1.00  0.00    -0.352 N 
ATOM     22  C   UNL A   1      39.530  20.767  26.167  1.00  0.00     0.251 C 
ATOM     23  H   UNL A   1      38.046  19.731  25.315  1.00  0.00     0.163 HD
ATOM     24  O   UNL A   1      40.213  19.768  26.356  1.00  0.00    -0.269 OA
BRANCH  22  25
ATOM     25  C   UNL A   1      39.978  22.087  26.666  1.00  0.00     0.039 A 
ATOM     26  C   UNL A   1      39.397  23.265  26.193  1.00  0.00     0.014 A 
ATOM     27  C   UNL A   1      40.988  22.145  27.630  1.00  0.00     0.014 A 
ATOM     28  C   UNL A   1      39.946  24.494  26.544  1.00  0.00     0.010 A 
ATOM     29  C   UNL A   1      41.473  23.385  28.055  1.00  0.00     0.010 A 
ATOM     30  C   UNL A   1      40.994  24.570  27.475  1.00  0.00    -0.014 A 
BRANCH  30  31
ATOM     31  C   UNL A   1      41.573  25.895  27.820  1.00  0.00     0.031 A 
ATOM     32  C   UNL A   1      42.944  26.283  27.336  1.00  0.00     0.074 A 
ATOM     33  C   UNL A   1      40.834  26.772  28.528  1.00  0.00     0.049 A 
ATOM     34  N   UNL A   1      43.594  27.404  27.516  1.00  0.00    -0.248 NA
ATOM     35  C   UNL A   1      43.689  25.281  26.556  1.00  0.00     0.031 C 
ATOM     36  C   UNL A   1      39.491  26.503  29.042  1.00  0.00     0.029 A 
ATOM     37  N   UNL A   1      41.088  28.062  28.919  1.00  0.00    -0.354 N 
ATOM     38  C   UNL A   1      44.822  27.241  26.886  1.00  0.00     0.074 A 
ATOM     39  C   UNL A   1      44.848  25.894  26.359  1.00  0.00     0.031 C 
ATOM     40  C   UNL A   1      39.018  27.608  29.632  1.00  0.00     0.029 A 
ATOM     41  C   UNL A   1      40.048  28.643  29.609  1.00  0.00     0.049 A 
ATOM     42  H   UNL A   1      41.933  28.528  28.725  1.00  0.00     0.167 HD
ATOM     43  C   UNL A   1      45.827  28.138  26.745  1.00  0.00     0.034 A 
ATOM     44  C   UNL A   1      39.937  29.863  30.174  1.00  0.00     0.034 A 
ATOM     45  C   UNL A   1      45.775  29.482  27.264  1.00  0.00     0.049 A 
ATOM     46  C   UNL A   1      41.080  30.833  30.034  1.00  0.00     0.074 A 
ATOM     47  C   UNL A   1      46.730  30.477  27.152  1.00  0.00     0.029 A 
ATOM     48  N   UNL A   1      44.719  30.024  27.986  1.00  0.00    -0.354 N 
ATOM     49  N   UNL A   1      42.217  30.677  29.398  1.00  0.00    -0.248 NA
ATOM     50  C   UNL A   1      40.931  32.144  30.680  1.00  0.00     0.031 C 
ATOM     51  C   UNL A   1      46.285  31.591  27.865  1.00  0.00     0.029 A 
ATOM     52  C   UNL A   1      45.014  31.327  28.350  1.00  0.00     0.049 A 
ATOM     53  H   UNL A   1      43.884  29.551  28.206  1.00  0.00     0.167 HD
ATOM     54  C   UNL A   1      42.911  31.874  29.550  1.00  0.00     0.074 A 
ATOM     55  C   UNL A   1      42.052  32.754  30.316  1.00  0.00     0.031 C 
ATOM     56  C   UNL A   1      44.147  32.207  29.102  1.00  0.00     0.034 A 
BRANCH  43  57
ATOM     57  C   UNL A   1      47.072  27.725  25.996  1.00  0.00     0.023 A 
ATOM     58  C   UNL A   1      47.183  27.983  24.616  1.00  0.00     0.031 A 
ATOM     59  C   UNL A   1      48.086  26.970  26.612  1.00  0.00     0.131 A 
ATOM     60  C   UNL A   1      48.263  27.462  23.892  1.00  0.00     0.055 A 
ATOM     61  C   UNL A   1      49.185  26.491  25.894  1.00  0.00     0.041 A 
ATOM     62  F   UNL A   1      48.030  26.693  27.925  1.00  0.00    -0.206 F 
ATOM     63  C   UNL A   1      49.269  26.726  24.526  1.00  0.00     0.022 A 
BRANCH  60  64
ATOM     64  S   UNL A   1      48.369  27.655  22.092  1.00  0.00     0.124 S 
ATOM     65  O   UNL A   1      49.498  28.573  21.957  1.00  0.00    -0.237 OA
ATOM     66  O   UNL A   1      48.623  26.285  21.653  1.00  0.00    -0.237 OA
ATOM     67  O   UNL A   1      47.070  28.207  21.721  1.00  0.00    -0.744 OA
ENDBRANCH  60  64
ENDBRANCH  43  57
BRANCH  44  68
ATOM     68  C   UNL A   1      38.668  30.218  30.875  1.00  0.00     0.023 A 
ATOM     69  C   UNL A   1      37.622  30.862  30.187  1.00  0.00     0.031 A 
ATOM     70  C   UNL A   1      38.536  30.046  32.263  1.00  0.00     0.131 A 
ATOM     71  C   UNL A   1      36.539  31.391  30.900  1.00  0.00     0.055 A 
ATOM     72  C   UNL A   1      37.414  30.504  32.959  1.00  0.00     0.041 A 
ATOM     73  F   UNL A   1      39.510  29.450  32.966  1.00  0.00    -0.206 F 
ATOM     74  C   UNL A   1      36.419  31.201  32.279  1.00  0.00     0.022 A 
BRANCH  71  75
ATOM     75  S   UNL A   1      35.336  32.480  30.086  1.00  0.00     0.124 S 
ATOM     76  O   UNL A   1      36.153  33.645  29.758  1.00  0.00    -0.237 OA
ATOM     77  O   UNL A   1      34.917  31.662  28.951  1.00  0.00    -0.237 OA
ATOM     78  O   UNL A   1      34.316  32.692  31.108  1.00  0.00    -0.744 OA
ENDBRANCH  71  75
ENDBRANCH  44  68
BRANCH  56  79
ATOM     79  C   UNL A   1      44.683  33.587  29.405  1.00  0.00     0.023 A 
ATOM     80  C   UNL A   1      44.370  34.664  28.551  1.00  0.00     0.031 A 
ATOM     81  C   UNL A   1      45.627  33.800  30.423  1.00  0.00     0.131 A 
ATOM     82  C   UNL A   1      45.037  35.886  28.696  1.00  0.00     0.055 A 
ATOM     83  C   UNL A   1      46.249  35.038  30.599  1.00  0.00     0.041 A 
ATOM     84  F   UNL A   1      45.970  32.804  31.255  1.00  0.00    -0.206 F 
ATOM     85  C   UNL A   1      45.968  36.082  29.721  1.00  0.00     0.022 A 
BRANCH  82  86
ATOM     86  S   UNL A   1      44.802  37.228  27.498  1.00  0.00     0.124 S 
ATOM     87  O   UNL A   1      43.564  36.826  26.835  1.00  0.00    -0.237 OA
ATOM     88  O   UNL A   1      44.695  38.398  28.365  1.00  0.00    -0.237 OA
ATOM     89  O   UNL A   1      45.999  37.170  26.665  1.00  0.00    -0.744 OA
ENDBRANCH  82  86
ENDBRANCH  56  79
ENDBRANCH  30  31
ENDBRANCH  22  25
ENDBRANCH   1  21
TORSDOF 14
ENDMDL
MODEL 3
REMARK VINA RESULT:     -12.0      5.286     10.630
REMARK SMILES Nc1cc(C(=O)NCCCNC(=O)c2ccc(-c3c4nc(c(-c5cc(S(=O)(=O)[O-])ccc5F)c5ccc([nH]5)c(-c5cc(S(=O)(=O)[O-])ccc5F)c5nc(c(-c6cc(S(=O)(=O)[O-])ccc6F)c6ccc3[nH]6)C=C5)C=C4)cc2)nc2ccccc12
REMARK SMILES IDX 10 1 9 2 8 3 7 4 5 5 6 6 4 8 2 9 3 10 83 11 78 12 82 13
REMARK SMILES IDX 77 14 79 15 81 16 80 17 1 18 11 21 12 22 13 24 14 25 15 26
REMARK SMILES IDX 76 27 16 28 75 29 17 30 18 31 19 32 69 33 20 34 74 35 68 36
REMARK SMILES IDX 70 37 21 38 73 39 67 40 66 41 22 43 54 44 34 45 53 46 35 47
REMARK SMILES IDX 38 48 52 49 71 50 36 51 37 52 51 54 72 55 39 56 23 57 24 58
REMARK SMILES IDX 32 59 25 60 31 61 33 62 30 63 26 64 27 65 28 66 29 67 55 68
REMARK SMILES IDX 56 69 64 70 57 71 63 72 65 73 62 74 58 75 59 76 60 77 61 78
REMARK SMILES IDX 40 79 41 80 49 81 42 82 48 83 50 84 47 85 43 86 44 87 45 88
REMARK SMILES IDX 46 89
REMARK H PARENT 7 7 1 19 1 20 11 23 70 42 38 53
REMARK Flexibility Score: inf
ROOT
ATOM      1  C   UNL A   1      32.102  30.990  26.843  1.00  0.00     0.118 C 
ENDROOT
BRANCH   1   2
ATOM      2  C   UNL A   1      31.299  30.615  25.601  1.00  0.00     0.042 C 
BRANCH   2   3
ATOM      3  C   UNL A   1      31.977  29.544  24.750  1.00  0.00     0.118 C 
BRANCH   3   4
ATOM      4  N   UNL A   1      31.211  29.259  23.553  1.00  0.00    -0.351 N 
ATOM      5  C   UNL A   1      30.642  28.113  23.042  1.00  0.00     0.269 C 
ATOM      6  O   UNL A   1      29.997  28.259  22.001  1.00  0.00    -0.268 OA
ATOM      7  H   UNL A   1      31.065  30.051  22.986  1.00  0.00     0.163 HD
BRANCH   5   8
ATOM      8  C   UNL A   1      30.742  26.746  23.676  1.00  0.00     0.130 A 
ATOM      9  C   UNL A   1      30.290  25.083  25.353  1.00  0.00     0.043 A 
ATOM     10  C   UNL A   1      30.137  26.382  24.865  1.00  0.00     0.060 A 
ATOM     11  C   UNL A   1      31.078  24.165  24.625  1.00  0.00     0.023 A 
ATOM     12  C   UNL A   1      31.704  24.639  23.454  1.00  0.00     0.073 A 
ATOM     13  C   UNL A   1      31.285  22.818  25.009  1.00  0.00     0.012 A 
ATOM     14  N   UNL A   1      31.528  25.881  22.986  1.00  0.00    -0.242 NA
ATOM     15  C   UNL A   1      32.541  23.788  22.746  1.00  0.00     0.029 A 
ATOM     16  C   UNL A   1      32.128  21.981  24.278  1.00  0.00     0.001 A 
ATOM     17  C   UNL A   1      32.768  22.471  23.150  1.00  0.00     0.002 A 
BRANCH   9  18
ATOM     18  N   UNL A   1      29.580  24.721  26.500  1.00  0.00    -0.398 N 
ATOM     19  H   UNL A   1      30.011  24.777  27.383  1.00  0.00     0.156 HD
ATOM     20  H   UNL A   1      28.649  24.412  26.426  1.00  0.00     0.156 HD
ENDBRANCH   9  18
ENDBRANCH   5   8
ENDBRANCH   3   4
ENDBRANCH   2   3
ENDBRANCH   1   2
BRANCH   1  21
ATOM     21  N   UNL A   1      32.195  32.434  27.018  1.00  0.00    -0.352 N 
ATOM     22  C   UNL A   1      33.118  33.190  27.703  1.00  0.00     0.251 C 
ATOM     23  H   UNL A   1      31.484  32.952  26.575  1.00  0.00     0.163 HD
ATOM     24  O   UNL A   1      32.886  34.373  27.915  1.00  0.00    -0.269 OA
BRANCH  22  25
ATOM     25  C   UNL A   1      34.366  32.571  28.205  1.00  0.00     0.039 A 
ATOM     26  C   UNL A   1      34.402  31.222  28.561  1.00  0.00     0.014 A 
ATOM     27  C   UNL A   1      35.521  33.351  28.310  1.00  0.00     0.014 A 
ATOM     28  C   UNL A   1      35.529  30.703  29.189  1.00  0.00     0.010 A 
ATOM     29  C   UNL A   1      36.686  32.799  28.852  1.00  0.00     0.010 A 
ATOM     30  C   UNL A   1      36.684  31.486  29.347  1.00  0.00    -0.014 A 
BRANCH  30  31
ATOM     31  C   UNL A   1      37.870  30.912  30.036  1.00  0.00     0.031 A 
ATOM     32  C   UNL A   1      38.134  31.212  31.487  1.00  0.00     0.074 A 
ATOM     33  C   UNL A   1      38.681  30.075  29.361  1.00  0.00     0.049 A 
ATOM     34  N   UNL A   1      39.100  30.777  32.255  1.00  0.00    -0.248 NA
ATOM     35  C   UNL A   1      37.198  32.124  32.165  1.00  0.00     0.031 C 
ATOM     36  C   UNL A   1      38.516  29.710  27.954  1.00  0.00     0.029 A 
ATOM     37  N   UNL A   1      39.784  29.363  29.762  1.00  0.00    -0.354 N 
ATOM     38  C   UNL A   1      38.898  31.368  33.497  1.00  0.00     0.074 A 
ATOM     39  C   UNL A   1      37.745  32.231  33.369  1.00  0.00     0.031 C 
ATOM     40  C   UNL A   1      39.446  28.805  27.623  1.00  0.00     0.029 A 
ATOM     41  C   UNL A   1      40.323  28.579  28.769  1.00  0.00     0.049 A 
ATOM     42  H   UNL A   1      40.154  29.410  30.674  1.00  0.00     0.167 HD
ATOM     43  C   UNL A   1      39.600  31.192  34.642  1.00  0.00     0.034 A 
ATOM     44  C   UNL A   1      41.409  27.777  28.769  1.00  0.00     0.034 A 
ATOM     45  C   UNL A   1      40.738  30.314  34.753  1.00  0.00     0.049 A 
ATOM     46  C   UNL A   1      42.195  27.623  30.044  1.00  0.00     0.074 A 
ATOM     47  C   UNL A   1      41.502  30.047  35.875  1.00  0.00     0.029 A 
ATOM     48  N   UNL A   1      41.275  29.561  33.717  1.00  0.00    -0.354 N 
ATOM     49  N   UNL A   1      41.965  28.156  31.221  1.00  0.00    -0.248 NA
ATOM     50  C   UNL A   1      43.382  26.759  30.000  1.00  0.00     0.031 C 
ATOM     51  C   UNL A   1      42.540  29.192  35.502  1.00  0.00     0.029 A 
ATOM     52  C   UNL A   1      42.377  28.853  34.168  1.00  0.00     0.049 A 
ATOM     53  H   UNL A   1      40.924  29.534  32.798  1.00  0.00     0.167 HD
ATOM     54  C   UNL A   1      42.966  27.678  32.062  1.00  0.00     0.074 A 
ATOM     55  C   UNL A   1      43.786  26.791  31.264  1.00  0.00     0.031 C 
ATOM     56  C   UNL A   1      43.185  27.957  33.372  1.00  0.00     0.034 A 
BRANCH  43  57
ATOM     57  C   UNL A   1      39.172  31.943  35.880  1.00  0.00     0.023 A 
ATOM     58  C   UNL A   1      38.383  31.303  36.855  1.00  0.00     0.031 A 
ATOM     59  C   UNL A   1      39.433  33.316  36.038  1.00  0.00     0.131 A 
ATOM     60  C   UNL A   1      37.855  32.042  37.922  1.00  0.00     0.055 A 
ATOM     61  C   UNL A   1      38.943  34.038  37.128  1.00  0.00     0.041 A 
ATOM     62  F   UNL A   1      40.179  33.977  35.138  1.00  0.00    -0.206 F 
ATOM     63  C   UNL A   1      38.139  33.403  38.069  1.00  0.00     0.022 A 
BRANCH  60  64
ATOM     64  S   UNL A   1      36.722  31.285  39.120  1.00  0.00     0.124 S 
ATOM     65  O   UNL A   1      35.610  32.232  39.117  1.00  0.00    -0.237 OA
ATOM     66  O   UNL A   1      36.442  29.993  38.501  1.00  0.00    -0.237 OA
ATOM     67  O   UNL A   1      37.497  31.239  40.356  1.00  0.00    -0.744 OA
ENDBRANCH  60  64
ENDBRANCH  43  57
BRANCH  44  68
ATOM     68  C   UNL A   1      41.760  27.041  27.519  1.00  0.00     0.023 A 
ATOM     69  C   UNL A   1      41.529  25.657  27.410  1.00  0.00     0.031 A 
ATOM     70  C   UNL A   1      42.454  27.677  26.476  1.00  0.00     0.131 A 
ATOM     71  C   UNL A   1      42.067  24.942  26.332  1.00  0.00     0.055 A 
ATOM     72  C   UNL A   1      42.918  26.973  25.362  1.00  0.00     0.041 A 
ATOM     73  F   UNL A   1      42.711  28.993  26.538  1.00  0.00    -0.206 F 
ATOM     74  C   UNL A   1      42.744  25.593  25.299  1.00  0.00     0.022 A 
BRANCH  71  75
ATOM     75  S   UNL A   1      42.044  23.127  26.320  1.00  0.00     0.124 S 
ATOM     76  O   UNL A   1      42.835  22.804  27.504  1.00  0.00    -0.237 OA
ATOM     77  O   UNL A   1      40.613  22.849  26.422  1.00  0.00    -0.237 OA
ATOM     78  O   UNL A   1      42.653  22.782  25.040  1.00  0.00    -0.744 OA
ENDBRANCH  71  75
ENDBRANCH  44  68
BRANCH  56  79
ATOM     79  C   UNL A   1      44.356  27.304  34.067  1.00  0.00     0.023 A 
ATOM     80  C   UNL A   1      44.230  25.994  34.573  1.00  0.00     0.031 A 
ATOM     81  C   UNL A   1      45.520  28.026  34.378  1.00  0.00     0.131 A 
ATOM     82  C   UNL A   1      45.224  25.469  35.408  1.00  0.00     0.055 A 
ATOM     83  C   UNL A   1      46.535  27.477  35.165  1.00  0.00     0.041 A 
ATOM     84  F   UNL A   1      45.685  29.281  33.932  1.00  0.00    -0.206 F 
ATOM     85  C   UNL A   1      46.381  26.200  35.698  1.00  0.00     0.022 A 
BRANCH  82  86
ATOM     86  S   UNL A   1      45.005  23.868  36.231  1.00  0.00     0.124 S 
ATOM     87  O   UNL A   1      46.233  23.168  35.861  1.00  0.00    -0.237 OA
ATOM     88  O   UNL A   1      44.905  24.255  37.635  1.00  0.00    -0.237 OA
ATOM     89  O   UNL A   1      43.783  23.331  35.639  1.00  0.00    -0.744 OA
ENDBRANCH  82  86
ENDBRANCH  56  79
ENDBRANCH  30  31
ENDBRANCH  22  25
ENDBRANCH   1  21
TORSDOF 14
ENDMDL
