MODEL 1
REMARK VINA RESULT:     -13.2      0.000      0.000
REMARK SMILES O=C(NCCCNC(=O)[C@H]1CC2(CCN(C(=O)c3cccc(O)c3)CC2)CN1C(=O)C1CC1)c1ccc(-c2c3nc(c(-c4cc(S(=O)(=O)[O-])ccc4F)c4ccc([nH]4)c(-c4cc(S(=O)(=O)[O-])ccc4F)c4nc(c(-c5cc(S(=O)(=O)[O-])ccc5F)c5ccc2[nH]5)C=C4)C=C3)cc1
REMARK SMILES IDX 4 1 3 2 1 3 2 4 34 6 35 7 96 8 36 9 95 10 37 11 38 12 39 13
REMARK SMILES IDX 89 14 40 15 94 16 88 17 90 18 41 19 93 20 87 21 86 22 42 24
REMARK SMILES IDX 74 25 54 26 73 27 55 28 58 29 72 30 91 31 56 32 57 33 71 35
REMARK SMILES IDX 92 36 59 37 43 38 44 39 52 40 45 41 51 42 53 43 50 44 46 45
REMARK SMILES IDX 47 46 48 47 49 48 75 49 76 50 84 51 77 52 83 53 85 54 82 55
REMARK SMILES IDX 78 56 79 57 80 58 81 59 60 60 61 61 69 62 62 63 68 64 70 65
REMARK SMILES IDX 67 66 63 67 64 68 65 69 66 70 5 71 6 72 7 73 8 74 9 76 10 77
REMARK SMILES IDX 11 78 28 79 12 80 27 81 13 82 26 83 14 84 25 85 15 86 16 87
REMARK SMILES IDX 17 88 29 89 30 90 31 91 32 92 33 93 18 94 19 95 24 96 20 97
REMARK SMILES IDX 22 98 21 99 23 100
REMARK H PARENT 3 5 90 23 58 34 7 75 23 101
REMARK Flexibility Score: inf
ROOT
ATOM      1  C   UNL A   1      32.777  32.817  27.127  1.00  0.00     0.118 C 
ENDROOT
BRANCH   1   2
ATOM      2  N   UNL A   1      32.582  34.167  27.622  1.00  0.00    -0.352 N 
ATOM      3  O   UNL A   1      32.720  35.864  29.094  1.00  0.00    -0.269 OA
ATOM      4  C   UNL A   1      33.158  34.781  28.711  1.00  0.00     0.251 C 
ATOM      5  H   UNL A   1      31.951  34.721  27.108  1.00  0.00     0.163 HD
BRANCH   4   6
ATOM      6  C   UNL A   1      34.288  34.145  29.432  1.00  0.00     0.039 A 
ATOM      7  C   UNL A   1      34.070  33.158  30.398  1.00  0.00     0.014 A 
ATOM      8  C   UNL A   1      35.596  34.502  29.092  1.00  0.00     0.014 A 
ATOM      9  C   UNL A   1      35.149  32.614  31.099  1.00  0.00     0.010 A 
ATOM     10  C   UNL A   1      36.680  33.901  29.744  1.00  0.00     0.010 A 
ATOM     11  C   UNL A   1      36.469  32.966  30.771  1.00  0.00    -0.014 A 
BRANCH  11  12
ATOM     12  C   UNL A   1      37.616  32.319  31.475  1.00  0.00     0.031 A 
ATOM     13  C   UNL A   1      38.396  31.203  30.830  1.00  0.00     0.074 A 
ATOM     14  C   UNL A   1      37.955  32.738  32.711  1.00  0.00     0.049 A 
ATOM     15  N   UNL A   1      39.411  30.521  31.300  1.00  0.00    -0.248 NA
ATOM     16  C   UNL A   1      37.971  30.792  29.485  1.00  0.00     0.031 C 
ATOM     17  C   UNL A   1      37.276  33.803  33.453  1.00  0.00     0.029 A 
ATOM     18  N   UNL A   1      38.955  32.332  33.560  1.00  0.00    -0.354 N 
ATOM     19  C   UNL A   1      39.734  29.586  30.321  1.00  0.00     0.074 A 
ATOM     20  C   UNL A   1      38.777  29.767  29.248  1.00  0.00     0.031 C 
ATOM     21  C   UNL A   1      37.906  33.997  34.622  1.00  0.00     0.029 A 
ATOM     22  C   UNL A   1      38.989  33.028  34.748  1.00  0.00     0.049 A 
ATOM     23  H   UNL A   1      39.588  31.612  33.339  1.00  0.00     0.167 HD
ATOM     24  C   UNL A   1      40.738  28.670  30.314  1.00  0.00     0.034 A 
ATOM     25  C   UNL A   1      39.787  32.895  35.825  1.00  0.00     0.034 A 
ATOM     26  C   UNL A   1      41.685  28.502  31.394  1.00  0.00     0.049 A 
ATOM     27  C   UNL A   1      40.861  31.836  35.814  1.00  0.00     0.074 A 
ATOM     28  C   UNL A   1      42.763  27.635  31.466  1.00  0.00     0.029 A 
ATOM     29  N   UNL A   1      41.661  29.197  32.597  1.00  0.00    -0.354 N 
ATOM     30  N   UNL A   1      41.173  30.983  34.866  1.00  0.00    -0.248 NA
ATOM     31  C   UNL A   1      41.695  31.733  37.017  1.00  0.00     0.031 C 
ATOM     32  C   UNL A   1      43.335  27.744  32.739  1.00  0.00     0.029 A 
ATOM     33  C   UNL A   1      42.680  28.750  33.429  1.00  0.00     0.049 A 
ATOM     34  H   UNL A   1      41.015  29.903  32.826  1.00  0.00     0.167 HD
ATOM     35  C   UNL A   1      42.270  30.271  35.345  1.00  0.00     0.074 A 
ATOM     36  C   UNL A   1      42.569  30.803  36.658  1.00  0.00     0.031 C 
ATOM     37  C   UNL A   1      42.973  29.276  34.744  1.00  0.00     0.034 A 
BRANCH  24  38
ATOM     38  C   UNL A   1      40.828  27.742  29.122  1.00  0.00     0.023 A 
ATOM     39  C   UNL A   1      41.756  27.946  28.085  1.00  0.00     0.031 A 
ATOM     40  C   UNL A   1      39.952  26.647  29.006  1.00  0.00     0.131 A 
ATOM     41  C   UNL A   1      41.729  27.127  26.945  1.00  0.00     0.055 A 
ATOM     42  C   UNL A   1      39.992  25.779  27.912  1.00  0.00     0.041 A 
ATOM     43  F   UNL A   1      39.028  26.408  29.950  1.00  0.00    -0.206 F 
ATOM     44  C   UNL A   1      40.872  26.028  26.864  1.00  0.00     0.022 A 
BRANCH  41  45
ATOM     45  S   UNL A   1      42.706  27.622  25.499  1.00  0.00     0.124 S 
ATOM     46  O   UNL A   1      42.619  26.428  24.660  1.00  0.00    -0.237 OA
ATOM     47  O   UNL A   1      41.986  28.795  25.018  1.00  0.00    -0.237 OA
ATOM     48  O   UNL A   1      44.032  27.885  26.055  1.00  0.00    -0.744 OA
ENDBRANCH  41  45
ENDBRANCH  24  38
BRANCH  25  49
ATOM     49  C   UNL A   1      39.602  33.774  37.016  1.00  0.00     0.023 A 
ATOM     50  C   UNL A   1      38.993  33.288  38.184  1.00  0.00     0.031 A 
ATOM     51  C   UNL A   1      39.992  35.126  36.989  1.00  0.00     0.131 A 
ATOM     52  C   UNL A   1      38.748  34.157  39.258  1.00  0.00     0.055 A 
ATOM     53  C   UNL A   1      39.802  35.970  38.083  1.00  0.00     0.041 A 
ATOM     54  F   UNL A   1      40.579  35.642  35.897  1.00  0.00    -0.206 F 
ATOM     55  C   UNL A   1      39.163  35.490  39.222  1.00  0.00     0.022 A 
BRANCH  52  56
ATOM     56  S   UNL A   1      37.794  33.541  40.672  1.00  0.00     0.124 S 
ATOM     57  O   UNL A   1      36.600  33.020  40.018  1.00  0.00    -0.237 OA
ATOM     58  O   UNL A   1      38.700  32.550  41.241  1.00  0.00    -0.237 OA
ATOM     59  O   UNL A   1      37.588  34.735  41.488  1.00  0.00    -0.744 OA
ENDBRANCH  52  56
ENDBRANCH  25  49
BRANCH  37  60
ATOM     60  C   UNL A   1      44.184  28.747  35.480  1.00  0.00     0.023 A 
ATOM     61  C   UNL A   1      44.105  27.664  36.375  1.00  0.00     0.031 A 
ATOM     62  C   UNL A   1      45.437  29.362  35.304  1.00  0.00     0.131 A 
ATOM     63  C   UNL A   1      45.238  27.278  37.109  1.00  0.00     0.055 A 
ATOM     64  C   UNL A   1      46.577  28.926  35.981  1.00  0.00     0.041 A 
ATOM     65  F   UNL A   1      45.575  30.405  34.469  1.00  0.00    -0.206 F 
ATOM     66  C   UNL A   1      46.477  27.890  36.904  1.00  0.00     0.022 A 
BRANCH  63  67
ATOM     67  S   UNL A   1      45.044  26.050  38.431  1.00  0.00     0.124 S 
ATOM     68  O   UNL A   1      44.309  26.805  39.441  1.00  0.00    -0.237 OA
ATOM     69  O   UNL A   1      44.299  24.988  37.763  1.00  0.00    -0.237 OA
ATOM     70  O   UNL A   1      46.420  25.711  38.789  1.00  0.00    -0.744 OA
ENDBRANCH  63  67
ENDBRANCH  37  60
ENDBRANCH  11  12
ENDBRANCH   4   6
ENDBRANCH   1   2
BRANCH   1  71
ATOM     71  C   UNL A   1      31.496  32.196  26.562  1.00  0.00     0.042 C 
BRANCH  71  72
ATOM     72  C   UNL A   1      31.605  30.751  26.060  1.00  0.00     0.117 C 
BRANCH  72  73
ATOM     73  N   UNL A   1      31.420  29.727  27.078  1.00  0.00    -0.354 N 
ATOM     74  C   UNL A   1      31.667  28.386  27.101  1.00  0.00     0.242 C 
ATOM     75  H   UNL A   1      31.038  30.070  27.918  1.00  0.00     0.163 HD
ATOM     76  O   UNL A   1      31.558  27.832  28.200  1.00  0.00    -0.273 OA
BRANCH  74  77
ATOM     77  C   UNL A   1      32.122  27.606  25.846  1.00  0.00     0.175 C 
ATOM     78  C   UNL A   1      32.317  26.118  26.204  1.00  0.00     0.044 C 
ATOM     79  N   UNL A   1      31.561  27.475  24.486  1.00  0.00    -0.330 N 
ATOM     80  C   UNL A   1      32.771  25.448  24.878  1.00  0.00    -0.006 C 
ATOM     81  C   UNL A   1      32.418  26.505  23.802  1.00  0.00     0.127 C 
ATOM     82  C   UNL A   1      31.995  24.130  24.630  1.00  0.00     0.030 C 
ATOM     83  C   UNL A   1      34.289  25.156  24.862  1.00  0.00     0.030 C 
ATOM     84  C   UNL A   1      32.433  23.016  25.579  1.00  0.00     0.120 C 
ATOM     85  C   UNL A   1      34.687  23.985  25.761  1.00  0.00     0.120 C 
ATOM     86  N   UNL A   1      33.877  22.808  25.469  1.00  0.00    -0.339 N 
ATOM     87  C   UNL A   1      34.515  21.596  25.218  1.00  0.00     0.253 C 
ATOM     88  O   UNL A   1      35.731  21.434  25.305  1.00  0.00    -0.269 OA
BRANCH  79  89
ATOM     89  C   UNL A   1      30.326  27.693  23.873  1.00  0.00     0.226 C 
ATOM     90  O   UNL A   1      29.598  26.728  23.615  1.00  0.00    -0.275 OA
BRANCH  89  91
ATOM     91  C   UNL A   1      29.759  28.996  23.442  1.00  0.00     0.079 C 
ATOM     92  C   UNL A   1      29.658  29.532  22.049  1.00  0.00     0.014 C 
ATOM     93  C   UNL A   1      28.422  29.114  22.795  1.00  0.00     0.014 C 
ENDBRANCH  89  91
ENDBRANCH  79  89
BRANCH  87  94
ATOM     94  C   UNL A   1      33.708  20.419  24.831  1.00  0.00     0.043 A 
ATOM     95  C   UNL A   1      33.038  20.379  23.602  1.00  0.00     0.014 A 
ATOM     96  C   UNL A   1      33.674  19.318  25.691  1.00  0.00     0.060 A 
ATOM     97  C   UNL A   1      32.285  19.255  23.262  1.00  0.00     0.005 A 
ATOM     98  C   UNL A   1      32.924  18.204  25.336  1.00  0.00     0.116 A 
ATOM     99  C   UNL A   1      32.222  18.165  24.134  1.00  0.00     0.046 A 
BRANCH  98 100
ATOM    100  O   UNL A   1      32.899  17.152  26.205  1.00  0.00    -0.508 OA
ATOM    101  H   UNL A   1      32.593  17.275  27.081  1.00  0.00     0.293 HD
ENDBRANCH  98 100
ENDBRANCH  87  94
ENDBRANCH  74  77
ENDBRANCH  72  73
ENDBRANCH  71  72
ENDBRANCH   1  71
TORSDOF 17
ENDMDL
MODEL 2
REMARK VINA RESULT:     -12.9      5.476     11.842
REMARK SMILES O=C(NCCCNC(=O)[C@H]1CC2(CCN(C(=O)c3cccc(O)c3)CC2)CN1C(=O)C1CC1)c1ccc(-c2c3nc(c(-c4cc(S(=O)(=O)[O-])ccc4F)c4ccc([nH]4)c(-c4cc(S(=O)(=O)[O-])ccc4F)c4nc(c(-c5cc(S(=O)(=O)[O-])ccc5F)c5ccc2[nH]5)C=C4)C=C3)cc1
REMARK SMILES IDX 4 1 3 2 1 3 2 4 34 6 35 7 96 8 36 9 95 10 37 11 38 12 39 13
REMARK SMILES IDX 89 14 40 15 94 16 88 17 90 18 41 19 93 20 87 21 86 22 42 24
REMARK SMILES IDX 74 25 54 26 73 27 55 28 58 29 72 30 91 31 56 32 57 33 71 35
REMARK SMILES IDX 92 36 59 37 43 38 44 39 52 40 45 41 51 42 53 43 50 44 46 45
REMARK SMILES IDX 47 46 48 47 49 48 75 49 76 50 84 51 77 52 83 53 85 54 82 55
REMARK SMILES IDX 78 56 79 57 80 58 81 59 60 60 61 61 69 62 62 63 68 64 70 65
REMARK SMILES IDX 67 66 63 67 64 68 65 69 66 70 5 71 6 72 7 73 8 74 9 76 10 77
REMARK SMILES IDX 11 78 28 79 12 80 27 81 13 82 26 83 14 84 25 85 15 86 16 87
REMARK SMILES IDX 17 88 29 89 30 90 31 91 32 92 33 93 18 94 19 95 24 96 20 97
REMARK SMILES IDX 22 98 21 99 23 100
REMARK H PARENT 3 5 90 23 58 34 7 75 23 101
REMARK Flexibility Score: inf
ROOT
ATOM      1  C   UNL A   1      39.264  20.165  26.042  1.00  0.00     0.118 C 
ENDROOT
BRANCH   1   2
ATOM      2  N   UNL A   1      40.372  19.228  26.036  1.00  0.00    -0.352 N 
ATOM      3  O   UNL A   1      42.516  18.572  25.844  1.00  0.00    -0.269 OA
ATOM      4  C   UNL A   1      41.724  19.487  26.058  1.00  0.00     0.251 C 
ATOM      5  H   UNL A   1      40.123  18.276  26.014  1.00  0.00     0.163 HD
BRANCH   4   6
ATOM      6  C   UNL A   1      42.230  20.857  26.320  1.00  0.00     0.039 A 
ATOM      7  C   UNL A   1      42.349  21.797  25.291  1.00  0.00     0.014 A 
ATOM      8  C   UNL A   1      42.539  21.226  27.632  1.00  0.00     0.014 A 
ATOM      9  C   UNL A   1      42.879  23.062  25.558  1.00  0.00     0.010 A 
ATOM     10  C   UNL A   1      43.000  22.519  27.908  1.00  0.00     0.010 A 
ATOM     11  C   UNL A   1      43.197  23.446  26.871  1.00  0.00    -0.014 A 
BRANCH  11  12
ATOM     12  C   UNL A   1      43.688  24.827  27.152  1.00  0.00     0.031 A 
ATOM     13  C   UNL A   1      42.770  25.882  27.713  1.00  0.00     0.074 A 
ATOM     14  C   UNL A   1      44.975  25.136  26.894  1.00  0.00     0.049 A 
ATOM     15  N   UNL A   1      43.025  27.133  28.005  1.00  0.00    -0.248 NA
ATOM     16  C   UNL A   1      41.380  25.480  27.966  1.00  0.00     0.031 C 
ATOM     17  C   UNL A   1      45.967  24.211  26.341  1.00  0.00     0.029 A 
ATOM     18  N   UNL A   1      45.676  26.305  27.067  1.00  0.00    -0.354 N 
ATOM     19  C   UNL A   1      41.825  27.676  28.456  1.00  0.00     0.074 A 
ATOM     20  C   UNL A   1      40.835  26.623  28.359  1.00  0.00     0.031 C 
ATOM     21  C   UNL A   1      47.155  24.831  26.266  1.00  0.00     0.029 A 
ATOM     22  C   UNL A   1      46.999  26.216  26.696  1.00  0.00     0.049 A 
ATOM     23  H   UNL A   1      45.271  27.127  27.424  1.00  0.00     0.167 HD
ATOM     24  C   UNL A   1      41.576  28.931  28.916  1.00  0.00     0.034 A 
ATOM     25  C   UNL A   1      47.976  27.145  26.686  1.00  0.00     0.034 A 
ATOM     26  C   UNL A   1      42.576  29.971  29.006  1.00  0.00     0.049 A 
ATOM     27  C   UNL A   1      47.661  28.544  27.152  1.00  0.00     0.074 A 
ATOM     28  C   UNL A   1      42.436  31.259  29.497  1.00  0.00     0.029 A 
ATOM     29  N   UNL A   1      43.895  29.855  28.583  1.00  0.00    -0.354 N 
ATOM     30  N   UNL A   1      46.529  29.030  27.606  1.00  0.00    -0.248 NA
ATOM     31  C   UNL A   1      48.761  29.513  27.112  1.00  0.00     0.031 C 
ATOM     32  C   UNL A   1      43.639  31.944  29.291  1.00  0.00     0.029 A 
ATOM     33  C   UNL A   1      44.565  31.059  28.765  1.00  0.00     0.049 A 
ATOM     34  H   UNL A   1      44.295  29.039  28.206  1.00  0.00     0.167 HD
ATOM     35  C   UNL A   1      46.797  30.354  27.947  1.00  0.00     0.074 A 
ATOM     36  C   UNL A   1      48.196  30.582  27.655  1.00  0.00     0.031 C 
ATOM     37  C   UNL A   1      45.960  31.289  28.466  1.00  0.00     0.034 A 
BRANCH  24  38
ATOM     38  C   UNL A   1      40.151  29.261  29.305  1.00  0.00     0.023 A 
ATOM     39  C   UNL A   1      39.736  29.315  30.647  1.00  0.00     0.031 A 
ATOM     40  C   UNL A   1      39.182  29.501  28.313  1.00  0.00     0.131 A 
ATOM     41  C   UNL A   1      38.381  29.514  30.958  1.00  0.00     0.055 A 
ATOM     42  C   UNL A   1      37.853  29.791  28.631  1.00  0.00     0.041 A 
ATOM     43  F   UNL A   1      39.506  29.445  27.012  1.00  0.00    -0.206 F 
ATOM     44  C   UNL A   1      37.441  29.780  29.960  1.00  0.00     0.022 A 
BRANCH  41  45
ATOM     45  S   UNL A   1      37.837  29.247  32.667  1.00  0.00     0.124 S 
ATOM     46  O   UNL A   1      38.910  29.887  33.423  1.00  0.00    -0.237 OA
ATOM     47  O   UNL A   1      36.544  29.922  32.695  1.00  0.00    -0.237 OA
ATOM     48  O   UNL A   1      37.785  27.791  32.788  1.00  0.00    -0.744 OA
ENDBRANCH  41  45
ENDBRANCH  24  38
BRANCH  25  49
ATOM     49  C   UNL A   1      49.345  26.795  26.208  1.00  0.00     0.023 A 
ATOM     50  C   UNL A   1      49.803  27.224  24.952  1.00  0.00     0.031 A 
ATOM     51  C   UNL A   1      50.202  25.990  26.981  1.00  0.00     0.131 A 
ATOM     52  C   UNL A   1      51.060  26.809  24.486  1.00  0.00     0.055 A 
ATOM     53  C   UNL A   1      51.475  25.630  26.539  1.00  0.00     0.041 A 
ATOM     54  F   UNL A   1      49.814  25.552  28.190  1.00  0.00    -0.206 F 
ATOM     55  C   UNL A   1      51.905  26.028  25.277  1.00  0.00     0.022 A 
BRANCH  52  56
ATOM     56  S   UNL A   1      51.536  27.227  22.787  1.00  0.00     0.124 S 
ATOM     57  O   UNL A   1      51.750  28.665  22.885  1.00  0.00    -0.237 OA
ATOM     58  O   UNL A   1      52.729  26.410  22.596  1.00  0.00    -0.237 OA
ATOM     59  O   UNL A   1      50.373  26.821  22.000  1.00  0.00    -0.744 OA
ENDBRANCH  52  56
ENDBRANCH  25  49
BRANCH  37  60
ATOM     60  C   UNL A   1      46.563  32.631  28.820  1.00  0.00     0.023 A 
ATOM     61  C   UNL A   1      46.525  33.727  27.938  1.00  0.00     0.031 A 
ATOM     62  C   UNL A   1      47.215  32.805  30.054  1.00  0.00     0.131 A 
ATOM     63  C   UNL A   1      47.188  34.919  28.272  1.00  0.00     0.055 A 
ATOM     64  C   UNL A   1      47.809  34.016  30.413  1.00  0.00     0.041 A 
ATOM     65  F   UNL A   1      47.291  31.794  30.935  1.00  0.00    -0.206 F 
ATOM     66  C   UNL A   1      47.813  35.076  29.513  1.00  0.00     0.022 A 
BRANCH  63  67
ATOM     67  S   UNL A   1      47.334  36.219  27.015  1.00  0.00     0.124 S 
ATOM     68  O   UNL A   1      47.698  35.453  25.827  1.00  0.00    -0.237 OA
ATOM     69  O   UNL A   1      45.996  36.802  27.013  1.00  0.00    -0.237 OA
ATOM     70  O   UNL A   1      48.388  37.086  27.540  1.00  0.00    -0.744 OA
ENDBRANCH  63  67
ENDBRANCH  37  60
ENDBRANCH  11  12
ENDBRANCH   4   6
ENDBRANCH   1   2
BRANCH   1  71
ATOM     71  C   UNL A   1      38.127  19.753  25.102  1.00  0.00     0.042 C 
BRANCH  71  72
ATOM     72  C   UNL A   1      36.941  20.719  25.006  1.00  0.00     0.117 C 
BRANCH  72  73
ATOM     73  N   UNL A   1      36.992  21.653  23.889  1.00  0.00    -0.354 N 
ATOM     74  C   UNL A   1      36.213  22.712  23.530  1.00  0.00     0.242 C 
ATOM     75  H   UNL A   1      37.738  21.485  23.269  1.00  0.00     0.163 HD
ATOM     76  O   UNL A   1      36.641  23.413  22.607  1.00  0.00    -0.273 OA
BRANCH  74  77
ATOM     77  C   UNL A   1      34.901  23.064  24.268  1.00  0.00     0.175 C 
ATOM     78  C   UNL A   1      34.353  24.406  23.738  1.00  0.00     0.044 C 
ATOM     79  N   UNL A   1      33.636  22.330  24.476  1.00  0.00    -0.330 N 
ATOM     80  C   UNL A   1      33.051  24.650  24.550  1.00  0.00    -0.006 C 
ATOM     81  C   UNL A   1      32.752  23.264  25.176  1.00  0.00     0.127 C 
ATOM     82  C   UNL A   1      31.894  25.092  23.619  1.00  0.00     0.030 C 
ATOM     83  C   UNL A   1      33.245  25.707  25.660  1.00  0.00     0.030 C 
ATOM     84  C   UNL A   1      32.081  26.519  23.106  1.00  0.00     0.120 C 
ATOM     85  C   UNL A   1      33.350  27.135  25.122  1.00  0.00     0.120 C 
ATOM     86  N   UNL A   1      32.233  27.437  24.234  1.00  0.00    -0.339 N 
ATOM     87  C   UNL A   1      31.487  28.592  24.459  1.00  0.00     0.253 C 
ATOM     88  O   UNL A   1      31.763  29.425  25.322  1.00  0.00    -0.269 OA
BRANCH  79  89
ATOM     89  C   UNL A   1      32.984  21.246  23.886  1.00  0.00     0.226 C 
ATOM     90  O   UNL A   1      32.494  21.373  22.759  1.00  0.00    -0.275 OA
BRANCH  89  91
ATOM     91  C   UNL A   1      32.767  19.902  24.479  1.00  0.00     0.079 C 
ATOM     92  C   UNL A   1      32.686  18.592  23.763  1.00  0.00     0.014 C 
ATOM     93  C   UNL A   1      33.866  18.908  24.638  1.00  0.00     0.014 C 
ENDBRANCH  89  91
ENDBRANCH  79  89
BRANCH  87  94
ATOM     94  C   UNL A   1      30.299  28.861  23.622  1.00  0.00     0.043 A 
ATOM     95  C   UNL A   1      29.143  28.080  23.744  1.00  0.00     0.014 A 
ATOM     96  C   UNL A   1      30.328  29.950  22.747  1.00  0.00     0.060 A 
ATOM     97  C   UNL A   1      28.034  28.357  22.942  1.00  0.00     0.005 A 
ATOM     98  C   UNL A   1      29.215  30.216  21.960  1.00  0.00     0.116 A 
ATOM     99  C   UNL A   1      28.071  29.425  22.042  1.00  0.00     0.046 A 
BRANCH  98 100
ATOM    100  O   UNL A   1      29.281  31.278  21.104  1.00  0.00    -0.508 OA
ATOM    101  H   UNL A   1      29.687  31.178  20.266  1.00  0.00     0.293 HD
ENDBRANCH  98 100
ENDBRANCH  87  94
ENDBRANCH  74  77
ENDBRANCH  72  73
ENDBRANCH  71  72
ENDBRANCH   1  71
TORSDOF 17
ENDMDL
MODEL 3
REMARK VINA RESULT:     -12.9      1.448      7.377
REMARK SMILES O=C(NCCCNC(=O)[C@H]1CC2(CCN(C(=O)c3cccc(O)c3)CC2)CN1C(=O)C1CC1)c1ccc(-c2c3nc(c(-c4cc(S(=O)(=O)[O-])ccc4F)c4ccc([nH]4)c(-c4cc(S(=O)(=O)[O-])ccc4F)c4nc(c(-c5cc(S(=O)(=O)[O-])ccc5F)c5ccc2[nH]5)C=C4)C=C3)cc1
REMARK SMILES IDX 4 1 3 2 1 3 2 4 34 6 35 7 96 8 36 9 95 10 37 11 38 12 39 13
REMARK SMILES IDX 89 14 40 15 94 16 88 17 90 18 41 19 93 20 87 21 86 22 42 24
REMARK SMILES IDX 74 25 54 26 73 27 55 28 58 29 72 30 91 31 56 32 57 33 71 35
REMARK SMILES IDX 92 36 59 37 43 38 44 39 52 40 45 41 51 42 53 43 50 44 46 45
REMARK SMILES IDX 47 46 48 47 49 48 75 49 76 50 84 51 77 52 83 53 85 54 82 55
REMARK SMILES IDX 78 56 79 57 80 58 81 59 60 60 61 61 69 62 62 63 68 64 70 65
REMARK SMILES IDX 67 66 63 67 64 68 65 69 66 70 5 71 6 72 7 73 8 74 9 76 10 77
REMARK SMILES IDX 11 78 28 79 12 80 27 81 13 82 26 83 14 84 25 85 15 86 16 87
REMARK SMILES IDX 17 88 29 89 30 90 31 91 32 92 33 93 18 94 19 95 24 96 20 97
REMARK SMILES IDX 22 98 21 99 23 100
REMARK H PARENT 3 5 90 23 58 34 7 75 23 101
REMARK Flexibility Score: inf
ROOT
ATOM      1  C   UNL A   1      32.897  32.627  27.150  1.00  0.00     0.118 C 
ENDROOT
BRANCH   1   2
ATOM      2  N   UNL A   1      32.682  33.937  27.737  1.00  0.00    -0.352 N 
ATOM      3  O   UNL A   1      32.811  35.535  29.316  1.00  0.00    -0.269 OA
ATOM      4  C   UNL A   1      33.266  34.491  28.853  1.00  0.00     0.251 C 
ATOM      5  H   UNL A   1      32.028  34.508  27.273  1.00  0.00     0.163 HD
BRANCH   4   6
ATOM      6  C   UNL A   1      34.424  33.835  29.509  1.00  0.00     0.039 A 
ATOM      7  C   UNL A   1      34.249  32.779  30.409  1.00  0.00     0.014 A 
ATOM      8  C   UNL A   1      35.716  34.249  29.172  1.00  0.00     0.014 A 
ATOM      9  C   UNL A   1      35.354  32.216  31.051  1.00  0.00     0.010 A 
ATOM     10  C   UNL A   1      36.827  33.632  29.763  1.00  0.00     0.010 A 
ATOM     11  C   UNL A   1      36.659  32.623  30.726  1.00  0.00    -0.014 A 
BRANCH  11  12
ATOM     12  C   UNL A   1      37.834  31.959  31.363  1.00  0.00     0.031 A 
ATOM     13  C   UNL A   1      38.303  32.356  32.739  1.00  0.00     0.074 A 
ATOM     14  C   UNL A   1      38.489  30.990  30.692  1.00  0.00     0.049 A 
ATOM     15  N   UNL A   1      39.310  31.895  33.437  1.00  0.00    -0.248 NA
ATOM     16  C   UNL A   1      37.547  33.421  33.411  1.00  0.00     0.031 C 
ATOM     17  C   UNL A   1      38.145  30.517  29.349  1.00  0.00     0.029 A 
ATOM     18  N   UNL A   1      39.573  30.222  31.043  1.00  0.00    -0.354 N 
ATOM     19  C   UNL A   1      39.325  32.625  34.622  1.00  0.00     0.074 A 
ATOM     20  C   UNL A   1      38.247  33.588  34.525  1.00  0.00     0.031 C 
ATOM     21  C   UNL A   1      38.967  29.512  29.012  1.00  0.00     0.029 A 
ATOM     22  C   UNL A   1      39.942  29.312  30.078  1.00  0.00     0.049 A 
ATOM     23  H   UNL A   1      40.040  30.313  31.904  1.00  0.00     0.167 HD
ATOM     24  C   UNL A   1      40.154  32.499  35.692  1.00  0.00     0.034 A 
ATOM     25  C   UNL A   1      40.958  28.427  30.043  1.00  0.00     0.034 A 
ATOM     26  C   UNL A   1      41.226  31.532  35.773  1.00  0.00     0.049 A 
ATOM     27  C   UNL A   1      41.895  28.342  31.221  1.00  0.00     0.074 A 
ATOM     28  C   UNL A   1      42.093  31.294  36.827  1.00  0.00     0.029 A 
ATOM     29  N   UNL A   1      41.595  30.656  34.758  1.00  0.00    -0.354 N 
ATOM     30  N   UNL A   1      41.874  29.018  32.347  1.00  0.00    -0.248 NA
ATOM     31  C   UNL A   1      42.986  27.366  31.124  1.00  0.00     0.031 C 
ATOM     32  C   UNL A   1      43.034  30.341  36.420  1.00  0.00     0.029 A 
ATOM     33  C   UNL A   1      42.698  29.907  35.149  1.00  0.00     0.049 A 
ATOM     34  H   UNL A   1      41.140  30.579  33.889  1.00  0.00     0.167 HD
ATOM     35  C   UNL A   1      42.925  28.514  33.109  1.00  0.00     0.074 A 
ATOM     36  C   UNL A   1      43.549  27.475  32.319  1.00  0.00     0.031 C 
ATOM     37  C   UNL A   1      43.326  28.874  34.356  1.00  0.00     0.034 A 
BRANCH  24  38
ATOM     38  C   UNL A   1      39.965  33.467  36.839  1.00  0.00     0.023 A 
ATOM     39  C   UNL A   1      40.767  34.612  36.990  1.00  0.00     0.031 A 
ATOM     40  C   UNL A   1      38.981  33.227  37.816  1.00  0.00     0.131 A 
ATOM     41  C   UNL A   1      40.632  35.421  38.130  1.00  0.00     0.055 A 
ATOM     42  C   UNL A   1      38.788  34.087  38.899  1.00  0.00     0.041 A 
ATOM     43  F   UNL A   1      38.195  32.141  37.743  1.00  0.00    -0.206 F 
ATOM     44  C   UNL A   1      39.629  35.182  39.072  1.00  0.00     0.022 A 
BRANCH  41  45
ATOM     45  S   UNL A   1      41.894  36.683  38.451  1.00  0.00     0.124 S 
ATOM     46  O   UNL A   1      41.090  37.773  39.001  1.00  0.00    -0.237 OA
ATOM     47  O   UNL A   1      42.783  36.008  39.389  1.00  0.00    -0.237 OA
ATOM     48  O   UNL A   1      42.461  36.946  37.129  1.00  0.00    -0.744 OA
ENDBRANCH  41  45
ENDBRANCH  24  38
BRANCH  25  49
ATOM     49  C   UNL A   1      41.158  27.554  28.850  1.00  0.00     0.023 A 
ATOM     50  C   UNL A   1      42.147  27.850  27.897  1.00  0.00     0.031 A 
ATOM     51  C   UNL A   1      40.337  26.435  28.622  1.00  0.00     0.131 A 
ATOM     52  C   UNL A   1      42.257  27.066  26.739  1.00  0.00     0.055 A 
ATOM     53  C   UNL A   1      40.492  25.623  27.498  1.00  0.00     0.041 A 
ATOM     54  F   UNL A   1      39.376  26.107  29.501  1.00  0.00    -0.206 F 
ATOM     55  C   UNL A   1      41.448  25.946  26.540  1.00  0.00     0.022 A 
BRANCH  52  56
ATOM     56  S   UNL A   1      43.417  27.590  25.446  1.00  0.00     0.124 S 
ATOM     57  O   UNL A   1      44.106  28.697  26.097  1.00  0.00    -0.237 OA
ATOM     58  O   UNL A   1      44.202  26.378  25.235  1.00  0.00    -0.237 OA
ATOM     59  O   UNL A   1      42.541  27.963  24.337  1.00  0.00    -0.744 OA
ENDBRANCH  52  56
ENDBRANCH  25  49
BRANCH  37  60
ATOM     60  C   UNL A   1      44.458  28.080  34.971  1.00  0.00     0.023 A 
ATOM     61  C   UNL A   1      44.249  26.846  35.613  1.00  0.00     0.031 A 
ATOM     62  C   UNL A   1      45.770  28.588  34.938  1.00  0.00     0.131 A 
ATOM     63  C   UNL A   1      45.317  26.200  36.256  1.00  0.00     0.055 A 
ATOM     64  C   UNL A   1      46.842  27.905  35.514  1.00  0.00     0.041 A 
ATOM     65  F   UNL A   1      46.033  29.764  34.346  1.00  0.00    -0.206 F 
ATOM     66  C   UNL A   1      46.616  26.713  36.193  1.00  0.00     0.022 A 
BRANCH  63  67
ATOM     67  S   UNL A   1      44.967  24.747  37.283  1.00  0.00     0.124 S 
ATOM     68  O   UNL A   1      46.297  24.391  37.769  1.00  0.00    -0.237 OA
ATOM     69  O   UNL A   1      44.047  25.284  38.281  1.00  0.00    -0.237 OA
ATOM     70  O   UNL A   1      44.376  23.796  36.343  1.00  0.00    -0.744 OA
ENDBRANCH  63  67
ENDBRANCH  37  60
ENDBRANCH  11  12
ENDBRANCH   4   6
ENDBRANCH   1   2
BRANCH   1  71
ATOM     71  C   UNL A   1      31.621  32.018  26.562  1.00  0.00     0.042 C 
BRANCH  71  72
ATOM     72  C   UNL A   1      31.728  30.574  26.055  1.00  0.00     0.117 C 
BRANCH  72  73
ATOM     73  N   UNL A   1      31.473  29.547  27.054  1.00  0.00    -0.354 N 
ATOM     74  C   UNL A   1      31.616  28.191  27.047  1.00  0.00     0.242 C 
ATOM     75  H   UNL A   1      31.128  29.901  27.905  1.00  0.00     0.163 HD
ATOM     76  O   UNL A   1      31.474  27.624  28.136  1.00  0.00    -0.273 OA
BRANCH  74  77
ATOM     77  C   UNL A   1      31.996  27.404  25.772  1.00  0.00     0.175 C 
ATOM     78  C   UNL A   1      32.254  25.926  26.134  1.00  0.00     0.044 C 
ATOM     79  N   UNL A   1      31.339  27.240  24.459  1.00  0.00    -0.330 N 
ATOM     80  C   UNL A   1      32.626  25.249  24.786  1.00  0.00    -0.006 C 
ATOM     81  C   UNL A   1      32.167  26.281  23.725  1.00  0.00     0.127 C 
ATOM     82  C   UNL A   1      31.867  23.909  24.613  1.00  0.00     0.030 C 
ATOM     83  C   UNL A   1      34.145  24.994  24.661  1.00  0.00     0.030 C 
ATOM     84  C   UNL A   1      32.403  22.820  25.540  1.00  0.00     0.120 C 
ATOM     85  C   UNL A   1      34.639  23.846  25.542  1.00  0.00     0.120 C 
ATOM     86  N   UNL A   1      33.840  22.646  25.325  1.00  0.00    -0.339 N 
ATOM     87  C   UNL A   1      34.488  21.446  25.043  1.00  0.00     0.253 C 
ATOM     88  O   UNL A   1      35.711  21.315  25.042  1.00  0.00    -0.269 OA
BRANCH  79  89
ATOM     89  C   UNL A   1      30.057  27.419  23.937  1.00  0.00     0.226 C 
ATOM     90  O   UNL A   1      29.146  26.665  24.295  1.00  0.00    -0.275 OA
BRANCH  89  91
ATOM     91  C   UNL A   1      29.632  28.429  22.935  1.00  0.00     0.079 C 
ATOM     92  C   UNL A   1      29.383  29.887  23.158  1.00  0.00     0.014 C 
ATOM     93  C   UNL A   1      30.571  29.431  22.358  1.00  0.00     0.014 C 
ENDBRANCH  89  91
ENDBRANCH  79  89
BRANCH  87  94
ATOM     94  C   UNL A   1      33.685  20.244  24.732  1.00  0.00     0.043 A 
ATOM     95  C   UNL A   1      33.019  20.121  23.507  1.00  0.00     0.014 A 
ATOM     96  C   UNL A   1      33.650  19.203  25.663  1.00  0.00     0.060 A 
ATOM     97  C   UNL A   1      32.269  18.975  23.239  1.00  0.00     0.005 A 
ATOM     98  C   UNL A   1      32.904  18.066  25.380  1.00  0.00     0.116 A 
ATOM     99  C   UNL A   1      32.206  17.946  24.181  1.00  0.00     0.046 A 
BRANCH  98 100
ATOM    100  O   UNL A   1      32.878  17.073  26.316  1.00  0.00    -0.508 OA
ATOM    101  H   UNL A   1      32.903  17.288  27.228  1.00  0.00     0.293 HD
ENDBRANCH  98 100
ENDBRANCH  87  94
ENDBRANCH  74  77
ENDBRANCH  72  73
ENDBRANCH  71  72
ENDBRANCH   1  71
TORSDOF 17
ENDMDL
