MODEL 1
REMARK VINA RESULT:     -11.3      0.000      0.000
REMARK SMILES [NH3+][C@@H](CCCCC(=O)NCCCNC(=O)c1ccc(-c2c3nc(c(-c4cc(S(=O)(=O)[O-])ccc4F)c4ccc([nH]4)c(-c4cc(S(=O)(=O)[O-])ccc4F)c4nc(c(-c5cc(S(=O)(=O)[O-])ccc5F)c5ccc2[nH]5)C=C4)C=C3)cc1)c1ccc(-c2ccccc2)cc1
REMARK SMILES IDX 7 1 8 2 9 3 6 5 5 6 4 7 3 8 2 9 1 10 79 14 80 15 90 16 81 17
REMARK SMILES IDX 89 18 82 19 83 20 84 21 88 22 85 23 87 24 86 25 10 26 11 27
REMARK SMILES IDX 12 28 13 29 14 30 15 32 16 33 17 34 78 35 18 36 77 37 19 38
REMARK SMILES IDX 20 39 21 40 71 41 22 42 76 43 70 44 72 45 23 46 75 47 69 48
REMARK SMILES IDX 68 49 24 51 56 52 36 53 55 54 37 55 40 56 54 57 73 58 38 59
REMARK SMILES IDX 39 60 53 62 74 63 41 64 25 65 26 66 34 67 27 68 33 69 35 70
REMARK SMILES IDX 32 71 28 72 29 73 30 74 31 75 57 76 58 77 66 78 59 79 65 80
REMARK SMILES IDX 67 81 64 82 60 83 61 84 62 85 63 86 42 87 43 88 51 89 44 90
REMARK SMILES IDX 50 91 52 92 49 93 45 94 46 95 47 96 48 97
REMARK H PARENT 9 4 1 11 1 12 1 13 13 31 72 50 40 61
REMARK Flexibility Score: inf
ROOT
ATOM      1  C   UNL A   1      33.009  29.346  24.737  1.00  0.00     0.219 C 
ATOM      2  O   UNL A   1      33.282  29.202  23.545  1.00  0.00    -0.275 OA
ATOM      3  N   UNL A   1      31.905  30.068  25.067  1.00  0.00    -0.356 N 
ATOM      4  H   UNL A   1      31.367  30.390  24.309  1.00  0.00     0.163 HD
ENDROOT
BRANCH   1   5
ATOM      5  C   UNL A   1      33.863  28.712  25.820  1.00  0.00     0.100 C 
BRANCH   5   6
ATOM      6  C   UNL A   1      33.482  27.268  26.160  1.00  0.00     0.010 C 
BRANCH   6   7
ATOM      7  C   UNL A   1      34.075  26.098  25.346  1.00  0.00     0.007 C 
BRANCH   7   8
ATOM      8  C   UNL A   1      33.474  24.685  25.492  1.00  0.00     0.070 C 
BRANCH   8   9
ATOM      9  C   UNL A   1      32.741  24.111  24.261  1.00  0.00     0.211 C 
BRANCH   9  10
ATOM     10  N   UNL A   1      33.695  23.622  23.262  1.00  0.00    -0.351 N 
ATOM     11  H   UNL A   1      34.365  22.996  23.709  1.00  0.00     0.345 HD
ATOM     12  H   UNL A   1      34.191  24.412  22.849  1.00  0.00     0.345 HD
ATOM     13  H   UNL A   1      33.193  23.116  22.532  1.00  0.00     0.345 HD
ENDBRANCH   9  10
BRANCH   9  14
ATOM     14  C   UNL A   1      31.749  25.128  23.732  1.00  0.00     0.009 A 
ATOM     15  C   UNL A   1      31.993  25.862  22.565  1.00  0.00     0.010 A 
ATOM     16  C   UNL A   1      30.635  25.466  24.517  1.00  0.00     0.010 A 
ATOM     17  C   UNL A   1      31.196  26.960  22.244  1.00  0.00     0.009 A 
ATOM     18  C   UNL A   1      29.837  26.565  24.188  1.00  0.00     0.009 A 
ATOM     19  C   UNL A   1      30.122  27.345  23.059  1.00  0.00    -0.018 A 
BRANCH  19  20
ATOM     20  C   UNL A   1      29.348  28.551  22.736  1.00  0.00    -0.018 A 
ATOM     21  C   UNL A   1      29.935  29.591  21.996  1.00  0.00     0.009 A 
ATOM     22  C   UNL A   1      28.032  28.723  23.193  1.00  0.00     0.009 A 
ATOM     23  C   UNL A   1      29.235  30.767  21.729  1.00  0.00     0.001 A 
ATOM     24  C   UNL A   1      27.329  29.900  22.925  1.00  0.00     0.001 A 
ATOM     25  C   UNL A   1      27.933  30.922  22.194  1.00  0.00     0.000 A 
ENDBRANCH  19  20
ENDBRANCH   9  14
ENDBRANCH   8   9
ENDBRANCH   7   8
ENDBRANCH   6   7
ENDBRANCH   5   6
ENDBRANCH   1   5
BRANCH   3  26
ATOM     26  C   UNL A   1      31.411  30.428  26.379  1.00  0.00     0.117 C 
BRANCH  26  27
ATOM     27  C   UNL A   1      31.465  31.932  26.586  1.00  0.00     0.042 C 
BRANCH  27  28
ATOM     28  C   UNL A   1      32.843  32.446  26.943  1.00  0.00     0.118 C 
BRANCH  28  29
ATOM     29  N   UNL A   1      32.793  33.755  27.570  1.00  0.00    -0.352 N 
ATOM     30  C   UNL A   1      33.523  34.257  28.618  1.00  0.00     0.251 C 
ATOM     31  H   UNL A   1      32.136  34.378  27.183  1.00  0.00     0.163 HD
ATOM     32  O   UNL A   1      33.172  35.316  29.129  1.00  0.00    -0.269 OA
BRANCH  30  33
ATOM     33  C   UNL A   1      34.700  33.523  29.144  1.00  0.00     0.039 A 
ATOM     34  C   UNL A   1      34.491  32.346  29.866  1.00  0.00     0.014 A 
ATOM     35  C   UNL A   1      36.000  34.000  28.963  1.00  0.00     0.014 A 
ATOM     36  C   UNL A   1      35.584  31.640  30.375  1.00  0.00     0.010 A 
ATOM     37  C   UNL A   1      37.089  33.233  29.359  1.00  0.00     0.010 A 
ATOM     38  C   UNL A   1      36.894  32.067  30.109  1.00  0.00    -0.014 A 
BRANCH  38  39
ATOM     39  C   UNL A   1      38.073  31.364  30.681  1.00  0.00     0.031 A 
ATOM     40  C   UNL A   1      38.512  31.681  32.089  1.00  0.00     0.074 A 
ATOM     41  C   UNL A   1      38.763  30.482  29.933  1.00  0.00     0.049 A 
ATOM     42  N   UNL A   1      39.546  31.235  32.757  1.00  0.00    -0.248 NA
ATOM     43  C   UNL A   1      37.705  32.665  32.829  1.00  0.00     0.031 C 
ATOM     44  C   UNL A   1      38.453  30.123  28.546  1.00  0.00     0.029 A 
ATOM     45  N   UNL A   1      39.866  29.724  30.233  1.00  0.00    -0.354 N 
ATOM     46  C   UNL A   1      39.523  31.902  33.978  1.00  0.00     0.074 A 
ATOM     47  C   UNL A   1      38.424  32.839  33.925  1.00  0.00     0.031 C 
ATOM     48  C   UNL A   1      39.319  29.185  28.132  1.00  0.00     0.029 A 
ATOM     49  C   UNL A   1      40.275  28.910  29.201  1.00  0.00     0.049 A 
ATOM     50  H   UNL A   1      40.322  29.758  31.103  1.00  0.00     0.167 HD
ATOM     51  C   UNL A   1      40.325  31.727  35.057  1.00  0.00     0.034 A 
ATOM     52  C   UNL A   1      41.305  28.045  29.127  1.00  0.00     0.034 A 
ATOM     53  C   UNL A   1      41.398  30.764  35.099  1.00  0.00     0.049 A 
ATOM     54  C   UNL A   1      42.191  27.871  30.337  1.00  0.00     0.074 A 
ATOM     55  C   UNL A   1      42.241  30.456  36.152  1.00  0.00     0.029 A 
ATOM     56  N   UNL A   1      41.779  29.953  34.036  1.00  0.00    -0.354 N 
ATOM     57  N   UNL A   1      42.129  28.474  31.502  1.00  0.00    -0.248 NA
ATOM     58  C   UNL A   1      43.275  26.888  30.225  1.00  0.00     0.031 C 
ATOM     59  C   UNL A   1      43.176  29.518  35.705  1.00  0.00     0.029 A 
ATOM     60  C   UNL A   1      42.861  29.168  34.400  1.00  0.00     0.049 A 
ATOM     61  H   UNL A   1      41.343  29.938  33.153  1.00  0.00     0.167 HD
ATOM     62  C   UNL A   1      43.138  27.906  32.278  1.00  0.00     0.074 A 
ATOM     63  C   UNL A   1      43.783  26.910  31.448  1.00  0.00     0.031 C 
ATOM     64  C   UNL A   1      43.493  28.177  33.560  1.00  0.00     0.034 A 
BRANCH  51  65
ATOM     65  C   UNL A   1      40.082  32.613  36.260  1.00  0.00     0.023 A 
ATOM     66  C   UNL A   1      39.213  32.234  37.299  1.00  0.00     0.031 A 
ATOM     67  C   UNL A   1      40.696  33.875  36.348  1.00  0.00     0.131 A 
ATOM     68  C   UNL A   1      38.913  33.139  38.329  1.00  0.00     0.055 A 
ATOM     69  C   UNL A   1      40.466  34.733  37.425  1.00  0.00     0.041 A 
ATOM     70  F   UNL A   1      41.517  34.306  35.377  1.00  0.00    -0.206 F 
ATOM     71  C   UNL A   1      39.556  34.375  38.415  1.00  0.00     0.022 A 
BRANCH  68  72
ATOM     72  S   UNL A   1      37.546  32.745  39.456  1.00  0.00     0.124 S 
ATOM     73  O   UNL A   1      37.940  31.425  39.945  1.00  0.00    -0.237 OA
ATOM     74  O   UNL A   1      37.613  33.832  40.426  1.00  0.00    -0.237 OA
ATOM     75  O   UNL A   1      36.372  32.754  38.587  1.00  0.00    -0.744 OA
ENDBRANCH  68  72
ENDBRANCH  51  65
BRANCH  52  76
ATOM     76  C   UNL A   1      41.556  27.268  27.879  1.00  0.00     0.023 A 
ATOM     77  C   UNL A   1      41.289  25.890  27.820  1.00  0.00     0.031 A 
ATOM     78  C   UNL A   1      42.109  27.879  26.739  1.00  0.00     0.131 A 
ATOM     79  C   UNL A   1      41.625  25.159  26.670  1.00  0.00     0.055 A 
ATOM     80  C   UNL A   1      42.387  27.158  25.576  1.00  0.00     0.041 A 
ATOM     81  F   UNL A   1      42.379  29.193  26.738  1.00  0.00    -0.206 F 
ATOM     82  C   UNL A   1      42.159  25.786  25.542  1.00  0.00     0.022 A 
BRANCH  79  83
ATOM     83  S   UNL A   1      41.443  23.354  26.705  1.00  0.00     0.124 S 
ATOM     84  O   UNL A   1      42.261  22.952  25.566  1.00  0.00    -0.237 OA
ATOM     85  O   UNL A   1      41.971  23.023  28.024  1.00  0.00    -0.237 OA
ATOM     86  O   UNL A   1      40.005  23.155  26.543  1.00  0.00    -0.744 OA
ENDBRANCH  79  83
ENDBRANCH  52  76
BRANCH  64  87
ATOM     87  C   UNL A   1      44.588  27.330  34.163  1.00  0.00     0.023 A 
ATOM     88  C   UNL A   1      44.326  26.085  34.762  1.00  0.00     0.031 A 
ATOM     89  C   UNL A   1      45.918  27.789  34.150  1.00  0.00     0.131 A 
ATOM     90  C   UNL A   1      45.364  25.376  35.382  1.00  0.00     0.055 A 
ATOM     91  C   UNL A   1      46.959  27.045  34.705  1.00  0.00     0.041 A 
ATOM     92  F   UNL A   1      46.227  28.972  33.595  1.00  0.00    -0.206 F 
ATOM     93  C   UNL A   1      46.683  25.838  35.340  1.00  0.00     0.022 A 
BRANCH  90  94
ATOM     94  S   UNL A   1      44.952  23.899  36.350  1.00  0.00     0.124 S 
ATOM     95  O   UNL A   1      43.783  23.389  35.640  1.00  0.00    -0.237 OA
ATOM     96  O   UNL A   1      46.167  23.100  36.231  1.00  0.00    -0.237 OA
ATOM     97  O   UNL A   1      44.686  24.427  37.686  1.00  0.00    -0.744 OA
ENDBRANCH  90  94
ENDBRANCH  64  87
ENDBRANCH  38  39
ENDBRANCH  30  33
ENDBRANCH  28  29
ENDBRANCH  27  28
ENDBRANCH  26  27
ENDBRANCH   3  26
TORSDOF 20
ENDMDL
MODEL 2
REMARK VINA RESULT:     -11.2      5.879      9.740
REMARK SMILES [NH3+][C@@H](CCCCC(=O)NCCCNC(=O)c1ccc(-c2c3nc(c(-c4cc(S(=O)(=O)[O-])ccc4F)c4ccc([nH]4)c(-c4cc(S(=O)(=O)[O-])ccc4F)c4nc(c(-c5cc(S(=O)(=O)[O-])ccc5F)c5ccc2[nH]5)C=C4)C=C3)cc1)c1ccc(-c2ccccc2)cc1
REMARK SMILES IDX 7 1 8 2 9 3 6 5 5 6 4 7 3 8 2 9 1 10 79 14 80 15 90 16 81 17
REMARK SMILES IDX 89 18 82 19 83 20 84 21 88 22 85 23 87 24 86 25 10 26 11 27
REMARK SMILES IDX 12 28 13 29 14 30 15 32 16 33 17 34 78 35 18 36 77 37 19 38
REMARK SMILES IDX 20 39 21 40 71 41 22 42 76 43 70 44 72 45 23 46 75 47 69 48
REMARK SMILES IDX 68 49 24 51 56 52 36 53 55 54 37 55 40 56 54 57 73 58 38 59
REMARK SMILES IDX 39 60 53 62 74 63 41 64 25 65 26 66 34 67 27 68 33 69 35 70
REMARK SMILES IDX 32 71 28 72 29 73 30 74 31 75 57 76 58 77 66 78 59 79 65 80
REMARK SMILES IDX 67 81 64 82 60 83 61 84 62 85 63 86 42 87 43 88 51 89 44 90
REMARK SMILES IDX 50 91 52 92 49 93 45 94 46 95 47 96 48 97
REMARK H PARENT 9 4 1 11 1 12 1 13 13 31 72 50 40 61
REMARK Flexibility Score: inf
ROOT
ATOM      1  C   UNL A   1      37.039  23.290  25.493  1.00  0.00     0.219 C 
ATOM      2  O   UNL A   1      37.597  24.208  26.097  1.00  0.00    -0.275 OA
ATOM      3  N   UNL A   1      37.730  22.136  25.286  1.00  0.00    -0.356 N 
ATOM      4  H   UNL A   1      38.629  22.104  25.684  1.00  0.00     0.163 HD
ENDROOT
BRANCH   1   5
ATOM      5  C   UNL A   1      35.605  23.422  25.016  1.00  0.00     0.100 C 
BRANCH   5   6
ATOM      6  C   UNL A   1      34.865  24.644  25.565  1.00  0.00     0.010 C 
BRANCH   6   7
ATOM      7  C   UNL A   1      33.753  25.317  24.732  1.00  0.00     0.007 C 
BRANCH   7   8
ATOM      8  C   UNL A   1      32.383  25.604  25.379  1.00  0.00     0.070 C 
BRANCH   8   9
ATOM      9  C   UNL A   1      31.152  24.942  24.722  1.00  0.00     0.211 C 
BRANCH   9  10
ATOM     10  N   UNL A   1      29.931  25.240  25.474  1.00  0.00    -0.351 N 
ATOM     11  H   UNL A   1      29.117  25.081  24.879  1.00  0.00     0.345 HD
ATOM     12  H   UNL A   1      29.946  26.215  25.775  1.00  0.00     0.345 HD
ATOM     13  H   UNL A   1      29.878  24.633  26.292  1.00  0.00     0.345 HD
ENDBRANCH   9  10
BRANCH   9  14
ATOM     14  C   UNL A   1      31.412  23.464  24.513  1.00  0.00     0.009 A 
ATOM     15  C   UNL A   1      31.596  22.586  25.588  1.00  0.00     0.010 A 
ATOM     16  C   UNL A   1      31.643  22.988  23.213  1.00  0.00     0.010 A 
ATOM     17  C   UNL A   1      32.083  21.298  25.372  1.00  0.00     0.009 A 
ATOM     18  C   UNL A   1      32.127  21.694  23.000  1.00  0.00     0.009 A 
ATOM     19  C   UNL A   1      32.380  20.838  24.080  1.00  0.00    -0.018 A 
BRANCH  19  20
ATOM     20  C   UNL A   1      32.964  19.504  23.890  1.00  0.00    -0.018 A 
ATOM     21  C   UNL A   1      34.097  19.117  24.624  1.00  0.00     0.009 A 
ATOM     22  C   UNL A   1      32.446  18.603  22.945  1.00  0.00     0.009 A 
ATOM     23  C   UNL A   1      34.700  17.876  24.416  1.00  0.00     0.001 A 
ATOM     24  C   UNL A   1      33.047  17.360  22.737  1.00  0.00     0.001 A 
ATOM     25  C   UNL A   1      34.175  16.999  23.472  1.00  0.00     0.000 A 
ENDBRANCH  19  20
ENDBRANCH   9  14
ENDBRANCH   8   9
ENDBRANCH   7   8
ENDBRANCH   6   7
ENDBRANCH   5   6
ENDBRANCH   1   5
BRANCH   3  26
ATOM     26  C   UNL A   1      37.324  20.951  24.561  1.00  0.00     0.117 C 
BRANCH  26  27
ATOM     27  C   UNL A   1      38.187  19.760  24.942  1.00  0.00     0.042 C 
BRANCH  27  28
ATOM     28  C   UNL A   1      39.117  20.033  26.104  1.00  0.00     0.118 C 
BRANCH  28  29
ATOM     29  N   UNL A   1      40.305  19.199  26.062  1.00  0.00    -0.352 N 
ATOM     30  C   UNL A   1      41.631  19.553  26.094  1.00  0.00     0.251 C 
ATOM     31  H   UNL A   1      40.133  18.231  26.002  1.00  0.00     0.163 HD
ATOM     32  O   UNL A   1      42.476  18.703  25.830  1.00  0.00    -0.269 OA
BRANCH  30  33
ATOM     33  C   UNL A   1      42.037  20.943  26.416  1.00  0.00     0.039 A 
ATOM     34  C   UNL A   1      42.134  21.873  25.378  1.00  0.00     0.014 A 
ATOM     35  C   UNL A   1      42.356  21.328  27.720  1.00  0.00     0.014 A 
ATOM     36  C   UNL A   1      42.519  23.187  25.656  1.00  0.00     0.010 A 
ATOM     37  C   UNL A   1      42.615  22.662  28.013  1.00  0.00     0.010 A 
ATOM     38  C   UNL A   1      42.745  23.598  26.980  1.00  0.00    -0.014 A 
BRANCH  38  39
ATOM     39  C   UNL A   1      43.205  24.975  27.299  1.00  0.00     0.031 A 
ATOM     40  C   UNL A   1      42.250  25.942  27.952  1.00  0.00     0.074 A 
ATOM     41  C   UNL A   1      44.452  25.364  26.971  1.00  0.00     0.049 A 
ATOM     42  N   UNL A   1      42.424  27.204  28.257  1.00  0.00    -0.248 NA
ATOM     43  C   UNL A   1      40.905  25.434  28.267  1.00  0.00     0.031 C 
ATOM     44  C   UNL A   1      45.451  24.526  26.301  1.00  0.00     0.029 A 
ATOM     45  N   UNL A   1      45.095  26.561  27.156  1.00  0.00    -0.354 N 
ATOM     46  C   UNL A   1      41.206  27.640  28.771  1.00  0.00     0.074 A 
ATOM     47  C   UNL A   1      40.284  26.534  28.662  1.00  0.00     0.031 C 
ATOM     48  C   UNL A   1      46.592  25.222  26.172  1.00  0.00     0.029 A 
ATOM     49  C   UNL A   1      46.394  26.568  26.700  1.00  0.00     0.049 A 
ATOM     50  H   UNL A   1      44.668  27.342  27.575  1.00  0.00     0.167 HD
ATOM     51  C   UNL A   1      40.895  28.842  29.315  1.00  0.00     0.034 A 
ATOM     52  C   UNL A   1      47.316  27.552  26.707  1.00  0.00     0.034 A 
ATOM     53  C   UNL A   1      41.841  29.923  29.441  1.00  0.00     0.049 A 
ATOM     54  C   UNL A   1      46.946  28.885  27.309  1.00  0.00     0.074 A 
ATOM     55  C   UNL A   1      41.660  31.165  30.023  1.00  0.00     0.029 A 
ATOM     56  N   UNL A   1      43.150  29.891  28.974  1.00  0.00    -0.354 N 
ATOM     57  N   UNL A   1      45.805  29.268  27.835  1.00  0.00    -0.248 NA
ATOM     58  C   UNL A   1      47.993  29.912  27.332  1.00  0.00     0.031 C 
ATOM     59  C   UNL A   1      42.829  31.909  29.841  1.00  0.00     0.029 A 
ATOM     60  C   UNL A   1      43.776  31.101  29.229  1.00  0.00     0.049 A 
ATOM     61  H   UNL A   1      43.571  29.122  28.527  1.00  0.00     0.167 HD
ATOM     62  C   UNL A   1      46.015  30.567  28.295  1.00  0.00     0.074 A 
ATOM     63  C   UNL A   1      47.393  30.892  27.990  1.00  0.00     0.031 C 
ATOM     64  C   UNL A   1      45.153  31.410  28.919  1.00  0.00     0.034 A 
BRANCH  51  65
ATOM     65  C   UNL A   1      39.472  29.049  29.784  1.00  0.00     0.023 A 
ATOM     66  C   UNL A   1      38.546  29.805  29.040  1.00  0.00     0.031 A 
ATOM     67  C   UNL A   1      39.044  28.520  31.015  1.00  0.00     0.131 A 
ATOM     68  C   UNL A   1      37.278  30.084  29.573  1.00  0.00     0.055 A 
ATOM     69  C   UNL A   1      37.749  28.722  31.495  1.00  0.00     0.041 A 
ATOM     70  F   UNL A   1      39.886  27.810  31.783  1.00  0.00    -0.206 F 
ATOM     71  C   UNL A   1      36.863  29.524  30.781  1.00  0.00     0.022 A 
BRANCH  68  72
ATOM     72  S   UNL A   1      36.247  31.326  28.744  1.00  0.00     0.124 S 
ATOM     73  O   UNL A   1      35.218  31.573  29.753  1.00  0.00    -0.237 OA
ATOM     74  O   UNL A   1      37.188  32.415  28.511  1.00  0.00    -0.237 OA
ATOM     75  O   UNL A   1      35.778  30.636  27.544  1.00  0.00    -0.744 OA
ENDBRANCH  68  72
ENDBRANCH  51  65
BRANCH  52  76
ATOM     76  C   UNL A   1      48.676  27.320  26.141  1.00  0.00     0.023 A 
ATOM     77  C   UNL A   1      48.943  27.560  24.783  1.00  0.00     0.031 A 
ATOM     78  C   UNL A   1      49.719  26.813  26.936  1.00  0.00     0.131 A 
ATOM     79  C   UNL A   1      50.202  27.242  24.249  1.00  0.00     0.055 A 
ATOM     80  C   UNL A   1      50.987  26.553  26.413  1.00  0.00     0.041 A 
ATOM     81  F   UNL A   1      49.521  26.569  28.241  1.00  0.00    -0.206 F 
ATOM     82  C   UNL A   1      51.230  26.753  25.058  1.00  0.00     0.022 A 
BRANCH  79  83
ATOM     83  S   UNL A   1      50.446  27.386  22.457  1.00  0.00     0.124 S 
ATOM     84  O   UNL A   1      51.755  26.767  22.286  1.00  0.00    -0.237 OA
ATOM     85  O   UNL A   1      49.307  26.636  21.936  1.00  0.00    -0.237 OA
ATOM     86  O   UNL A   1      50.401  28.827  22.224  1.00  0.00    -0.744 OA
ENDBRANCH  79  83
ENDBRANCH  52  76
BRANCH  64  87
ATOM     87  C   UNL A   1      45.702  32.741  29.376  1.00  0.00     0.023 A 
ATOM     88  C   UNL A   1      45.712  33.871  28.541  1.00  0.00     0.031 A 
ATOM     89  C   UNL A   1      46.238  32.871  30.670  1.00  0.00     0.131 A 
ATOM     90  C   UNL A   1      46.310  35.060  28.983  1.00  0.00     0.055 A 
ATOM     91  C   UNL A   1      46.765  34.077  31.131  1.00  0.00     0.041 A 
ATOM     92  F   UNL A   1      46.257  31.823  31.511  1.00  0.00    -0.206 F 
ATOM     93  C   UNL A   1      46.818  35.176  30.280  1.00  0.00     0.022 A 
BRANCH  90  94
ATOM     94  S   UNL A   1      46.522  36.420  27.802  1.00  0.00     0.124 S 
ATOM     95  O   UNL A   1      46.374  35.733  26.522  1.00  0.00    -0.237 OA
ATOM     96  O   UNL A   1      45.437  37.323  28.169  1.00  0.00    -0.237 OA
ATOM     97  O   UNL A   1      47.866  36.916  28.088  1.00  0.00    -0.744 OA
ENDBRANCH  90  94
ENDBRANCH  64  87
ENDBRANCH  38  39
ENDBRANCH  30  33
ENDBRANCH  28  29
ENDBRANCH  27  28
ENDBRANCH  26  27
ENDBRANCH   3  26
TORSDOF 20
ENDMDL
MODEL 3
REMARK VINA RESULT:     -11.2      5.759     11.218
REMARK SMILES [NH3+][C@@H](CCCCC(=O)NCCCNC(=O)c1ccc(-c2c3nc(c(-c4cc(S(=O)(=O)[O-])ccc4F)c4ccc([nH]4)c(-c4cc(S(=O)(=O)[O-])ccc4F)c4nc(c(-c5cc(S(=O)(=O)[O-])ccc5F)c5ccc2[nH]5)C=C4)C=C3)cc1)c1ccc(-c2ccccc2)cc1
REMARK SMILES IDX 7 1 8 2 9 3 6 5 5 6 4 7 3 8 2 9 1 10 79 14 80 15 90 16 81 17
REMARK SMILES IDX 89 18 82 19 83 20 84 21 88 22 85 23 87 24 86 25 10 26 11 27
REMARK SMILES IDX 12 28 13 29 14 30 15 32 16 33 17 34 78 35 18 36 77 37 19 38
REMARK SMILES IDX 20 39 21 40 71 41 22 42 76 43 70 44 72 45 23 46 75 47 69 48
REMARK SMILES IDX 68 49 24 51 56 52 36 53 55 54 37 55 40 56 54 57 73 58 38 59
REMARK SMILES IDX 39 60 53 62 74 63 41 64 25 65 26 66 34 67 27 68 33 69 35 70
REMARK SMILES IDX 32 71 28 72 29 73 30 74 31 75 57 76 58 77 66 78 59 79 65 80
REMARK SMILES IDX 67 81 64 82 60 83 61 84 62 85 63 86 42 87 43 88 51 89 44 90
REMARK SMILES IDX 50 91 52 92 49 93 45 94 46 95 47 96 48 97
REMARK H PARENT 9 4 1 11 1 12 1 13 13 31 72 50 40 61
REMARK Flexibility Score: inf
ROOT
ATOM      1  C   UNL A   1      37.293  23.262  25.659  1.00  0.00     0.219 C 
ATOM      2  O   UNL A   1      37.798  24.117  26.387  1.00  0.00    -0.275 OA
ATOM      3  N   UNL A   1      37.815  22.005  25.676  1.00  0.00    -0.356 N 
ATOM      4  H   UNL A   1      38.546  21.859  26.318  1.00  0.00     0.163 HD
ENDROOT
BRANCH   1   5
ATOM      5  C   UNL A   1      36.096  23.583  24.784  1.00  0.00     0.100 C 
BRANCH   5   6
ATOM      6  C   UNL A   1      35.029  24.444  25.463  1.00  0.00     0.010 C 
BRANCH   6   7
ATOM      7  C   UNL A   1      33.957  25.163  24.615  1.00  0.00     0.007 C 
BRANCH   7   8
ATOM      8  C   UNL A   1      32.588  25.499  25.241  1.00  0.00     0.070 C 
BRANCH   8   9
ATOM      9  C   UNL A   1      31.349  24.845  24.593  1.00  0.00     0.211 C 
BRANCH   9  10
ATOM     10  N   UNL A   1      30.130  25.186  25.331  1.00  0.00    -0.351 N 
ATOM     11  H   UNL A   1      29.540  24.357  25.416  1.00  0.00     0.345 HD
ATOM     12  H   UNL A   1      29.621  25.915  24.831  1.00  0.00     0.345 HD
ATOM     13  H   UNL A   1      30.378  25.522  26.262  1.00  0.00     0.345 HD
ENDBRANCH   9  10
BRANCH   9  14
ATOM     14  C   UNL A   1      31.581  23.358  24.422  1.00  0.00     0.009 A 
ATOM     15  C   UNL A   1      31.780  22.509  25.518  1.00  0.00     0.010 A 
ATOM     16  C   UNL A   1      31.770  22.841  23.131  1.00  0.00     0.010 A 
ATOM     17  C   UNL A   1      32.242  21.208  25.328  1.00  0.00     0.009 A 
ATOM     18  C   UNL A   1      32.229  21.534  22.945  1.00  0.00     0.009 A 
ATOM     19  C   UNL A   1      32.498  20.706  24.043  1.00  0.00    -0.018 A 
BRANCH  19  20
ATOM     20  C   UNL A   1      33.056  19.358  23.877  1.00  0.00    -0.018 A 
ATOM     21  C   UNL A   1      34.176  18.959  24.626  1.00  0.00     0.009 A 
ATOM     22  C   UNL A   1      32.529  18.454  22.941  1.00  0.00     0.009 A 
ATOM     23  C   UNL A   1      34.756  17.704  24.442  1.00  0.00     0.001 A 
ATOM     24  C   UNL A   1      33.106  17.196  22.757  1.00  0.00     0.001 A 
ATOM     25  C   UNL A   1      34.221  16.823  23.506  1.00  0.00     0.000 A 
ENDBRANCH  19  20
ENDBRANCH   9  14
ENDBRANCH   8   9
ENDBRANCH   7   8
ENDBRANCH   6   7
ENDBRANCH   5   6
ENDBRANCH   1   5
BRANCH   3  26
ATOM     26  C   UNL A   1      37.445  20.855  24.880  1.00  0.00     0.117 C 
BRANCH  26  27
ATOM     27  C   UNL A   1      38.488  19.757  24.994  1.00  0.00     0.042 C 
BRANCH  27  28
ATOM     28  C   UNL A   1      39.380  19.893  26.209  1.00  0.00     0.118 C 
BRANCH  28  29
ATOM     29  N   UNL A   1      40.656  19.222  26.029  1.00  0.00    -0.352 N 
ATOM     30  C   UNL A   1      41.926  19.741  25.994  1.00  0.00     0.251 C 
ATOM     31  H   UNL A   1      40.601  18.245  25.916  1.00  0.00     0.163 HD
ATOM     32  O   UNL A   1      42.847  19.024  25.615  1.00  0.00    -0.269 OA
BRANCH  30  33
ATOM     33  C   UNL A   1      42.181  21.150  26.379  1.00  0.00     0.039 A 
ATOM     34  C   UNL A   1      42.258  22.120  25.376  1.00  0.00     0.014 A 
ATOM     35  C   UNL A   1      42.376  21.520  27.712  1.00  0.00     0.014 A 
ATOM     36  C   UNL A   1      42.501  23.453  25.715  1.00  0.00     0.010 A 
ATOM     37  C   UNL A   1      42.492  22.861  28.058  1.00  0.00     0.010 A 
ATOM     38  C   UNL A   1      42.601  23.838  27.061  1.00  0.00    -0.014 A 
BRANCH  38  39
ATOM     39  C   UNL A   1      42.911  25.240  27.447  1.00  0.00     0.031 A 
ATOM     40  C   UNL A   1      44.307  25.773  27.242  1.00  0.00     0.074 A 
ATOM     41  C   UNL A   1      41.962  26.012  28.011  1.00  0.00     0.049 A 
ATOM     42  N   UNL A   1      44.808  26.939  27.567  1.00  0.00    -0.248 NA
ATOM     43  C   UNL A   1      45.282  24.857  26.629  1.00  0.00     0.031 C 
ATOM     44  C   UNL A   1      40.587  25.592  28.293  1.00  0.00     0.029 A 
ATOM     45  N   UNL A   1      42.007  27.312  28.447  1.00  0.00    -0.354 N 
ATOM     46  C   UNL A   1      46.155  26.882  27.220  1.00  0.00     0.074 A 
ATOM     47  C   UNL A   1      46.408  25.543  26.738  1.00  0.00     0.031 C 
ATOM     48  C   UNL A   1      39.910  26.627  28.814  1.00  0.00     0.029 A 
ATOM     49  C   UNL A   1      40.810  27.768  28.951  1.00  0.00     0.049 A 
ATOM     50  H   UNL A   1      42.818  27.866  28.403  1.00  0.00     0.167 HD
ATOM     51  C   UNL A   1      47.087  27.864  27.269  1.00  0.00     0.034 A 
ATOM     52  C   UNL A   1      40.482  28.969  29.467  1.00  0.00     0.034 A 
ATOM     53  C   UNL A   1      46.805  29.202  27.727  1.00  0.00     0.049 A 
ATOM     54  C   UNL A   1      41.537  30.046  29.521  1.00  0.00     0.074 A 
ATOM     55  C   UNL A   1      47.651  30.296  27.769  1.00  0.00     0.029 A 
ATOM     56  N   UNL A   1      45.579  29.629  28.224  1.00  0.00    -0.354 N 
ATOM     57  N   UNL A   1      42.795  29.992  29.145  1.00  0.00    -0.248 NA
ATOM     58  C   UNL A   1      41.123  31.350  30.052  1.00  0.00     0.031 C 
ATOM     59  C   UNL A   1      46.962  31.359  28.361  1.00  0.00     0.029 A 
ATOM     60  C   UNL A   1      45.656  30.960  28.603  1.00  0.00     0.049 A 
ATOM     61  H   UNL A   1      44.774  29.068  28.298  1.00  0.00     0.167 HD
ATOM     62  C   UNL A   1      43.308  31.271  29.352  1.00  0.00     0.074 A 
ATOM     63  C   UNL A   1      42.220  32.070  29.876  1.00  0.00     0.031 C 
ATOM     64  C   UNL A   1      44.560  31.744  29.123  1.00  0.00     0.034 A 
BRANCH  51  65
ATOM     65  C   UNL A   1      48.496  27.513  26.843  1.00  0.00     0.023 A 
ATOM     66  C   UNL A   1      48.985  27.826  25.561  1.00  0.00     0.031 A 
ATOM     67  C   UNL A   1      49.350  26.815  27.716  1.00  0.00     0.131 A 
ATOM     68  C   UNL A   1      50.248  27.366  25.159  1.00  0.00     0.055 A 
ATOM     69  C   UNL A   1      50.643  26.443  27.342  1.00  0.00     0.041 A 
ATOM     70  F   UNL A   1      48.935  26.465  28.944  1.00  0.00    -0.206 F 
ATOM     71  C   UNL A   1      51.092  26.702  26.051  1.00  0.00     0.022 A 
BRANCH  68  72
ATOM     72  S   UNL A   1      50.701  27.500  23.407  1.00  0.00     0.124 S 
ATOM     73  O   UNL A   1      50.887  28.942  23.261  1.00  0.00    -0.237 OA
ATOM     74  O   UNL A   1      51.909  26.688  23.329  1.00  0.00    -0.237 OA
ATOM     75  O   UNL A   1      49.537  26.956  22.711  1.00  0.00    -0.744 OA
ENDBRANCH  68  72
ENDBRANCH  51  65
BRANCH  52  76
ATOM     76  C   UNL A   1      39.100  29.228  29.964  1.00  0.00     0.023 A 
ATOM     77  C   UNL A   1      38.188  29.979  29.204  1.00  0.00     0.031 A 
ATOM     78  C   UNL A   1      38.681  28.770  31.226  1.00  0.00     0.131 A 
ATOM     79  C   UNL A   1      36.927  30.295  29.732  1.00  0.00     0.055 A 
ATOM     80  C   UNL A   1      37.404  29.038  31.724  1.00  0.00     0.041 A 
ATOM     81  F   UNL A   1      39.509  28.044  31.994  1.00  0.00    -0.206 F 
ATOM     82  C   UNL A   1      36.524  29.818  30.981  1.00  0.00     0.022 A 
BRANCH  79  83
ATOM     83  S   UNL A   1      35.854  31.425  28.802  1.00  0.00     0.124 S 
ATOM     84  O   UNL A   1      34.940  31.887  29.840  1.00  0.00    -0.237 OA
ATOM     85  O   UNL A   1      36.810  32.407  28.303  1.00  0.00    -0.237 OA
ATOM     86  O   UNL A   1      35.259  30.563  27.783  1.00  0.00    -0.744 OA
ENDBRANCH  79  83
ENDBRANCH  52  76
BRANCH  64  87
ATOM     87  C   UNL A   1      44.796  33.215  29.373  1.00  0.00     0.023 A 
ATOM     88  C   UNL A   1      44.370  34.204  28.469  1.00  0.00     0.031 A 
ATOM     89  C   UNL A   1      45.474  33.629  30.534  1.00  0.00     0.131 A 
ATOM     90  C   UNL A   1      44.688  35.549  28.706  1.00  0.00     0.055 A 
ATOM     91  C   UNL A   1      45.724  34.975  30.800  1.00  0.00     0.041 A 
ATOM     92  F   UNL A   1      45.907  32.728  31.431  1.00  0.00    -0.206 F 
ATOM     93  C   UNL A   1      45.344  35.943  29.876  1.00  0.00     0.022 A 
BRANCH  90  94
ATOM     94  S   UNL A   1      44.338  36.767  27.409  1.00  0.00     0.124 S 
ATOM     95  O   UNL A   1      43.504  35.998  26.489  1.00  0.00    -0.237 OA
ATOM     96  O   UNL A   1      43.660  37.825  28.150  1.00  0.00    -0.237 OA
ATOM     97  O   UNL A   1      45.663  37.117  26.900  1.00  0.00    -0.744 OA
ENDBRANCH  90  94
ENDBRANCH  64  87
ENDBRANCH  38  39
ENDBRANCH  30  33
ENDBRANCH  28  29
ENDBRANCH  27  28
ENDBRANCH  26  27
ENDBRANCH   3  26
TORSDOF 20
ENDMDL
