MODEL 1
REMARK VINA RESULT:     -12.2      0.000      0.000
REMARK SMILES O=C(C[C@H]1C[C@H]2CC[C@@H](C1)N2C(=O)[C@H]1CCCCO1)NCCCNC(=O)c1ccc(-c2c3nc(c(-c4cc(S(=O)(=O)[O-])ccc4F)c4ccc([nH]4)c(-c4cc(S(=O)(=O)[O-])ccc4F)c4nc(c(-c5cc(S(=O)(=O)[O-])ccc5F)c5ccc2[nH]5)C=C4)C=C3)cc1
REMARK SMILES IDX 22 1 21 2 20 3 1 4 2 5 3 7 4 8 5 9 10 10 6 11 9 12 7 13
REMARK SMILES IDX 11 14 8 15 12 16 13 17 14 18 15 19 19 20 16 21 18 22 17 23
REMARK SMILES IDX 23 24 24 25 25 26 26 28 27 29 28 30 89 31 29 32 88 33 30 34
REMARK SMILES IDX 31 35 32 36 82 37 33 38 87 39 81 40 83 41 34 42 86 43 80 44
REMARK SMILES IDX 79 45 35 47 67 48 47 49 66 50 48 51 51 52 65 53 84 54 49 55
REMARK SMILES IDX 50 56 64 58 85 59 52 60 36 61 37 62 45 63 38 64 44 65 46 66
REMARK SMILES IDX 43 67 39 68 40 69 41 70 42 71 68 72 69 73 77 74 70 75 76 76
REMARK SMILES IDX 78 77 75 78 71 79 72 80 73 81 74 82 53 83 54 84 62 85 55 86
REMARK SMILES IDX 61 87 63 88 60 89 56 90 57 91 58 92 59 93
REMARK H PARENT 20 6 24 27 83 46 51 57
REMARK Flexibility Score: inf
ROOT
ATOM      1  C   UNL A   1      32.180  29.091  25.210  1.00  0.00     0.042 C 
ENDROOT
BRANCH   1   2
ATOM      2  C   UNL A   1      30.911  28.498  24.591  1.00  0.00     0.117 C 
BRANCH   2   3
ATOM      3  N   UNL A   1      31.053  27.078  24.344  1.00  0.00    -0.356 N 
ATOM      4  O   UNL A   1      30.551  26.250  26.417  1.00  0.00    -0.275 OA
ATOM      5  C   UNL A   1      30.854  26.059  25.243  1.00  0.00     0.220 C 
ATOM      6  H   UNL A   1      31.321  26.815  23.433  1.00  0.00     0.163 HD
BRANCH   5   7
ATOM      7  C   UNL A   1      31.155  24.646  24.705  1.00  0.00     0.103 C 
BRANCH   7   8
ATOM      8  C   UNL A   1      32.123  23.727  25.496  1.00  0.00     0.002 C 
ATOM      9  C   UNL A   1      31.772  22.233  25.513  1.00  0.00     0.029 C 
ATOM     10  C   UNL A   1      33.630  23.889  25.070  1.00  0.00     0.029 C 
ATOM     11  C   UNL A   1      32.289  21.489  24.269  1.00  0.00     0.085 C 
ATOM     12  C   UNL A   1      34.150  22.854  24.017  1.00  0.00     0.085 C 
ATOM     13  C   UNL A   1      32.155  22.151  22.880  1.00  0.00     0.027 C 
ATOM     14  N   UNL A   1      33.723  21.519  24.418  1.00  0.00    -0.334 N 
ATOM     15  C   UNL A   1      33.411  23.013  22.696  1.00  0.00     0.027 C 
BRANCH  14  16
ATOM     16  C   UNL A   1      34.388  20.407  24.877  1.00  0.00     0.252 C 
ATOM     17  O   UNL A   1      35.431  20.537  25.524  1.00  0.00    -0.272 OA
BRANCH  16  18
ATOM     18  C   UNL A   1      33.773  19.029  24.609  1.00  0.00     0.207 C 
ATOM     19  C   UNL A   1      34.853  18.013  24.246  1.00  0.00     0.042 C 
ATOM     20  O   UNL A   1      33.092  18.612  25.800  1.00  0.00    -0.368 OA
ATOM     21  C   UNL A   1      34.247  16.620  24.116  1.00  0.00     0.006 C 
ATOM     22  C   UNL A   1      32.448  17.353  25.687  1.00  0.00     0.161 C 
ATOM     23  C   UNL A   1      33.465  16.267  25.374  1.00  0.00     0.029 C 
ENDBRANCH  16  18
ENDBRANCH  14  16
ENDBRANCH   7   8
ENDBRANCH   5   7
ENDBRANCH   2   3
ENDBRANCH   1   2
BRANCH   1  24
ATOM     24  C   UNL A   1      32.058  29.702  26.612  1.00  0.00     0.118 C 
BRANCH  24  25
ATOM     25  N   UNL A   1      32.072  31.152  26.646  1.00  0.00    -0.352 N 
ATOM     26  C   UNL A   1      32.986  32.010  27.213  1.00  0.00     0.251 C 
ATOM     27  H   UNL A   1      31.313  31.589  26.195  1.00  0.00     0.163 HD
ATOM     28  O   UNL A   1      32.740  33.218  27.206  1.00  0.00    -0.269 OA
BRANCH  26  29
ATOM     29  C   UNL A   1      34.225  31.517  27.869  1.00  0.00     0.039 A 
ATOM     30  C   UNL A   1      35.240  32.442  28.134  1.00  0.00     0.014 A 
ATOM     31  C   UNL A   1      34.427  30.172  28.188  1.00  0.00     0.014 A 
ATOM     32  C   UNL A   1      36.423  32.034  28.761  1.00  0.00     0.010 A 
ATOM     33  C   UNL A   1      35.582  29.776  28.876  1.00  0.00     0.010 A 
ATOM     34  C   UNL A   1      36.598  30.701  29.168  1.00  0.00    -0.014 A 
BRANCH  34  35
ATOM     35  C   UNL A   1      37.846  30.285  29.876  1.00  0.00     0.031 A 
ATOM     36  C   UNL A   1      38.123  30.746  31.285  1.00  0.00     0.074 A 
ATOM     37  C   UNL A   1      38.737  29.486  29.253  1.00  0.00     0.049 A 
ATOM     38  N   UNL A   1      39.139  30.469  32.064  1.00  0.00    -0.248 NA
ATOM     39  C   UNL A   1      37.139  31.657  31.887  1.00  0.00     0.031 C 
ATOM     40  C   UNL A   1      38.612  28.993  27.879  1.00  0.00     0.029 A 
ATOM     41  N   UNL A   1      39.920  28.939  29.690  1.00  0.00    -0.354 N 
ATOM     42  C   UNL A   1      38.919  31.170  33.246  1.00  0.00     0.074 A 
ATOM     43  C   UNL A   1      37.708  31.939  33.050  1.00  0.00     0.031 C 
ATOM     44  C   UNL A   1      39.650  28.190  27.602  1.00  0.00     0.029 A 
ATOM     45  C   UNL A   1      40.542  28.140  28.757  1.00  0.00     0.049 A 
ATOM     46  H   UNL A   1      40.289  29.104  30.587  1.00  0.00     0.167 HD
ATOM     47  C   UNL A   1      39.642  31.155  34.396  1.00  0.00     0.034 A 
ATOM     48  C   UNL A   1      41.697  27.445  28.819  1.00  0.00     0.034 A 
ATOM     49  C   UNL A   1      40.847  30.381  34.583  1.00  0.00     0.049 A 
ATOM     50  C   UNL A   1      42.497  27.465  30.099  1.00  0.00     0.074 A 
ATOM     51  C   UNL A   1      41.632  30.268  35.719  1.00  0.00     0.029 A 
ATOM     52  N   UNL A   1      41.451  29.595  33.609  1.00  0.00    -0.354 N 
ATOM     53  N   UNL A   1      42.248  28.097  31.222  1.00  0.00    -0.248 NA
ATOM     54  C   UNL A   1      43.725  26.660  30.123  1.00  0.00     0.031 C 
ATOM     55  C   UNL A   1      42.746  29.481  35.410  1.00  0.00     0.029 A 
ATOM     56  C   UNL A   1      42.612  29.020  34.111  1.00  0.00     0.049 A 
ATOM     57  H   UNL A   1      41.107  29.464  32.696  1.00  0.00     0.167 HD
ATOM     58  C   UNL A   1      43.265  27.727  32.100  1.00  0.00     0.074 A 
ATOM     59  C   UNL A   1      44.120  26.808  31.377  1.00  0.00     0.031 C 
ATOM     60  C   UNL A   1      43.468  28.107  33.388  1.00  0.00     0.034 A 
BRANCH  47  61
ATOM     61  C   UNL A   1      39.157  32.028  35.533  1.00  0.00     0.023 A 
ATOM     62  C   UNL A   1      39.583  33.361  35.677  1.00  0.00     0.031 A 
ATOM     63  C   UNL A   1      38.273  31.516  36.500  1.00  0.00     0.131 A 
ATOM     64  C   UNL A   1      39.191  34.106  36.800  1.00  0.00     0.055 A 
ATOM     65  C   UNL A   1      37.815  32.293  37.567  1.00  0.00     0.041 A 
ATOM     66  F   UNL A   1      37.845  30.246  36.431  1.00  0.00    -0.206 F 
ATOM     67  C   UNL A   1      38.287  33.591  37.731  1.00  0.00     0.022 A 
BRANCH  64  68
ATOM     68  S   UNL A   1      40.004  35.698  37.110  1.00  0.00     0.124 S 
ATOM     69  O   UNL A   1      39.653  36.446  35.904  1.00  0.00    -0.237 OA
ATOM     70  O   UNL A   1      39.371  36.141  38.346  1.00  0.00    -0.237 OA
ATOM     71  O   UNL A   1      41.417  35.344  37.223  1.00  0.00    -0.744 OA
ENDBRANCH  64  68
ENDBRANCH  47  61
BRANCH  48  72
ATOM     72  C   UNL A   1      42.180  26.668  27.637  1.00  0.00     0.023 A 
ATOM     73  C   UNL A   1      41.841  25.315  27.465  1.00  0.00     0.031 A 
ATOM     74  C   UNL A   1      43.041  27.254  26.691  1.00  0.00     0.131 A 
ATOM     75  C   UNL A   1      42.403  24.580  26.410  1.00  0.00     0.055 A 
ATOM     76  C   UNL A   1      43.547  26.535  25.607  1.00  0.00     0.041 A 
ATOM     77  F   UNL A   1      43.399  28.542  26.806  1.00  0.00    -0.206 F 
ATOM     78  C   UNL A   1      43.241  25.185  25.470  1.00  0.00     0.022 A 
BRANCH  75  79
ATOM     79  S   UNL A   1      42.104  22.791  26.339  1.00  0.00     0.124 S 
ATOM     80  O   UNL A   1      42.643  22.453  25.028  1.00  0.00    -0.237 OA
ATOM     81  O   UNL A   1      42.862  22.312  27.489  1.00  0.00    -0.237 OA
ATOM     82  O   UNL A   1      40.652  22.685  26.464  1.00  0.00    -0.744 OA
ENDBRANCH  75  79
ENDBRANCH  48  72
BRANCH  60  83
ATOM     83  C   UNL A   1      44.629  27.473  34.121  1.00  0.00     0.023 A 
ATOM     84  C   UNL A   1      44.486  26.291  34.870  1.00  0.00     0.031 A 
ATOM     85  C   UNL A   1      45.896  28.084  34.095  1.00  0.00     0.131 A 
ATOM     86  C   UNL A   1      45.566  25.805  35.624  1.00  0.00     0.055 A 
ATOM     87  C   UNL A   1      46.987  27.552  34.785  1.00  0.00     0.041 A 
ATOM     88  F   UNL A   1      46.097  29.216  33.400  1.00  0.00    -0.206 F 
ATOM     89  C   UNL A   1      46.820  26.417  35.572  1.00  0.00     0.022 A 
BRANCH  86  90
ATOM     90  S   UNL A   1      45.274  24.437  36.781  1.00  0.00     0.124 S 
ATOM     91  O   UNL A   1      46.635  24.025  37.114  1.00  0.00    -0.237 OA
ATOM     92  O   UNL A   1      44.526  25.088  37.850  1.00  0.00    -0.237 OA
ATOM     93  O   UNL A   1      44.511  23.474  35.989  1.00  0.00    -0.744 OA
ENDBRANCH  86  90
ENDBRANCH  60  83
ENDBRANCH  34  35
ENDBRANCH  26  29
ENDBRANCH  24  25
ENDBRANCH   1  24
TORSDOF 16
ENDMDL
MODEL 2
REMARK VINA RESULT:     -12.1      1.399      1.650
REMARK SMILES O=C(C[C@H]1C[C@H]2CC[C@@H](C1)N2C(=O)[C@H]1CCCCO1)NCCCNC(=O)c1ccc(-c2c3nc(c(-c4cc(S(=O)(=O)[O-])ccc4F)c4ccc([nH]4)c(-c4cc(S(=O)(=O)[O-])ccc4F)c4nc(c(-c5cc(S(=O)(=O)[O-])ccc5F)c5ccc2[nH]5)C=C4)C=C3)cc1
REMARK SMILES IDX 22 1 21 2 20 3 1 4 2 5 3 7 4 8 5 9 10 10 6 11 9 12 7 13
REMARK SMILES IDX 11 14 8 15 12 16 13 17 14 18 15 19 19 20 16 21 18 22 17 23
REMARK SMILES IDX 23 24 24 25 25 26 26 28 27 29 28 30 89 31 29 32 88 33 30 34
REMARK SMILES IDX 31 35 32 36 82 37 33 38 87 39 81 40 83 41 34 42 86 43 80 44
REMARK SMILES IDX 79 45 35 47 67 48 47 49 66 50 48 51 51 52 65 53 84 54 49 55
REMARK SMILES IDX 50 56 64 58 85 59 52 60 36 61 37 62 45 63 38 64 44 65 46 66
REMARK SMILES IDX 43 67 39 68 40 69 41 70 42 71 68 72 69 73 77 74 70 75 76 76
REMARK SMILES IDX 78 77 75 78 71 79 72 80 73 81 74 82 53 83 54 84 62 85 55 86
REMARK SMILES IDX 61 87 63 88 60 89 56 90 57 91 58 92 59 93
REMARK H PARENT 20 6 24 27 83 46 51 57
REMARK Flexibility Score: inf
ROOT
ATOM      1  C   UNL A   1      32.655  29.396  25.282  1.00  0.00     0.042 C 
ENDROOT
BRANCH   1   2
ATOM      2  C   UNL A   1      31.346  28.839  24.714  1.00  0.00     0.117 C 
BRANCH   2   3
ATOM      3  N   UNL A   1      31.446  27.420  24.442  1.00  0.00    -0.356 N 
ATOM      4  O   UNL A   1      30.854  26.570  26.483  1.00  0.00    -0.275 OA
ATOM      5  C   UNL A   1      31.184  26.391  25.315  1.00  0.00     0.220 C 
ATOM      6  H   UNL A   1      31.731  27.165  23.535  1.00  0.00     0.163 HD
BRANCH   5   7
ATOM      7  C   UNL A   1      31.451  24.979  24.756  1.00  0.00     0.103 C 
BRANCH   7   8
ATOM      8  C   UNL A   1      32.453  24.052  25.495  1.00  0.00     0.002 C 
ATOM      9  C   UNL A   1      31.994  22.606  25.721  1.00  0.00     0.029 C 
ATOM     10  C   UNL A   1      33.886  24.033  24.843  1.00  0.00     0.029 C 
ATOM     11  C   UNL A   1      32.256  21.703  24.503  1.00  0.00     0.085 C 
ATOM     12  C   UNL A   1      34.158  22.859  23.843  1.00  0.00     0.085 C 
ATOM     13  C   UNL A   1      31.966  22.241  23.085  1.00  0.00     0.027 C 
ATOM     14  N   UNL A   1      33.695  21.614  24.441  1.00  0.00    -0.334 N 
ATOM     15  C   UNL A   1      33.243  22.962  22.632  1.00  0.00     0.027 C 
BRANCH  14  16
ATOM     16  C   UNL A   1      34.332  20.493  24.917  1.00  0.00     0.252 C 
ATOM     17  O   UNL A   1      35.327  20.610  25.637  1.00  0.00    -0.272 OA
BRANCH  16  18
ATOM     18  C   UNL A   1      33.745  19.120  24.572  1.00  0.00     0.207 C 
ATOM     19  C   UNL A   1      34.851  18.130  24.217  1.00  0.00     0.042 C 
ATOM     20  O   UNL A   1      33.021  18.651  25.717  1.00  0.00    -0.368 OA
ATOM     21  C   UNL A   1      34.268  16.736  24.010  1.00  0.00     0.006 C 
ATOM     22  C   UNL A   1      32.396  17.391  25.529  1.00  0.00     0.161 C 
ATOM     23  C   UNL A   1      33.438  16.328  25.220  1.00  0.00     0.029 C 
ENDBRANCH  16  18
ENDBRANCH  14  16
ENDBRANCH   7   8
ENDBRANCH   5   7
ENDBRANCH   2   3
ENDBRANCH   1   2
BRANCH   1  24
ATOM     24  C   UNL A   1      32.642  29.867  26.742  1.00  0.00     0.118 C 
BRANCH  24  25
ATOM     25  N   UNL A   1      32.689  31.306  26.916  1.00  0.00    -0.352 N 
ATOM     26  C   UNL A   1      33.636  32.087  27.539  1.00  0.00     0.251 C 
ATOM     27  H   UNL A   1      31.930  31.800  26.529  1.00  0.00     0.163 HD
ATOM     28  O   UNL A   1      33.417  33.295  27.656  1.00  0.00    -0.269 OA
BRANCH  26  29
ATOM     29  C   UNL A   1      34.879  31.508  28.111  1.00  0.00     0.039 A 
ATOM     30  C   UNL A   1      36.019  32.317  28.159  1.00  0.00     0.014 A 
ATOM     31  C   UNL A   1      34.961  30.186  28.558  1.00  0.00     0.014 A 
ATOM     32  C   UNL A   1      37.213  31.826  28.699  1.00  0.00     0.010 A 
ATOM     33  C   UNL A   1      36.136  29.717  29.160  1.00  0.00     0.010 A 
ATOM     34  C   UNL A   1      37.280  30.529  29.234  1.00  0.00    -0.014 A 
BRANCH  34  35
ATOM     35  C   UNL A   1      38.547  30.030  29.848  1.00  0.00     0.031 A 
ATOM     36  C   UNL A   1      38.988  30.513  31.207  1.00  0.00     0.074 A 
ATOM     37  C   UNL A   1      39.308  29.135  29.184  1.00  0.00     0.049 A 
ATOM     38  N   UNL A   1      40.043  30.175  31.906  1.00  0.00    -0.248 NA
ATOM     39  C   UNL A   1      38.143  31.527  31.854  1.00  0.00     0.031 C 
ATOM     40  C   UNL A   1      39.018  28.608  27.849  1.00  0.00     0.029 A 
ATOM     41  N   UNL A   1      40.476  28.501  29.540  1.00  0.00    -0.354 N 
ATOM     42  C   UNL A   1      39.991  30.933  33.072  1.00  0.00     0.074 A 
ATOM     43  C   UNL A   1      38.837  31.798  32.950  1.00  0.00     0.031 C 
ATOM     44  C   UNL A   1      39.956  27.707  27.517  1.00  0.00     0.029 A 
ATOM     45  C   UNL A   1      40.941  27.619  28.591  1.00  0.00     0.049 A 
ATOM     46  H   UNL A   1      40.937  28.665  30.394  1.00  0.00     0.167 HD
ATOM     47  C   UNL A   1      40.810  30.894  34.154  1.00  0.00     0.034 A 
ATOM     48  C   UNL A   1      42.035  26.828  28.581  1.00  0.00     0.034 A 
ATOM     49  C   UNL A   1      41.958  30.024  34.268  1.00  0.00     0.049 A 
ATOM     50  C   UNL A   1      42.946  26.822  29.785  1.00  0.00     0.074 A 
ATOM     51  C   UNL A   1      42.830  29.882  35.336  1.00  0.00     0.029 A 
ATOM     52  N   UNL A   1      42.404  29.155  33.280  1.00  0.00    -0.354 N 
ATOM     53  N   UNL A   1      42.853  27.511  30.898  1.00  0.00    -0.248 NA
ATOM     54  C   UNL A   1      44.099  25.914  29.736  1.00  0.00     0.031 C 
ATOM     55  C   UNL A   1      43.841  28.990  34.965  1.00  0.00     0.029 A 
ATOM     56  C   UNL A   1      43.552  28.498  33.702  1.00  0.00     0.049 A 
ATOM     57  H   UNL A   1      41.969  29.023  32.407  1.00  0.00     0.167 HD
ATOM     58  C   UNL A   1      43.911  27.085  31.699  1.00  0.00     0.074 A 
ATOM     59  C   UNL A   1      44.616  26.070  30.944  1.00  0.00     0.031 C 
ATOM     60  C   UNL A   1      44.260  27.490  32.947  1.00  0.00     0.034 A 
BRANCH  47  61
ATOM     61  C   UNL A   1      40.506  31.845  35.292  1.00  0.00     0.023 A 
ATOM     62  C   UNL A   1      39.492  31.577  36.230  1.00  0.00     0.031 A 
ATOM     63  C   UNL A   1      41.225  33.045  35.431  1.00  0.00     0.131 A 
ATOM     64  C   UNL A   1      39.172  32.530  37.210  1.00  0.00     0.055 A 
ATOM     65  C   UNL A   1      40.962  33.948  36.465  1.00  0.00     0.041 A 
ATOM     66  F   UNL A   1      42.191  33.370  34.558  1.00  0.00    -0.206 F 
ATOM     67  C   UNL A   1      39.919  33.700  37.352  1.00  0.00     0.022 A 
BRANCH  64  68
ATOM     68  S   UNL A   1      37.667  32.289  38.193  1.00  0.00     0.124 S 
ATOM     69  O   UNL A   1      36.750  33.236  37.563  1.00  0.00    -0.237 OA
ATOM     70  O   UNL A   1      37.375  30.877  37.983  1.00  0.00    -0.237 OA
ATOM     71  O   UNL A   1      38.083  32.646  39.548  1.00  0.00    -0.744 OA
ENDBRANCH  64  68
ENDBRANCH  47  61
BRANCH  48  72
ATOM     72  C   UNL A   1      42.342  25.972  27.396  1.00  0.00     0.023 A 
ATOM     73  C   UNL A   1      41.939  24.626  27.344  1.00  0.00     0.031 A 
ATOM     74  C   UNL A   1      43.098  26.473  26.320  1.00  0.00     0.131 A 
ATOM     75  C   UNL A   1      42.342  23.815  26.271  1.00  0.00     0.055 A 
ATOM     76  C   UNL A   1      43.442  25.678  25.225  1.00  0.00     0.041 A 
ATOM     77  F   UNL A   1      43.509  27.750  26.317  1.00  0.00    -0.206 F 
ATOM     78  C   UNL A   1      43.077  24.336  25.204  1.00  0.00     0.022 A 
BRANCH  75  79
ATOM     79  S   UNL A   1      41.978  22.038  26.339  1.00  0.00     0.124 S 
ATOM     80  O   UNL A   1      42.403  21.700  27.692  1.00  0.00    -0.237 OA
ATOM     81  O   UNL A   1      40.541  22.014  26.092  1.00  0.00    -0.237 OA
ATOM     82  O   UNL A   1      42.802  21.483  25.267  1.00  0.00    -0.744 OA
ENDBRANCH  75  79
ENDBRANCH  48  72
BRANCH  60  83
ATOM     83  C   UNL A   1      45.424  26.781  33.602  1.00  0.00     0.023 A 
ATOM     84  C   UNL A   1      45.260  25.599  34.347  1.00  0.00     0.031 A 
ATOM     85  C   UNL A   1      46.721  27.322  33.507  1.00  0.00     0.131 A 
ATOM     86  C   UNL A   1      46.353  25.043  35.029  1.00  0.00     0.055 A 
ATOM     87  C   UNL A   1      47.818  26.720  34.125  1.00  0.00     0.041 A 
ATOM     88  F   UNL A   1      46.943  28.450  32.814  1.00  0.00    -0.206 F 
ATOM     89  C   UNL A   1      47.635  25.585  34.908  1.00  0.00     0.022 A 
BRANCH  86  90
ATOM     90  S   UNL A   1      46.054  23.678  36.187  1.00  0.00     0.124 S 
ATOM     91  O   UNL A   1      47.203  22.812  35.939  1.00  0.00    -0.237 OA
ATOM     92  O   UNL A   1      46.038  24.361  37.475  1.00  0.00    -0.237 OA
ATOM     93  O   UNL A   1      44.766  23.138  35.756  1.00  0.00    -0.744 OA
ENDBRANCH  86  90
ENDBRANCH  60  83
ENDBRANCH  34  35
ENDBRANCH  26  29
ENDBRANCH  24  25
ENDBRANCH   1  24
TORSDOF 16
ENDMDL
MODEL 3
REMARK VINA RESULT:     -12.1      2.551      7.996
REMARK SMILES O=C(C[C@H]1C[C@H]2CC[C@@H](C1)N2C(=O)[C@H]1CCCCO1)NCCCNC(=O)c1ccc(-c2c3nc(c(-c4cc(S(=O)(=O)[O-])ccc4F)c4ccc([nH]4)c(-c4cc(S(=O)(=O)[O-])ccc4F)c4nc(c(-c5cc(S(=O)(=O)[O-])ccc5F)c5ccc2[nH]5)C=C4)C=C3)cc1
REMARK SMILES IDX 22 1 21 2 20 3 1 4 2 5 3 7 4 8 5 9 10 10 6 11 9 12 7 13
REMARK SMILES IDX 11 14 8 15 12 16 13 17 14 18 15 19 19 20 16 21 18 22 17 23
REMARK SMILES IDX 23 24 24 25 25 26 26 28 27 29 28 30 89 31 29 32 88 33 30 34
REMARK SMILES IDX 31 35 32 36 82 37 33 38 87 39 81 40 83 41 34 42 86 43 80 44
REMARK SMILES IDX 79 45 35 47 67 48 47 49 66 50 48 51 51 52 65 53 84 54 49 55
REMARK SMILES IDX 50 56 64 58 85 59 52 60 36 61 37 62 45 63 38 64 44 65 46 66
REMARK SMILES IDX 43 67 39 68 40 69 41 70 42 71 68 72 69 73 77 74 70 75 76 76
REMARK SMILES IDX 78 77 75 78 71 79 72 80 73 81 74 82 53 83 54 84 62 85 55 86
REMARK SMILES IDX 61 87 63 88 60 89 56 90 57 91 58 92 59 93
REMARK H PARENT 20 6 24 27 83 46 51 57
REMARK Flexibility Score: inf
ROOT
ATOM      1  C   UNL A   1      31.403  32.005  26.974  1.00  0.00     0.042 C 
ENDROOT
BRANCH   1   2
ATOM      2  C   UNL A   1      30.982  31.615  25.554  1.00  0.00     0.117 C 
BRANCH   2   3
ATOM      3  N   UNL A   1      31.352  30.250  25.246  1.00  0.00    -0.356 N 
ATOM      4  O   UNL A   1      29.919  29.818  23.515  1.00  0.00    -0.275 OA
ATOM      5  C   UNL A   1      30.825  29.453  24.258  1.00  0.00     0.220 C 
ATOM      6  H   UNL A   1      32.057  29.849  25.804  1.00  0.00     0.163 HD
BRANCH   5   7
ATOM      7  C   UNL A   1      31.372  28.012  24.221  1.00  0.00     0.103 C 
BRANCH   7   8
ATOM      8  C   UNL A   1      31.337  27.159  25.516  1.00  0.00     0.002 C 
ATOM      9  C   UNL A   1      30.548  25.845  25.438  1.00  0.00     0.029 C 
ATOM     10  C   UNL A   1      32.766  26.857  26.106  1.00  0.00     0.029 C 
ATOM     11  C   UNL A   1      31.377  24.689  24.851  1.00  0.00     0.085 C 
ATOM     12  C   UNL A   1      33.390  25.481  25.695  1.00  0.00     0.085 C 
ATOM     13  C   UNL A   1      32.285  24.951  23.630  1.00  0.00     0.027 C 
ATOM     14  N   UNL A   1      32.383  24.440  25.856  1.00  0.00    -0.334 N 
ATOM     15  C   UNL A   1      33.631  25.427  24.194  1.00  0.00     0.027 C 
BRANCH  14  16
ATOM     16  C   UNL A   1      32.240  23.380  26.720  1.00  0.00     0.252 C 
ATOM     17  O   UNL A   1      31.404  23.435  27.626  1.00  0.00    -0.272 OA
BRANCH  16  18
ATOM     18  C   UNL A   1      33.100  22.133  26.491  1.00  0.00     0.207 C 
ATOM     19  C   UNL A   1      32.636  21.374  25.250  1.00  0.00     0.042 C 
ATOM     20  O   UNL A   1      34.458  22.560  26.321  1.00  0.00    -0.368 OA
ATOM     21  C   UNL A   1      33.581  20.215  24.954  1.00  0.00     0.006 C 
ATOM     22  C   UNL A   1      35.377  21.498  26.124  1.00  0.00     0.161 C 
ATOM     23  C   UNL A   1      35.017  20.714  24.871  1.00  0.00     0.029 C 
ENDBRANCH  16  18
ENDBRANCH  14  16
ENDBRANCH   7   8
ENDBRANCH   5   7
ENDBRANCH   2   3
ENDBRANCH   1   2
BRANCH   1  24
ATOM     24  C   UNL A   1      32.692  32.824  27.123  1.00  0.00     0.118 C 
BRANCH  24  25
ATOM     25  N   UNL A   1      32.502  34.171  27.628  1.00  0.00    -0.352 N 
ATOM     26  C   UNL A   1      33.164  34.835  28.634  1.00  0.00     0.251 C 
ATOM     27  H   UNL A   1      31.792  34.688  27.182  1.00  0.00     0.163 HD
ATOM     28  O   UNL A   1      32.762  35.953  28.964  1.00  0.00    -0.269 OA
BRANCH  26  29
ATOM     29  C   UNL A   1      34.308  34.225  29.359  1.00  0.00     0.039 A 
ATOM     30  C   UNL A   1      34.027  33.320  30.389  1.00  0.00     0.014 A 
ATOM     31  C   UNL A   1      35.639  34.551  29.082  1.00  0.00     0.014 A 
ATOM     32  C   UNL A   1      35.067  32.708  31.096  1.00  0.00     0.010 A 
ATOM     33  C   UNL A   1      36.680  33.886  29.745  1.00  0.00     0.010 A 
ATOM     34  C   UNL A   1      36.409  32.959  30.764  1.00  0.00    -0.014 A 
BRANCH  34  35
ATOM     35  C   UNL A   1      37.511  32.267  31.496  1.00  0.00     0.031 A 
ATOM     36  C   UNL A   1      38.276  31.140  30.850  1.00  0.00     0.074 A 
ATOM     37  C   UNL A   1      37.830  32.651  32.750  1.00  0.00     0.049 A 
ATOM     38  N   UNL A   1      39.277  30.438  31.322  1.00  0.00    -0.248 NA
ATOM     39  C   UNL A   1      37.845  30.734  29.504  1.00  0.00     0.031 C 
ATOM     40  C   UNL A   1      37.150  33.703  33.508  1.00  0.00     0.029 A 
ATOM     41  N   UNL A   1      38.810  32.211  33.608  1.00  0.00    -0.354 N 
ATOM     42  C   UNL A   1      39.594  29.508  30.335  1.00  0.00     0.074 A 
ATOM     43  C   UNL A   1      38.631  29.694  29.270  1.00  0.00     0.031 C 
ATOM     44  C   UNL A   1      37.755  33.853  34.696  1.00  0.00     0.029 A 
ATOM     45  C   UNL A   1      38.839  32.881  34.810  1.00  0.00     0.049 A 
ATOM     46  H   UNL A   1      39.433  31.482  33.384  1.00  0.00     0.167 HD
ATOM     47  C   UNL A   1      40.607  28.604  30.307  1.00  0.00     0.034 A 
ATOM     48  C   UNL A   1      39.644  32.735  35.884  1.00  0.00     0.034 A 
ATOM     49  C   UNL A   1      41.565  28.429  31.374  1.00  0.00     0.049 A 
ATOM     50  C   UNL A   1      40.746  31.705  35.839  1.00  0.00     0.074 A 
ATOM     51  C   UNL A   1      42.648  27.568  31.427  1.00  0.00     0.029 A 
ATOM     52  N   UNL A   1      41.552  29.119  32.580  1.00  0.00    -0.354 N 
ATOM     53  N   UNL A   1      41.059  30.867  34.877  1.00  0.00    -0.248 NA
ATOM     54  C   UNL A   1      41.614  31.615  37.019  1.00  0.00     0.031 C 
ATOM     55  C   UNL A   1      43.240  27.680  32.690  1.00  0.00     0.029 A 
ATOM     56  C   UNL A   1      42.590  28.681  33.393  1.00  0.00     0.049 A 
ATOM     57  H   UNL A   1      40.903  29.817  32.825  1.00  0.00     0.167 HD
ATOM     58  C   UNL A   1      42.190  30.185  35.322  1.00  0.00     0.074 A 
ATOM     59  C   UNL A   1      42.508  30.720  36.629  1.00  0.00     0.031 C 
ATOM     60  C   UNL A   1      42.904  29.211  34.700  1.00  0.00     0.034 A 
BRANCH  47  61
ATOM     61  C   UNL A   1      40.710  27.713  29.088  1.00  0.00     0.023 A 
ATOM     62  C   UNL A   1      41.654  27.953  28.073  1.00  0.00     0.031 A 
ATOM     63  C   UNL A   1      39.840  26.620  28.926  1.00  0.00     0.131 A 
ATOM     64  C   UNL A   1      41.652  27.166  26.911  1.00  0.00     0.055 A 
ATOM     65  C   UNL A   1      39.903  25.785  27.808  1.00  0.00     0.041 A 
ATOM     66  F   UNL A   1      38.903  26.349  29.848  1.00  0.00    -0.206 F 
ATOM     67  C   UNL A   1      40.802  26.066  26.784  1.00  0.00     0.022 A 
BRANCH  64  68
ATOM     68  S   UNL A   1      42.665  27.697  25.503  1.00  0.00     0.124 S 
ATOM     69  O   UNL A   1      41.897  28.835  25.002  1.00  0.00    -0.237 OA
ATOM     70  O   UNL A   1      43.941  28.011  26.133  1.00  0.00    -0.237 OA
ATOM     71  O   UNL A   1      42.671  26.528  24.626  1.00  0.00    -0.744 OA
ENDBRANCH  64  68
ENDBRANCH  47  61
BRANCH  48  72
ATOM     72  C   UNL A   1      39.446  33.578  37.101  1.00  0.00     0.023 A 
ATOM     73  C   UNL A   1      38.792  33.075  38.239  1.00  0.00     0.031 A 
ATOM     74  C   UNL A   1      39.855  34.924  37.122  1.00  0.00     0.131 A 
ATOM     75  C   UNL A   1      38.516  33.924  39.322  1.00  0.00     0.055 A 
ATOM     76  C   UNL A   1      39.634  35.747  38.227  1.00  0.00     0.041 A 
ATOM     77  F   UNL A   1      40.483  35.458  36.063  1.00  0.00    -0.206 F 
ATOM     78  C   UNL A   1      38.947  35.252  39.331  1.00  0.00     0.022 A 
BRANCH  75  79
ATOM     79  S   UNL A   1      37.493  33.294  40.683  1.00  0.00     0.124 S 
ATOM     80  O   UNL A   1      38.390  32.328  41.305  1.00  0.00    -0.237 OA
ATOM     81  O   UNL A   1      37.226  34.507  41.447  1.00  0.00    -0.237 OA
ATOM     82  O   UNL A   1      36.335  32.723  39.999  1.00  0.00    -0.744 OA
ENDBRANCH  75  79
ENDBRANCH  48  72
BRANCH  60  83
ATOM     83  C   UNL A   1      44.144  28.708  35.404  1.00  0.00     0.023 A 
ATOM     84  C   UNL A   1      44.101  27.667  36.348  1.00  0.00     0.031 A 
ATOM     85  C   UNL A   1      45.391  29.310  35.147  1.00  0.00     0.131 A 
ATOM     86  C   UNL A   1      45.261  27.314  37.056  1.00  0.00     0.055 A 
ATOM     87  C   UNL A   1      46.556  28.901  35.800  1.00  0.00     0.041 A 
ATOM     88  F   UNL A   1      45.498  30.312  34.260  1.00  0.00    -0.206 F 
ATOM     89  C   UNL A   1      46.491  27.911  36.775  1.00  0.00     0.022 A 
BRANCH  86  90
ATOM     90  S   UNL A   1      45.114  26.155  38.445  1.00  0.00     0.124 S 
ATOM     91  O   UNL A   1      46.459  25.593  38.515  1.00  0.00    -0.237 OA
ATOM     92  O   UNL A   1      44.734  27.035  39.545  1.00  0.00    -0.237 OA
ATOM     93  O   UNL A   1      44.074  25.225  38.009  1.00  0.00    -0.744 OA
ENDBRANCH  86  90
ENDBRANCH  60  83
ENDBRANCH  34  35
ENDBRANCH  26  29
ENDBRANCH  24  25
ENDBRANCH   1  24
TORSDOF 16
ENDMDL
