MODEL 1
REMARK VINA RESULT:     -12.6      0.000      0.000
REMARK SMILES CC1(C)[C@H]2CC[C@]1(C)C(=O)N(CC(=O)NCCCNC(=O)c1ccc(-c3c4nc(c(-c5cc(S(=O)(=O)[O-])ccc5F)c5ccc([nH]5)c(-c5cc(S(=O)(=O)[O-])ccc5F)c5nc(c(-c6cc(S(=O)(=O)[O-])ccc6F)c6ccc3[nH]6)C=C5)C=C4)cc1)C2=O
REMARK SMILES IDX 18 1 17 2 16 3 15 4 13 5 14 6 12 8 11 9 1 10 2 11 4 12 7 13
REMARK SMILES IDX 3 14 5 15 85 16 6 17 9 18 8 19 86 20 10 21 19 22 20 23 21 25
REMARK SMILES IDX 22 26 23 27 84 28 24 29 83 30 25 31 26 32 27 33 77 34 28 35
REMARK SMILES IDX 82 36 76 37 78 38 29 39 81 40 75 41 74 42 30 44 62 45 42 46
REMARK SMILES IDX 61 47 43 48 46 49 60 50 79 51 44 52 45 53 59 55 80 56 47 57
REMARK SMILES IDX 31 58 32 59 40 60 33 61 39 62 41 63 38 64 34 65 35 66 36 67
REMARK SMILES IDX 37 68 63 69 64 70 72 71 65 72 71 73 73 74 70 75 66 76 67 77
REMARK SMILES IDX 68 78 69 79 48 80 49 81 57 82 50 83 56 84 58 85 55 86 51 87
REMARK SMILES IDX 52 88 53 89 54 90
REMARK H PARENT 15 7 19 24 78 43 46 54
REMARK Flexibility Score: inf
ROOT
ATOM      1  C   UNL A   1      37.276  21.154  24.623  1.00  0.00     0.118 C 
ENDROOT
BRANCH   1   2
ATOM      2  C   UNL A   1      35.937  21.208  25.345  1.00  0.00     0.042 C 
BRANCH   2   3
ATOM      3  C   UNL A   1      34.876  20.168  24.943  1.00  0.00     0.117 C 
BRANCH   3   4
ATOM      4  N   UNL A   1      33.513  20.464  25.383  1.00  0.00    -0.354 N 
ATOM      5  C   UNL A   1      32.449  21.039  24.731  1.00  0.00     0.240 C 
ATOM      6  O   UNL A   1      31.372  21.056  25.338  1.00  0.00    -0.273 OA
ATOM      7  H   UNL A   1      33.325  20.207  26.315  1.00  0.00     0.163 HD
BRANCH   5   8
ATOM      8  C   UNL A   1      32.609  21.797  23.395  1.00  0.00     0.228 C 
BRANCH   8   9
ATOM      9  N   UNL A   1      32.680  23.207  23.749  1.00  0.00    -0.272 N 
ATOM     10  C   UNL A   1      33.573  26.414  22.663  1.00  0.00     0.013 C 
ATOM     11  C   UNL A   1      33.338  26.065  24.143  1.00  0.00    -0.010 C 
ATOM     12  C   UNL A   1      34.152  24.876  24.648  1.00  0.00     0.086 C 
ATOM     13  C   UNL A   1      31.914  25.481  24.459  1.00  0.00     0.053 C 
ATOM     14  C   UNL A   1      33.760  27.316  24.960  1.00  0.00     0.013 C 
ATOM     15  C   UNL A   1      33.500  24.533  26.025  1.00  0.00     0.015 C 
ATOM     16  C   UNL A   1      33.897  23.798  23.617  1.00  0.00     0.233 C 
ATOM     17  C   UNL A   1      32.064  25.110  25.949  1.00  0.00     0.018 C 
ATOM     18  C   UNL A   1      31.605  24.077  23.782  1.00  0.00     0.236 C 
ATOM     19  C   UNL A   1      30.789  26.467  24.165  1.00  0.00     0.022 C 
ATOM     20  O   UNL A   1      34.583  23.633  22.611  1.00  0.00    -0.274 OA
ATOM     21  O   UNL A   1      30.492  23.772  23.369  1.00  0.00    -0.274 OA
ENDBRANCH   8   9
ENDBRANCH   5   8
ENDBRANCH   3   4
ENDBRANCH   2   3
ENDBRANCH   1   2
BRANCH   1  22
ATOM     22  N   UNL A   1      38.162  20.172  25.214  1.00  0.00    -0.352 N 
ATOM     23  C   UNL A   1      39.384  20.292  25.833  1.00  0.00     0.251 C 
ATOM     24  H   UNL A   1      37.826  19.248  25.164  1.00  0.00     0.163 HD
ATOM     25  O   UNL A   1      40.046  19.260  25.960  1.00  0.00    -0.269 OA
BRANCH  23  26
ATOM     26  C   UNL A   1      39.944  21.578  26.346  1.00  0.00     0.039 A 
ATOM     27  C   UNL A   1      39.276  22.764  25.998  1.00  0.00     0.014 A 
ATOM     28  C   UNL A   1      41.164  21.682  27.019  1.00  0.00     0.014 A 
ATOM     29  C   UNL A   1      39.816  24.020  26.316  1.00  0.00     0.010 A 
ATOM     30  C   UNL A   1      41.668  22.937  27.401  1.00  0.00     0.010 A 
ATOM     31  C   UNL A   1      41.019  24.124  27.028  1.00  0.00    -0.014 A 
BRANCH  31  32
ATOM     32  C   UNL A   1      41.632  25.456  27.318  1.00  0.00     0.031 A 
ATOM     33  C   UNL A   1      40.886  26.480  28.142  1.00  0.00     0.074 A 
ATOM     34  C   UNL A   1      42.852  25.769  26.834  1.00  0.00     0.049 A 
ATOM     35  N   UNL A   1      41.234  27.700  28.470  1.00  0.00    -0.248 NA
ATOM     36  C   UNL A   1      39.563  26.083  28.641  1.00  0.00     0.031 C 
ATOM     37  C   UNL A   1      43.683  24.890  26.010  1.00  0.00     0.029 A 
ATOM     38  N   UNL A   1      43.606  26.911  26.966  1.00  0.00    -0.354 N 
ATOM     39  C   UNL A   1      40.165  28.224  29.194  1.00  0.00     0.074 A 
ATOM     40  C   UNL A   1      39.137  27.203  29.204  1.00  0.00     0.031 C 
ATOM     41  C   UNL A   1      44.840  25.513  25.732  1.00  0.00     0.029 A 
ATOM     42  C   UNL A   1      44.821  26.849  26.322  1.00  0.00     0.049 A 
ATOM     43  H   UNL A   1      43.305  27.699  27.472  1.00  0.00     0.167 HD
ATOM     44  C   UNL A   1      40.055  29.428  29.813  1.00  0.00     0.034 A 
ATOM     45  C   UNL A   1      45.807  27.763  26.210  1.00  0.00     0.034 A 
ATOM     46  C   UNL A   1      41.092  30.433  29.820  1.00  0.00     0.049 A 
ATOM     47  C   UNL A   1      45.654  29.106  26.877  1.00  0.00     0.074 A 
ATOM     48  C   UNL A   1      41.108  31.654  30.476  1.00  0.00     0.029 A 
ATOM     49  N   UNL A   1      42.296  30.343  29.134  1.00  0.00    -0.354 N 
ATOM     50  N   UNL A   1      44.654  29.566  27.591  1.00  0.00    -0.248 NA
ATOM     51  C   UNL A   1      46.769  30.050  26.724  1.00  0.00     0.031 C 
ATOM     52  C   UNL A   1      42.286  32.327  30.131  1.00  0.00     0.029 A 
ATOM     53  C   UNL A   1      43.042  31.499  29.319  1.00  0.00     0.049 A 
ATOM     54  H   UNL A   1      42.579  29.570  28.595  1.00  0.00     0.167 HD
ATOM     55  C   UNL A   1      45.033  30.843  27.997  1.00  0.00     0.074 A 
ATOM     56  C   UNL A   1      46.357  31.076  27.455  1.00  0.00     0.031 C 
ATOM     57  C   UNL A   1      44.352  31.737  28.758  1.00  0.00     0.034 A 
BRANCH  44  58
ATOM     58  C   UNL A   1      38.745  29.733  30.505  1.00  0.00     0.023 A 
ATOM     59  C   UNL A   1      37.734  30.486  29.881  1.00  0.00     0.031 A 
ATOM     60  C   UNL A   1      38.518  29.302  31.825  1.00  0.00     0.131 A 
ATOM     61  C   UNL A   1      36.594  30.868  30.606  1.00  0.00     0.055 A 
ATOM     62  C   UNL A   1      37.341  29.609  32.511  1.00  0.00     0.041 A 
ATOM     63  F   UNL A   1      39.449  28.592  32.482  1.00  0.00    -0.206 F 
ATOM     64  C   UNL A   1      36.378  30.414  31.909  1.00  0.00     0.022 A 
BRANCH  61  65
ATOM     65  S   UNL A   1      35.486  32.109  29.882  1.00  0.00     0.124 S 
ATOM     66  O   UNL A   1      36.411  33.209  29.614  1.00  0.00    -0.237 OA
ATOM     67  O   UNL A   1      34.958  31.417  28.713  1.00  0.00    -0.237 OA
ATOM     68  O   UNL A   1      34.519  32.368  30.946  1.00  0.00    -0.744 OA
ENDBRANCH  61  65
ENDBRANCH  44  58
BRANCH  45  69
ATOM     69  C   UNL A   1      47.034  27.446  25.427  1.00  0.00     0.023 A 
ATOM     70  C   UNL A   1      47.133  27.792  24.070  1.00  0.00     0.031 A 
ATOM     71  C   UNL A   1      48.116  26.770  26.018  1.00  0.00     0.131 A 
ATOM     72  C   UNL A   1      48.276  27.432  23.339  1.00  0.00     0.055 A 
ATOM     73  C   UNL A   1      49.268  26.453  25.298  1.00  0.00     0.041 A 
ATOM     74  F   UNL A   1      48.071  26.422  27.314  1.00  0.00    -0.206 F 
ATOM     75  C   UNL A   1      49.349  26.777  23.947  1.00  0.00     0.022 A 
BRANCH  72  76
ATOM     76  S   UNL A   1      48.320  27.789  21.561  1.00  0.00     0.124 S 
ATOM     77  O   UNL A   1      48.611  26.475  21.001  1.00  0.00    -0.237 OA
ATOM     78  O   UNL A   1      46.976  28.306  21.321  1.00  0.00    -0.237 OA
ATOM     79  O   UNL A   1      49.393  28.773  21.439  1.00  0.00    -0.744 OA
ENDBRANCH  72  76
ENDBRANCH  45  69
BRANCH  57  80
ATOM     80  C   UNL A   1      45.047  33.039  29.077  1.00  0.00     0.023 A 
ATOM     81  C   UNL A   1      44.939  34.162  28.238  1.00  0.00     0.031 A 
ATOM     82  C   UNL A   1      45.845  33.149  30.230  1.00  0.00     0.131 A 
ATOM     83  C   UNL A   1      45.658  35.330  28.537  1.00  0.00     0.055 A 
ATOM     84  C   UNL A   1      46.514  34.331  30.551  1.00  0.00     0.041 A 
ATOM     85  F   UNL A   1      45.987  32.108  31.066  1.00  0.00    -0.206 F 
ATOM     86  C   UNL A   1      46.434  35.426  29.695  1.00  0.00     0.022 A 
BRANCH  83  87
ATOM     87  S   UNL A   1      45.637  36.698  27.346  1.00  0.00     0.124 S 
ATOM     88  O   UNL A   1      44.215  37.017  27.274  1.00  0.00    -0.237 OA
ATOM     89  O   UNL A   1      46.481  37.693  27.996  1.00  0.00    -0.237 OA
ATOM     90  O   UNL A   1      46.200  36.107  26.133  1.00  0.00    -0.744 OA
ENDBRANCH  83  87
ENDBRANCH  57  80
ENDBRANCH  31  32
ENDBRANCH  23  26
ENDBRANCH   1  22
TORSDOF 14
ENDMDL
MODEL 2
REMARK VINA RESULT:     -12.5      1.081      7.676
REMARK SMILES CC1(C)[C@H]2CC[C@]1(C)C(=O)N(CC(=O)NCCCNC(=O)c1ccc(-c3c4nc(c(-c5cc(S(=O)(=O)[O-])ccc5F)c5ccc([nH]5)c(-c5cc(S(=O)(=O)[O-])ccc5F)c5nc(c(-c6cc(S(=O)(=O)[O-])ccc6F)c6ccc3[nH]6)C=C5)C=C4)cc1)C2=O
REMARK SMILES IDX 18 1 17 2 16 3 15 4 13 5 14 6 12 8 11 9 1 10 2 11 4 12 7 13
REMARK SMILES IDX 3 14 5 15 85 16 6 17 9 18 8 19 86 20 10 21 19 22 20 23 21 25
REMARK SMILES IDX 22 26 23 27 84 28 24 29 83 30 25 31 26 32 27 33 77 34 28 35
REMARK SMILES IDX 82 36 76 37 78 38 29 39 81 40 75 41 74 42 30 44 62 45 42 46
REMARK SMILES IDX 61 47 43 48 46 49 60 50 79 51 44 52 45 53 59 55 80 56 47 57
REMARK SMILES IDX 31 58 32 59 40 60 33 61 39 62 41 63 38 64 34 65 35 66 36 67
REMARK SMILES IDX 37 68 63 69 64 70 72 71 65 72 71 73 73 74 70 75 66 76 67 77
REMARK SMILES IDX 68 78 69 79 48 80 49 81 57 82 50 83 56 84 58 85 55 86 51 87
REMARK SMILES IDX 52 88 53 89 54 90
REMARK H PARENT 15 7 19 24 78 43 46 54
REMARK Flexibility Score: inf
ROOT
ATOM      1  C   UNL A   1      37.679  21.709  24.990  1.00  0.00     0.118 C 
ENDROOT
BRANCH   1   2
ATOM      2  C   UNL A   1      36.266  21.561  25.534  1.00  0.00     0.042 C 
BRANCH   2   3
ATOM      3  C   UNL A   1      35.397  20.436  24.943  1.00  0.00     0.117 C 
BRANCH   3   4
ATOM      4  N   UNL A   1      33.999  20.437  25.373  1.00  0.00    -0.354 N 
ATOM      5  C   UNL A   1      32.849  20.835  24.735  1.00  0.00     0.240 C 
ATOM      6  O   UNL A   1      31.783  20.607  25.320  1.00  0.00    -0.273 OA
ATOM      7  H   UNL A   1      33.855  20.091  26.284  1.00  0.00     0.163 HD
BRANCH   5   8
ATOM      8  C   UNL A   1      32.870  21.691  23.449  1.00  0.00     0.228 C 
BRANCH   8   9
ATOM      9  N   UNL A   1      32.863  23.075  23.898  1.00  0.00    -0.272 N 
ATOM     10  C   UNL A   1      33.529  26.397  23.017  1.00  0.00     0.013 C 
ATOM     11  C   UNL A   1      33.352  25.936  24.474  1.00  0.00    -0.010 C 
ATOM     12  C   UNL A   1      34.250  24.768  24.880  1.00  0.00     0.086 C 
ATOM     13  C   UNL A   1      31.975  25.243  24.778  1.00  0.00     0.053 C 
ATOM     14  C   UNL A   1      33.716  27.152  25.367  1.00  0.00     0.013 C 
ATOM     15  C   UNL A   1      33.653  24.293  26.243  1.00  0.00     0.015 C 
ATOM     16  C   UNL A   1      34.037  23.749  23.782  1.00  0.00     0.233 C 
ATOM     17  C   UNL A   1      32.183  24.782  26.236  1.00  0.00     0.018 C 
ATOM     18  C   UNL A   1      31.737  23.871  24.012  1.00  0.00     0.236 C 
ATOM     19  C   UNL A   1      30.785  26.174  24.575  1.00  0.00     0.022 C 
ATOM     20  O   UNL A   1      34.708  23.696  22.754  1.00  0.00    -0.274 OA
ATOM     21  O   UNL A   1      30.636  23.525  23.601  1.00  0.00    -0.274 OA
ENDBRANCH   8   9
ENDBRANCH   5   8
ENDBRANCH   3   4
ENDBRANCH   2   3
ENDBRANCH   1   2
BRANCH   1  22
ATOM     22  N   UNL A   1      38.607  20.825  25.664  1.00  0.00    -0.352 N 
ATOM     23  C   UNL A   1      39.757  21.071  26.378  1.00  0.00     0.251 C 
ATOM     24  H   UNL A   1      38.370  19.871  25.600  1.00  0.00     0.163 HD
ATOM     25  O   UNL A   1      40.506  20.111  26.572  1.00  0.00    -0.269 OA
BRANCH  23  26
ATOM     26  C   UNL A   1      40.141  22.410  26.917  1.00  0.00     0.039 A 
ATOM     27  C   UNL A   1      39.602  23.544  26.288  1.00  0.00     0.014 A 
ATOM     28  C   UNL A   1      41.113  22.601  27.902  1.00  0.00     0.014 A 
ATOM     29  C   UNL A   1      40.025  24.836  26.637  1.00  0.00     0.010 A 
ATOM     30  C   UNL A   1      41.483  23.896  28.303  1.00  0.00     0.010 A 
ATOM     31  C   UNL A   1      40.969  25.031  27.655  1.00  0.00    -0.014 A 
BRANCH  31  32
ATOM     32  C   UNL A   1      41.469  26.399  27.993  1.00  0.00     0.031 A 
ATOM     33  C   UNL A   1      42.864  26.824  27.599  1.00  0.00     0.074 A 
ATOM     34  C   UNL A   1      40.686  27.265  28.668  1.00  0.00     0.049 A 
ATOM     35  N   UNL A   1      43.489  27.952  27.833  1.00  0.00    -0.248 NA
ATOM     36  C   UNL A   1      43.668  25.838  26.866  1.00  0.00     0.031 C 
ATOM     37  C   UNL A   1      39.325  26.990  29.129  1.00  0.00     0.029 A 
ATOM     38  N   UNL A   1      40.923  28.554  29.084  1.00  0.00    -0.354 N 
ATOM     39  C   UNL A   1      44.766  27.803  27.297  1.00  0.00     0.074 A 
ATOM     40  C   UNL A   1      44.838  26.453  26.778  1.00  0.00     0.031 C 
ATOM     41  C   UNL A   1      38.838  28.084  29.738  1.00  0.00     0.029 A 
ATOM     42  C   UNL A   1      39.862  29.125  29.750  1.00  0.00     0.049 A 
ATOM     43  H   UNL A   1      41.772  29.025  28.921  1.00  0.00     0.167 HD
ATOM     44  C   UNL A   1      45.777  28.708  27.220  1.00  0.00     0.034 A 
ATOM     45  C   UNL A   1      39.727  30.343  30.314  1.00  0.00     0.034 A 
ATOM     46  C   UNL A   1      45.691  30.062  27.717  1.00  0.00     0.049 A 
ATOM     47  C   UNL A   1      40.870  31.323  30.247  1.00  0.00     0.074 A 
ATOM     48  C   UNL A   1      46.630  31.076  27.625  1.00  0.00     0.029 A 
ATOM     49  N   UNL A   1      44.610  30.591  28.410  1.00  0.00    -0.354 N 
ATOM     50  N   UNL A   1      42.054  31.178  29.699  1.00  0.00    -0.248 NA
ATOM     51  C   UNL A   1      40.652  32.635  30.871  1.00  0.00     0.031 C 
ATOM     52  C   UNL A   1      46.145  32.192  28.319  1.00  0.00     0.029 A 
ATOM     53  C   UNL A   1      44.874  31.902  28.782  1.00  0.00     0.049 A 
ATOM     54  H   UNL A   1      43.776  30.106  28.607  1.00  0.00     0.167 HD
ATOM     55  C   UNL A   1      42.710  32.391  29.889  1.00  0.00     0.074 A 
ATOM     56  C   UNL A   1      41.788  33.258  30.593  1.00  0.00     0.031 C 
ATOM     57  C   UNL A   1      43.961  32.757  29.505  1.00  0.00     0.034 A 
BRANCH  44  58
ATOM     58  C   UNL A   1      47.076  28.244  26.601  1.00  0.00     0.023 A 
ATOM     59  C   UNL A   1      47.290  28.277  25.211  1.00  0.00     0.031 A 
ATOM     60  C   UNL A   1      48.103  27.718  27.408  1.00  0.00     0.131 A 
ATOM     61  C   UNL A   1      48.451  27.706  24.666  1.00  0.00     0.055 A 
ATOM     62  C   UNL A   1      49.295  27.234  26.864  1.00  0.00     0.041 A 
ATOM     63  F   UNL A   1      47.956  27.645  28.740  1.00  0.00    -0.206 F 
ATOM     64  C   UNL A   1      49.466  27.208  25.484  1.00  0.00     0.022 A 
BRANCH  61  65
ATOM     65  S   UNL A   1      48.532  27.466  22.868  1.00  0.00     0.124 S 
ATOM     66  O   UNL A   1      48.480  26.009  22.763  1.00  0.00    -0.237 OA
ATOM     67  O   UNL A   1      47.352  28.184  22.401  1.00  0.00    -0.237 OA
ATOM     68  O   UNL A   1      49.814  28.063  22.501  1.00  0.00    -0.744 OA
ENDBRANCH  61  65
ENDBRANCH  44  58
BRANCH  45  69
ATOM     69  C   UNL A   1      38.458  30.710  31.003  1.00  0.00     0.023 A 
ATOM     70  C   UNL A   1      37.444  31.405  30.325  1.00  0.00     0.031 A 
ATOM     71  C   UNL A   1      38.252  30.392  32.357  1.00  0.00     0.131 A 
ATOM     72  C   UNL A   1      36.282  31.789  31.012  1.00  0.00     0.055 A 
ATOM     73  C   UNL A   1      37.075  30.739  33.024  1.00  0.00     0.041 A 
ATOM     74  F   UNL A   1      39.190  29.725  33.048  1.00  0.00    -0.206 F 
ATOM     75  C   UNL A   1      36.085  31.449  32.352  1.00  0.00     0.022 A 
BRANCH  72  76
ATOM     76  S   UNL A   1      35.045  32.788  30.138  1.00  0.00     0.124 S 
ATOM     77  O   UNL A   1      35.851  33.903  29.655  1.00  0.00    -0.237 OA
ATOM     78  O   UNL A   1      34.564  31.857  29.122  1.00  0.00    -0.237 OA
ATOM     79  O   UNL A   1      34.078  33.121  31.182  1.00  0.00    -0.744 OA
ENDBRANCH  72  76
ENDBRANCH  45  69
BRANCH  57  80
ATOM     80  C   UNL A   1      44.387  34.172  29.811  1.00  0.00     0.023 A 
ATOM     81  C   UNL A   1      44.054  35.246  28.966  1.00  0.00     0.031 A 
ATOM     82  C   UNL A   1      45.154  34.446  30.958  1.00  0.00     0.131 A 
ATOM     83  C   UNL A   1      44.530  36.535  29.253  1.00  0.00     0.055 A 
ATOM     84  C   UNL A   1      45.578  35.740  31.266  1.00  0.00     0.041 A 
ATOM     85  F   UNL A   1      45.503  33.460  31.799  1.00  0.00    -0.206 F 
ATOM     86  C   UNL A   1      45.278  36.791  30.405  1.00  0.00     0.022 A 
BRANCH  83  87
ATOM     87  S   UNL A   1      44.231  37.863  28.053  1.00  0.00     0.124 S 
ATOM     88  O   UNL A   1      43.350  38.755  28.799  1.00  0.00    -0.237 OA
ATOM     89  O   UNL A   1      45.577  38.363  27.799  1.00  0.00    -0.237 OA
ATOM     90  O   UNL A   1      43.604  37.174  26.926  1.00  0.00    -0.744 OA
ENDBRANCH  83  87
ENDBRANCH  57  80
ENDBRANCH  31  32
ENDBRANCH  23  26
ENDBRANCH   1  22
TORSDOF 14
ENDMDL
MODEL 3
REMARK VINA RESULT:     -12.4      5.248     10.402
REMARK SMILES CC1(C)[C@H]2CC[C@]1(C)C(=O)N(CC(=O)NCCCNC(=O)c1ccc(-c3c4nc(c(-c5cc(S(=O)(=O)[O-])ccc5F)c5ccc([nH]5)c(-c5cc(S(=O)(=O)[O-])ccc5F)c5nc(c(-c6cc(S(=O)(=O)[O-])ccc6F)c6ccc3[nH]6)C=C5)C=C4)cc1)C2=O
REMARK SMILES IDX 18 1 17 2 16 3 15 4 13 5 14 6 12 8 11 9 1 10 2 11 4 12 7 13
REMARK SMILES IDX 3 14 5 15 85 16 6 17 9 18 8 19 86 20 10 21 19 22 20 23 21 25
REMARK SMILES IDX 22 26 23 27 84 28 24 29 83 30 25 31 26 32 27 33 77 34 28 35
REMARK SMILES IDX 82 36 76 37 78 38 29 39 81 40 75 41 74 42 30 44 62 45 42 46
REMARK SMILES IDX 61 47 43 48 46 49 60 50 79 51 44 52 45 53 59 55 80 56 47 57
REMARK SMILES IDX 31 58 32 59 40 60 33 61 39 62 41 63 38 64 34 65 35 66 36 67
REMARK SMILES IDX 37 68 63 69 64 70 72 71 65 72 71 73 73 74 70 75 66 76 67 77
REMARK SMILES IDX 68 78 69 79 48 80 49 81 57 82 50 83 56 84 58 85 55 86 51 87
REMARK SMILES IDX 52 88 53 89 54 90
REMARK H PARENT 15 7 19 24 78 43 46 54
REMARK Flexibility Score: inf
ROOT
ATOM      1  C   UNL A   1      32.208  29.677  25.661  1.00  0.00     0.118 C 
ENDROOT
BRANCH   1   2
ATOM      2  C   UNL A   1      31.170  29.266  24.627  1.00  0.00     0.042 C 
BRANCH   2   3
ATOM      3  C   UNL A   1      31.291  27.852  24.030  1.00  0.00     0.117 C 
BRANCH   3   4
ATOM      4  N   UNL A   1      32.446  27.639  23.158  1.00  0.00    -0.354 N 
ATOM      5  C   UNL A   1      32.773  26.605  22.315  1.00  0.00     0.240 C 
ATOM      6  O   UNL A   1      33.778  26.761  21.611  1.00  0.00    -0.273 OA
ATOM      7  H   UNL A   1      33.108  28.367  23.180  1.00  0.00     0.163 HD
BRANCH   5   8
ATOM      8  C   UNL A   1      32.054  25.239  22.363  1.00  0.00     0.228 C 
BRANCH   8   9
ATOM      9  N   UNL A   1      32.707  24.488  23.425  1.00  0.00    -0.272 N 
ATOM     10  C   UNL A   1      32.510  21.691  25.522  1.00  0.00     0.013 C 
ATOM     11  C   UNL A   1      33.468  22.867  25.781  1.00  0.00    -0.010 C 
ATOM     12  C   UNL A   1      32.792  24.237  25.809  1.00  0.00     0.086 C 
ATOM     13  C   UNL A   1      34.470  23.164  24.608  1.00  0.00     0.053 C 
ATOM     14  C   UNL A   1      34.102  22.618  27.175  1.00  0.00     0.013 C 
ATOM     15  C   UNL A   1      33.984  25.244  25.750  1.00  0.00     0.015 C 
ATOM     16  C   UNL A   1      31.966  24.260  24.541  1.00  0.00     0.233 C 
ATOM     17  C   UNL A   1      35.154  24.452  25.113  1.00  0.00     0.018 C 
ATOM     18  C   UNL A   1      33.788  23.642  23.254  1.00  0.00     0.236 C 
ATOM     19  C   UNL A   1      35.426  22.008  24.338  1.00  0.00     0.022 C 
ATOM     20  O   UNL A   1      30.804  23.868  24.470  1.00  0.00    -0.274 OA
ATOM     21  O   UNL A   1      34.218  23.328  22.150  1.00  0.00    -0.274 OA
ENDBRANCH   8   9
ENDBRANCH   5   8
ENDBRANCH   3   4
ENDBRANCH   2   3
ENDBRANCH   1   2
BRANCH   1  22
ATOM     22  N   UNL A   1      32.044  31.060  26.061  1.00  0.00    -0.352 N 
ATOM     23  C   UNL A   1      32.698  31.828  26.996  1.00  0.00     0.251 C 
ATOM     24  H   UNL A   1      31.336  31.537  25.573  1.00  0.00     0.163 HD
ATOM     25  O   UNL A   1      32.145  32.876  27.339  1.00  0.00    -0.269 OA
BRANCH  23  26
ATOM     26  C   UNL A   1      34.012  31.470  27.610  1.00  0.00     0.039 A 
ATOM     27  C   UNL A   1      34.226  30.124  27.951  1.00  0.00     0.014 A 
ATOM     28  C   UNL A   1      34.970  32.409  28.000  1.00  0.00     0.014 A 
ATOM     29  C   UNL A   1      35.370  29.730  28.661  1.00  0.00     0.010 A 
ATOM     30  C   UNL A   1      36.150  32.004  28.647  1.00  0.00     0.010 A 
ATOM     31  C   UNL A   1      36.352  30.665  29.016  1.00  0.00    -0.014 A 
BRANCH  31  32
ATOM     32  C   UNL A   1      37.543  30.264  29.825  1.00  0.00     0.031 A 
ATOM     33  C   UNL A   1      38.593  29.348  29.241  1.00  0.00     0.074 A 
ATOM     34  C   UNL A   1      37.688  30.701  31.093  1.00  0.00     0.049 A 
ATOM     35  N   UNL A   1      39.676  28.860  29.796  1.00  0.00    -0.248 NA
ATOM     36  C   UNL A   1      38.380  28.904  27.857  1.00  0.00     0.031 C 
ATOM     37  C   UNL A   1      36.749  31.576  31.796  1.00  0.00     0.029 A 
ATOM     38  N   UNL A   1      38.681  30.471  32.015  1.00  0.00    -0.354 N 
ATOM     39  C   UNL A   1      40.262  28.035  28.837  1.00  0.00     0.074 A 
ATOM     40  C   UNL A   1      39.378  28.049  27.689  1.00  0.00     0.031 C 
ATOM     41  C   UNL A   1      37.223  31.830  33.027  1.00  0.00     0.029 A 
ATOM     42  C   UNL A   1      38.477  31.106  33.219  1.00  0.00     0.049 A 
ATOM     43  H   UNL A   1      39.465  29.904  31.832  1.00  0.00     0.167 HD
ATOM     44  C   UNL A   1      41.433  27.350  28.894  1.00  0.00     0.034 A 
ATOM     45  C   UNL A   1      39.209  31.104  34.353  1.00  0.00     0.034 A 
ATOM     46  C   UNL A   1      42.323  27.359  30.032  1.00  0.00     0.049 A 
ATOM     47  C   UNL A   1      40.489  30.312  34.408  1.00  0.00     0.074 A 
ATOM     48  C   UNL A   1      43.564  26.758  30.162  1.00  0.00     0.029 A 
ATOM     49  N   UNL A   1      42.065  27.993  31.241  1.00  0.00    -0.354 N 
ATOM     50  N   UNL A   1      41.047  29.573  33.478  1.00  0.00    -0.248 NA
ATOM     51  C   UNL A   1      41.243  30.362  35.669  1.00  0.00     0.031 C 
ATOM     52  C   UNL A   1      44.023  26.970  31.468  1.00  0.00     0.029 A 
ATOM     53  C   UNL A   1      43.105  27.765  32.132  1.00  0.00     0.049 A 
ATOM     54  H   UNL A   1      41.262  28.526  31.436  1.00  0.00     0.167 HD
ATOM     55  C   UNL A   1      42.230  29.093  34.033  1.00  0.00     0.074 A 
ATOM     56  C   UNL A   1      42.310  29.634  35.375  1.00  0.00     0.031 C 
ATOM     57  C   UNL A   1      43.171  28.286  33.478  1.00  0.00     0.034 A 
BRANCH  44  58
ATOM     58  C   UNL A   1      41.798  26.503  27.694  1.00  0.00     0.023 A 
ATOM     59  C   UNL A   1      41.423  25.151  27.599  1.00  0.00     0.031 A 
ATOM     60  C   UNL A   1      42.571  27.043  26.650  1.00  0.00     0.131 A 
ATOM     61  C   UNL A   1      41.901  24.363  26.540  1.00  0.00     0.055 A 
ATOM     62  C   UNL A   1      42.968  26.275  25.552  1.00  0.00     0.041 A 
ATOM     63  F   UNL A   1      42.974  28.322  26.687  1.00  0.00    -0.206 F 
ATOM     64  C   UNL A   1      42.650  24.921  25.503  1.00  0.00     0.022 A 
BRANCH  61  65
ATOM     65  S   UNL A   1      41.678  22.565  26.633  1.00  0.00     0.124 S 
ATOM     66  O   UNL A   1      42.281  22.127  25.376  1.00  0.00    -0.237 OA
ATOM     67  O   UNL A   1      42.407  22.219  27.847  1.00  0.00    -0.237 OA
ATOM     68  O   UNL A   1      40.228  22.403  26.707  1.00  0.00    -0.744 OA
ENDBRANCH  61  65
ENDBRANCH  44  58
BRANCH  45  69
ATOM     69  C   UNL A   1      38.746  31.874  35.541  1.00  0.00     0.023 A 
ATOM     70  C   UNL A   1      38.153  31.225  36.636  1.00  0.00     0.031 A 
ATOM     71  C   UNL A   1      38.868  33.274  35.589  1.00  0.00     0.131 A 
ATOM     72  C   UNL A   1      37.674  31.978  37.719  1.00  0.00     0.055 A 
ATOM     73  C   UNL A   1      38.430  34.014  36.688  1.00  0.00     0.041 A 
ATOM     74  F   UNL A   1      39.432  33.941  34.569  1.00  0.00    -0.206 F 
ATOM     75  C   UNL A   1      37.821  33.367  37.758  1.00  0.00     0.022 A 
BRANCH  72  76
ATOM     76  S   UNL A   1      36.808  31.118  39.061  1.00  0.00     0.124 S 
ATOM     77  O   UNL A   1      35.599  31.922  39.198  1.00  0.00    -0.237 OA
ATOM     78  O   UNL A   1      36.630  29.782  38.501  1.00  0.00    -0.237 OA
ATOM     79  O   UNL A   1      37.745  31.202  40.179  1.00  0.00    -0.744 OA
ENDBRANCH  72  76
ENDBRANCH  45  69
BRANCH  57  80
ATOM     80  C   UNL A   1      44.386  27.971  34.315  1.00  0.00     0.023 A 
ATOM     81  C   UNL A   1      44.436  26.842  35.154  1.00  0.00     0.031 A 
ATOM     82  C   UNL A   1      45.504  28.823  34.287  1.00  0.00     0.131 A 
ATOM     83  C   UNL A   1      45.559  26.625  35.967  1.00  0.00     0.055 A 
ATOM     84  C   UNL A   1      46.640  28.572  35.058  1.00  0.00     0.041 A 
ATOM     85  F   UNL A   1      45.511  29.917  33.508  1.00  0.00    -0.206 F 
ATOM     86  C   UNL A   1      46.667  27.475  35.914  1.00  0.00     0.022 A 
BRANCH  83  87
ATOM     87  S   UNL A   1      45.520  25.261  37.163  1.00  0.00     0.124 S 
ATOM     88  O   UNL A   1      45.191  24.121  36.314  1.00  0.00    -0.237 OA
ATOM     89  O   UNL A   1      46.874  25.282  37.706  1.00  0.00    -0.237 OA
ATOM     90  O   UNL A   1      44.471  25.657  38.102  1.00  0.00    -0.744 OA
ENDBRANCH  83  87
ENDBRANCH  57  80
ENDBRANCH  31  32
ENDBRANCH  23  26
ENDBRANCH   1  22
TORSDOF 14
ENDMDL
