MODEL 1
REMARK VINA RESULT:     -14.6      0.000      0.000
REMARK SMILES O=C1C[C@H](c2cn[nH]c2C(=O)NCCCNC(=O)c2ccc(-c3c4nc(c(-c5cc(S(=O)(=O)[O-])ccc5F)c5ccc([nH]5)c(-c5cc(S(=O)(=O)[O-])ccc5F)c5nc(c(-c6cc(S(=O)(=O)[O-])ccc6F)c6ccc3[nH]6)C=C5)C=C4)cc2)c2c(-c3cccs3)n[nH]c2N1
REMARK SMILES IDX 14 1 13 2 12 3 10 4 11 5 9 7 5 8 6 9 7 10 8 11 4 13 1 14
REMARK SMILES IDX 2 15 3 16 92 17 91 18 82 20 90 21 83 22 89 23 84 25 85 26
REMARK SMILES IDX 88 27 86 28 87 29 15 30 16 31 17 32 18 34 19 35 20 36 81 37
REMARK SMILES IDX 21 38 80 39 22 40 23 41 24 42 74 43 25 44 79 45 73 46 75 47
REMARK SMILES IDX 26 48 78 49 72 50 71 51 27 53 59 54 39 55 58 56 40 57 43 58
REMARK SMILES IDX 57 59 76 60 41 61 42 62 56 64 77 65 44 66 28 67 29 68 37 69
REMARK SMILES IDX 30 70 36 71 38 72 35 73 31 74 32 75 33 76 34 77 60 78 61 79
REMARK SMILES IDX 69 80 62 81 68 82 70 83 67 84 63 85 64 86 65 87 66 88 45 89
REMARK SMILES IDX 46 90 54 91 47 92 53 93 55 94 52 95 48 96 49 97 50 98 51 99
REMARK H PARENT 12 6 8 12 92 19 90 24 16 33 75 52 43 63
REMARK Flexibility Score: inf
ROOT
ATOM      1  C   UNL A   1      34.810  29.929  27.620  1.00  0.00     0.042 C 
ENDROOT
BRANCH   1   2
ATOM      2  C   UNL A   1      34.125  28.549  26.821  1.00  0.00     0.118 C 
BRANCH   2   3
ATOM      3  N   UNL A   1      33.170  28.333  24.870  1.00  0.00    -0.351 N 
ATOM      4  C   UNL A   1      32.786  27.677  23.675  1.00  0.00     0.269 C 
ATOM      5  O   UNL A   1      32.025  28.309  22.935  1.00  0.00    -0.268 OA
ATOM      6  H   UNL A   1      32.762  29.221  24.748  1.00  0.00     0.163 HD
BRANCH   4   7
ATOM      7  C   UNL A   1      33.149  26.319  23.338  1.00  0.00     0.126 A 
ATOM      8  C   UNL A   1      33.255  25.172  24.106  1.00  0.00     0.011 A 
ATOM      9  C   UNL A   1      33.551  24.146  23.191  1.00  0.00     0.140 A 
ATOM     10  N   UNL A   1      33.653  24.597  21.940  1.00  0.00    -0.183 NA
ATOM     11  N   UNL A   1      33.414  25.918  22.058  1.00  0.00    -0.273 N 
ATOM     12  H   UNL A   1      33.429  26.537  21.293  1.00  0.00     0.190 HD
BRANCH   8  13
ATOM     13  C   UNL A   1      33.047  25.118  25.572  1.00  0.00     0.069 C 
ATOM     14  O   UNL A   1      29.293  25.577  26.089  1.00  0.00    -0.275 OA
ATOM     15  C   UNL A   1      30.349  24.986  25.834  1.00  0.00     0.226 C 
ATOM     16  C   UNL A   1      31.699  25.745  26.001  1.00  0.00     0.114 C 
ATOM     17  N   UNL A   1      30.285  23.644  25.538  1.00  0.00    -0.311 N 
ATOM     18  C   UNL A   1      31.427  22.919  25.704  1.00  0.00     0.132 A 
ATOM     19  H   UNL A   1      29.452  23.227  25.220  1.00  0.00     0.171 HD
ATOM     20  C   UNL A   1      33.005  23.693  25.897  1.00  0.00     0.031 A 
ATOM     21  N   UNL A   1      31.685  21.087  25.751  1.00  0.00    -0.262 N 
ATOM     22  C   UNL A   1      34.358  22.272  25.944  1.00  0.00     0.108 A 
ATOM     23  N   UNL A   1      33.537  20.718  25.843  1.00  0.00    -0.173 NA
ATOM     24  H   UNL A   1      30.970  20.412  25.732  1.00  0.00     0.192 HD
BRANCH  22  25
ATOM     25  C   UNL A   1      35.804  22.509  25.755  1.00  0.00     0.055 A 
ATOM     26  C   UNL A   1      36.414  23.703  26.048  1.00  0.00     0.022 A 
ATOM     27  S   UNL A   1      36.895  21.301  25.269  1.00  0.00    -0.142 S 
ATOM     28  C   UNL A   1      37.831  23.599  25.932  1.00  0.00     0.012 A 
ATOM     29  C   UNL A   1      38.221  22.369  25.446  1.00  0.00     0.065 A 
ENDBRANCH  22  25
ENDBRANCH   8  13
ENDBRANCH   4   7
ENDBRANCH   2   3
ENDBRANCH   1   2
BRANCH   1  30
ATOM     30  C   UNL A   1      36.237  29.703  28.063  1.00  0.00     0.118 C 
BRANCH  30  31
ATOM     31  N   UNL A   1      36.433  29.784  29.501  1.00  0.00    -0.352 N 
ATOM     32  C   UNL A   1      37.320  28.998  30.215  1.00  0.00     0.251 C 
ATOM     33  H   UNL A   1      35.898  30.443  30.001  1.00  0.00     0.163 HD
ATOM     34  O   UNL A   1      37.149  28.722  31.391  1.00  0.00    -0.269 OA
BRANCH  32  35
ATOM     35  C   UNL A   1      38.550  28.637  29.486  1.00  0.00     0.039 A 
ATOM     36  C   UNL A   1      39.150  29.432  28.521  1.00  0.00     0.014 A 
ATOM     37  C   UNL A   1      39.192  27.502  29.975  1.00  0.00     0.014 A 
ATOM     38  C   UNL A   1      40.391  29.008  28.023  1.00  0.00     0.010 A 
ATOM     39  C   UNL A   1      40.541  27.425  29.787  1.00  0.00     0.010 A 
ATOM     40  C   UNL A   1      41.091  27.942  28.646  1.00  0.00    -0.014 A 
BRANCH  40  41
ATOM     41  C   UNL A   1      42.516  27.617  28.442  1.00  0.00     0.031 A 
ATOM     42  C   UNL A   1      42.596  26.510  27.457  1.00  0.00     0.074 A 
ATOM     43  C   UNL A   1      43.606  28.237  28.999  1.00  0.00     0.049 A 
ATOM     44  N   UNL A   1      42.507  25.272  27.802  1.00  0.00    -0.248 NA
ATOM     45  C   UNL A   1      42.348  26.712  26.017  1.00  0.00     0.031 C 
ATOM     46  C   UNL A   1      43.704  29.404  29.891  1.00  0.00     0.029 A 
ATOM     47  N   UNL A   1      44.940  27.869  28.916  1.00  0.00    -0.354 N 
ATOM     48  C   UNL A   1      42.598  24.536  26.641  1.00  0.00     0.074 A 
ATOM     49  C   UNL A   1      42.244  25.446  25.587  1.00  0.00     0.031 C 
ATOM     50  C   UNL A   1      45.007  29.759  30.094  1.00  0.00     0.029 A 
ATOM     51  C   UNL A   1      45.892  28.786  29.457  1.00  0.00     0.049 A 
ATOM     52  H   UNL A   1      45.218  27.018  28.505  1.00  0.00     0.167 HD
ATOM     53  C   UNL A   1      43.277  23.361  26.695  1.00  0.00     0.034 A 
ATOM     54  C   UNL A   1      47.262  28.618  29.636  1.00  0.00     0.034 A 
ATOM     55  C   UNL A   1      43.450  22.959  28.084  1.00  0.00     0.049 A 
ATOM     56  C   UNL A   1      47.473  27.144  29.649  1.00  0.00     0.074 A 
ATOM     57  C   UNL A   1      42.580  22.678  29.122  1.00  0.00     0.029 A 
ATOM     58  N   UNL A   1      44.640  23.327  28.679  1.00  0.00    -0.354 N 
ATOM     59  N   UNL A   1      47.042  26.403  30.632  1.00  0.00    -0.248 NA
ATOM     60  C   UNL A   1      47.563  26.490  28.348  1.00  0.00     0.031 C 
ATOM     61  C   UNL A   1      43.126  23.354  30.257  1.00  0.00     0.029 A 
ATOM     62  C   UNL A   1      44.379  23.868  29.918  1.00  0.00     0.049 A 
ATOM     63  H   UNL A   1      45.534  23.220  28.280  1.00  0.00     0.167 HD
ATOM     64  C   UNL A   1      46.364  25.368  30.013  1.00  0.00     0.074 A 
ATOM     65  C   UNL A   1      46.730  25.471  28.591  1.00  0.00     0.031 C 
ATOM     66  C   UNL A   1      45.299  24.754  30.612  1.00  0.00     0.034 A 
BRANCH  53  67
ATOM     67  C   UNL A   1      44.191  22.860  25.606  1.00  0.00     0.023 A 
ATOM     68  C   UNL A   1      44.106  21.491  25.297  1.00  0.00     0.031 A 
ATOM     69  C   UNL A   1      45.320  23.542  25.102  1.00  0.00     0.131 A 
ATOM     70  C   UNL A   1      45.145  20.841  24.613  1.00  0.00     0.055 A 
ATOM     71  C   UNL A   1      46.322  22.903  24.367  1.00  0.00     0.041 A 
ATOM     72  F   UNL A   1      45.569  24.829  25.368  1.00  0.00    -0.206 F 
ATOM     73  C   UNL A   1      46.252  21.538  24.140  1.00  0.00     0.022 A 
BRANCH  70  74
ATOM     74  S   UNL A   1      45.095  19.035  24.510  1.00  0.00     0.124 S 
ATOM     75  O   UNL A   1      44.880  18.829  23.083  1.00  0.00    -0.237 OA
ATOM     76  O   UNL A   1      46.412  18.670  25.022  1.00  0.00    -0.237 OA
ATOM     77  O   UNL A   1      43.972  18.679  25.372  1.00  0.00    -0.744 OA
ENDBRANCH  70  74
ENDBRANCH  53  67
BRANCH  54  78
ATOM     78  C   UNL A   1      48.424  29.533  29.222  1.00  0.00     0.023 A 
ATOM     79  C   UNL A   1      48.421  30.477  28.130  1.00  0.00     0.031 A 
ATOM     80  C   UNL A   1      49.503  29.659  30.115  1.00  0.00     0.131 A 
ATOM     81  C   UNL A   1      49.448  31.474  28.008  1.00  0.00     0.055 A 
ATOM     82  C   UNL A   1      50.477  30.661  30.009  1.00  0.00     0.041 A 
ATOM     83  F   UNL A   1      49.609  28.850  31.179  1.00  0.00    -0.206 F 
ATOM     84  C   UNL A   1      50.448  31.578  28.971  1.00  0.00     0.022 A 
BRANCH  81  85
ATOM     85  S   UNL A   1      49.533  32.709  26.630  1.00  0.00     0.124 S 
ATOM     86  O   UNL A   1      50.540  32.132  25.747  1.00  0.00    -0.237 OA
ATOM     87  O   UNL A   1      48.166  32.740  26.126  1.00  0.00    -0.237 OA
ATOM     88  O   UNL A   1      49.957  33.944  27.298  1.00  0.00    -0.744 OA
ENDBRANCH  81  85
ENDBRANCH  54  78
BRANCH  66  89
ATOM     89  C   UNL A   1      45.015  25.065  32.076  1.00  0.00     0.023 A 
ATOM     90  C   UNL A   1      45.671  24.515  33.209  1.00  0.00     0.031 A 
ATOM     91  C   UNL A   1      44.050  26.058  32.311  1.00  0.00     0.131 A 
ATOM     92  C   UNL A   1      45.323  24.954  34.509  1.00  0.00     0.055 A 
ATOM     93  C   UNL A   1      43.739  26.513  33.589  1.00  0.00     0.041 A 
ATOM     94  F   UNL A   1      43.400  26.626  31.283  1.00  0.00    -0.206 F 
ATOM     95  C   UNL A   1      44.367  25.957  34.695  1.00  0.00     0.022 A 
BRANCH  92  96
ATOM     96  S   UNL A   1      46.051  24.186  36.002  1.00  0.00     0.124 S 
ATOM     97  O   UNL A   1      46.758  25.291  36.638  1.00  0.00    -0.237 OA
ATOM     98  O   UNL A   1      44.877  23.689  36.713  1.00  0.00    -0.237 OA
ATOM     99  O   UNL A   1      46.920  23.139  35.459  1.00  0.00    -0.744 OA
ENDBRANCH  92  96
ENDBRANCH  66  89
ENDBRANCH  40  41
ENDBRANCH  32  35
ENDBRANCH  30  31
ENDBRANCH   1  30
TORSDOF 15
ENDMDL
MODEL 2
REMARK VINA RESULT:     -14.5      1.597      1.842
REMARK SMILES O=C1C[C@H](c2cn[nH]c2C(=O)NCCCNC(=O)c2ccc(-c3c4nc(c(-c5cc(S(=O)(=O)[O-])ccc5F)c5ccc([nH]5)c(-c5cc(S(=O)(=O)[O-])ccc5F)c5nc(c(-c6cc(S(=O)(=O)[O-])ccc6F)c6ccc3[nH]6)C=C5)C=C4)cc2)c2c(-c3cccs3)n[nH]c2N1
REMARK SMILES IDX 14 1 13 2 12 3 10 4 11 5 9 7 5 8 6 9 7 10 8 11 4 13 1 14
REMARK SMILES IDX 2 15 3 16 92 17 91 18 82 20 90 21 83 22 89 23 84 25 85 26
REMARK SMILES IDX 88 27 86 28 87 29 15 30 16 31 17 32 18 34 19 35 20 36 81 37
REMARK SMILES IDX 21 38 80 39 22 40 23 41 24 42 74 43 25 44 79 45 73 46 75 47
REMARK SMILES IDX 26 48 78 49 72 50 71 51 27 53 59 54 39 55 58 56 40 57 43 58
REMARK SMILES IDX 57 59 76 60 41 61 42 62 56 64 77 65 44 66 28 67 29 68 37 69
REMARK SMILES IDX 30 70 36 71 38 72 35 73 31 74 32 75 33 76 34 77 60 78 61 79
REMARK SMILES IDX 69 80 62 81 68 82 70 83 67 84 63 85 64 86 65 87 66 88 45 89
REMARK SMILES IDX 46 90 54 91 47 92 53 93 55 94 52 95 48 96 49 97 50 98 51 99
REMARK H PARENT 12 6 8 12 92 19 90 24 16 33 75 52 43 63
REMARK Flexibility Score: inf
ROOT
ATOM      1  C   UNL A   1      34.206  29.424  27.541  1.00  0.00     0.042 C 
ENDROOT
BRANCH   1   2
ATOM      2  C   UNL A   1      33.920  29.510  25.831  1.00  0.00     0.118 C 
BRANCH   2   3
ATOM      3  N   UNL A   1      32.546  28.412  24.538  1.00  0.00    -0.351 N 
ATOM      4  C   UNL A   1      32.101  27.343  23.723  1.00  0.00     0.269 C 
ATOM      5  O   UNL A   1      30.937  27.424  23.318  1.00  0.00    -0.268 OA
ATOM      6  H   UNL A   1      31.777  29.026  24.497  1.00  0.00     0.163 HD
BRANCH   4   7
ATOM      7  C   UNL A   1      32.879  26.159  23.433  1.00  0.00     0.126 A 
ATOM      8  C   UNL A   1      33.341  25.135  24.241  1.00  0.00     0.011 A 
ATOM      9  C   UNL A   1      33.954  24.224  23.362  1.00  0.00     0.140 A 
ATOM     10  N   UNL A   1      33.915  24.639  22.096  1.00  0.00    -0.183 NA
ATOM     11  N   UNL A   1      33.266  25.818  22.167  1.00  0.00    -0.273 N 
ATOM     12  H   UNL A   1      33.087  26.382  21.380  1.00  0.00     0.190 HD
BRANCH   8  13
ATOM     13  C   UNL A   1      33.153  25.070  25.710  1.00  0.00     0.069 C 
ATOM     14  O   UNL A   1      29.402  25.499  26.278  1.00  0.00    -0.275 OA
ATOM     15  C   UNL A   1      30.460  24.918  26.006  1.00  0.00     0.226 C 
ATOM     16  C   UNL A   1      31.805  25.684  26.160  1.00  0.00     0.114 C 
ATOM     17  N   UNL A   1      30.401  23.577  25.703  1.00  0.00    -0.311 N 
ATOM     18  C   UNL A   1      31.550  22.859  25.849  1.00  0.00     0.132 A 
ATOM     19  H   UNL A   1      29.567  23.155  25.393  1.00  0.00     0.171 HD
ATOM     20  C   UNL A   1      33.125  23.643  26.026  1.00  0.00     0.031 A 
ATOM     21  N   UNL A   1      31.822  21.029  25.882  1.00  0.00    -0.262 N 
ATOM     22  C   UNL A   1      34.489  22.231  26.047  1.00  0.00     0.108 A 
ATOM     23  N   UNL A   1      33.678  20.673  25.947  1.00  0.00    -0.173 NA
ATOM     24  H   UNL A   1      31.112  20.348  25.867  1.00  0.00     0.192 HD
BRANCH  22  25
ATOM     25  C   UNL A   1      35.931  22.480  25.841  1.00  0.00     0.055 A 
ATOM     26  C   UNL A   1      36.543  23.664  26.168  1.00  0.00     0.022 A 
ATOM     27  S   UNL A   1      37.015  21.296  25.288  1.00  0.00    -0.142 S 
ATOM     28  C   UNL A   1      37.958  23.568  26.022  1.00  0.00     0.012 A 
ATOM     29  C   UNL A   1      38.341  22.360  25.481  1.00  0.00     0.065 A 
ENDBRANCH  22  25
ENDBRANCH   8  13
ENDBRANCH   4   7
ENDBRANCH   2   3
ENDBRANCH   1   2
BRANCH   1  30
ATOM     30  C   UNL A   1      35.676  29.351  27.888  1.00  0.00     0.118 C 
BRANCH  30  31
ATOM     31  N   UNL A   1      35.979  29.694  29.267  1.00  0.00    -0.352 N 
ATOM     32  C   UNL A   1      37.003  29.130  30.007  1.00  0.00     0.251 C 
ATOM     33  H   UNL A   1      35.417  30.375  29.706  1.00  0.00     0.163 HD
ATOM     34  O   UNL A   1      36.960  29.043  31.223  1.00  0.00    -0.269 OA
BRANCH  32  35
ATOM     35  C   UNL A   1      38.201  28.768  29.227  1.00  0.00     0.039 A 
ATOM     36  C   UNL A   1      38.612  29.422  28.074  1.00  0.00     0.014 A 
ATOM     37  C   UNL A   1      39.019  27.824  29.841  1.00  0.00     0.014 A 
ATOM     38  C   UNL A   1      39.849  29.045  27.531  1.00  0.00     0.010 A 
ATOM     39  C   UNL A   1      40.346  27.857  29.526  1.00  0.00     0.010 A 
ATOM     40  C   UNL A   1      40.727  28.200  28.258  1.00  0.00    -0.014 A 
BRANCH  40  41
ATOM     41  C   UNL A   1      42.159  27.995  27.964  1.00  0.00     0.031 A 
ATOM     42  C   UNL A   1      42.284  26.778  27.124  1.00  0.00     0.074 A 
ATOM     43  C   UNL A   1      43.213  28.792  28.332  1.00  0.00     0.049 A 
ATOM     44  N   UNL A   1      42.363  25.596  27.631  1.00  0.00    -0.248 NA
ATOM     45  C   UNL A   1      41.901  26.755  25.700  1.00  0.00     0.031 C 
ATOM     46  C   UNL A   1      43.251  30.075  29.054  1.00  0.00     0.029 A 
ATOM     47  N   UNL A   1      44.569  28.553  28.171  1.00  0.00    -0.354 N 
ATOM     48  C   UNL A   1      42.444  24.722  26.569  1.00  0.00     0.074 A 
ATOM     49  C   UNL A   1      41.906  25.438  25.446  1.00  0.00     0.031 C 
ATOM     50  C   UNL A   1      44.517  30.583  29.087  1.00  0.00     0.029 A 
ATOM     51  C   UNL A   1      45.452  29.627  28.498  1.00  0.00     0.049 A 
ATOM     52  H   UNL A   1      44.907  27.687  27.847  1.00  0.00     0.167 HD
ATOM     53  C   UNL A   1      43.253  23.639  26.708  1.00  0.00     0.034 A 
ATOM     54  C   UNL A   1      46.843  29.625  28.567  1.00  0.00     0.034 A 
ATOM     55  C   UNL A   1      43.580  23.450  28.115  1.00  0.00     0.049 A 
ATOM     56  C   UNL A   1      47.219  28.195  28.748  1.00  0.00     0.074 A 
ATOM     57  C   UNL A   1      42.834  23.227  29.258  1.00  0.00     0.029 A 
ATOM     58  N   UNL A   1      44.764  24.014  28.543  1.00  0.00    -0.354 N 
ATOM     59  N   UNL A   1      46.953  27.556  29.854  1.00  0.00    -0.248 NA
ATOM     60  C   UNL A   1      47.277  27.382  27.539  1.00  0.00     0.031 C 
ATOM     61  C   UNL A   1      43.389  24.104  30.240  1.00  0.00     0.029 A 
ATOM     62  C   UNL A   1      44.544  24.691  29.722  1.00  0.00     0.049 A 
ATOM     63  H   UNL A   1      45.630  23.945  28.079  1.00  0.00     0.167 HD
ATOM     64  C   UNL A   1      46.349  26.383  29.438  1.00  0.00     0.074 A 
ATOM     65  C   UNL A   1      46.586  26.327  27.987  1.00  0.00     0.031 C 
ATOM     66  C   UNL A   1      45.411  25.751  30.208  1.00  0.00     0.034 A 
BRANCH  53  67
ATOM     67  C   UNL A   1      44.127  23.090  25.611  1.00  0.00     0.023 A 
ATOM     68  C   UNL A   1      44.007  21.714  25.344  1.00  0.00     0.031 A 
ATOM     69  C   UNL A   1      45.255  23.734  25.057  1.00  0.00     0.131 A 
ATOM     70  C   UNL A   1      45.015  21.024  24.652  1.00  0.00     0.055 A 
ATOM     71  C   UNL A   1      46.224  23.054  24.315  1.00  0.00     0.041 A 
ATOM     72  F   UNL A   1      45.535  25.023  25.279  1.00  0.00    -0.206 F 
ATOM     73  C   UNL A   1      46.122  21.685  24.130  1.00  0.00     0.022 A 
BRANCH  70  74
ATOM     74  S   UNL A   1      44.928  19.217  24.604  1.00  0.00     0.124 S 
ATOM     75  O   UNL A   1      45.643  18.922  23.368  1.00  0.00    -0.237 OA
ATOM     76  O   UNL A   1      45.607  18.852  25.843  1.00  0.00    -0.237 OA
ATOM     77  O   UNL A   1      43.493  18.949  24.578  1.00  0.00    -0.744 OA
ENDBRANCH  70  74
ENDBRANCH  53  67
BRANCH  54  78
ATOM     78  C   UNL A   1      47.857  30.587  27.933  1.00  0.00     0.023 A 
ATOM     79  C   UNL A   1      47.551  31.806  27.224  1.00  0.00     0.031 A 
ATOM     80  C   UNL A   1      49.213  30.418  28.269  1.00  0.00     0.131 A 
ATOM     81  C   UNL A   1      48.575  32.766  26.921  1.00  0.00     0.055 A 
ATOM     82  C   UNL A   1      50.197  31.380  28.005  1.00  0.00     0.041 A 
ATOM     83  F   UNL A   1      49.620  29.333  28.942  1.00  0.00    -0.206 F 
ATOM     84  C   UNL A   1      49.884  32.559  27.347  1.00  0.00     0.022 A 
BRANCH  81  85
ATOM     85  S   UNL A   1      48.275  34.344  25.999  1.00  0.00     0.124 S 
ATOM     86  O   UNL A   1      46.968  34.117  25.396  1.00  0.00    -0.237 OA
ATOM     87  O   UNL A   1      48.343  35.358  27.045  1.00  0.00    -0.237 OA
ATOM     88  O   UNL A   1      49.380  34.398  25.036  1.00  0.00    -0.744 OA
ENDBRANCH  81  85
ENDBRANCH  54  78
BRANCH  66  89
ATOM     89  C   UNL A   1      45.212  26.229  31.641  1.00  0.00     0.023 A 
ATOM     90  C   UNL A   1      44.147  27.029  32.134  1.00  0.00     0.031 A 
ATOM     91  C   UNL A   1      46.149  25.759  32.575  1.00  0.00     0.131 A 
ATOM     92  C   UNL A   1      44.078  27.341  33.514  1.00  0.00     0.055 A 
ATOM     93  C   UNL A   1      46.056  26.039  33.936  1.00  0.00     0.041 A 
ATOM     94  F   UNL A   1      47.176  24.991  32.176  1.00  0.00    -0.206 F 
ATOM     95  C   UNL A   1      45.026  26.838  34.410  1.00  0.00     0.022 A 
BRANCH  92  96
ATOM     96  S   UNL A   1      42.797  28.469  34.173  1.00  0.00     0.124 S 
ATOM     97  O   UNL A   1      41.676  27.578  34.451  1.00  0.00    -0.237 OA
ATOM     98  O   UNL A   1      43.451  29.051  35.341  1.00  0.00    -0.237 OA
ATOM     99  O   UNL A   1      42.569  29.409  33.073  1.00  0.00    -0.744 OA
ENDBRANCH  92  96
ENDBRANCH  66  89
ENDBRANCH  40  41
ENDBRANCH  32  35
ENDBRANCH  30  31
ENDBRANCH   1  30
TORSDOF 15
ENDMDL
MODEL 3
REMARK VINA RESULT:     -14.4      5.568     10.843
REMARK SMILES O=C1C[C@H](c2cn[nH]c2C(=O)NCCCNC(=O)c2ccc(-c3c4nc(c(-c5cc(S(=O)(=O)[O-])ccc5F)c5ccc([nH]5)c(-c5cc(S(=O)(=O)[O-])ccc5F)c5nc(c(-c6cc(S(=O)(=O)[O-])ccc6F)c6ccc3[nH]6)C=C5)C=C4)cc2)c2c(-c3cccs3)n[nH]c2N1
REMARK SMILES IDX 14 1 13 2 12 3 10 4 11 5 9 7 5 8 6 9 7 10 8 11 4 13 1 14
REMARK SMILES IDX 2 15 3 16 92 17 91 18 82 20 90 21 83 22 89 23 84 25 85 26
REMARK SMILES IDX 88 27 86 28 87 29 15 30 16 31 17 32 18 34 19 35 20 36 81 37
REMARK SMILES IDX 21 38 80 39 22 40 23 41 24 42 74 43 25 44 79 45 73 46 75 47
REMARK SMILES IDX 26 48 78 49 72 50 71 51 27 53 59 54 39 55 58 56 40 57 43 58
REMARK SMILES IDX 57 59 76 60 41 61 42 62 56 64 77 65 44 66 28 67 29 68 37 69
REMARK SMILES IDX 30 70 36 71 38 72 35 73 31 74 32 75 33 76 34 77 60 78 61 79
REMARK SMILES IDX 69 80 62 81 68 82 70 83 67 84 63 85 64 86 65 87 66 88 45 89
REMARK SMILES IDX 46 90 54 91 47 92 53 93 55 94 52 95 48 96 49 97 50 98 51 99
REMARK H PARENT 12 6 8 12 92 19 90 24 16 33 75 52 43 63
REMARK Flexibility Score: inf
ROOT
ATOM      1  C   UNL A   1      38.667  23.537  26.551  1.00  0.00     0.042 C 
ENDROOT
BRANCH   1   2
ATOM      2  C   UNL A   1      37.083  24.033  26.043  1.00  0.00     0.118 C 
BRANCH   2   3
ATOM      3  N   UNL A   1      35.189  22.952  25.953  1.00  0.00    -0.351 N 
ATOM      4  C   UNL A   1      33.781  22.793  25.933  1.00  0.00     0.269 C 
ATOM      5  O   UNL A   1      33.373  21.644  25.742  1.00  0.00    -0.268 OA
ATOM      6  H   UNL A   1      35.495  22.019  25.885  1.00  0.00     0.163 HD
BRANCH   4   7
ATOM      7  C   UNL A   1      32.837  23.883  26.024  1.00  0.00     0.126 A 
ATOM      8  C   UNL A   1      32.752  25.093  25.357  1.00  0.00     0.011 A 
ATOM      9  C   UNL A   1      31.558  25.679  25.813  1.00  0.00     0.140 A 
ATOM     10  N   UNL A   1      30.936  24.923  26.718  1.00  0.00    -0.183 NA
ATOM     11  N   UNL A   1      31.736  23.845  26.835  1.00  0.00    -0.273 N 
ATOM     12  H   UNL A   1      31.546  23.098  27.448  1.00  0.00     0.190 HD
BRANCH   8  13
ATOM     13  C   UNL A   1      33.736  25.575  24.360  1.00  0.00     0.069 C 
ATOM     14  O   UNL A   1      33.278  23.331  21.306  1.00  0.00    -0.275 OA
ATOM     15  C   UNL A   1      33.046  24.260  22.089  1.00  0.00     0.226 C 
ATOM     16  C   UNL A   1      34.032  24.522  23.265  1.00  0.00     0.114 C 
ATOM     17  N   UNL A   1      31.993  25.098  21.803  1.00  0.00    -0.311 N 
ATOM     18  C   UNL A   1      32.013  26.335  22.376  1.00  0.00     0.132 A 
ATOM     19  H   UNL A   1      31.257  24.818  21.213  1.00  0.00     0.171 HD
ATOM     20  C   UNL A   1      33.096  26.723  23.720  1.00  0.00     0.031 A 
ATOM     21  N   UNL A   1      31.012  27.845  22.002  1.00  0.00    -0.262 N 
ATOM     22  C   UNL A   1      32.669  28.544  24.315  1.00  0.00     0.108 A 
ATOM     23  N   UNL A   1      31.406  29.189  23.272  1.00  0.00    -0.173 NA
ATOM     24  H   UNL A   1      30.373  27.934  21.259  1.00  0.00     0.192 HD
BRANCH  22  25
ATOM     25  C   UNL A   1      33.105  29.109  25.609  1.00  0.00     0.055 A 
ATOM     26  C   UNL A   1      34.243  28.702  26.260  1.00  0.00     0.022 A 
ATOM     27  S   UNL A   1      32.317  30.400  26.379  1.00  0.00    -0.142 S 
ATOM     28  C   UNL A   1      34.509  29.527  27.392  1.00  0.00     0.012 A 
ATOM     29  C   UNL A   1      33.502  30.442  27.614  1.00  0.00     0.065 A 
ENDBRANCH  22  25
ENDBRANCH   8  13
ENDBRANCH   4   7
ENDBRANCH   2   3
ENDBRANCH   1   2
BRANCH   1  30
ATOM     30  C   UNL A   1      39.386  24.598  27.354  1.00  0.00     0.118 C 
BRANCH  30  31
ATOM     31  N   UNL A   1      40.458  25.264  26.634  1.00  0.00    -0.352 N 
ATOM     32  C   UNL A   1      40.620  26.636  26.566  1.00  0.00     0.251 C 
ATOM     33  H   UNL A   1      41.114  24.700  26.163  1.00  0.00     0.163 HD
ATOM     34  O   UNL A   1      41.175  27.183  25.626  1.00  0.00    -0.269 OA
BRANCH  32  35
ATOM     35  C   UNL A   1      40.196  27.369  27.773  1.00  0.00     0.039 A 
ATOM     36  C   UNL A   1      40.143  26.817  29.045  1.00  0.00     0.014 A 
ATOM     37  C   UNL A   1      40.027  28.737  27.580  1.00  0.00     0.014 A 
ATOM     38  C   UNL A   1      39.853  27.687  30.107  1.00  0.00     0.010 A 
ATOM     39  C   UNL A   1      40.209  29.541  28.668  1.00  0.00     0.010 A 
ATOM     40  C   UNL A   1      39.841  29.092  29.906  1.00  0.00    -0.014 A 
BRANCH  40  41
ATOM     41  C   UNL A   1      39.878  30.111  30.972  1.00  0.00     0.031 A 
ATOM     42  C   UNL A   1      38.507  30.657  31.131  1.00  0.00     0.074 A 
ATOM     43  C   UNL A   1      40.952  30.480  31.743  1.00  0.00     0.049 A 
ATOM     44  N   UNL A   1      38.065  31.629  30.411  1.00  0.00    -0.248 NA
ATOM     45  C   UNL A   1      37.422  29.897  31.779  1.00  0.00     0.031 C 
ATOM     46  C   UNL A   1      42.330  29.965  31.792  1.00  0.00     0.029 A 
ATOM     47  N   UNL A   1      41.036  31.516  32.660  1.00  0.00    -0.354 N 
ATOM     48  C   UNL A   1      36.766  31.851  30.812  1.00  0.00     0.074 A 
ATOM     49  C   UNL A   1      36.350  30.630  31.445  1.00  0.00     0.031 C 
ATOM     50  C   UNL A   1      43.034  30.541  32.810  1.00  0.00     0.029 A 
ATOM     51  C   UNL A   1      42.226  31.578  33.448  1.00  0.00     0.049 A 
ATOM     52  H   UNL A   1      40.312  32.175  32.765  1.00  0.00     0.167 HD
ATOM     53  C   UNL A   1      36.333  33.139  30.852  1.00  0.00     0.034 A 
ATOM     54  C   UNL A   1      42.638  32.572  34.331  1.00  0.00     0.034 A 
ATOM     55  C   UNL A   1      37.248  33.986  30.099  1.00  0.00     0.049 A 
ATOM     56  C   UNL A   1      41.882  33.789  33.923  1.00  0.00     0.074 A 
ATOM     57  C   UNL A   1      37.676  34.012  28.783  1.00  0.00     0.029 A 
ATOM     58  N   UNL A   1      38.237  34.612  30.829  1.00  0.00    -0.354 N 
ATOM     59  N   UNL A   1      42.127  34.397  32.796  1.00  0.00    -0.248 NA
ATOM     60  C   UNL A   1      40.519  33.905  34.428  1.00  0.00     0.031 C 
ATOM     61  C   UNL A   1      39.090  34.203  28.858  1.00  0.00     0.029 A 
ATOM     62  C   UNL A   1      39.443  34.458  30.184  1.00  0.00     0.049 A 
ATOM     63  H   UNL A   1      38.102  35.093  31.678  1.00  0.00     0.167 HD
ATOM     64  C   UNL A   1      40.883  34.558  32.213  1.00  0.00     0.074 A 
ATOM     65  C   UNL A   1      39.920  34.241  33.280  1.00  0.00     0.031 C 
ATOM     66  C   UNL A   1      40.728  34.574  30.854  1.00  0.00     0.034 A 
BRANCH  53  67
ATOM     67  C   UNL A   1      35.442  33.699  31.930  1.00  0.00     0.023 A 
ATOM     68  C   UNL A   1      34.401  34.544  31.506  1.00  0.00     0.031 A 
ATOM     69  C   UNL A   1      35.732  33.717  33.311  1.00  0.00     0.131 A 
ATOM     70  C   UNL A   1      33.774  35.421  32.404  1.00  0.00     0.055 A 
ATOM     71  C   UNL A   1      35.062  34.547  34.214  1.00  0.00     0.041 A 
ATOM     72  F   UNL A   1      36.736  33.015  33.851  1.00  0.00    -0.206 F 
ATOM     73  C   UNL A   1      34.092  35.425  33.759  1.00  0.00     0.022 A 
BRANCH  70  74
ATOM     74  S   UNL A   1      32.656  36.674  31.729  1.00  0.00     0.124 S 
ATOM     75  O   UNL A   1      32.708  36.374  30.303  1.00  0.00    -0.237 OA
ATOM     76  O   UNL A   1      31.404  36.355  32.408  1.00  0.00    -0.237 OA
ATOM     77  O   UNL A   1      33.279  37.932  32.129  1.00  0.00    -0.744 OA
ENDBRANCH  70  74
ENDBRANCH  53  67
BRANCH  54  78
ATOM     78  C   UNL A   1      43.132  32.453  35.781  1.00  0.00     0.023 A 
ATOM     79  C   UNL A   1      44.288  33.107  36.346  1.00  0.00     0.031 A 
ATOM     80  C   UNL A   1      42.265  31.860  36.717  1.00  0.00     0.131 A 
ATOM     81  C   UNL A   1      44.494  33.151  37.766  1.00  0.00     0.055 A 
ATOM     82  C   UNL A   1      42.455  31.945  38.103  1.00  0.00     0.041 A 
ATOM     83  F   UNL A   1      41.148  31.236  36.316  1.00  0.00    -0.206 F 
ATOM     84  C   UNL A   1      43.555  32.599  38.633  1.00  0.00     0.022 A 
BRANCH  81  85
ATOM     85  S   UNL A   1      45.957  33.950  38.575  1.00  0.00     0.124 S 
ATOM     86  O   UNL A   1      45.374  34.545  39.771  1.00  0.00    -0.237 OA
ATOM     87  O   UNL A   1      46.872  32.834  38.782  1.00  0.00    -0.237 OA
ATOM     88  O   UNL A   1      46.413  34.925  37.580  1.00  0.00    -0.744 OA
ENDBRANCH  81  85
ENDBRANCH  54  78
BRANCH  66  89
ATOM     89  C   UNL A   1      41.977  34.648  29.985  1.00  0.00     0.023 A 
ATOM     90  C   UNL A   1      42.740  35.807  29.684  1.00  0.00     0.031 A 
ATOM     91  C   UNL A   1      42.454  33.419  29.500  1.00  0.00     0.131 A 
ATOM     92  C   UNL A   1      43.914  35.696  28.900  1.00  0.00     0.055 A 
ATOM     93  C   UNL A   1      43.630  33.311  28.761  1.00  0.00     0.041 A 
ATOM     94  F   UNL A   1      41.786  32.284  29.757  1.00  0.00    -0.206 F 
ATOM     95  C   UNL A   1      44.360  34.449  28.451  1.00  0.00     0.022 A 
BRANCH  92  96
ATOM     96  S   UNL A   1      44.858  37.175  28.382  1.00  0.00     0.124 S 
ATOM     97  O   UNL A   1      43.888  38.255  28.512  1.00  0.00    -0.237 OA
ATOM     98  O   UNL A   1      45.967  37.198  29.331  1.00  0.00    -0.237 OA
ATOM     99  O   UNL A   1      45.247  36.868  27.003  1.00  0.00    -0.744 OA
ENDBRANCH  92  96
ENDBRANCH  66  89
ENDBRANCH  40  41
ENDBRANCH  32  35
ENDBRANCH  30  31
ENDBRANCH   1  30
TORSDOF 15
ENDMDL
