MODEL 1
REMARK VINA RESULT:     -12.4      0.000      0.000
REMARK SMILES O=C(CCCOc1ccc(Cl)cc1Cl)Nc1cccc(C(=O)NCCCNC(=O)c2ccc(-c3c4nc(c(-c5cc(S(=O)(=O)[O-])ccc5F)c5ccc([nH]5)c(-c5cc(S(=O)(=O)[O-])ccc5F)c5nc(c(-c6cc(S(=O)(=O)[O-])ccc6F)c6ccc3[nH]6)C=C5)C=C4)cc2)c1
REMARK SMILES IDX 21 1 22 2 23 3 20 5 16 6 17 7 93 8 18 9 19 10 15 11 1 12
REMARK SMILES IDX 2 13 3 15 4 16 5 17 6 18 7 19 8 20 13 21 9 22 12 23 14 24
REMARK SMILES IDX 10 25 11 26 24 27 25 28 26 29 27 30 28 31 29 33 30 34 31 35
REMARK SMILES IDX 92 36 32 37 91 38 33 39 34 40 35 41 85 42 36 43 90 44 84 45
REMARK SMILES IDX 86 46 37 47 89 48 83 49 82 50 38 52 70 53 50 54 69 55 51 56
REMARK SMILES IDX 54 57 68 58 87 59 52 60 53 61 67 63 88 64 55 65 39 66 40 67
REMARK SMILES IDX 48 68 41 69 47 70 49 71 46 72 42 73 43 74 44 75 45 76 71 77
REMARK SMILES IDX 72 78 80 79 73 80 79 81 81 82 78 83 74 84 75 85 76 86 77 87
REMARK SMILES IDX 56 88 57 89 65 90 58 91 64 92 66 93 63 94 59 95 60 96 61 97
REMARK SMILES IDX 62 98
REMARK H PARENT 23 4 15 14 27 32 86 51 54 62
REMARK Flexibility Score: inf
ROOT
ATOM      1  C   UNL A   1      32.373  29.290  24.406  1.00  0.00     0.251 C 
ATOM      2  O   UNL A   1      33.245  29.213  23.540  1.00  0.00    -0.269 OA
ATOM      3  N   UNL A   1      32.573  30.150  25.463  1.00  0.00    -0.352 N 
ATOM      4  H   UNL A   1      33.422  30.646  25.414  1.00  0.00     0.163 HD
ENDROOT
BRANCH   1   5
ATOM      5  C   UNL A   1      31.189  28.395  24.312  1.00  0.00     0.041 A 
ATOM      6  C   UNL A   1      30.150  26.238  24.652  1.00  0.00     0.041 A 
ATOM      7  C   UNL A   1      29.163  26.572  23.722  1.00  0.00     0.026 A 
ATOM      8  C   UNL A   1      31.089  27.200  25.024  1.00  0.00     0.040 A 
ATOM      9  C   UNL A   1      29.131  27.849  23.158  1.00  0.00     0.003 A 
ATOM     10  C   UNL A   1      30.163  28.748  23.427  1.00  0.00     0.014 A 
BRANCH   6  11
ATOM     11  N   UNL A   1      30.261  24.889  25.054  1.00  0.00    -0.326 N 
ATOM     12  O   UNL A   1      29.018  24.868  26.997  1.00  0.00    -0.275 OA
ATOM     13  C   UNL A   1      29.884  24.376  26.276  1.00  0.00     0.224 C 
ATOM     14  H   UNL A   1      30.643  24.258  24.403  1.00  0.00     0.169 HD
BRANCH  13  15
ATOM     15  C   UNL A   1      30.718  23.210  26.787  1.00  0.00     0.104 C 
BRANCH  15  16
ATOM     16  C   UNL A   1      32.227  23.392  26.941  1.00  0.00     0.051 C 
BRANCH  16  17
ATOM     17  C   UNL A   1      33.128  22.194  26.605  1.00  0.00     0.230 C 
BRANCH  17  18
ATOM     18  O   UNL A   1      33.317  21.989  25.199  1.00  0.00    -0.492 OA
BRANCH  18  19
ATOM     19  C   UNL A   1      33.521  20.687  24.835  1.00  0.00     0.137 A 
ATOM     20  C   UNL A   1      32.412  20.036  24.289  1.00  0.00     0.049 A 
ATOM     21  C   UNL A   1      34.753  20.024  24.901  1.00  0.00     0.084 A 
ATOM     22  C   UNL A   1      32.499  18.697  23.907  1.00  0.00     0.024 A 
ATOM     23  C   UNL A   1      34.848  18.689  24.492  1.00  0.00     0.045 A 
ATOM     24  Cl  UNL A   1      36.191  20.808  25.449  1.00  0.00    -0.080 Cl
ATOM     25  C   UNL A   1      33.717  18.029  24.014  1.00  0.00     0.042 A 
ATOM     26  Cl  UNL A   1      33.820  16.377  23.548  1.00  0.00    -0.084 Cl
ENDBRANCH  18  19
ENDBRANCH  17  18
ENDBRANCH  16  17
ENDBRANCH  15  16
ENDBRANCH  13  15
ENDBRANCH   6  11
ENDBRANCH   1   5
BRANCH   3  27
ATOM     27  C   UNL A   1      31.776  30.471  26.645  1.00  0.00     0.118 C 
BRANCH  27  28
ATOM     28  C   UNL A   1      31.612  31.959  26.904  1.00  0.00     0.042 C 
BRANCH  28  29
ATOM     29  C   UNL A   1      32.893  32.693  27.266  1.00  0.00     0.118 C 
BRANCH  29  30
ATOM     30  N   UNL A   1      32.656  34.071  27.677  1.00  0.00    -0.352 N 
ATOM     31  C   UNL A   1      33.202  34.815  28.698  1.00  0.00     0.251 C 
ATOM     32  H   UNL A   1      31.993  34.552  27.132  1.00  0.00     0.163 HD
ATOM     33  O   UNL A   1      32.690  35.893  28.986  1.00  0.00    -0.269 OA
BRANCH  31  34
ATOM     34  C   UNL A   1      34.373  34.324  29.462  1.00  0.00     0.039 A 
ATOM     35  C   UNL A   1      34.160  33.559  30.614  1.00  0.00     0.014 A 
ATOM     36  C   UNL A   1      35.677  34.635  29.075  1.00  0.00     0.014 A 
ATOM     37  C   UNL A   1      35.251  33.047  31.324  1.00  0.00     0.010 A 
ATOM     38  C   UNL A   1      36.758  34.039  29.717  1.00  0.00     0.010 A 
ATOM     39  C   UNL A   1      36.560  33.243  30.855  1.00  0.00    -0.014 A 
BRANCH  39  40
ATOM     40  C   UNL A   1      37.735  32.641  31.540  1.00  0.00     0.031 A 
ATOM     41  C   UNL A   1      38.475  31.495  30.899  1.00  0.00     0.074 A 
ATOM     42  C   UNL A   1      38.087  33.074  32.767  1.00  0.00     0.049 A 
ATOM     43  N   UNL A   1      39.452  30.768  31.379  1.00  0.00    -0.248 NA
ATOM     44  C   UNL A   1      38.034  31.092  29.554  1.00  0.00     0.031 C 
ATOM     45  C   UNL A   1      37.417  34.146  33.508  1.00  0.00     0.029 A 
ATOM     46  N   UNL A   1      39.085  32.662  33.616  1.00  0.00    -0.354 N 
ATOM     47  C   UNL A   1      39.726  29.811  30.407  1.00  0.00     0.074 A 
ATOM     48  C   UNL A   1      38.771  30.013  29.339  1.00  0.00     0.031 C 
ATOM     49  C   UNL A   1      38.039  34.324  34.685  1.00  0.00     0.029 A 
ATOM     50  C   UNL A   1      39.112  33.343  34.812  1.00  0.00     0.049 A 
ATOM     51  H   UNL A   1      39.721  31.946  33.390  1.00  0.00     0.167 HD
ATOM     52  C   UNL A   1      40.698  28.865  30.398  1.00  0.00     0.034 A 
ATOM     53  C   UNL A   1      39.896  33.182  35.897  1.00  0.00     0.034 A 
ATOM     54  C   UNL A   1      41.653  28.691  31.464  1.00  0.00     0.049 A 
ATOM     55  C   UNL A   1      40.958  32.109  35.870  1.00  0.00     0.074 A 
ATOM     56  C   UNL A   1      42.718  27.811  31.530  1.00  0.00     0.029 A 
ATOM     57  N   UNL A   1      41.655  29.406  32.656  1.00  0.00    -0.354 N 
ATOM     58  N   UNL A   1      41.240  31.250  34.917  1.00  0.00    -0.248 NA
ATOM     59  C   UNL A   1      41.812  31.991  37.059  1.00  0.00     0.031 C 
ATOM     60  C   UNL A   1      43.314  27.937  32.789  1.00  0.00     0.029 A 
ATOM     61  C   UNL A   1      42.679  28.959  33.477  1.00  0.00     0.049 A 
ATOM     62  H   UNL A   1      41.021  30.124  32.884  1.00  0.00     0.167 HD
ATOM     63  C   UNL A   1      42.326  30.512  35.382  1.00  0.00     0.074 A 
ATOM     64  C   UNL A   1      42.658  31.041  36.689  1.00  0.00     0.031 C 
ATOM     65  C   UNL A   1      42.993  29.493  34.782  1.00  0.00     0.034 A 
BRANCH  52  66
ATOM     66  C   UNL A   1      40.758  27.931  29.211  1.00  0.00     0.023 A 
ATOM     67  C   UNL A   1      41.691  28.107  28.174  1.00  0.00     0.031 A 
ATOM     68  C   UNL A   1      39.861  26.852  29.111  1.00  0.00     0.131 A 
ATOM     69  C   UNL A   1      41.659  27.264  27.052  1.00  0.00     0.055 A 
ATOM     70  C   UNL A   1      39.890  25.966  28.031  1.00  0.00     0.041 A 
ATOM     71  F   UNL A   1      38.932  26.644  30.057  1.00  0.00    -0.206 F 
ATOM     72  C   UNL A   1      40.785  26.177  26.986  1.00  0.00     0.022 A 
BRANCH  69  73
ATOM     73  S   UNL A   1      42.686  27.692  25.618  1.00  0.00     0.124 S 
ATOM     74  O   UNL A   1      43.980  27.943  26.247  1.00  0.00    -0.237 OA
ATOM     75  O   UNL A   1      42.597  26.492  24.796  1.00  0.00    -0.237 OA
ATOM     76  O   UNL A   1      42.029  28.876  25.068  1.00  0.00    -0.744 OA
ENDBRANCH  69  73
ENDBRANCH  52  66
BRANCH  53  77
ATOM     77  C   UNL A   1      39.705  34.034  37.107  1.00  0.00     0.023 A 
ATOM     78  C   UNL A   1      39.095  33.524  38.265  1.00  0.00     0.031 A 
ATOM     79  C   UNL A   1      40.084  35.388  37.108  1.00  0.00     0.131 A 
ATOM     80  C   UNL A   1      38.830  34.374  39.350  1.00  0.00     0.055 A 
ATOM     81  C   UNL A   1      39.875  36.214  38.214  1.00  0.00     0.041 A 
ATOM     82  F   UNL A   1      40.673  35.930  36.031  1.00  0.00    -0.206 F 
ATOM     83  C   UNL A   1      39.229  35.711  39.340  1.00  0.00     0.022 A 
BRANCH  80  84
ATOM     84  S   UNL A   1      37.856  33.730  40.740  1.00  0.00     0.124 S 
ATOM     85  O   UNL A   1      36.749  33.078  40.050  1.00  0.00    -0.237 OA
ATOM     86  O   UNL A   1      38.815  32.846  41.395  1.00  0.00    -0.237 OA
ATOM     87  O   UNL A   1      37.504  34.932  41.493  1.00  0.00    -0.744 OA
ENDBRANCH  80  84
ENDBRANCH  53  77
BRANCH  65  88
ATOM     88  C   UNL A   1      44.180  28.918  35.517  1.00  0.00     0.023 A 
ATOM     89  C   UNL A   1      44.038  27.908  36.484  1.00  0.00     0.031 A 
ATOM     90  C   UNL A   1      45.475  29.396  35.246  1.00  0.00     0.131 A 
ATOM     91  C   UNL A   1      45.163  27.450  37.186  1.00  0.00     0.055 A 
ATOM     92  C   UNL A   1      46.599  28.887  35.898  1.00  0.00     0.041 A 
ATOM     93  F   UNL A   1      45.670  30.364  34.335  1.00  0.00    -0.206 F 
ATOM     94  C   UNL A   1      46.445  27.918  36.884  1.00  0.00     0.022 A 
BRANCH  91  95
ATOM     95  S   UNL A   1      44.919  26.301  38.567  1.00  0.00     0.124 S 
ATOM     96  O   UNL A   1      43.485  26.418  38.809  1.00  0.00    -0.237 OA
ATOM     97  O   UNL A   1      45.370  25.033  38.005  1.00  0.00    -0.237 OA
ATOM     98  O   UNL A   1      45.772  26.847  39.622  1.00  0.00    -0.744 OA
ENDBRANCH  91  95
ENDBRANCH  65  88
ENDBRANCH  39  40
ENDBRANCH  31  34
ENDBRANCH  29  30
ENDBRANCH  28  29
ENDBRANCH  27  28
ENDBRANCH   3  27
TORSDOF 19
ENDMDL
MODEL 2
REMARK VINA RESULT:     -12.1      5.944     11.644
REMARK SMILES O=C(CCCOc1ccc(Cl)cc1Cl)Nc1cccc(C(=O)NCCCNC(=O)c2ccc(-c3c4nc(c(-c5cc(S(=O)(=O)[O-])ccc5F)c5ccc([nH]5)c(-c5cc(S(=O)(=O)[O-])ccc5F)c5nc(c(-c6cc(S(=O)(=O)[O-])ccc6F)c6ccc3[nH]6)C=C5)C=C4)cc2)c1
REMARK SMILES IDX 21 1 22 2 23 3 20 5 16 6 17 7 93 8 18 9 19 10 15 11 1 12
REMARK SMILES IDX 2 13 3 15 4 16 5 17 6 18 7 19 8 20 13 21 9 22 12 23 14 24
REMARK SMILES IDX 10 25 11 26 24 27 25 28 26 29 27 30 28 31 29 33 30 34 31 35
REMARK SMILES IDX 92 36 32 37 91 38 33 39 34 40 35 41 85 42 36 43 90 44 84 45
REMARK SMILES IDX 86 46 37 47 89 48 83 49 82 50 38 52 70 53 50 54 69 55 51 56
REMARK SMILES IDX 54 57 68 58 87 59 52 60 53 61 67 63 88 64 55 65 39 66 40 67
REMARK SMILES IDX 48 68 41 69 47 70 49 71 46 72 42 73 43 74 44 75 45 76 71 77
REMARK SMILES IDX 72 78 80 79 73 80 79 81 81 82 78 83 74 84 75 85 76 86 77 87
REMARK SMILES IDX 56 88 57 89 65 90 58 91 64 92 66 93 63 94 59 95 60 96 61 97
REMARK SMILES IDX 62 98
REMARK H PARENT 23 4 15 14 27 32 86 51 54 62
REMARK Flexibility Score: inf
ROOT
ATOM      1  C   UNL A   1      35.003  21.424  26.139  1.00  0.00     0.251 C 
ATOM      2  O   UNL A   1      34.490  21.510  27.255  1.00  0.00    -0.269 OA
ATOM      3  N   UNL A   1      36.370  21.556  26.035  1.00  0.00    -0.352 N 
ATOM      4  H   UNL A   1      36.820  21.701  26.898  1.00  0.00     0.163 HD
ENDROOT
BRANCH   1   5
ATOM      5  C   UNL A   1      34.119  21.264  24.954  1.00  0.00     0.041 A 
ATOM      6  C   UNL A   1      32.594  22.197  23.326  1.00  0.00     0.041 A 
ATOM      7  C   UNL A   1      32.109  20.915  23.053  1.00  0.00     0.026 A 
ATOM      8  C   UNL A   1      33.677  22.345  24.192  1.00  0.00     0.040 A 
ATOM      9  C   UNL A   1      32.692  19.800  23.657  1.00  0.00     0.003 A 
ATOM     10  C   UNL A   1      33.673  19.976  24.632  1.00  0.00     0.014 A 
BRANCH   6  11
ATOM     11  N   UNL A   1      31.862  23.305  22.846  1.00  0.00    -0.326 N 
ATOM     12  O   UNL A   1      33.533  24.640  21.982  1.00  0.00    -0.275 OA
ATOM     13  C   UNL A   1      32.394  24.504  22.425  1.00  0.00     0.224 C 
ATOM     14  H   UNL A   1      30.883  23.213  22.809  1.00  0.00     0.169 HD
BRANCH  13  15
ATOM     15  C   UNL A   1      31.532  25.732  22.678  1.00  0.00     0.104 C 
BRANCH  15  16
ATOM     16  C   UNL A   1      30.282  25.593  23.547  1.00  0.00     0.051 C 
BRANCH  16  17
ATOM     17  C   UNL A   1      30.189  26.465  24.808  1.00  0.00     0.230 C 
BRANCH  17  18
ATOM     18  O   UNL A   1      31.139  26.117  25.823  1.00  0.00    -0.492 OA
BRANCH  18  19
ATOM     19  C   UNL A   1      31.987  27.128  26.181  1.00  0.00     0.137 A 
ATOM     20  C   UNL A   1      31.393  28.202  26.850  1.00  0.00     0.049 A 
ATOM     21  C   UNL A   1      33.375  27.107  25.995  1.00  0.00     0.084 A 
ATOM     22  C   UNL A   1      32.160  29.299  27.238  1.00  0.00     0.024 A 
ATOM     23  C   UNL A   1      34.149  28.197  26.409  1.00  0.00     0.045 A 
ATOM     24  Cl  UNL A   1      34.188  25.758  25.288  1.00  0.00    -0.080 Cl
ATOM     25  C   UNL A   1      33.535  29.294  27.012  1.00  0.00     0.042 A 
ATOM     26  Cl  UNL A   1      34.477  30.651  27.487  1.00  0.00    -0.084 Cl
ENDBRANCH  18  19
ENDBRANCH  17  18
ENDBRANCH  16  17
ENDBRANCH  15  16
ENDBRANCH  13  15
ENDBRANCH   6  11
ENDBRANCH   1   5
BRANCH   3  27
ATOM     27  C   UNL A   1      37.285  21.527  24.897  1.00  0.00     0.118 C 
BRANCH  27  28
ATOM     28  C   UNL A   1      38.306  20.402  24.943  1.00  0.00     0.042 C 
BRANCH  28  29
ATOM     29  C   UNL A   1      39.227  20.421  26.151  1.00  0.00     0.118 C 
BRANCH  29  30
ATOM     30  N   UNL A   1      40.318  19.459  26.044  1.00  0.00    -0.352 N 
ATOM     31  C   UNL A   1      41.681  19.640  26.011  1.00  0.00     0.251 C 
ATOM     32  H   UNL A   1      40.029  18.520  25.986  1.00  0.00     0.163 HD
ATOM     33  O   UNL A   1      42.398  18.693  25.700  1.00  0.00    -0.269 OA
BRANCH  31  34
ATOM     34  C   UNL A   1      42.287  20.957  26.318  1.00  0.00     0.039 A 
ATOM     35  C   UNL A   1      42.552  21.844  25.270  1.00  0.00     0.014 A 
ATOM     36  C   UNL A   1      42.626  21.315  27.624  1.00  0.00     0.014 A 
ATOM     37  C   UNL A   1      43.079  23.110  25.542  1.00  0.00     0.010 A 
ATOM     38  C   UNL A   1      43.051  22.609  27.906  1.00  0.00     0.010 A 
ATOM     39  C   UNL A   1      43.290  23.522  26.868  1.00  0.00    -0.014 A 
BRANCH  39  40
ATOM     40  C   UNL A   1      43.771  24.892  27.195  1.00  0.00     0.031 A 
ATOM     41  C   UNL A   1      42.814  25.913  27.752  1.00  0.00     0.074 A 
ATOM     42  C   UNL A   1      45.046  25.234  26.921  1.00  0.00     0.049 A 
ATOM     43  N   UNL A   1      43.010  27.183  28.001  1.00  0.00    -0.248 NA
ATOM     44  C   UNL A   1      41.445  25.453  28.033  1.00  0.00     0.031 C 
ATOM     45  C   UNL A   1      46.054  24.344  26.339  1.00  0.00     0.029 A 
ATOM     46  N   UNL A   1      45.713  26.424  27.082  1.00  0.00    -0.354 N 
ATOM     47  C   UNL A   1      41.787  27.676  28.445  1.00  0.00     0.074 A 
ATOM     48  C   UNL A   1      40.843  26.583  28.372  1.00  0.00     0.031 C 
ATOM     49  C   UNL A   1      47.213  25.010  26.217  1.00  0.00     0.029 A 
ATOM     50  C   UNL A   1      47.021  26.388  26.655  1.00  0.00     0.049 A 
ATOM     51  H   UNL A   1      45.294  27.228  27.465  1.00  0.00     0.167 HD
ATOM     52  C   UNL A   1      41.486  28.921  28.892  1.00  0.00     0.034 A 
ATOM     53  C   UNL A   1      47.954  27.361  26.601  1.00  0.00     0.034 A 
ATOM     54  C   UNL A   1      42.447  29.993  28.976  1.00  0.00     0.049 A 
ATOM     55  C   UNL A   1      47.589  28.742  27.086  1.00  0.00     0.074 A 
ATOM     56  C   UNL A   1      42.268  31.272  29.473  1.00  0.00     0.029 A 
ATOM     57  N   UNL A   1      43.766  29.917  28.543  1.00  0.00    -0.354 N 
ATOM     58  N   UNL A   1      46.442  29.177  27.558  1.00  0.00    -0.248 NA
ATOM     59  C   UNL A   1      48.646  29.761  27.042  1.00  0.00     0.031 C 
ATOM     60  C   UNL A   1      43.450  31.991  29.270  1.00  0.00     0.029 A 
ATOM     61  C   UNL A   1      44.398  31.136  28.728  1.00  0.00     0.049 A 
ATOM     62  H   UNL A   1      44.188  29.114  28.160  1.00  0.00     0.167 HD
ATOM     63  C   UNL A   1      46.652  30.511  27.895  1.00  0.00     0.074 A 
ATOM     64  C   UNL A   1      48.037  30.803  27.592  1.00  0.00     0.031 C 
ATOM     65  C   UNL A   1      45.781  31.414  28.414  1.00  0.00     0.034 A 
BRANCH  52  66
ATOM     66  C   UNL A   1      40.056  29.194  29.300  1.00  0.00     0.023 A 
ATOM     67  C   UNL A   1      39.668  29.261  30.649  1.00  0.00     0.031 A 
ATOM     68  C   UNL A   1      39.064  29.383  28.321  1.00  0.00     0.131 A 
ATOM     69  C   UNL A   1      38.317  29.437  30.982  1.00  0.00     0.055 A 
ATOM     70  C   UNL A   1      37.734  29.643  28.660  1.00  0.00     0.041 A 
ATOM     71  F   UNL A   1      39.367  29.309  27.016  1.00  0.00    -0.206 F 
ATOM     72  C   UNL A   1      37.351  29.658  29.998  1.00  0.00     0.022 A 
BRANCH  69  73
ATOM     73  S   UNL A   1      37.819  29.239  32.715  1.00  0.00     0.124 S 
ATOM     74  O   UNL A   1      37.703  27.787  32.824  1.00  0.00    -0.237 OA
ATOM     75  O   UNL A   1      38.930  29.847  33.435  1.00  0.00    -0.237 OA
ATOM     76  O   UNL A   1      36.552  29.965  32.793  1.00  0.00    -0.744 OA
ENDBRANCH  69  73
ENDBRANCH  52  66
BRANCH  53  77
ATOM     77  C   UNL A   1      49.314  27.080  26.054  1.00  0.00     0.023 A 
ATOM     78  C   UNL A   1      49.671  27.481  24.756  1.00  0.00     0.031 A 
ATOM     79  C   UNL A   1      50.263  26.361  26.802  1.00  0.00     0.131 A 
ATOM     80  C   UNL A   1      50.918  27.112  24.226  1.00  0.00     0.055 A 
ATOM     81  C   UNL A   1      51.526  26.051  26.293  1.00  0.00     0.041 A 
ATOM     82  F   UNL A   1      49.978  25.954  28.050  1.00  0.00    -0.206 F 
ATOM     83  C   UNL A   1      51.853  26.413  24.991  1.00  0.00     0.022 A 
BRANCH  80  84
ATOM     84  S   UNL A   1      51.259  27.467  22.480  1.00  0.00     0.124 S 
ATOM     85  O   UNL A   1      52.543  26.803  22.288  1.00  0.00    -0.237 OA
ATOM     86  O   UNL A   1      50.113  26.853  21.818  1.00  0.00    -0.237 OA
ATOM     87  O   UNL A   1      51.296  28.927  22.431  1.00  0.00    -0.744 OA
ENDBRANCH  80  84
ENDBRANCH  53  77
BRANCH  65  88
ATOM     88  C   UNL A   1      46.319  32.788  28.730  1.00  0.00     0.023 A 
ATOM     89  C   UNL A   1      46.863  33.102  29.988  1.00  0.00     0.031 A 
ATOM     90  C   UNL A   1      46.281  33.802  27.755  1.00  0.00     0.131 A 
ATOM     91  C   UNL A   1      47.293  34.410  30.256  1.00  0.00     0.055 A 
ATOM     92  C   UNL A   1      46.775  35.083  28.005  1.00  0.00     0.041 A 
ATOM     93  F   UNL A   1      45.769  33.560  26.538  1.00  0.00    -0.206 F 
ATOM     94  C   UNL A   1      47.272  35.397  29.266  1.00  0.00     0.022 A 
BRANCH  91  95
ATOM     95  S   UNL A   1      47.793  34.833  31.947  1.00  0.00     0.124 S 
ATOM     96  O   UNL A   1      47.815  36.292  31.900  1.00  0.00    -0.237 OA
ATOM     97  O   UNL A   1      46.729  34.237  32.747  1.00  0.00    -0.237 OA
ATOM     98  O   UNL A   1      49.102  34.198  32.087  1.00  0.00    -0.744 OA
ENDBRANCH  91  95
ENDBRANCH  65  88
ENDBRANCH  39  40
ENDBRANCH  31  34
ENDBRANCH  29  30
ENDBRANCH  28  29
ENDBRANCH  27  28
ENDBRANCH   3  27
TORSDOF 19
ENDMDL
MODEL 3
REMARK VINA RESULT:     -12.0      1.855      2.443
REMARK SMILES O=C(CCCOc1ccc(Cl)cc1Cl)Nc1cccc(C(=O)NCCCNC(=O)c2ccc(-c3c4nc(c(-c5cc(S(=O)(=O)[O-])ccc5F)c5ccc([nH]5)c(-c5cc(S(=O)(=O)[O-])ccc5F)c5nc(c(-c6cc(S(=O)(=O)[O-])ccc6F)c6ccc3[nH]6)C=C5)C=C4)cc2)c1
REMARK SMILES IDX 21 1 22 2 23 3 20 5 16 6 17 7 93 8 18 9 19 10 15 11 1 12
REMARK SMILES IDX 2 13 3 15 4 16 5 17 6 18 7 19 8 20 13 21 9 22 12 23 14 24
REMARK SMILES IDX 10 25 11 26 24 27 25 28 26 29 27 30 28 31 29 33 30 34 31 35
REMARK SMILES IDX 92 36 32 37 91 38 33 39 34 40 35 41 85 42 36 43 90 44 84 45
REMARK SMILES IDX 86 46 37 47 89 48 83 49 82 50 38 52 70 53 50 54 69 55 51 56
REMARK SMILES IDX 54 57 68 58 87 59 52 60 53 61 67 63 88 64 55 65 39 66 40 67
REMARK SMILES IDX 48 68 41 69 47 70 49 71 46 72 42 73 43 74 44 75 45 76 71 77
REMARK SMILES IDX 72 78 80 79 73 80 79 81 81 82 78 83 74 84 75 85 76 86 77 87
REMARK SMILES IDX 56 88 57 89 65 90 58 91 64 92 66 93 63 94 59 95 60 96 61 97
REMARK SMILES IDX 62 98
REMARK H PARENT 23 4 15 14 27 32 86 51 54 62
REMARK Flexibility Score: inf
ROOT
ATOM      1  C   UNL A   1      32.695  29.102  25.429  1.00  0.00     0.251 C 
ATOM      2  O   UNL A   1      33.857  28.697  25.462  1.00  0.00    -0.269 OA
ATOM      3  N   UNL A   1      32.402  30.302  26.039  1.00  0.00    -0.352 N 
ATOM      4  H   UNL A   1      33.184  30.739  26.447  1.00  0.00     0.163 HD
ENDROOT
BRANCH   1   5
ATOM      5  C   UNL A   1      31.654  28.241  24.808  1.00  0.00     0.041 A 
ATOM      6  C   UNL A   1      30.567  26.095  24.569  1.00  0.00     0.041 A 
ATOM      7  C   UNL A   1      30.046  26.500  23.337  1.00  0.00     0.026 A 
ATOM      8  C   UNL A   1      31.271  27.013  25.347  1.00  0.00     0.040 A 
ATOM      9  C   UNL A   1      30.248  27.805  22.884  1.00  0.00     0.003 A 
ATOM     10  C   UNL A   1      31.080  28.664  23.603  1.00  0.00     0.014 A 
BRANCH   6  11
ATOM     11  N   UNL A   1      30.502  24.724  24.903  1.00  0.00    -0.326 N 
ATOM     12  O   UNL A   1      29.494  24.786  26.976  1.00  0.00    -0.275 OA
ATOM     13  C   UNL A   1      30.185  24.207  26.140  1.00  0.00     0.224 C 
ATOM     14  H   UNL A   1      30.704  24.079  24.187  1.00  0.00     0.169 HD
BRANCH  13  15
ATOM     15  C   UNL A   1      30.872  22.899  26.503  1.00  0.00     0.104 C 
BRANCH  15  16
ATOM     16  C   UNL A   1      32.190  22.945  27.274  1.00  0.00     0.051 C 
BRANCH  16  17
ATOM     17  C   UNL A   1      33.402  22.227  26.660  1.00  0.00     0.230 C 
BRANCH  17  18
ATOM     18  O   UNL A   1      33.252  21.928  25.268  1.00  0.00    -0.492 OA
BRANCH  18  19
ATOM     19  C   UNL A   1      33.343  23.011  24.438  1.00  0.00     0.137 A 
ATOM     20  C   UNL A   1      34.054  24.100  24.949  1.00  0.00     0.049 A 
ATOM     21  C   UNL A   1      32.853  23.055  23.127  1.00  0.00     0.084 A 
ATOM     22  C   UNL A   1      34.186  25.268  24.199  1.00  0.00     0.024 A 
ATOM     23  C   UNL A   1      33.010  24.217  22.364  1.00  0.00     0.045 A 
ATOM     24  Cl  UNL A   1      32.075  21.701  22.390  1.00  0.00    -0.080 Cl
ATOM     25  C   UNL A   1      33.661  25.322  22.911  1.00  0.00     0.042 A 
ATOM     26  Cl  UNL A   1      33.821  26.766  21.991  1.00  0.00    -0.084 Cl
ENDBRANCH  18  19
ENDBRANCH  17  18
ENDBRANCH  16  17
ENDBRANCH  15  16
ENDBRANCH  13  15
ENDBRANCH   6  11
ENDBRANCH   1   5
BRANCH   3  27
ATOM     27  C   UNL A   1      31.160  31.053  26.203  1.00  0.00     0.118 C 
BRANCH  27  28
ATOM     28  C   UNL A   1      31.356  32.528  26.510  1.00  0.00     0.042 C 
BRANCH  28  29
ATOM     29  C   UNL A   1      32.646  32.866  27.239  1.00  0.00     0.118 C 
BRANCH  29  30
ATOM     30  N   UNL A   1      32.660  34.228  27.759  1.00  0.00    -0.352 N 
ATOM     31  C   UNL A   1      33.404  34.803  28.763  1.00  0.00     0.251 C 
ATOM     32  H   UNL A   1      32.029  34.840  27.317  1.00  0.00     0.163 HD
ATOM     33  O   UNL A   1      33.090  35.918  29.170  1.00  0.00    -0.269 OA
BRANCH  31  34
ATOM     34  C   UNL A   1      34.553  34.090  29.370  1.00  0.00     0.039 A 
ATOM     35  C   UNL A   1      35.848  34.404  28.945  1.00  0.00     0.014 A 
ATOM     36  C   UNL A   1      34.366  33.094  30.329  1.00  0.00     0.014 A 
ATOM     37  C   UNL A   1      36.949  33.777  29.538  1.00  0.00     0.010 A 
ATOM     38  C   UNL A   1      35.461  32.548  30.992  1.00  0.00     0.010 A 
ATOM     39  C   UNL A   1      36.767  32.877  30.600  1.00  0.00    -0.014 A 
BRANCH  39  40
ATOM     40  C   UNL A   1      37.921  32.258  31.307  1.00  0.00     0.031 A 
ATOM     41  C   UNL A   1      38.679  31.126  30.662  1.00  0.00     0.074 A 
ATOM     42  C   UNL A   1      38.237  32.664  32.553  1.00  0.00     0.049 A 
ATOM     43  N   UNL A   1      39.641  30.387  31.155  1.00  0.00    -0.248 NA
ATOM     44  C   UNL A   1      38.278  30.753  29.297  1.00  0.00     0.031 C 
ATOM     45  C   UNL A   1      37.546  33.720  33.298  1.00  0.00     0.029 A 
ATOM     46  N   UNL A   1      39.209  32.232  33.421  1.00  0.00    -0.354 N 
ATOM     47  C   UNL A   1      39.943  29.452  30.170  1.00  0.00     0.074 A 
ATOM     48  C   UNL A   1      39.020  29.678  29.079  1.00  0.00     0.031 C 
ATOM     49  C   UNL A   1      38.132  33.870  34.496  1.00  0.00     0.029 A 
ATOM     50  C   UNL A   1      39.200  32.886  34.632  1.00  0.00     0.049 A 
ATOM     51  H   UNL A   1      39.851  31.520  33.199  1.00  0.00     0.167 HD
ATOM     52  C   UNL A   1      40.914  28.505  30.169  1.00  0.00     0.034 A 
ATOM     53  C   UNL A   1      39.952  32.700  35.737  1.00  0.00     0.034 A 
ATOM     54  C   UNL A   1      41.838  28.306  31.259  1.00  0.00     0.049 A 
ATOM     55  C   UNL A   1      41.014  31.627  35.717  1.00  0.00     0.074 A 
ATOM     56  C   UNL A   1      42.900  27.423  31.338  1.00  0.00     0.029 A 
ATOM     57  N   UNL A   1      41.804  28.995  32.467  1.00  0.00    -0.354 N 
ATOM     58  N   UNL A   1      41.324  30.788  34.755  1.00  0.00    -0.248 NA
ATOM     59  C   UNL A   1      41.832  31.482  36.928  1.00  0.00     0.031 C 
ATOM     60  C   UNL A   1      43.457  27.521  32.616  1.00  0.00     0.029 A 
ATOM     61  C   UNL A   1      42.803  28.529  33.307  1.00  0.00     0.049 A 
ATOM     62  H   UNL A   1      41.164  29.708  32.692  1.00  0.00     0.167 HD
ATOM     63  C   UNL A   1      42.395  30.039  35.235  1.00  0.00     0.074 A 
ATOM     64  C   UNL A   1      42.688  30.538  36.562  1.00  0.00     0.031 C 
ATOM     65  C   UNL A   1      43.079  29.032  34.633  1.00  0.00     0.034 A 
BRANCH  52  66
ATOM     66  C   UNL A   1      41.009  27.597  28.964  1.00  0.00     0.023 A 
ATOM     67  C   UNL A   1      42.020  27.748  27.999  1.00  0.00     0.031 A 
ATOM     68  C   UNL A   1      40.067  26.570  28.774  1.00  0.00     0.131 A 
ATOM     69  C   UNL A   1      42.023  26.935  26.855  1.00  0.00     0.055 A 
ATOM     70  C   UNL A   1      40.126  25.709  27.675  1.00  0.00     0.041 A 
ATOM     71  F   UNL A   1      39.065  26.390  29.648  1.00  0.00    -0.206 F 
ATOM     72  C   UNL A   1      41.102  25.898  26.700  1.00  0.00     0.022 A 
BRANCH  69  73
ATOM     73  S   UNL A   1      43.168  27.341  25.507  1.00  0.00     0.124 S 
ATOM     74  O   UNL A   1      44.228  28.046  26.224  1.00  0.00    -0.237 OA
ATOM     75  O   UNL A   1      43.516  26.027  24.981  1.00  0.00    -0.237 OA
ATOM     76  O   UNL A   1      42.366  28.178  24.617  1.00  0.00    -0.744 OA
ENDBRANCH  69  73
ENDBRANCH  52  66
BRANCH  53  77
ATOM     77  C   UNL A   1      39.725  33.525  36.959  1.00  0.00     0.023 A 
ATOM     78  C   UNL A   1      40.492  34.674  37.212  1.00  0.00     0.031 A 
ATOM     79  C   UNL A   1      38.771  33.149  37.921  1.00  0.00     0.131 A 
ATOM     80  C   UNL A   1      40.332  35.372  38.420  1.00  0.00     0.055 A 
ATOM     81  C   UNL A   1      38.572  33.882  39.092  1.00  0.00     0.041 A 
ATOM     82  F   UNL A   1      38.007  32.061  37.732  1.00  0.00    -0.206 F 
ATOM     83  C   UNL A   1      39.367  34.993  39.355  1.00  0.00     0.022 A 
BRANCH  80  84
ATOM     84  S   UNL A   1      41.481  36.724  38.801  1.00  0.00     0.124 S 
ATOM     85  O   UNL A   1      42.153  36.911  37.520  1.00  0.00    -0.237 OA
ATOM     86  O   UNL A   1      40.569  37.787  39.210  1.00  0.00    -0.237 OA
ATOM     87  O   UNL A   1      42.312  36.172  39.869  1.00  0.00    -0.744 OA
ENDBRANCH  80  84
ENDBRANCH  53  77
BRANCH  65  88
ATOM     88  C   UNL A   1      44.243  28.441  35.390  1.00  0.00     0.023 A 
ATOM     89  C   UNL A   1      44.071  27.417  36.337  1.00  0.00     0.031 A 
ATOM     90  C   UNL A   1      45.547  28.915  35.159  1.00  0.00     0.131 A 
ATOM     91  C   UNL A   1      45.174  26.942  37.061  1.00  0.00     0.055 A 
ATOM     92  C   UNL A   1      46.651  28.390  35.832  1.00  0.00     0.041 A 
ATOM     93  F   UNL A   1      45.771  29.894  34.268  1.00  0.00    -0.206 F 
ATOM     94  C   UNL A   1      46.466  27.407  36.799  1.00  0.00     0.022 A 
BRANCH  91  95
ATOM     95  S   UNL A   1      44.889  25.775  38.419  1.00  0.00     0.124 S 
ATOM     96  O   UNL A   1      43.769  26.395  39.121  1.00  0.00    -0.237 OA
ATOM     97  O   UNL A   1      44.590  24.535  37.710  1.00  0.00    -0.237 OA
ATOM     98  O   UNL A   1      46.156  25.780  39.149  1.00  0.00    -0.744 OA
ENDBRANCH  91  95
ENDBRANCH  65  88
ENDBRANCH  39  40
ENDBRANCH  31  34
ENDBRANCH  29  30
ENDBRANCH  28  29
ENDBRANCH  27  28
ENDBRANCH   3  27
TORSDOF 19
ENDMDL
