MODEL 1
REMARK VINA RESULT:     -12.7      0.000      0.000
REMARK SMILES Cc1cc(Br)cc2c1O[C@H](C(F)(F)F)C(C(=O)NCCCNC(=O)c1ccc(-c3c4nc(c(-c5cc(S(=O)(=O)[O-])ccc5F)c5ccc([nH]5)c(-c5cc(S(=O)(=O)[O-])ccc5F)c5nc(c(-c6cc(S(=O)(=O)[O-])ccc6F)c6ccc3[nH]6)C=C5)C=C4)cc1)=C2
REMARK SMILES IDX 21 1 20 2 19 3 18 4 16 5 17 6 15 8 1 9 2 10 3 11 8 12 4 13
REMARK SMILES IDX 7 14 9 15 5 16 6 17 88 18 10 19 11 20 12 21 13 22 14 23
REMARK SMILES IDX 22 24 23 25 24 27 25 28 26 29 87 30 27 31 86 32 28 33 29 34
REMARK SMILES IDX 30 35 80 36 31 37 85 38 79 39 81 40 32 41 84 42 78 43 77 44
REMARK SMILES IDX 33 46 65 47 45 48 64 49 46 50 49 51 63 52 82 53 47 54 48 55
REMARK SMILES IDX 62 57 83 58 50 59 34 60 35 61 43 62 36 63 42 64 44 65 41 66
REMARK SMILES IDX 37 67 38 68 39 69 40 70 66 71 67 72 75 73 68 74 74 75 76 76
REMARK SMILES IDX 73 77 69 78 70 79 71 80 72 81 51 82 52 83 60 84 53 85 59 86
REMARK SMILES IDX 61 87 58 88 54 89 55 90 56 91 57 92
REMARK H PARENT 18 7 22 26 81 45 49 56
REMARK Flexibility Score: inf
ROOT
ATOM      1  C   UNL A   1      33.229  29.029  25.079  1.00  0.00     0.118 C 
ENDROOT
BRANCH   1   2
ATOM      2  C   UNL A   1      33.203  28.953  23.557  1.00  0.00     0.042 C 
BRANCH   2   3
ATOM      3  C   UNL A   1      32.059  28.091  23.047  1.00  0.00     0.118 C 
BRANCH   3   4
ATOM      4  N   UNL A   1      32.485  27.194  21.982  1.00  0.00    -0.352 N 
ATOM      5  C   UNL A   1      32.966  25.934  21.878  1.00  0.00     0.251 C 
ATOM      6  O   UNL A   1      33.194  25.549  20.727  1.00  0.00    -0.270 OA
ATOM      7  H   UNL A   1      32.399  27.620  21.099  1.00  0.00     0.163 HD
BRANCH   5   8
ATOM      8  C   UNL A   1      33.218  25.016  23.026  1.00  0.00     0.067 C 
ATOM      9  C   UNL A   1      33.254  22.517  27.514  1.00  0.00     0.048 C 
ATOM     10  C   UNL A   1      34.123  22.527  26.289  1.00  0.00    -0.007 A 
ATOM     11  C   UNL A   1      35.236  21.683  26.211  1.00  0.00     0.023 A 
ATOM     12  C   UNL A   1      33.870  23.405  25.225  1.00  0.00     0.130 A 
ATOM     13  C   UNL A   1      36.062  21.711  25.086  1.00  0.00     0.019 A 
ATOM     14  C   UNL A   1      34.695  23.433  24.095  1.00  0.00     0.019 A 
ATOM     15  O   UNL A   1      32.816  24.265  25.362  1.00  0.00    -0.475 OA
ATOM     16  Br  UNL A   1      37.561  20.562  25.001  1.00  0.00    -0.051 Br
ATOM     17  C   UNL A   1      35.798  22.580  24.028  1.00  0.00     0.027 A 
ATOM     18  C   UNL A   1      34.403  24.375  23.020  1.00  0.00     0.025 C 
ATOM     19  C   UNL A   1      32.233  24.759  24.129  1.00  0.00     0.314 C 
BRANCH  19  20
ATOM     20  C   UNL A   1      31.088  23.824  23.695  1.00  0.00     0.429 C 
ATOM     21  F   UNL A   1      30.082  24.536  23.128  1.00  0.00    -0.167 F 
ATOM     22  F   UNL A   1      31.478  22.911  22.773  1.00  0.00    -0.167 F 
ATOM     23  F   UNL A   1      30.559  23.129  24.727  1.00  0.00    -0.167 F 
ENDBRANCH  19  20
ENDBRANCH   5   8
ENDBRANCH   3   4
ENDBRANCH   2   3
ENDBRANCH   1   2
BRANCH   1  24
ATOM     24  N   UNL A   1      32.709  30.305  25.562  1.00  0.00    -0.352 N 
ATOM     25  C   UNL A   1      33.019  31.014  26.696  1.00  0.00     0.251 C 
ATOM     26  H   UNL A   1      32.030  30.723  24.984  1.00  0.00     0.163 HD
ATOM     27  O   UNL A   1      32.258  31.901  27.080  1.00  0.00    -0.269 OA
BRANCH  25  28
ATOM     28  C   UNL A   1      34.250  30.705  27.446  1.00  0.00     0.039 A 
ATOM     29  C   UNL A   1      35.215  31.698  27.626  1.00  0.00     0.014 A 
ATOM     30  C   UNL A   1      34.462  29.419  27.951  1.00  0.00     0.014 A 
ATOM     31  C   UNL A   1      36.362  31.414  28.369  1.00  0.00     0.010 A 
ATOM     32  C   UNL A   1      35.551  29.170  28.775  1.00  0.00     0.010 A 
ATOM     33  C   UNL A   1      36.521  30.159  28.979  1.00  0.00    -0.014 A 
BRANCH  33  34
ATOM     34  C   UNL A   1      37.715  29.844  29.798  1.00  0.00     0.031 A 
ATOM     35  C   UNL A   1      38.784  28.943  29.241  1.00  0.00     0.074 A 
ATOM     36  C   UNL A   1      37.814  30.333  31.050  1.00  0.00     0.049 A 
ATOM     37  N   UNL A   1      39.870  28.497  29.817  1.00  0.00    -0.248 NA
ATOM     38  C   UNL A   1      38.591  28.451  27.866  1.00  0.00     0.031 C 
ATOM     39  C   UNL A   1      36.819  31.187  31.704  1.00  0.00     0.029 A 
ATOM     40  N   UNL A   1      38.798  30.191  31.995  1.00  0.00    -0.354 N 
ATOM     41  C   UNL A   1      40.484  27.674  28.880  1.00  0.00     0.074 A 
ATOM     42  C   UNL A   1      39.614  27.622  27.727  1.00  0.00     0.031 C 
ATOM     43  C   UNL A   1      37.268  31.532  32.921  1.00  0.00     0.029 A 
ATOM     44  C   UNL A   1      38.556  30.889  33.155  1.00  0.00     0.049 A 
ATOM     45  H   UNL A   1      39.603  29.640  31.854  1.00  0.00     0.167 HD
ATOM     46  C   UNL A   1      41.681  27.048  28.962  1.00  0.00     0.034 A 
ATOM     47  C   UNL A   1      39.291  30.996  34.280  1.00  0.00     0.034 A 
ATOM     48  C   UNL A   1      42.551  27.138  30.103  1.00  0.00     0.049 A 
ATOM     49  C   UNL A   1      40.605  30.263  34.358  1.00  0.00     0.074 A 
ATOM     50  C   UNL A   1      43.808  26.587  30.271  1.00  0.00     0.029 A 
ATOM     51  N   UNL A   1      42.256  27.829  31.271  1.00  0.00    -0.354 N 
ATOM     52  N   UNL A   1      41.179  29.506  33.454  1.00  0.00    -0.248 NA
ATOM     53  C   UNL A   1      41.367  30.396  35.606  1.00  0.00     0.031 C 
ATOM     54  C   UNL A   1      44.249  26.895  31.561  1.00  0.00     0.029 A 
ATOM     55  C   UNL A   1      43.295  27.693  32.175  1.00  0.00     0.049 A 
ATOM     56  H   UNL A   1      41.430  28.340  31.432  1.00  0.00     0.167 HD
ATOM     57  C   UNL A   1      42.380  29.086  34.017  1.00  0.00     0.074 A 
ATOM     58  C   UNL A   1      42.451  29.680  35.337  1.00  0.00     0.031 C 
ATOM     59  C   UNL A   1      43.338  28.283  33.489  1.00  0.00     0.034 A 
BRANCH  46  60
ATOM     60  C   UNL A   1      42.117  26.218  27.783  1.00  0.00     0.023 A 
ATOM     61  C   UNL A   1      41.759  24.864  27.671  1.00  0.00     0.031 A 
ATOM     62  C   UNL A   1      42.886  26.788  26.754  1.00  0.00     0.131 A 
ATOM     63  C   UNL A   1      42.210  24.110  26.578  1.00  0.00     0.055 A 
ATOM     64  C   UNL A   1      43.276  26.050  25.635  1.00  0.00     0.041 A 
ATOM     65  F   UNL A   1      43.272  28.072  26.822  1.00  0.00    -0.206 F 
ATOM     66  C   UNL A   1      42.945  24.701  25.547  1.00  0.00     0.022 A 
BRANCH  63  67
ATOM     67  S   UNL A   1      41.895  22.326  26.566  1.00  0.00     0.124 S 
ATOM     68  O   UNL A   1      40.438  22.286  26.483  1.00  0.00    -0.237 OA
ATOM     69  O   UNL A   1      42.613  21.883  25.376  1.00  0.00    -0.237 OA
ATOM     70  O   UNL A   1      42.455  21.871  27.837  1.00  0.00    -0.744 OA
ENDBRANCH  63  67
ENDBRANCH  46  60
BRANCH  47  71
ATOM     71  C   UNL A   1      38.805  31.831  35.412  1.00  0.00     0.023 A 
ATOM     72  C   UNL A   1      38.184  31.242  36.525  1.00  0.00     0.031 A 
ATOM     73  C   UNL A   1      38.962  33.228  35.404  1.00  0.00     0.131 A 
ATOM     74  C   UNL A   1      37.723  32.050  37.575  1.00  0.00     0.055 A 
ATOM     75  C   UNL A   1      38.537  34.024  36.468  1.00  0.00     0.041 A 
ATOM     76  F   UNL A   1      39.560  33.837  34.367  1.00  0.00    -0.206 F 
ATOM     77  C   UNL A   1      37.907  33.435  37.561  1.00  0.00     0.022 A 
BRANCH  74  78
ATOM     78  S   UNL A   1      36.850  31.266  38.958  1.00  0.00     0.124 S 
ATOM     79  O   UNL A   1      37.807  31.431  40.045  1.00  0.00    -0.237 OA
ATOM     80  O   UNL A   1      35.633  32.069  39.045  1.00  0.00    -0.237 OA
ATOM     81  O   UNL A   1      36.653  29.893  38.501  1.00  0.00    -0.744 OA
ENDBRANCH  74  78
ENDBRANCH  47  71
BRANCH  59  82
ATOM     82  C   UNL A   1      44.553  28.008  34.330  1.00  0.00     0.023 A 
ATOM     83  C   UNL A   1      44.621  26.879  35.163  1.00  0.00     0.031 A 
ATOM     84  C   UNL A   1      45.683  28.840  34.235  1.00  0.00     0.131 A 
ATOM     85  C   UNL A   1      45.794  26.621  35.886  1.00  0.00     0.055 A 
ATOM     86  C   UNL A   1      46.861  28.553  34.923  1.00  0.00     0.041 A 
ATOM     87  F   UNL A   1      45.666  29.926  33.446  1.00  0.00    -0.206 F 
ATOM     88  C   UNL A   1      46.920  27.439  35.757  1.00  0.00     0.022 A 
BRANCH  85  89
ATOM     89  S   UNL A   1      45.825  25.204  37.015  1.00  0.00     0.124 S 
ATOM     90  O   UNL A   1      44.895  25.629  38.057  1.00  0.00    -0.237 OA
ATOM     91  O   UNL A   1      45.370  24.109  36.164  1.00  0.00    -0.237 OA
ATOM     92  O   UNL A   1      47.225  25.125  37.427  1.00  0.00    -0.744 OA
ENDBRANCH  85  89
ENDBRANCH  59  82
ENDBRANCH  33  34
ENDBRANCH  25  28
ENDBRANCH   1  24
TORSDOF 14
ENDMDL
MODEL 2
REMARK VINA RESULT:     -12.7      5.269     10.074
REMARK SMILES Cc1cc(Br)cc2c1O[C@H](C(F)(F)F)C(C(=O)NCCCNC(=O)c1ccc(-c3c4nc(c(-c5cc(S(=O)(=O)[O-])ccc5F)c5ccc([nH]5)c(-c5cc(S(=O)(=O)[O-])ccc5F)c5nc(c(-c6cc(S(=O)(=O)[O-])ccc6F)c6ccc3[nH]6)C=C5)C=C4)cc1)=C2
REMARK SMILES IDX 21 1 20 2 19 3 18 4 16 5 17 6 15 8 1 9 2 10 3 11 8 12 4 13
REMARK SMILES IDX 7 14 9 15 5 16 6 17 88 18 10 19 11 20 12 21 13 22 14 23
REMARK SMILES IDX 22 24 23 25 24 27 25 28 26 29 87 30 27 31 86 32 28 33 29 34
REMARK SMILES IDX 30 35 80 36 31 37 85 38 79 39 81 40 32 41 84 42 78 43 77 44
REMARK SMILES IDX 33 46 65 47 45 48 64 49 46 50 49 51 63 52 82 53 47 54 48 55
REMARK SMILES IDX 62 57 83 58 50 59 34 60 35 61 43 62 36 63 42 64 44 65 41 66
REMARK SMILES IDX 37 67 38 68 39 69 40 70 66 71 67 72 75 73 68 74 74 75 76 76
REMARK SMILES IDX 73 77 69 78 70 79 71 80 72 81 51 82 52 83 60 84 53 85 59 86
REMARK SMILES IDX 61 87 58 88 54 89 55 90 56 91 57 92
REMARK H PARENT 18 7 22 26 81 45 49 56
REMARK Flexibility Score: inf
ROOT
ATOM      1  C   UNL A   1      35.606  22.347  26.108  1.00  0.00     0.118 C 
ENDROOT
BRANCH   1   2
ATOM      2  C   UNL A   1      34.405  21.865  26.911  1.00  0.00     0.042 C 
BRANCH   2   3
ATOM      3  C   UNL A   1      33.179  21.654  26.037  1.00  0.00     0.118 C 
BRANCH   3   4
ATOM      4  N   UNL A   1      31.977  22.212  26.639  1.00  0.00    -0.352 N 
ATOM      5  C   UNL A   1      31.321  23.395  26.635  1.00  0.00     0.251 C 
ATOM      6  O   UNL A   1      30.285  23.428  27.308  1.00  0.00    -0.270 OA
ATOM      7  H   UNL A   1      31.516  21.548  27.202  1.00  0.00     0.163 HD
BRANCH   5   8
ATOM      8  C   UNL A   1      31.753  24.611  25.887  1.00  0.00     0.067 C 
ATOM      9  C   UNL A   1      33.804  28.005  22.622  1.00  0.00     0.048 C 
ATOM     10  C   UNL A   1      33.101  28.086  23.947  1.00  0.00    -0.007 A 
ATOM     11  C   UNL A   1      32.865  29.332  24.542  1.00  0.00     0.023 A 
ATOM     12  C   UNL A   1      32.712  26.929  24.636  1.00  0.00     0.130 A 
ATOM     13  C   UNL A   1      32.238  29.407  25.786  1.00  0.00     0.019 A 
ATOM     14  C   UNL A   1      32.081  27.003  25.882  1.00  0.00     0.019 A 
ATOM     15  O   UNL A   1      33.018  25.727  24.061  1.00  0.00    -0.475 OA
ATOM     16  Br  UNL A   1      31.928  31.100  26.572  1.00  0.00    -0.051 Br
ATOM     17  C   UNL A   1      31.844  28.252  26.460  1.00  0.00     0.027 A 
ATOM     18  C   UNL A   1      31.708  25.771  26.570  1.00  0.00     0.025 C 
ATOM     19  C   UNL A   1      32.188  24.604  24.450  1.00  0.00     0.314 C 
BRANCH  19  20
ATOM     20  C   UNL A   1      31.003  24.482  23.473  1.00  0.00     0.429 C 
ATOM     21  F   UNL A   1      29.897  25.073  23.989  1.00  0.00    -0.167 F 
ATOM     22  F   UNL A   1      31.241  25.087  22.284  1.00  0.00    -0.167 F 
ATOM     23  F   UNL A   1      30.683  23.197  23.195  1.00  0.00    -0.167 F 
ENDBRANCH  19  20
ENDBRANCH   5   8
ENDBRANCH   3   4
ENDBRANCH   2   3
ENDBRANCH   1   2
BRANCH   1  24
ATOM     24  N   UNL A   1      36.561  21.269  25.870  1.00  0.00    -0.352 N 
ATOM     25  C   UNL A   1      37.926  21.312  25.727  1.00  0.00     0.251 C 
ATOM     26  H   UNL A   1      36.165  20.369  25.803  1.00  0.00     0.163 HD
ATOM     27  O   UNL A   1      38.511  20.351  25.229  1.00  0.00    -0.269 OA
BRANCH  25  28
ATOM     28  C   UNL A   1      38.676  22.505  26.162  1.00  0.00     0.039 A 
ATOM     29  C   UNL A   1      39.843  22.349  26.912  1.00  0.00     0.014 A 
ATOM     30  C   UNL A   1      38.209  23.784  25.847  1.00  0.00     0.014 A 
ATOM     31  C   UNL A   1      40.573  23.477  27.290  1.00  0.00     0.010 A 
ATOM     32  C   UNL A   1      38.988  24.896  26.133  1.00  0.00     0.010 A 
ATOM     33  C   UNL A   1      40.169  24.756  26.872  1.00  0.00    -0.014 A 
BRANCH  33  34
ATOM     34  C   UNL A   1      40.944  25.967  27.234  1.00  0.00     0.031 A 
ATOM     35  C   UNL A   1      40.317  27.017  28.111  1.00  0.00     0.074 A 
ATOM     36  C   UNL A   1      42.187  26.136  26.742  1.00  0.00     0.049 A 
ATOM     37  N   UNL A   1      40.802  28.171  28.490  1.00  0.00    -0.248 NA
ATOM     38  C   UNL A   1      38.954  26.750  28.601  1.00  0.00     0.031 C 
ATOM     39  C   UNL A   1      42.879  25.199  25.853  1.00  0.00     0.029 A 
ATOM     40  N   UNL A   1      43.093  27.149  26.921  1.00  0.00    -0.354 N 
ATOM     41  C   UNL A   1      39.804  28.766  29.255  1.00  0.00     0.074 A 
ATOM     42  C   UNL A   1      38.662  27.881  29.226  1.00  0.00     0.031 C 
ATOM     43  C   UNL A   1      44.116  25.657  25.608  1.00  0.00     0.029 A 
ATOM     44  C   UNL A   1      44.292  26.940  26.279  1.00  0.00     0.049 A 
ATOM     45  H   UNL A   1      42.903  27.952  27.460  1.00  0.00     0.167 HD
ATOM     46  C   UNL A   1      39.852  29.927  29.948  1.00  0.00     0.034 A 
ATOM     47  C   UNL A   1      45.405  27.699  26.237  1.00  0.00     0.034 A 
ATOM     48  C   UNL A   1      41.008  30.780  29.996  1.00  0.00     0.049 A 
ATOM     49  C   UNL A   1      45.421  29.003  26.990  1.00  0.00     0.074 A 
ATOM     50  C   UNL A   1      41.183  31.953  30.708  1.00  0.00     0.029 A 
ATOM     51  N   UNL A   1      42.192  30.549  29.307  1.00  0.00    -0.354 N 
ATOM     52  N   UNL A   1      44.476  29.539  27.726  1.00  0.00    -0.248 NA
ATOM     53  C   UNL A   1      46.648  29.805  26.906  1.00  0.00     0.031 C 
ATOM     54  C   UNL A   1      42.449  32.462  30.404  1.00  0.00     0.029 A 
ATOM     55  C   UNL A   1      43.089  31.573  29.553  1.00  0.00     0.049 A 
ATOM     56  H   UNL A   1      42.366  29.772  28.728  1.00  0.00     0.167 HD
ATOM     57  C   UNL A   1      45.001  30.734  28.207  1.00  0.00     0.074 A 
ATOM     58  C   UNL A   1      46.349  30.836  27.686  1.00  0.00     0.031 C 
ATOM     59  C   UNL A   1      44.422  31.660  29.011  1.00  0.00     0.034 A 
BRANCH  46  60
ATOM     60  C   UNL A   1      38.620  30.336  30.712  1.00  0.00     0.023 A 
ATOM     61  C   UNL A   1      37.598  31.084  30.103  1.00  0.00     0.031 A 
ATOM     62  C   UNL A   1      38.457  29.963  32.057  1.00  0.00     0.131 A 
ATOM     63  C   UNL A   1      36.479  31.478  30.852  1.00  0.00     0.055 A 
ATOM     64  C   UNL A   1      37.310  30.300  32.778  1.00  0.00     0.041 A 
ATOM     65  F   UNL A   1      39.412  29.264  32.692  1.00  0.00    -0.206 F 
ATOM     66  C   UNL A   1      36.317  31.069  32.178  1.00  0.00     0.022 A 
BRANCH  63  67
ATOM     67  S   UNL A   1      35.280  32.604  30.092  1.00  0.00     0.124 S 
ATOM     68  O   UNL A   1      34.384  32.877  31.212  1.00  0.00    -0.237 OA
ATOM     69  O   UNL A   1      36.118  33.716  29.659  1.00  0.00    -0.237 OA
ATOM     70  O   UNL A   1      34.697  31.806  29.014  1.00  0.00    -0.744 OA
ENDBRANCH  63  67
ENDBRANCH  46  60
BRANCH  47  71
ATOM     71  C   UNL A   1      46.591  27.241  25.462  1.00  0.00     0.023 A 
ATOM     72  C   UNL A   1      46.877  27.781  24.199  1.00  0.00     0.031 A 
ATOM     73  C   UNL A   1      47.462  26.265  25.978  1.00  0.00     0.131 A 
ATOM     74  C   UNL A   1      47.993  27.326  23.482  1.00  0.00     0.055 A 
ATOM     75  C   UNL A   1      48.593  25.843  25.277  1.00  0.00     0.041 A 
ATOM     76  F   UNL A   1      47.238  25.727  27.187  1.00  0.00    -0.206 F 
ATOM     77  C   UNL A   1      48.861  26.371  24.018  1.00  0.00     0.022 A 
BRANCH  74  78
ATOM     78  S   UNL A   1      48.286  27.982  21.816  1.00  0.00     0.124 S 
ATOM     79  O   UNL A   1      47.163  28.898  21.657  1.00  0.00    -0.237 OA
ATOM     80  O   UNL A   1      49.602  28.596  21.957  1.00  0.00    -0.237 OA
ATOM     81  O   UNL A   1      48.246  26.791  20.970  1.00  0.00    -0.744 OA
ENDBRANCH  74  78
ENDBRANCH  47  71
BRANCH  59  82
ATOM     82  C   UNL A   1      45.243  32.862  29.389  1.00  0.00     0.023 A 
ATOM     83  C   UNL A   1      45.187  34.046  28.637  1.00  0.00     0.031 A 
ATOM     84  C   UNL A   1      46.026  32.845  30.556  1.00  0.00     0.131 A 
ATOM     85  C   UNL A   1      45.919  35.167  29.053  1.00  0.00     0.055 A 
ATOM     86  C   UNL A   1      46.716  33.976  30.989  1.00  0.00     0.041 A 
ATOM     87  F   UNL A   1      46.104  31.737  31.310  1.00  0.00    -0.206 F 
ATOM     88  C   UNL A   1      46.668  35.146  30.234  1.00  0.00     0.022 A 
BRANCH  85  89
ATOM     89  S   UNL A   1      45.894  36.656  28.020  1.00  0.00     0.124 S 
ATOM     90  O   UNL A   1      45.804  36.089  26.678  1.00  0.00    -0.237 OA
ATOM     91  O   UNL A   1      44.705  37.354  28.497  1.00  0.00    -0.237 OA
ATOM     92  O   UNL A   1      47.162  37.312  28.333  1.00  0.00    -0.744 OA
ENDBRANCH  85  89
ENDBRANCH  59  82
ENDBRANCH  33  34
ENDBRANCH  25  28
ENDBRANCH   1  24
TORSDOF 14
ENDMDL
MODEL 3
REMARK VINA RESULT:     -12.5      2.511      3.377
REMARK SMILES Cc1cc(Br)cc2c1O[C@H](C(F)(F)F)C(C(=O)NCCCNC(=O)c1ccc(-c3c4nc(c(-c5cc(S(=O)(=O)[O-])ccc5F)c5ccc([nH]5)c(-c5cc(S(=O)(=O)[O-])ccc5F)c5nc(c(-c6cc(S(=O)(=O)[O-])ccc6F)c6ccc3[nH]6)C=C5)C=C4)cc1)=C2
REMARK SMILES IDX 21 1 20 2 19 3 18 4 16 5 17 6 15 8 1 9 2 10 3 11 8 12 4 13
REMARK SMILES IDX 7 14 9 15 5 16 6 17 88 18 10 19 11 20 12 21 13 22 14 23
REMARK SMILES IDX 22 24 23 25 24 27 25 28 26 29 87 30 27 31 86 32 28 33 29 34
REMARK SMILES IDX 30 35 80 36 31 37 85 38 79 39 81 40 32 41 84 42 78 43 77 44
REMARK SMILES IDX 33 46 65 47 45 48 64 49 46 50 49 51 63 52 82 53 47 54 48 55
REMARK SMILES IDX 62 57 83 58 50 59 34 60 35 61 43 62 36 63 42 64 44 65 41 66
REMARK SMILES IDX 37 67 38 68 39 69 40 70 66 71 67 72 75 73 68 74 74 75 76 76
REMARK SMILES IDX 73 77 69 78 70 79 71 80 72 81 51 82 52 83 60 84 53 85 59 86
REMARK SMILES IDX 61 87 58 88 54 89 55 90 56 91 57 92
REMARK H PARENT 18 7 22 26 81 45 49 56
REMARK Flexibility Score: inf
ROOT
ATOM      1  C   UNL A   1      32.604  32.578  27.317  1.00  0.00     0.118 C 
ENDROOT
BRANCH   1   2
ATOM      2  C   UNL A   1      31.415  32.093  26.498  1.00  0.00     0.042 C 
BRANCH   2   3
ATOM      3  C   UNL A   1      31.447  30.588  26.279  1.00  0.00     0.118 C 
BRANCH   3   4
ATOM      4  N   UNL A   1      32.212  30.225  25.095  1.00  0.00    -0.352 N 
ATOM      5  C   UNL A   1      32.600  29.089  24.472  1.00  0.00     0.251 C 
ATOM      6  O   UNL A   1      33.258  29.250  23.440  1.00  0.00    -0.270 OA
ATOM      7  H   UNL A   1      32.534  31.024  24.617  1.00  0.00     0.163 HD
BRANCH   5   8
ATOM      8  C   UNL A   1      32.283  27.707  24.937  1.00  0.00     0.067 C 
ATOM      9  C   UNL A   1      30.144  23.436  26.825  1.00  0.00     0.048 C 
ATOM     10  C   UNL A   1      31.528  23.846  26.413  1.00  0.00    -0.007 A 
ATOM     11  C   UNL A   1      32.585  22.931  26.492  1.00  0.00     0.023 A 
ATOM     12  C   UNL A   1      31.804  25.153  25.987  1.00  0.00     0.130 A 
ATOM     13  C   UNL A   1      33.878  23.318  26.137  1.00  0.00     0.019 A 
ATOM     14  C   UNL A   1      33.099  25.543  25.628  1.00  0.00     0.019 A 
ATOM     15  O   UNL A   1      30.764  26.041  25.985  1.00  0.00    -0.475 OA
ATOM     16  Br  UNL A   1      35.290  22.066  26.252  1.00  0.00    -0.051 Br
ATOM     17  C   UNL A   1      34.141  24.617  25.705  1.00  0.00     0.027 A 
ATOM     18  C   UNL A   1      33.341  26.918  25.206  1.00  0.00     0.025 C 
ATOM     19  C   UNL A   1      30.890  27.168  25.081  1.00  0.00     0.314 C 
BRANCH  19  20
ATOM     20  C   UNL A   1      30.251  26.807  23.725  1.00  0.00     0.429 C 
ATOM     21  F   UNL A   1      29.748  27.915  23.126  1.00  0.00    -0.167 F 
ATOM     22  F   UNL A   1      31.140  26.271  22.854  1.00  0.00    -0.167 F 
ATOM     23  F   UNL A   1      29.240  25.916  23.843  1.00  0.00    -0.167 F 
ENDBRANCH  19  20
ENDBRANCH   5   8
ENDBRANCH   3   4
ENDBRANCH   2   3
ENDBRANCH   1   2
BRANCH   1  24
ATOM     24  N   UNL A   1      32.514  34.008  27.599  1.00  0.00    -0.352 N 
ATOM     25  C   UNL A   1      33.088  34.749  28.602  1.00  0.00     0.251 C 
ATOM     26  H   UNL A   1      31.956  34.521  26.971  1.00  0.00     0.163 HD
ATOM     27  O   UNL A   1      32.649  35.871  28.851  1.00  0.00    -0.269 OA
BRANCH  25  28
ATOM     28  C   UNL A   1      34.216  34.197  29.376  1.00  0.00     0.039 A 
ATOM     29  C   UNL A   1      33.961  33.453  30.530  1.00  0.00     0.014 A 
ATOM     30  C   UNL A   1      35.532  34.438  28.971  1.00  0.00     0.014 A 
ATOM     31  C   UNL A   1      35.028  32.899  31.239  1.00  0.00     0.010 A 
ATOM     32  C   UNL A   1      36.582  33.801  29.617  1.00  0.00     0.010 A 
ATOM     33  C   UNL A   1      36.344  33.040  30.767  1.00  0.00    -0.014 A 
BRANCH  33  34
ATOM     34  C   UNL A   1      37.491  32.434  31.485  1.00  0.00     0.031 A 
ATOM     35  C   UNL A   1      38.247  31.297  30.855  1.00  0.00     0.074 A 
ATOM     36  C   UNL A   1      37.819  32.880  32.714  1.00  0.00     0.049 A 
ATOM     37  N   UNL A   1      39.235  30.593  31.343  1.00  0.00    -0.248 NA
ATOM     38  C   UNL A   1      37.817  30.872  29.512  1.00  0.00     0.031 C 
ATOM     39  C   UNL A   1      37.131  33.954  33.435  1.00  0.00     0.029 A 
ATOM     40  N   UNL A   1      38.817  32.494  33.571  1.00  0.00    -0.354 N 
ATOM     41  C   UNL A   1      39.539  29.645  30.372  1.00  0.00     0.074 A 
ATOM     42  C   UNL A   1      38.584  29.814  29.300  1.00  0.00     0.031 C 
ATOM     43  C   UNL A   1      37.758  34.172  34.602  1.00  0.00     0.029 A 
ATOM     44  C   UNL A   1      38.861  33.227  34.735  1.00  0.00     0.049 A 
ATOM     45  H   UNL A   1      39.444  31.761  33.372  1.00  0.00     0.167 HD
ATOM     46  C   UNL A   1      40.545  28.740  30.361  1.00  0.00     0.034 A 
ATOM     47  C   UNL A   1      39.697  33.144  35.789  1.00  0.00     0.034 A 
ATOM     48  C   UNL A   1      41.509  28.607  31.420  1.00  0.00     0.049 A 
ATOM     49  C   UNL A   1      40.789  32.107  35.767  1.00  0.00     0.074 A 
ATOM     50  C   UNL A   1      42.600  27.760  31.488  1.00  0.00     0.029 A 
ATOM     51  N   UNL A   1      41.501  29.346  32.596  1.00  0.00    -0.354 N 
ATOM     52  N   UNL A   1      41.074  31.233  34.831  1.00  0.00    -0.248 NA
ATOM     53  C   UNL A   1      41.669  32.042  36.941  1.00  0.00     0.031 C 
ATOM     54  C   UNL A   1      43.216  27.944  32.729  1.00  0.00     0.029 A 
ATOM     55  C   UNL A   1      42.549  28.953  33.408  1.00  0.00     0.049 A 
ATOM     56  H   UNL A   1      40.846  30.047  32.818  1.00  0.00     0.167 HD
ATOM     57  C   UNL A   1      42.178  30.525  35.295  1.00  0.00     0.074 A 
ATOM     58  C   UNL A   1      42.512  31.079  36.592  1.00  0.00     0.031 C 
ATOM     59  C   UNL A   1      42.855  29.510  34.702  1.00  0.00     0.034 A 
BRANCH  46  60
ATOM     60  C   UNL A   1      40.654  27.830  29.165  1.00  0.00     0.023 A 
ATOM     61  C   UNL A   1      41.556  28.101  28.122  1.00  0.00     0.031 A 
ATOM     62  C   UNL A   1      39.861  26.674  29.074  1.00  0.00     0.131 A 
ATOM     63  C   UNL A   1      41.609  27.252  27.007  1.00  0.00     0.055 A 
ATOM     64  C   UNL A   1      39.967  25.797  27.993  1.00  0.00     0.041 A 
ATOM     65  F   UNL A   1      38.970  26.379  30.034  1.00  0.00    -0.206 F 
ATOM     66  C   UNL A   1      40.838  26.088  26.948  1.00  0.00     0.022 A 
BRANCH  63  67
ATOM     67  S   UNL A   1      42.638  27.737  25.597  1.00  0.00     0.124 S 
ATOM     68  O   UNL A   1      42.559  26.548  24.753  1.00  0.00    -0.237 OA
ATOM     69  O   UNL A   1      41.953  28.922  25.095  1.00  0.00    -0.237 OA
ATOM     70  O   UNL A   1      43.948  27.982  26.198  1.00  0.00    -0.744 OA
ENDBRANCH  63  67
ENDBRANCH  46  60
BRANCH  47  71
ATOM     71  C   UNL A   1      39.537  34.071  36.943  1.00  0.00     0.023 A 
ATOM     72  C   UNL A   1      38.975  33.627  38.149  1.00  0.00     0.031 A 
ATOM     73  C   UNL A   1      39.952  35.412  36.860  1.00  0.00     0.131 A 
ATOM     74  C   UNL A   1      38.824  34.521  39.220  1.00  0.00     0.055 A 
ATOM     75  C   UNL A   1      39.834  36.288  37.940  1.00  0.00     0.041 A 
ATOM     76  F   UNL A   1      40.507  35.882  35.730  1.00  0.00    -0.206 F 
ATOM     77  C   UNL A   1      39.261  35.844  39.128  1.00  0.00     0.022 A 
BRANCH  74  78
ATOM     78  S   UNL A   1      38.016  33.936  40.735  1.00  0.00     0.124 S 
ATOM     79  O   UNL A   1      36.870  33.213  40.200  1.00  0.00    -0.237 OA
ATOM     80  O   UNL A   1      39.064  33.122  41.344  1.00  0.00    -0.237 OA
ATOM     81  O   UNL A   1      37.698  35.171  41.449  1.00  0.00    -0.744 OA
ENDBRANCH  74  78
ENDBRANCH  47  71
BRANCH  59  82
ATOM     82  C   UNL A   1      44.034  28.938  35.438  1.00  0.00     0.023 A 
ATOM     83  C   UNL A   1      43.876  27.896  36.366  1.00  0.00     0.031 A 
ATOM     84  C   UNL A   1      45.334  29.387  35.150  1.00  0.00     0.131 A 
ATOM     85  C   UNL A   1      45.004  27.345  36.989  1.00  0.00     0.055 A 
ATOM     86  C   UNL A   1      46.456  28.805  35.739  1.00  0.00     0.041 A 
ATOM     87  F   UNL A   1      45.534  30.376  34.264  1.00  0.00    -0.206 F 
ATOM     88  C   UNL A   1      46.294  27.779  36.668  1.00  0.00     0.022 A 
BRANCH  85  89
ATOM     89  S   UNL A   1      44.764  26.058  38.243  1.00  0.00     0.124 S 
ATOM     90  O   UNL A   1      43.908  25.108  37.538  1.00  0.00    -0.237 OA
ATOM     91  O   UNL A   1      46.129  25.613  38.505  1.00  0.00    -0.237 OA
ATOM     92  O   UNL A   1      44.124  26.770  39.347  1.00  0.00    -0.744 OA
ENDBRANCH  85  89
ENDBRANCH  59  82
ENDBRANCH  33  34
ENDBRANCH  25  28
ENDBRANCH   1  24
TORSDOF 14
ENDMDL
