MODEL 1
REMARK VINA RESULT:     -11.6      0.000      0.000
REMARK SMILES CC[C@@](C)(NS(=O)(=O)c1ccc(F)c(F)c1)C(=O)NCCCNC(=O)c1ccc(-c2c3nc(c(-c4cc(S(=O)(=O)[O-])ccc4F)c4ccc([nH]4)c(-c4cc(S(=O)(=O)[O-])ccc4F)c4nc(c(-c5cc(S(=O)(=O)[O-])ccc5F)c5ccc2[nH]5)C=C4)C=C3)cc1
REMARK SMILES IDX 21 1 20 2 19 3 17 4 18 5 3 7 4 8 2 9 1 10 5 11 6 13 7 14
REMARK SMILES IDX 8 15 9 16 10 17 16 18 11 19 14 20 12 21 15 22 13 23 22 24
REMARK SMILES IDX 23 25 24 26 25 28 26 29 27 30 88 31 28 32 87 33 29 34 30 35
REMARK SMILES IDX 31 36 81 37 32 38 86 39 80 40 82 41 33 42 85 43 79 44 78 45
REMARK SMILES IDX 34 47 66 48 46 49 65 50 47 51 50 52 64 53 83 54 48 55 49 56
REMARK SMILES IDX 63 58 84 59 51 60 35 61 36 62 44 63 37 64 43 65 45 66 42 67
REMARK SMILES IDX 38 68 39 69 40 70 41 71 67 72 68 73 76 74 69 75 75 76 77 77
REMARK SMILES IDX 74 78 70 79 71 80 72 81 73 82 52 83 53 84 61 85 54 86 60 87
REMARK SMILES IDX 62 88 59 89 55 90 56 91 57 92 58 93
REMARK H PARENT 19 6 5 12 23 27 82 46 50 57
REMARK Flexibility Score: inf
ROOT
ATOM      1  C   UNL A   1      33.524  28.983  24.196  1.00  0.00     0.042 C 
ENDROOT
BRANCH   1   2
ATOM      2  C   UNL A   1      32.794  28.685  22.853  1.00  0.00     0.117 C 
BRANCH   2   3
ATOM      3  N   UNL A   1      33.138  27.549  21.998  1.00  0.00    -0.354 N 
ATOM      4  C   UNL A   1      32.862  26.212  21.900  1.00  0.00     0.241 C 
ATOM      5  O   UNL A   1      33.275  25.702  20.846  1.00  0.00    -0.273 OA
ATOM      6  H   UNL A   1      33.750  27.829  21.280  1.00  0.00     0.163 HD
BRANCH   4   7
ATOM      7  C   UNL A   1      32.209  25.294  22.968  1.00  0.00     0.108 C 
ATOM      8  C   UNL A   1      32.928  25.368  24.318  1.00  0.00     0.040 C 
BRANCH   7   9
ATOM      9  C   UNL A   1      30.699  25.714  23.216  1.00  0.00     0.030 C 
ATOM     10  C   UNL A   1      30.295  26.308  24.556  1.00  0.00     0.006 C 
ENDBRANCH   7   9
BRANCH   7  11
ATOM     11  N   UNL A   1      32.018  23.876  22.571  1.00  0.00    -0.196 NA
ATOM     12  H   UNL A   1      32.680  23.748  21.806  1.00  0.00     0.142 HD
BRANCH  11  13
ATOM     13  S   UNL A   1      32.141  22.478  23.439  1.00  0.00     0.241 S 
ATOM     14  O   UNL A   1      31.375  22.649  24.657  1.00  0.00    -0.207 OA
ATOM     15  O   UNL A   1      31.777  21.454  22.493  1.00  0.00    -0.207 OA
BRANCH  13  16
ATOM     16  C   UNL A   1      33.844  22.197  23.880  1.00  0.00     0.085 A 
ATOM     17  C   UNL A   1      34.179  21.621  25.109  1.00  0.00     0.025 A 
ATOM     18  C   UNL A   1      34.859  22.780  23.128  1.00  0.00     0.064 A 
ATOM     19  C   UNL A   1      35.521  21.617  25.534  1.00  0.00     0.044 A 
ATOM     20  C   UNL A   1      36.184  22.751  23.529  1.00  0.00     0.160 A 
ATOM     21  C   UNL A   1      36.516  22.176  24.735  1.00  0.00     0.158 A 
ATOM     22  F   UNL A   1      37.108  23.341  22.759  1.00  0.00    -0.204 F 
ATOM     23  F   UNL A   1      37.786  22.193  25.160  1.00  0.00    -0.204 F 
ENDBRANCH  13  16
ENDBRANCH  11  13
ENDBRANCH   7  11
ENDBRANCH   4   7
ENDBRANCH   2   3
ENDBRANCH   1   2
BRANCH   1  24
ATOM     24  C   UNL A   1      32.863  29.093  25.584  1.00  0.00     0.118 C 
BRANCH  24  25
ATOM     25  N   UNL A   1      32.407  30.415  25.961  1.00  0.00    -0.352 N 
ATOM     26  C   UNL A   1      32.973  31.295  26.863  1.00  0.00     0.251 C 
ATOM     27  H   UNL A   1      31.586  30.727  25.516  1.00  0.00     0.163 HD
ATOM     28  O   UNL A   1      32.337  32.297  27.187  1.00  0.00    -0.269 OA
BRANCH  26  29
ATOM     29  C   UNL A   1      34.308  31.056  27.482  1.00  0.00     0.039 A 
ATOM     30  C   UNL A   1      34.574  29.796  28.031  1.00  0.00     0.014 A 
ATOM     31  C   UNL A   1      35.236  32.085  27.670  1.00  0.00     0.014 A 
ATOM     32  C   UNL A   1      35.767  29.560  28.733  1.00  0.00     0.010 A 
ATOM     33  C   UNL A   1      36.444  31.840  28.360  1.00  0.00     0.010 A 
ATOM     34  C   UNL A   1      36.726  30.574  28.903  1.00  0.00    -0.014 A 
BRANCH  34  35
ATOM     35  C   UNL A   1      38.008  30.265  29.620  1.00  0.00     0.031 A 
ATOM     36  C   UNL A   1      38.287  30.776  31.014  1.00  0.00     0.074 A 
ATOM     37  C   UNL A   1      38.923  29.469  29.027  1.00  0.00     0.049 A 
ATOM     38  N   UNL A   1      39.278  30.481  31.824  1.00  0.00    -0.248 NA
ATOM     39  C   UNL A   1      37.340  31.755  31.562  1.00  0.00     0.031 C 
ATOM     40  C   UNL A   1      38.812  28.937  27.668  1.00  0.00     0.029 A 
ATOM     41  N   UNL A   1      40.112  28.950  29.488  1.00  0.00    -0.354 N 
ATOM     42  C   UNL A   1      39.068  31.225  32.983  1.00  0.00     0.074 A 
ATOM     43  C   UNL A   1      37.887  32.029  32.740  1.00  0.00     0.031 C 
ATOM     44  C   UNL A   1      39.860  28.135  27.421  1.00  0.00     0.029 A 
ATOM     45  C   UNL A   1      40.736  28.111  28.590  1.00  0.00     0.049 A 
ATOM     46  H   UNL A   1      40.481  29.158  30.376  1.00  0.00     0.167 HD
ATOM     47  C   UNL A   1      39.777  31.225  34.144  1.00  0.00     0.034 A 
ATOM     48  C   UNL A   1      41.873  27.391  28.691  1.00  0.00     0.034 A 
ATOM     49  C   UNL A   1      40.965  30.431  34.375  1.00  0.00     0.049 A 
ATOM     50  C   UNL A   1      42.648  27.412  29.986  1.00  0.00     0.074 A 
ATOM     51  C   UNL A   1      41.728  30.331  35.529  1.00  0.00     0.029 A 
ATOM     52  N   UNL A   1      41.579  29.614  33.433  1.00  0.00    -0.354 N 
ATOM     53  N   UNL A   1      42.388  28.063  31.097  1.00  0.00    -0.248 NA
ATOM     54  C   UNL A   1      43.857  26.580  30.046  1.00  0.00     0.031 C 
ATOM     55  C   UNL A   1      42.835  29.517  35.262  1.00  0.00     0.029 A 
ATOM     56  C   UNL A   1      42.723  29.035  33.969  1.00  0.00     0.049 A 
ATOM     57  H   UNL A   1      41.250  29.465  32.517  1.00  0.00     0.167 HD
ATOM     58  C   UNL A   1      43.387  27.694  31.995  1.00  0.00     0.074 A 
ATOM     59  C   UNL A   1      44.232  26.742  31.306  1.00  0.00     0.031 C 
ATOM     60  C   UNL A   1      43.584  28.104  33.275  1.00  0.00     0.034 A 
BRANCH  47  61
ATOM     61  C   UNL A   1      39.296  32.136  35.257  1.00  0.00     0.023 A 
ATOM     62  C   UNL A   1      39.804  33.437  35.418  1.00  0.00     0.031 A 
ATOM     63  C   UNL A   1      38.321  31.698  36.171  1.00  0.00     0.131 A 
ATOM     64  C   UNL A   1      39.392  34.225  36.505  1.00  0.00     0.055 A 
ATOM     65  C   UNL A   1      37.854  32.517  37.204  1.00  0.00     0.041 A 
ATOM     66  F   UNL A   1      37.803  30.463  36.081  1.00  0.00    -0.206 F 
ATOM     67  C   UNL A   1      38.402  33.782  37.385  1.00  0.00     0.022 A 
BRANCH  64  68
ATOM     68  S   UNL A   1      40.267  35.780  36.834  1.00  0.00     0.124 S 
ATOM     69  O   UNL A   1      41.659  35.379  36.652  1.00  0.00    -0.237 OA
ATOM     70  O   UNL A   1      39.719  36.670  35.817  1.00  0.00    -0.237 OA
ATOM     71  O   UNL A   1      39.893  36.100  38.211  1.00  0.00    -0.744 OA
ENDBRANCH  64  68
ENDBRANCH  47  61
BRANCH  48  72
ATOM     72  C   UNL A   1      42.357  26.575  27.537  1.00  0.00     0.023 A 
ATOM     73  C   UNL A   1      42.001  25.222  27.397  1.00  0.00     0.031 A 
ATOM     74  C   UNL A   1      43.230  27.126  26.582  1.00  0.00     0.131 A 
ATOM     75  C   UNL A   1      42.552  24.456  26.357  1.00  0.00     0.055 A 
ATOM     76  C   UNL A   1      43.729  26.375  25.517  1.00  0.00     0.041 A 
ATOM     77  F   UNL A   1      43.604  28.412  26.667  1.00  0.00    -0.206 F 
ATOM     78  C   UNL A   1      43.402  25.027  25.408  1.00  0.00     0.022 A 
BRANCH  75  79
ATOM     79  S   UNL A   1      42.213  22.674  26.312  1.00  0.00     0.124 S 
ATOM     80  O   UNL A   1      43.027  22.187  27.420  1.00  0.00    -0.237 OA
ATOM     81  O   UNL A   1      40.768  22.635  26.511  1.00  0.00    -0.237 OA
ATOM     82  O   UNL A   1      42.667  22.275  24.981  1.00  0.00    -0.744 OA
ENDBRANCH  75  79
ENDBRANCH  48  72
BRANCH  60  83
ATOM     83  C   UNL A   1      44.751  27.489  34.019  1.00  0.00     0.023 A 
ATOM     84  C   UNL A   1      44.595  26.353  34.836  1.00  0.00     0.031 A 
ATOM     85  C   UNL A   1      46.026  28.078  33.954  1.00  0.00     0.131 A 
ATOM     86  C   UNL A   1      45.667  25.898  35.619  1.00  0.00     0.055 A 
ATOM     87  C   UNL A   1      47.109  27.575  34.678  1.00  0.00     0.041 A 
ATOM     88  F   UNL A   1      46.241  29.164  33.195  1.00  0.00    -0.206 F 
ATOM     89  C   UNL A   1      46.928  26.492  35.533  1.00  0.00     0.022 A 
BRANCH  86  90
ATOM     90  S   UNL A   1      45.355  24.608  36.858  1.00  0.00     0.124 S 
ATOM     91  O   UNL A   1      43.938  24.801  37.148  1.00  0.00    -0.237 OA
ATOM     92  O   UNL A   1      45.697  23.390  36.131  1.00  0.00    -0.237 OA
ATOM     93  O   UNL A   1      46.265  24.953  37.949  1.00  0.00    -0.744 OA
ENDBRANCH  86  90
ENDBRANCH  60  83
ENDBRANCH  34  35
ENDBRANCH  26  29
ENDBRANCH  24  25
ENDBRANCH   1  24
TORSDOF 17
ENDMDL
MODEL 2
REMARK VINA RESULT:     -11.6      1.933      2.458
REMARK SMILES CC[C@@](C)(NS(=O)(=O)c1ccc(F)c(F)c1)C(=O)NCCCNC(=O)c1ccc(-c2c3nc(c(-c4cc(S(=O)(=O)[O-])ccc4F)c4ccc([nH]4)c(-c4cc(S(=O)(=O)[O-])ccc4F)c4nc(c(-c5cc(S(=O)(=O)[O-])ccc5F)c5ccc2[nH]5)C=C4)C=C3)cc1
REMARK SMILES IDX 21 1 20 2 19 3 17 4 18 5 3 7 4 8 2 9 1 10 5 11 6 13 7 14
REMARK SMILES IDX 8 15 9 16 10 17 16 18 11 19 14 20 12 21 15 22 13 23 22 24
REMARK SMILES IDX 23 25 24 26 25 28 26 29 27 30 88 31 28 32 87 33 29 34 30 35
REMARK SMILES IDX 31 36 81 37 32 38 86 39 80 40 82 41 33 42 85 43 79 44 78 45
REMARK SMILES IDX 34 47 66 48 46 49 65 50 47 51 50 52 64 53 83 54 48 55 49 56
REMARK SMILES IDX 63 58 84 59 51 60 35 61 36 62 44 63 37 64 43 65 45 66 42 67
REMARK SMILES IDX 38 68 39 69 40 70 41 71 67 72 68 73 76 74 69 75 75 76 77 77
REMARK SMILES IDX 74 78 70 79 71 80 72 81 73 82 52 83 53 84 61 85 54 86 60 87
REMARK SMILES IDX 62 88 59 89 55 90 56 91 57 92 58 93
REMARK H PARENT 19 6 5 12 23 27 82 46 50 57
REMARK Flexibility Score: inf
ROOT
ATOM      1  C   UNL A   1      32.411  27.976  26.177  1.00  0.00     0.042 C 
ENDROOT
BRANCH   1   2
ATOM      2  C   UNL A   1      31.298  27.168  25.448  1.00  0.00     0.117 C 
BRANCH   2   3
ATOM      3  N   UNL A   1      30.594  26.046  26.070  1.00  0.00    -0.354 N 
ATOM      4  C   UNL A   1      30.600  24.678  26.032  1.00  0.00     0.241 C 
ATOM      5  O   UNL A   1      29.904  24.160  26.921  1.00  0.00    -0.273 OA
ATOM      6  H   UNL A   1      29.915  26.371  26.704  1.00  0.00     0.163 HD
BRANCH   4   7
ATOM      7  C   UNL A   1      31.272  23.757  24.977  1.00  0.00     0.108 C 
ATOM      8  C   UNL A   1      31.108  22.272  25.312  1.00  0.00     0.040 C 
BRANCH   7   9
ATOM      9  C   UNL A   1      30.630  23.990  23.545  1.00  0.00     0.030 C 
ATOM     10  C   UNL A   1      31.290  24.959  22.576  1.00  0.00     0.006 C 
ENDBRANCH   7   9
BRANCH   7  11
ATOM     11  N   UNL A   1      32.694  24.055  24.672  1.00  0.00    -0.196 NA
ATOM     12  H   UNL A   1      32.646  24.892  24.091  1.00  0.00     0.142 HD
BRANCH  11  13
ATOM     13  S   UNL A   1      33.983  24.335  25.665  1.00  0.00     0.241 S 
ATOM     14  O   UNL A   1      34.670  25.510  25.171  1.00  0.00    -0.207 OA
ATOM     15  O   UNL A   1      33.405  24.335  26.984  1.00  0.00    -0.207 OA
BRANCH  13  16
ATOM     16  C   UNL A   1      35.105  22.953  25.588  1.00  0.00     0.085 A 
ATOM     17  C   UNL A   1      36.488  23.154  25.594  1.00  0.00     0.025 A 
ATOM     18  C   UNL A   1      34.625  21.689  25.261  1.00  0.00     0.064 A 
ATOM     19  C   UNL A   1      37.350  22.080  25.306  1.00  0.00     0.044 A 
ATOM     20  C   UNL A   1      35.470  20.622  25.007  1.00  0.00     0.160 A 
ATOM     21  C   UNL A   1      36.834  20.817  25.021  1.00  0.00     0.158 A 
ATOM     22  F   UNL A   1      34.939  19.434  24.689  1.00  0.00    -0.204 F 
ATOM     23  F   UNL A   1      37.659  19.807  24.719  1.00  0.00    -0.204 F 
ENDBRANCH  13  16
ENDBRANCH  11  13
ENDBRANCH   7  11
ENDBRANCH   4   7
ENDBRANCH   2   3
ENDBRANCH   1   2
BRANCH   1  24
ATOM     24  C   UNL A   1      33.162  29.199  25.614  1.00  0.00     0.118 C 
BRANCH  24  25
ATOM     25  N   UNL A   1      32.733  30.487  26.117  1.00  0.00    -0.352 N 
ATOM     26  C   UNL A   1      33.325  31.272  27.089  1.00  0.00     0.251 C 
ATOM     27  H   UNL A   1      31.913  30.852  25.714  1.00  0.00     0.163 HD
ATOM     28  O   UNL A   1      32.710  32.249  27.512  1.00  0.00    -0.269 OA
BRANCH  26  29
ATOM     29  C   UNL A   1      34.663  30.955  27.665  1.00  0.00     0.039 A 
ATOM     30  C   UNL A   1      34.858  29.700  28.253  1.00  0.00     0.014 A 
ATOM     31  C   UNL A   1      35.672  31.918  27.777  1.00  0.00     0.014 A 
ATOM     32  C   UNL A   1      36.058  29.401  28.917  1.00  0.00     0.010 A 
ATOM     33  C   UNL A   1      36.885  31.608  28.429  1.00  0.00     0.010 A 
ATOM     34  C   UNL A   1      37.096  30.345  29.010  1.00  0.00    -0.014 A 
BRANCH  34  35
ATOM     35  C   UNL A   1      38.379  29.966  29.689  1.00  0.00     0.031 A 
ATOM     36  C   UNL A   1      38.728  30.464  31.073  1.00  0.00     0.074 A 
ATOM     37  C   UNL A   1      39.231  29.120  29.071  1.00  0.00     0.049 A 
ATOM     38  N   UNL A   1      39.725  30.115  31.853  1.00  0.00    -0.248 NA
ATOM     39  C   UNL A   1      37.854  31.494  31.645  1.00  0.00     0.031 C 
ATOM     40  C   UNL A   1      39.049  28.593  27.718  1.00  0.00     0.029 A 
ATOM     41  N   UNL A   1      40.402  28.537  29.498  1.00  0.00    -0.354 N 
ATOM     42  C   UNL A   1      39.592  30.872  33.015  1.00  0.00     0.074 A 
ATOM     43  C   UNL A   1      38.450  31.740  32.806  1.00  0.00     0.031 C 
ATOM     44  C   UNL A   1      40.044  27.734  27.443  1.00  0.00     0.029 A 
ATOM     45  C   UNL A   1      40.952  27.663  28.584  1.00  0.00     0.049 A 
ATOM     46  H   UNL A   1      40.809  28.725  30.374  1.00  0.00     0.167 HD
ATOM     47  C   UNL A   1      40.335  30.834  34.155  1.00  0.00     0.034 A 
ATOM     48  C   UNL A   1      42.050  26.882  28.654  1.00  0.00     0.034 A 
ATOM     49  C   UNL A   1      41.484  29.977  34.352  1.00  0.00     0.049 A 
ATOM     50  C   UNL A   1      42.863  26.862  29.925  1.00  0.00     0.074 A 
ATOM     51  C   UNL A   1      42.274  29.837  35.483  1.00  0.00     0.029 A 
ATOM     52  N   UNL A   1      42.023  29.125  33.395  1.00  0.00    -0.354 N 
ATOM     53  N   UNL A   1      42.673  27.528  31.041  1.00  0.00    -0.248 NA
ATOM     54  C   UNL A   1      44.026  25.965  29.951  1.00  0.00     0.031 C 
ATOM     55  C   UNL A   1      43.327  28.962  35.186  1.00  0.00     0.029 A 
ATOM     56  C   UNL A   1      43.149  28.485  33.898  1.00  0.00     0.049 A 
ATOM     57  H   UNL A   1      41.658  28.993  32.490  1.00  0.00     0.167 HD
ATOM     58  C   UNL A   1      43.677  27.105  31.910  1.00  0.00     0.074 A 
ATOM     59  C   UNL A   1      44.447  26.107  31.198  1.00  0.00     0.031 C 
ATOM     60  C   UNL A   1      43.935  27.506  33.182  1.00  0.00     0.034 A 
BRANCH  47  61
ATOM     61  C   UNL A   1      39.939  31.772  35.278  1.00  0.00     0.023 A 
ATOM     62  C   UNL A   1      39.066  31.371  36.305  1.00  0.00     0.031 A 
ATOM     63  C   UNL A   1      40.438  33.087  35.324  1.00  0.00     0.131 A 
ATOM     64  C   UNL A   1      38.661  32.289  37.287  1.00  0.00     0.055 A 
ATOM     65  C   UNL A   1      40.095  33.973  36.349  1.00  0.00     0.041 A 
ATOM     66  F   UNL A   1      41.266  33.539  34.368  1.00  0.00    -0.206 F 
ATOM     67  C   UNL A   1      39.190  33.582  37.329  1.00  0.00     0.022 A 
BRANCH  64  68
ATOM     68  S   UNL A   1      37.330  31.817  38.425  1.00  0.00     0.124 S 
ATOM     69  O   UNL A   1      36.311  32.815  38.117  1.00  0.00    -0.237 OA
ATOM     70  O   UNL A   1      37.034  30.450  38.011  1.00  0.00    -0.237 OA
ATOM     71  O   UNL A   1      37.945  31.949  39.745  1.00  0.00    -0.744 OA
ENDBRANCH  64  68
ENDBRANCH  47  61
BRANCH  48  72
ATOM     72  C   UNL A   1      42.453  26.038  27.489  1.00  0.00     0.023 A 
ATOM     73  C   UNL A   1      42.037  24.700  27.375  1.00  0.00     0.031 A 
ATOM     74  C   UNL A   1      43.307  26.546  26.494  1.00  0.00     0.131 A 
ATOM     75  C   UNL A   1      42.513  23.905  26.321  1.00  0.00     0.055 A 
ATOM     76  C   UNL A   1      43.732  25.767  25.416  1.00  0.00     0.041 A 
ATOM     77  F   UNL A   1      43.736  27.817  26.552  1.00  0.00    -0.206 F 
ATOM     78  C   UNL A   1      43.346  24.433  25.332  1.00  0.00     0.022 A 
BRANCH  75  79
ATOM     79  S   UNL A   1      42.101  22.137  26.305  1.00  0.00     0.124 S 
ATOM     80  O   UNL A   1      40.651  22.171  26.151  1.00  0.00    -0.237 OA
ATOM     81  O   UNL A   1      42.859  21.660  25.154  1.00  0.00    -0.237 OA
ATOM     82  O   UNL A   1      42.579  21.665  27.603  1.00  0.00    -0.744 OA
ENDBRANCH  75  79
ENDBRANCH  48  72
BRANCH  60  83
ATOM     83  C   UNL A   1      45.089  26.829  33.892  1.00  0.00     0.023 A 
ATOM     84  C   UNL A   1      44.898  25.691  34.699  1.00  0.00     0.031 A 
ATOM     85  C   UNL A   1      46.388  27.360  33.806  1.00  0.00     0.131 A 
ATOM     86  C   UNL A   1      45.964  25.177  35.452  1.00  0.00     0.055 A 
ATOM     87  C   UNL A   1      47.462  26.799  34.500  1.00  0.00     0.041 A 
ATOM     88  F   UNL A   1      46.636  28.445  33.055  1.00  0.00    -0.206 F 
ATOM     89  C   UNL A   1      47.250  25.714  35.345  1.00  0.00     0.022 A 
BRANCH  86  90
ATOM     90  S   UNL A   1      45.621  23.886  36.682  1.00  0.00     0.124 S 
ATOM     91  O   UNL A   1      46.919  23.732  37.331  1.00  0.00    -0.237 OA
ATOM     92  O   UNL A   1      44.572  24.499  37.491  1.00  0.00    -0.237 OA
ATOM     93  O   UNL A   1      45.193  22.746  35.873  1.00  0.00    -0.744 OA
ENDBRANCH  86  90
ENDBRANCH  60  83
ENDBRANCH  34  35
ENDBRANCH  26  29
ENDBRANCH  24  25
ENDBRANCH   1  24
TORSDOF 17
ENDMDL
MODEL 3
REMARK VINA RESULT:     -11.6      4.131      7.226
REMARK SMILES CC[C@@](C)(NS(=O)(=O)c1ccc(F)c(F)c1)C(=O)NCCCNC(=O)c1ccc(-c2c3nc(c(-c4cc(S(=O)(=O)[O-])ccc4F)c4ccc([nH]4)c(-c4cc(S(=O)(=O)[O-])ccc4F)c4nc(c(-c5cc(S(=O)(=O)[O-])ccc5F)c5ccc2[nH]5)C=C4)C=C3)cc1
REMARK SMILES IDX 21 1 20 2 19 3 17 4 18 5 3 7 4 8 2 9 1 10 5 11 6 13 7 14
REMARK SMILES IDX 8 15 9 16 10 17 16 18 11 19 14 20 12 21 15 22 13 23 22 24
REMARK SMILES IDX 23 25 24 26 25 28 26 29 27 30 88 31 28 32 87 33 29 34 30 35
REMARK SMILES IDX 31 36 81 37 32 38 86 39 80 40 82 41 33 42 85 43 79 44 78 45
REMARK SMILES IDX 34 47 66 48 46 49 65 50 47 51 50 52 64 53 83 54 48 55 49 56
REMARK SMILES IDX 63 58 84 59 51 60 35 61 36 62 44 63 37 64 43 65 45 66 42 67
REMARK SMILES IDX 38 68 39 69 40 70 41 71 67 72 68 73 76 74 69 75 75 76 77 77
REMARK SMILES IDX 74 78 70 79 71 80 72 81 73 82 52 83 53 84 61 85 54 86 60 87
REMARK SMILES IDX 62 88 59 89 55 90 56 91 57 92 58 93
REMARK H PARENT 19 6 5 12 23 27 82 46 50 57
REMARK Flexibility Score: inf
ROOT
ATOM      1  C   UNL A   1      34.236  34.726  28.065  1.00  0.00     0.042 C 
ENDROOT
BRANCH   1   2
ATOM      2  C   UNL A   1      32.907  35.339  28.595  1.00  0.00     0.117 C 
BRANCH   2   3
ATOM      3  N   UNL A   1      32.868  36.485  29.504  1.00  0.00    -0.354 N 
ATOM      4  C   UNL A   1      33.142  36.771  30.814  1.00  0.00     0.241 C 
ATOM      5  O   UNL A   1      33.116  37.987  31.065  1.00  0.00    -0.273 OA
ATOM      6  H   UNL A   1      32.549  37.289  29.033  1.00  0.00     0.163 HD
BRANCH   4   7
ATOM      7  C   UNL A   1      33.368  35.772  31.980  1.00  0.00     0.108 C 
ATOM      8  C   UNL A   1      34.115  36.408  33.156  1.00  0.00     0.040 C 
BRANCH   7   9
ATOM      9  C   UNL A   1      31.979  35.242  32.536  1.00  0.00     0.030 C 
ATOM     10  C   UNL A   1      30.926  36.238  32.997  1.00  0.00     0.006 C 
ENDBRANCH   7   9
BRANCH   7  11
ATOM     11  N   UNL A   1      34.004  34.482  31.611  1.00  0.00    -0.196 NA
ATOM     12  H   UNL A   1      34.755  34.756  30.978  1.00  0.00     0.142 HD
BRANCH  11  13
ATOM     13  S   UNL A   1      34.682  33.299  32.542  1.00  0.00     0.241 S 
ATOM     14  O   UNL A   1      34.081  33.377  33.856  1.00  0.00    -0.207 OA
ATOM     15  O   UNL A   1      34.531  32.109  31.745  1.00  0.00    -0.207 OA
BRANCH  13  16
ATOM     16  C   UNL A   1      36.431  33.598  32.704  1.00  0.00     0.085 A 
ATOM     17  C   UNL A   1      37.024  33.703  33.965  1.00  0.00     0.025 A 
ATOM     18  C   UNL A   1      37.174  33.985  31.593  1.00  0.00     0.064 A 
ATOM     19  C   UNL A   1      38.350  34.162  34.077  1.00  0.00     0.044 A 
ATOM     20  C   UNL A   1      38.488  34.408  31.696  1.00  0.00     0.160 A 
ATOM     21  C   UNL A   1      39.077  34.504  32.938  1.00  0.00     0.158 A 
ATOM     22  F   UNL A   1      39.141  34.775  30.585  1.00  0.00    -0.204 F 
ATOM     23  F   UNL A   1      40.328  34.966  33.053  1.00  0.00    -0.204 F 
ENDBRANCH  13  16
ENDBRANCH  11  13
ENDBRANCH   7  11
ENDBRANCH   4   7
ENDBRANCH   2   3
ENDBRANCH   1   2
BRANCH   1  24
ATOM     24  C   UNL A   1      34.764  33.308  28.360  1.00  0.00     0.118 C 
BRANCH  24  25
ATOM     25  N   UNL A   1      33.924  32.217  27.910  1.00  0.00    -0.352 N 
ATOM     26  C   UNL A   1      34.268  30.894  27.705  1.00  0.00     0.251 C 
ATOM     27  H   UNL A   1      32.985  32.449  27.727  1.00  0.00     0.163 HD
ATOM     28  O   UNL A   1      33.460  30.156  27.143  1.00  0.00    -0.269 OA
BRANCH  26  29
ATOM     29  C   UNL A   1      35.592  30.342  28.108  1.00  0.00     0.039 A 
ATOM     30  C   UNL A   1      35.726  29.797  29.391  1.00  0.00     0.014 A 
ATOM     31  C   UNL A   1      36.734  30.491  27.314  1.00  0.00     0.014 A 
ATOM     32  C   UNL A   1      36.981  29.377  29.860  1.00  0.00     0.010 A 
ATOM     33  C   UNL A   1      37.992  30.051  27.782  1.00  0.00     0.010 A 
ATOM     34  C   UNL A   1      38.134  29.489  29.063  1.00  0.00    -0.014 A 
BRANCH  34  35
ATOM     35  C   UNL A   1      39.446  28.985  29.588  1.00  0.00     0.031 A 
ATOM     36  C   UNL A   1      40.089  29.570  30.825  1.00  0.00     0.074 A 
ATOM     37  C   UNL A   1      40.054  27.950  28.970  1.00  0.00     0.049 A 
ATOM     38  N   UNL A   1      41.143  29.154  31.488  1.00  0.00    -0.248 NA
ATOM     39  C   UNL A   1      39.478  30.785  31.377  1.00  0.00     0.031 C 
ATOM     40  C   UNL A   1      39.576  27.313  27.743  1.00  0.00     0.029 A 
ATOM     41  N   UNL A   1      41.186  27.236  29.293  1.00  0.00    -0.354 N 
ATOM     42  C   UNL A   1      41.315  30.045  32.544  1.00  0.00     0.074 A 
ATOM     43  C   UNL A   1      40.289  31.058  32.392  1.00  0.00     0.031 C 
ATOM     44  C   UNL A   1      40.378  26.280  27.441  1.00  0.00     0.029 A 
ATOM     45  C   UNL A   1      41.445  26.190  28.434  1.00  0.00     0.049 A 
ATOM     46  H   UNL A   1      41.757  27.452  30.065  1.00  0.00     0.167 HD
ATOM     47  C   UNL A   1      42.226  30.015  33.555  1.00  0.00     0.034 A 
ATOM     48  C   UNL A   1      42.417  25.254  28.444  1.00  0.00     0.034 A 
ATOM     49  C   UNL A   1      43.258  29.010  33.693  1.00  0.00     0.049 A 
ATOM     50  C   UNL A   1      43.421  25.244  29.570  1.00  0.00     0.074 A 
ATOM     51  C   UNL A   1      44.199  28.870  34.702  1.00  0.00     0.029 A 
ATOM     52  N   UNL A   1      43.503  27.982  32.790  1.00  0.00    -0.354 N 
ATOM     53  N   UNL A   1      43.517  26.051  30.602  1.00  0.00    -0.248 NA
ATOM     54  C   UNL A   1      44.433  24.180  29.545  1.00  0.00     0.031 C 
ATOM     55  C   UNL A   1      45.052  27.810  34.373  1.00  0.00     0.029 A 
ATOM     56  C   UNL A   1      44.596  27.229  33.202  1.00  0.00     0.049 A 
ATOM     57  H   UNL A   1      42.977  27.812  31.976  1.00  0.00     0.167 HD
ATOM     58  C   UNL A   1      44.583  25.571  31.361  1.00  0.00     0.074 A 
ATOM     59  C   UNL A   1      45.073  24.389  30.684  1.00  0.00     0.031 C 
ATOM     60  C   UNL A   1      45.104  26.063  32.515  1.00  0.00     0.034 A 
BRANCH  47  61
ATOM     61  C   UNL A   1      42.161  31.122  34.588  1.00  0.00     0.023 A 
ATOM     62  C   UNL A   1      42.901  32.310  34.447  1.00  0.00     0.031 A 
ATOM     63  C   UNL A   1      41.352  30.990  35.732  1.00  0.00     0.131 A 
ATOM     64  C   UNL A   1      42.876  33.282  35.460  1.00  0.00     0.055 A 
ATOM     65  C   UNL A   1      41.268  31.996  36.699  1.00  0.00     0.041 A 
ATOM     66  F   UNL A   1      40.629  29.877  35.935  1.00  0.00    -0.206 F 
ATOM     67  C   UNL A   1      42.045  33.143  36.574  1.00  0.00     0.022 A 
BRANCH  64  68
ATOM     68  S   UNL A   1      44.048  34.663  35.370  1.00  0.00     0.124 S 
ATOM     69  O   UNL A   1      43.812  35.163  34.019  1.00  0.00    -0.237 OA
ATOM     70  O   UNL A   1      43.603  35.525  36.459  1.00  0.00    -0.237 OA
ATOM     71  O   UNL A   1      45.348  34.024  35.572  1.00  0.00    -0.744 OA
ENDBRANCH  64  68
ENDBRANCH  47  61
BRANCH  48  72
ATOM     72  C   UNL A   1      42.496  24.233  27.356  1.00  0.00     0.023 A 
ATOM     73  C   UNL A   1      41.680  23.088  27.367  1.00  0.00     0.031 A 
ATOM     74  C   UNL A   1      43.430  24.363  26.313  1.00  0.00     0.131 A 
ATOM     75  C   UNL A   1      41.847  22.099  26.384  1.00  0.00     0.055 A 
ATOM     76  C   UNL A   1      43.552  23.404  25.306  1.00  0.00     0.041 A 
ATOM     77  F   UNL A   1      44.235  25.436  26.253  1.00  0.00    -0.206 F 
ATOM     78  C   UNL A   1      42.768  22.256  25.346  1.00  0.00     0.022 A 
BRANCH  75  79
ATOM     79  S   UNL A   1      40.905  20.555  26.531  1.00  0.00     0.124 S 
ATOM     80  O   UNL A   1      39.603  20.950  26.004  1.00  0.00    -0.237 OA
ATOM     81  O   UNL A   1      41.685  19.644  25.701  1.00  0.00    -0.237 OA
ATOM     82  O   UNL A   1      40.938  20.271  27.964  1.00  0.00    -0.744 OA
ENDBRANCH  75  79
ENDBRANCH  48  72
BRANCH  60  83
ATOM     83  C   UNL A   1      46.253  25.291  33.130  1.00  0.00     0.023 A 
ATOM     84  C   UNL A   1      46.036  24.201  33.996  1.00  0.00     0.031 A 
ATOM     85  C   UNL A   1      47.582  25.683  32.893  1.00  0.00     0.131 A 
ATOM     86  C   UNL A   1      47.119  23.602  34.657  1.00  0.00     0.055 A 
ATOM     87  C   UNL A   1      48.662  25.034  33.496  1.00  0.00     0.041 A 
ATOM     88  F   UNL A   1      47.857  26.715  32.080  1.00  0.00    -0.206 F 
ATOM     89  C   UNL A   1      48.432  24.001  34.400  1.00  0.00     0.022 A 
BRANCH  86  90
ATOM     90  S   UNL A   1      46.779  22.389  35.964  1.00  0.00     0.124 S 
ATOM     91  O   UNL A   1      45.658  21.642  35.402  1.00  0.00    -0.237 OA
ATOM     92  O   UNL A   1      48.045  21.668  36.055  1.00  0.00    -0.237 OA
ATOM     93  O   UNL A   1      46.453  23.217  37.125  1.00  0.00    -0.744 OA
ENDBRANCH  86  90
ENDBRANCH  60  83
ENDBRANCH  34  35
ENDBRANCH  26  29
ENDBRANCH  24  25
ENDBRANCH   1  24
TORSDOF 17
ENDMDL
