MODEL 1
REMARK VINA RESULT:     -12.6      0.000      0.000
REMARK SMILES C[C@H]1[C@@H](C(=O)NCCCNC(=O)c2ccc(-c3c4nc(c(-c5cc(S(=O)(=O)[O-])ccc5F)c5ccc([nH]5)c(-c5cc(S(=O)(=O)[O-])ccc5F)c5nc(c(-c6cc(S(=O)(=O)[O-])ccc6F)c6ccc3[nH]6)C=C5)C=C4)cc2)CCN1C(=O)N[C@@H]1CC[N@H+]2CCCC[C@H]12
REMARK SMILES IDX 8 1 7 2 6 3 4 4 5 5 3 7 1 8 2 9 78 10 76 11 77 12 79 13
REMARK SMILES IDX 80 14 81 15 82 17 83 18 90 19 84 20 85 21 89 22 86 23 88 25
REMARK SMILES IDX 87 26 9 27 10 28 11 29 12 31 13 32 14 33 75 34 15 35 74 36
REMARK SMILES IDX 16 37 17 38 18 39 68 40 19 41 73 42 67 43 69 44 20 45 72 46
REMARK SMILES IDX 66 47 65 48 21 50 53 51 33 52 52 53 34 54 37 55 51 56 70 57
REMARK SMILES IDX 35 58 36 59 50 61 71 62 38 63 22 64 23 65 31 66 24 67 30 68
REMARK SMILES IDX 32 69 29 70 25 71 26 72 27 73 28 74 54 75 55 76 63 77 56 78
REMARK SMILES IDX 62 79 64 80 61 81 57 82 58 83 59 84 60 85 39 86 40 87 48 88
REMARK SMILES IDX 41 89 47 90 49 91 46 92 42 93 43 94 44 95 45 96
REMARK H PARENT 6 6 81 16 85 24 10 30 69 49 37 60
REMARK Flexibility Score: inf
ROOT
ATOM      1  C   UNL A   1      31.336  32.145  26.499  1.00  0.00     0.042 C 
ENDROOT
BRANCH   1   2
ATOM      2  C   UNL A   1      31.361  30.769  25.822  1.00  0.00     0.117 C 
BRANCH   2   3
ATOM      3  N   UNL A   1      30.589  30.756  24.585  1.00  0.00    -0.356 N 
ATOM      4  C   UNL A   1      30.308  29.767  23.686  1.00  0.00     0.225 C 
ATOM      5  O   UNL A   1      29.606  30.089  22.724  1.00  0.00    -0.275 OA
ATOM      6  H   UNL A   1      30.195  31.627  24.354  1.00  0.00     0.163 HD
BRANCH   4   7
ATOM      7  C   UNL A   1      30.751  28.321  23.904  1.00  0.00     0.102 C 
ATOM      8  C   UNL A   1      32.962  28.841  22.618  1.00  0.00     0.032 C 
ATOM      9  C   UNL A   1      32.222  27.962  23.620  1.00  0.00     0.096 C 
ATOM     10  N   UNL A   1      32.192  26.605  23.091  1.00  0.00    -0.321 N 
ATOM     11  C   UNL A   1      29.936  27.292  23.085  1.00  0.00     0.037 C 
ATOM     12  C   UNL A   1      30.957  26.437  22.353  1.00  0.00     0.122 C 
BRANCH  10  13
ATOM     13  C   UNL A   1      33.246  25.781  22.809  1.00  0.00     0.318 C 
ATOM     14  O   UNL A   1      33.812  25.818  21.713  1.00  0.00    -0.249 OA
ATOM     15  N   UNL A   1      33.757  24.929  23.725  1.00  0.00    -0.329 N 
ATOM     16  H   UNL A   1      34.683  24.663  23.522  1.00  0.00     0.165 HD
BRANCH  15  17
ATOM     17  C   UNL A   1      33.252  24.310  24.947  1.00  0.00     0.147 C 
ATOM     18  C   UNL A   1      34.267  24.372  26.103  1.00  0.00     0.092 C 
ATOM     19  C   UNL A   1      32.937  22.802  24.829  1.00  0.00     0.207 C 
ATOM     20  C   UNL A   1      34.254  22.985  26.735  1.00  0.00     0.264 C 
ATOM     21  N   UNL A   1      34.018  22.143  25.574  1.00  0.00    -0.331 N 
ATOM     22  C   UNL A   1      32.835  22.174  23.446  1.00  0.00     0.067 C 
ATOM     23  C   UNL A   1      33.680  20.758  25.880  1.00  0.00     0.262 C 
ATOM     24  H   UNL A   1      34.881  22.061  25.036  1.00  0.00     0.348 HD
ATOM     25  C   UNL A   1      32.526  20.680  23.601  1.00  0.00     0.012 C 
ATOM     26  C   UNL A   1      33.503  19.992  24.563  1.00  0.00     0.062 C 
ENDBRANCH  15  17
ENDBRANCH  10  13
ENDBRANCH   4   7
ENDBRANCH   2   3
ENDBRANCH   1   2
BRANCH   1  27
ATOM     27  C   UNL A   1      32.641  32.583  27.151  1.00  0.00     0.118 C 
BRANCH  27  28
ATOM     28  N   UNL A   1      32.600  33.964  27.585  1.00  0.00    -0.352 N 
ATOM     29  C   UNL A   1      33.196  34.631  28.629  1.00  0.00     0.251 C 
ATOM     30  H   UNL A   1      32.032  34.539  27.022  1.00  0.00     0.163 HD
ATOM     31  O   UNL A   1      32.767  35.758  28.880  1.00  0.00    -0.269 OA
BRANCH  29  32
ATOM     32  C   UNL A   1      34.296  34.071  29.471  1.00  0.00     0.039 A 
ATOM     33  C   UNL A   1      35.614  34.396  29.114  1.00  0.00     0.014 A 
ATOM     34  C   UNL A   1      34.106  33.156  30.509  1.00  0.00     0.014 A 
ATOM     35  C   UNL A   1      36.708  33.829  29.785  1.00  0.00     0.010 A 
ATOM     36  C   UNL A   1      35.196  32.663  31.243  1.00  0.00     0.010 A 
ATOM     37  C   UNL A   1      36.513  32.966  30.874  1.00  0.00    -0.014 A 
BRANCH  37  38
ATOM     38  C   UNL A   1      37.672  32.335  31.577  1.00  0.00     0.031 A 
ATOM     39  C   UNL A   1      38.441  31.205  30.928  1.00  0.00     0.074 A 
ATOM     40  C   UNL A   1      38.032  32.754  32.807  1.00  0.00     0.049 A 
ATOM     41  N   UNL A   1      39.442  30.501  31.397  1.00  0.00    -0.248 NA
ATOM     42  C   UNL A   1      38.003  30.796  29.586  1.00  0.00     0.031 C 
ATOM     43  C   UNL A   1      37.359  33.808  33.569  1.00  0.00     0.029 A 
ATOM     44  N   UNL A   1      39.047  32.344  33.637  1.00  0.00    -0.354 N 
ATOM     45  C   UNL A   1      39.742  29.558  30.416  1.00  0.00     0.074 A 
ATOM     46  C   UNL A   1      38.771  29.740  29.358  1.00  0.00     0.031 C 
ATOM     47  C   UNL A   1      37.993  33.979  34.740  1.00  0.00     0.029 A 
ATOM     48  C   UNL A   1      39.091  33.021  34.835  1.00  0.00     0.049 A 
ATOM     49  H   UNL A   1      39.685  31.634  33.398  1.00  0.00     0.167 HD
ATOM     50  C   UNL A   1      40.746  28.643  30.384  1.00  0.00     0.034 A 
ATOM     51  C   UNL A   1      39.912  32.884  35.897  1.00  0.00     0.034 A 
ATOM     52  C   UNL A   1      41.723  28.479  31.435  1.00  0.00     0.049 A 
ATOM     53  C   UNL A   1      41.017  31.860  35.844  1.00  0.00     0.074 A 
ATOM     54  C   UNL A   1      42.806  27.618  31.481  1.00  0.00     0.029 A 
ATOM     55  N   UNL A   1      41.736  29.191  32.628  1.00  0.00    -0.354 N 
ATOM     56  N   UNL A   1      41.308  31.005  34.890  1.00  0.00    -0.248 NA
ATOM     57  C   UNL A   1      41.913  31.794  37.006  1.00  0.00     0.031 C 
ATOM     58  C   UNL A   1      43.434  27.762  32.723  1.00  0.00     0.029 A 
ATOM     59  C   UNL A   1      42.791  28.768  33.425  1.00  0.00     0.049 A 
ATOM     60  H   UNL A   1      41.090  29.892  32.873  1.00  0.00     0.167 HD
ATOM     61  C   UNL A   1      42.434  30.316  35.331  1.00  0.00     0.074 A 
ATOM     62  C   UNL A   1      42.783  30.872  36.622  1.00  0.00     0.031 C 
ATOM     63  C   UNL A   1      43.120  29.314  34.722  1.00  0.00     0.034 A 
BRANCH  50  64
ATOM     64  C   UNL A   1      40.819  27.736  29.175  1.00  0.00     0.023 A 
ATOM     65  C   UNL A   1      41.757  27.947  28.148  1.00  0.00     0.031 A 
ATOM     66  C   UNL A   1      39.918  26.665  29.028  1.00  0.00     0.131 A 
ATOM     67  C   UNL A   1      41.716  27.161  26.986  1.00  0.00     0.055 A 
ATOM     68  C   UNL A   1      39.941  25.830  27.907  1.00  0.00     0.041 A 
ATOM     69  F   UNL A   1      38.989  26.420  29.964  1.00  0.00    -0.206 F 
ATOM     70  C   UNL A   1      40.831  26.087  26.869  1.00  0.00     0.022 A 
BRANCH  67  71
ATOM     71  S   UNL A   1      42.728  27.664  25.567  1.00  0.00     0.124 S 
ATOM     72  O   UNL A   1      41.993  28.829  25.080  1.00  0.00    -0.237 OA
ATOM     73  O   UNL A   1      44.022  27.933  26.180  1.00  0.00    -0.237 OA
ATOM     74  O   UNL A   1      42.684  26.497  24.684  1.00  0.00    -0.744 OA
ENDBRANCH  67  71
ENDBRANCH  50  64
BRANCH  51  75
ATOM     75  C   UNL A   1      39.718  33.727  37.112  1.00  0.00     0.023 A 
ATOM     76  C   UNL A   1      39.033  33.240  38.235  1.00  0.00     0.031 A 
ATOM     77  C   UNL A   1      40.190  35.052  37.151  1.00  0.00     0.131 A 
ATOM     78  C   UNL A   1      38.801  34.081  39.335  1.00  0.00     0.055 A 
ATOM     79  C   UNL A   1      40.001  35.870  38.267  1.00  0.00     0.041 A 
ATOM     80  F   UNL A   1      40.856  35.567  36.105  1.00  0.00    -0.206 F 
ATOM     81  C   UNL A   1      39.293  35.388  39.363  1.00  0.00     0.022 A 
BRANCH  78  82
ATOM     82  S   UNL A   1      37.784  33.464  40.704  1.00  0.00     0.124 S 
ATOM     83  O   UNL A   1      36.572  33.045  40.010  1.00  0.00    -0.237 OA
ATOM     84  O   UNL A   1      38.618  32.394  41.242  1.00  0.00    -0.237 OA
ATOM     85  O   UNL A   1      37.636  34.631  41.572  1.00  0.00    -0.744 OA
ENDBRANCH  78  82
ENDBRANCH  51  75
BRANCH  63  86
ATOM     86  C   UNL A   1      44.338  28.783  35.441  1.00  0.00     0.023 A 
ATOM     87  C   UNL A   1      44.242  27.759  36.400  1.00  0.00     0.031 A 
ATOM     88  C   UNL A   1      45.607  29.331  35.185  1.00  0.00     0.131 A 
ATOM     89  C   UNL A   1      45.382  27.360  37.114  1.00  0.00     0.055 A 
ATOM     90  C   UNL A   1      46.748  28.887  35.855  1.00  0.00     0.041 A 
ATOM     91  F   UNL A   1      45.759  30.313  34.282  1.00  0.00    -0.206 F 
ATOM     92  C   UNL A   1      46.637  27.907  36.837  1.00  0.00     0.022 A 
BRANCH  89  93
ATOM     93  S   UNL A   1      45.184  26.193  38.489  1.00  0.00     0.124 S 
ATOM     94  O   UNL A   1      43.859  26.539  38.993  1.00  0.00    -0.237 OA
ATOM     95  O   UNL A   1      45.295  24.901  37.818  1.00  0.00    -0.237 OA
ATOM     96  O   UNL A   1      46.293  26.524  39.382  1.00  0.00    -0.744 OA
ENDBRANCH  89  93
ENDBRANCH  63  86
ENDBRANCH  37  38
ENDBRANCH  29  32
ENDBRANCH  27  28
ENDBRANCH   1  27
TORSDOF 15
ENDMDL
MODEL 2
REMARK VINA RESULT:     -12.5      5.718     11.839
REMARK SMILES C[C@H]1[C@@H](C(=O)NCCCNC(=O)c2ccc(-c3c4nc(c(-c5cc(S(=O)(=O)[O-])ccc5F)c5ccc([nH]5)c(-c5cc(S(=O)(=O)[O-])ccc5F)c5nc(c(-c6cc(S(=O)(=O)[O-])ccc6F)c6ccc3[nH]6)C=C5)C=C4)cc2)CCN1C(=O)N[C@@H]1CC[N@H+]2CCCC[C@H]12
REMARK SMILES IDX 8 1 7 2 6 3 4 4 5 5 3 7 1 8 2 9 78 10 76 11 77 12 79 13
REMARK SMILES IDX 80 14 81 15 82 17 83 18 90 19 84 20 85 21 89 22 86 23 88 25
REMARK SMILES IDX 87 26 9 27 10 28 11 29 12 31 13 32 14 33 75 34 15 35 74 36
REMARK SMILES IDX 16 37 17 38 18 39 68 40 19 41 73 42 67 43 69 44 20 45 72 46
REMARK SMILES IDX 66 47 65 48 21 50 53 51 33 52 52 53 34 54 37 55 51 56 70 57
REMARK SMILES IDX 35 58 36 59 50 61 71 62 38 63 22 64 23 65 31 66 24 67 30 68
REMARK SMILES IDX 32 69 29 70 25 71 26 72 27 73 28 74 54 75 55 76 63 77 56 78
REMARK SMILES IDX 62 79 64 80 61 81 57 82 58 83 59 84 60 85 39 86 40 87 48 88
REMARK SMILES IDX 41 89 47 90 49 91 46 92 42 93 43 94 44 95 45 96
REMARK H PARENT 6 6 81 16 85 24 10 30 69 49 37 60
REMARK Flexibility Score: inf
ROOT
ATOM      1  C   UNL A   1      38.038  19.642  25.001  1.00  0.00     0.042 C 
ENDROOT
BRANCH   1   2
ATOM      2  C   UNL A   1      36.704  20.397  24.967  1.00  0.00     0.117 C 
BRANCH   2   3
ATOM      3  N   UNL A   1      35.563  19.491  25.000  1.00  0.00    -0.356 N 
ATOM      4  C   UNL A   1      34.217  19.702  24.915  1.00  0.00     0.225 C 
ATOM      5  O   UNL A   1      33.502  18.699  24.973  1.00  0.00    -0.275 OA
ATOM      6  H   UNL A   1      35.810  18.545  25.104  1.00  0.00     0.163 HD
BRANCH   4   7
ATOM      7  C   UNL A   1      33.626  21.090  24.663  1.00  0.00     0.102 C 
ATOM      8  C   UNL A   1      33.663  21.534  27.235  1.00  0.00     0.032 C 
ATOM      9  C   UNL A   1      33.639  22.105  25.822  1.00  0.00     0.096 C 
ATOM     10  N   UNL A   1      32.415  22.878  25.670  1.00  0.00    -0.321 N 
ATOM     11  C   UNL A   1      32.153  21.060  24.191  1.00  0.00     0.037 C 
ATOM     12  C   UNL A   1      31.401  22.010  25.108  1.00  0.00     0.122 C 
BRANCH  10  13
ATOM     13  C   UNL A   1      32.021  23.989  26.364  1.00  0.00     0.318 C 
ATOM     14  O   UNL A   1      31.357  23.893  27.401  1.00  0.00    -0.249 OA
ATOM     15  N   UNL A   1      32.380  25.236  25.989  1.00  0.00    -0.329 N 
ATOM     16  H   UNL A   1      32.331  25.884  26.728  1.00  0.00     0.165 HD
BRANCH  15  17
ATOM     17  C   UNL A   1      32.824  25.844  24.739  1.00  0.00     0.147 C 
ATOM     18  C   UNL A   1      33.949  26.875  24.950  1.00  0.00     0.092 C 
ATOM     19  C   UNL A   1      31.741  26.650  23.988  1.00  0.00     0.207 C 
ATOM     20  C   UNL A   1      33.572  28.076  24.092  1.00  0.00     0.264 C 
ATOM     21  N   UNL A   1      32.122  28.054  24.189  1.00  0.00    -0.331 N 
ATOM     22  C   UNL A   1      30.281  26.472  24.382  1.00  0.00     0.067 C 
ATOM     23  C   UNL A   1      31.431  28.928  23.249  1.00  0.00     0.262 C 
ATOM     24  H   UNL A   1      31.839  28.418  25.099  1.00  0.00     0.348 HD
ATOM     25  C   UNL A   1      29.414  27.379  23.501  1.00  0.00     0.012 C 
ATOM     26  C   UNL A   1      29.922  28.827  23.500  1.00  0.00     0.062 C 
ENDBRANCH  15  17
ENDBRANCH  10  13
ENDBRANCH   4   7
ENDBRANCH   2   3
ENDBRANCH   1   2
BRANCH   1  27
ATOM     27  C   UNL A   1      39.062  20.157  26.005  1.00  0.00     0.118 C 
BRANCH  27  28
ATOM     28  N   UNL A   1      40.211  19.281  26.113  1.00  0.00    -0.352 N 
ATOM     29  C   UNL A   1      41.565  19.519  26.139  1.00  0.00     0.251 C 
ATOM     30  H   UNL A   1      39.976  18.327  26.180  1.00  0.00     0.163 HD
ATOM     31  O   UNL A   1      42.299  18.541  25.988  1.00  0.00    -0.269 OA
BRANCH  29  32
ATOM     32  C   UNL A   1      42.182  20.868  26.313  1.00  0.00     0.039 A 
ATOM     33  C   UNL A   1      42.382  21.324  27.626  1.00  0.00     0.014 A 
ATOM     34  C   UNL A   1      42.459  21.750  25.266  1.00  0.00     0.014 A 
ATOM     35  C   UNL A   1      42.857  22.619  27.879  1.00  0.00     0.010 A 
ATOM     36  C   UNL A   1      43.025  23.009  25.515  1.00  0.00     0.010 A 
ATOM     37  C   UNL A   1      43.203  23.476  26.824  1.00  0.00    -0.014 A 
BRANCH  37  38
ATOM     38  C   UNL A   1      43.683  24.868  27.085  1.00  0.00     0.031 A 
ATOM     39  C   UNL A   1      42.746  25.909  27.656  1.00  0.00     0.074 A 
ATOM     40  C   UNL A   1      44.953  25.215  26.793  1.00  0.00     0.049 A 
ATOM     41  N   UNL A   1      42.963  27.177  27.907  1.00  0.00    -0.248 NA
ATOM     42  C   UNL A   1      41.376  25.469  27.956  1.00  0.00     0.031 C 
ATOM     43  C   UNL A   1      45.956  24.326  26.204  1.00  0.00     0.029 A 
ATOM     44  N   UNL A   1      45.619  26.408  26.946  1.00  0.00    -0.354 N 
ATOM     45  C   UNL A   1      41.755  27.688  28.378  1.00  0.00     0.074 A 
ATOM     46  C   UNL A   1      40.796  26.605  28.311  1.00  0.00     0.031 C 
ATOM     47  C   UNL A   1      47.113  24.994  26.069  1.00  0.00     0.029 A 
ATOM     48  C   UNL A   1      46.928  26.371  26.521  1.00  0.00     0.049 A 
ATOM     49  H   UNL A   1      45.200  27.213  27.326  1.00  0.00     0.167 HD
ATOM     50  C   UNL A   1      41.473  28.931  28.846  1.00  0.00     0.034 A 
ATOM     51  C   UNL A   1      47.873  27.332  26.488  1.00  0.00     0.034 A 
ATOM     52  C   UNL A   1      42.440  30.002  28.927  1.00  0.00     0.049 A 
ATOM     53  C   UNL A   1      47.540  28.708  27.007  1.00  0.00     0.074 A 
ATOM     54  C   UNL A   1      42.272  31.282  29.428  1.00  0.00     0.029 A 
ATOM     55  N   UNL A   1      43.757  29.919  28.493  1.00  0.00    -0.354 N 
ATOM     56  N   UNL A   1      46.403  29.159  27.485  1.00  0.00    -0.248 NA
ATOM     57  C   UNL A   1      48.624  29.699  26.996  1.00  0.00     0.031 C 
ATOM     58  C   UNL A   1      43.464  31.990  29.240  1.00  0.00     0.029 A 
ATOM     59  C   UNL A   1      44.403  31.133  28.691  1.00  0.00     0.049 A 
ATOM     60  H   UNL A   1      44.173  29.118  28.101  1.00  0.00     0.167 HD
ATOM     61  C   UNL A   1      46.644  30.480  27.851  1.00  0.00     0.074 A 
ATOM     62  C   UNL A   1      48.039  30.743  27.563  1.00  0.00     0.031 C 
ATOM     63  C   UNL A   1      45.790  31.394  28.381  1.00  0.00     0.034 A 
BRANCH  50  64
ATOM     64  C   UNL A   1      40.051  29.201  29.288  1.00  0.00     0.023 A 
ATOM     65  C   UNL A   1      39.697  29.249  30.649  1.00  0.00     0.031 A 
ATOM     66  C   UNL A   1      39.028  29.379  28.340  1.00  0.00     0.131 A 
ATOM     67  C   UNL A   1      38.350  29.380  31.020  1.00  0.00     0.055 A 
ATOM     68  C   UNL A   1      37.700  29.597  28.718  1.00  0.00     0.041 A 
ATOM     69  F   UNL A   1      39.297  29.327  27.026  1.00  0.00    -0.206 F 
ATOM     70  C   UNL A   1      37.352  29.580  30.065  1.00  0.00     0.022 A 
BRANCH  67  71
ATOM     71  S   UNL A   1      37.906  29.124  32.761  1.00  0.00     0.124 S 
ATOM     72  O   UNL A   1      39.057  29.704  33.447  1.00  0.00    -0.237 OA
ATOM     73  O   UNL A   1      36.653  29.859  32.879  1.00  0.00    -0.237 OA
ATOM     74  O   UNL A   1      37.791  27.670  32.875  1.00  0.00    -0.744 OA
ENDBRANCH  67  71
ENDBRANCH  50  64
BRANCH  51  75
ATOM     75  C   UNL A   1      49.225  27.040  25.930  1.00  0.00     0.023 A 
ATOM     76  C   UNL A   1      49.574  27.424  24.626  1.00  0.00     0.031 A 
ATOM     77  C   UNL A   1      50.180  26.338  26.688  1.00  0.00     0.131 A 
ATOM     78  C   UNL A   1      50.828  27.070  24.102  1.00  0.00     0.055 A 
ATOM     79  C   UNL A   1      51.444  26.032  26.181  1.00  0.00     0.041 A 
ATOM     80  F   UNL A   1      49.899  25.951  27.943  1.00  0.00    -0.206 F 
ATOM     81  C   UNL A   1      51.769  26.388  24.876  1.00  0.00     0.022 A 
BRANCH  78  82
ATOM     82  S   UNL A   1      51.185  27.453  22.366  1.00  0.00     0.124 S 
ATOM     83  O   UNL A   1      51.190  28.911  22.376  1.00  0.00    -0.237 OA
ATOM     84  O   UNL A   1      52.480  26.808  22.174  1.00  0.00    -0.237 OA
ATOM     85  O   UNL A   1      50.072  26.836  21.645  1.00  0.00    -0.744 OA
ENDBRANCH  78  82
ENDBRANCH  51  75
BRANCH  63  86
ATOM     86  C   UNL A   1      46.360  32.753  28.710  1.00  0.00     0.023 A 
ATOM     87  C   UNL A   1      46.299  33.820  27.796  1.00  0.00     0.031 A 
ATOM     88  C   UNL A   1      46.999  32.975  29.942  1.00  0.00     0.131 A 
ATOM     89  C   UNL A   1      46.924  35.039  28.101  1.00  0.00     0.055 A 
ATOM     90  C   UNL A   1      47.565  34.209  30.265  1.00  0.00     0.041 A 
ATOM     91  F   UNL A   1      47.089  31.992  30.853  1.00  0.00    -0.206 F 
ATOM     92  C   UNL A   1      47.544  35.245  29.336  1.00  0.00     0.022 A 
BRANCH  89  93
ATOM     93  S   UNL A   1      47.012  36.318  26.817  1.00  0.00     0.124 S 
ATOM     94  O   UNL A   1      47.706  37.398  27.511  1.00  0.00    -0.237 OA
ATOM     95  O   UNL A   1      47.767  35.649  25.762  1.00  0.00    -0.237 OA
ATOM     96  O   UNL A   1      45.610  36.584  26.501  1.00  0.00    -0.744 OA
ENDBRANCH  89  93
ENDBRANCH  63  86
ENDBRANCH  37  38
ENDBRANCH  29  32
ENDBRANCH  27  28
ENDBRANCH   1  27
TORSDOF 15
ENDMDL
MODEL 3
REMARK VINA RESULT:     -12.3      5.414      8.991
REMARK SMILES C[C@H]1[C@@H](C(=O)NCCCNC(=O)c2ccc(-c3c4nc(c(-c5cc(S(=O)(=O)[O-])ccc5F)c5ccc([nH]5)c(-c5cc(S(=O)(=O)[O-])ccc5F)c5nc(c(-c6cc(S(=O)(=O)[O-])ccc6F)c6ccc3[nH]6)C=C5)C=C4)cc2)CCN1C(=O)N[C@@H]1CC[N@H+]2CCCC[C@H]12
REMARK SMILES IDX 8 1 7 2 6 3 4 4 5 5 3 7 1 8 2 9 78 10 76 11 77 12 79 13
REMARK SMILES IDX 80 14 81 15 82 17 83 18 90 19 84 20 85 21 89 22 86 23 88 25
REMARK SMILES IDX 87 26 9 27 10 28 11 29 12 31 13 32 14 33 75 34 15 35 74 36
REMARK SMILES IDX 16 37 17 38 18 39 68 40 19 41 73 42 67 43 69 44 20 45 72 46
REMARK SMILES IDX 66 47 65 48 21 50 53 51 33 52 52 53 34 54 37 55 51 56 70 57
REMARK SMILES IDX 35 58 36 59 50 61 71 62 38 63 22 64 23 65 31 66 24 67 30 68
REMARK SMILES IDX 32 69 29 70 25 71 26 72 27 73 28 74 54 75 55 76 63 77 56 78
REMARK SMILES IDX 62 79 64 80 61 81 57 82 58 83 59 84 60 85 39 86 40 87 48 88
REMARK SMILES IDX 41 89 47 90 49 91 46 92 42 93 43 94 44 95 45 96
REMARK H PARENT 6 6 81 16 85 24 10 30 69 49 37 60
REMARK Flexibility Score: inf
ROOT
ATOM      1  C   UNL A   1      35.958  21.604  25.387  1.00  0.00     0.042 C 
ENDROOT
BRANCH   1   2
ATOM      2  C   UNL A   1      34.788  20.910  24.679  1.00  0.00     0.117 C 
BRANCH   2   3
ATOM      3  N   UNL A   1      33.518  21.160  25.350  1.00  0.00    -0.356 N 
ATOM      4  C   UNL A   1      32.461  21.969  25.048  1.00  0.00     0.225 C 
ATOM      5  O   UNL A   1      31.514  21.947  25.838  1.00  0.00    -0.275 OA
ATOM      6  H   UNL A   1      33.401  20.648  26.182  1.00  0.00     0.163 HD
BRANCH   4   7
ATOM      7  C   UNL A   1      32.403  22.782  23.755  1.00  0.00     0.102 C 
ATOM      8  C   UNL A   1      33.761  24.677  24.928  1.00  0.00     0.032 C 
ATOM      9  C   UNL A   1      33.325  24.010  23.629  1.00  0.00     0.096 C 
ATOM     10  N   UNL A   1      32.566  24.984  22.856  1.00  0.00    -0.321 N 
ATOM     11  C   UNL A   1      30.992  23.321  23.423  1.00  0.00     0.037 C 
ATOM     12  C   UNL A   1      31.162  24.810  23.168  1.00  0.00     0.122 C 
BRANCH  10  13
ATOM     13  C   UNL A   1      32.987  26.185  22.357  1.00  0.00     0.318 C 
ATOM     14  O   UNL A   1      34.003  26.268  21.660  1.00  0.00    -0.249 OA
ATOM     15  N   UNL A   1      32.292  27.327  22.551  1.00  0.00    -0.329 N 
ATOM     16  H   UNL A   1      32.501  28.017  21.881  1.00  0.00     0.165 HD
BRANCH  15  17
ATOM     17  C   UNL A   1      31.300  27.773  23.525  1.00  0.00     0.147 C 
ATOM     18  C   UNL A   1      30.403  28.901  22.980  1.00  0.00     0.092 C 
ATOM     19  C   UNL A   1      31.888  28.380  24.818  1.00  0.00     0.207 C 
ATOM     20  C   UNL A   1      30.316  29.932  24.098  1.00  0.00     0.264 C 
ATOM     21  N   UNL A   1      31.636  29.821  24.694  1.00  0.00    -0.331 N 
ATOM     22  C   UNL A   1      33.360  28.160  25.135  1.00  0.00     0.067 C 
ATOM     23  C   UNL A   1      31.788  30.496  25.978  1.00  0.00     0.262 C 
ATOM     24  H   UNL A   1      32.316  30.295  24.099  1.00  0.00     0.348 HD
ATOM     25  C   UNL A   1      33.695  28.862  26.456  1.00  0.00     0.012 C 
ATOM     26  C   UNL A   1      33.236  30.327  26.455  1.00  0.00     0.062 C 
ENDBRANCH  15  17
ENDBRANCH  10  13
ENDBRANCH   4   7
ENDBRANCH   2   3
ENDBRANCH   1   2
BRANCH   1  27
ATOM     27  C   UNL A   1      37.307  21.501  24.685  1.00  0.00     0.118 C 
BRANCH  27  28
ATOM     28  N   UNL A   1      38.192  20.557  25.336  1.00  0.00    -0.352 N 
ATOM     29  C   UNL A   1      39.364  20.710  26.039  1.00  0.00     0.251 C 
ATOM     30  H   UNL A   1      37.896  19.620  25.261  1.00  0.00     0.163 HD
ATOM     31  O   UNL A   1      40.012  19.686  26.258  1.00  0.00    -0.269 OA
BRANCH  29  32
ATOM     32  C   UNL A   1      39.894  22.020  26.521  1.00  0.00     0.039 A 
ATOM     33  C   UNL A   1      39.312  23.186  25.999  1.00  0.00     0.014 A 
ATOM     34  C   UNL A   1      41.002  22.161  27.359  1.00  0.00     0.014 A 
ATOM     35  C   UNL A   1      39.818  24.455  26.318  1.00  0.00     0.010 A 
ATOM     36  C   UNL A   1      41.449  23.432  27.755  1.00  0.00     0.010 A 
ATOM     37  C   UNL A   1      40.886  24.597  27.217  1.00  0.00    -0.014 A 
BRANCH  37  38
ATOM     38  C   UNL A   1      41.451  25.943  27.540  1.00  0.00     0.031 A 
ATOM     39  C   UNL A   1      42.811  26.350  27.018  1.00  0.00     0.074 A 
ATOM     40  C   UNL A   1      40.760  26.801  28.319  1.00  0.00     0.049 A 
ATOM     41  N   UNL A   1      43.488  27.453  27.228  1.00  0.00    -0.248 NA
ATOM     42  C   UNL A   1      43.512  25.374  26.173  1.00  0.00     0.031 C 
ATOM     43  C   UNL A   1      39.454  26.528  28.922  1.00  0.00     0.029 A 
ATOM     44  N   UNL A   1      41.059  28.074  28.742  1.00  0.00    -0.354 N 
ATOM     45  C   UNL A   1      44.697  27.295  26.556  1.00  0.00     0.074 A 
ATOM     46  C   UNL A   1      44.684  25.963  25.990  1.00  0.00     0.031 C 
ATOM     47  C   UNL A   1      39.054  27.607  29.614  1.00  0.00     0.029 A 
ATOM     48  C   UNL A   1      40.090  28.635  29.542  1.00  0.00     0.049 A 
ATOM     49  H   UNL A   1      41.889  28.542  28.495  1.00  0.00     0.167 HD
ATOM     50  C   UNL A   1      45.714  28.182  26.400  1.00  0.00     0.034 A 
ATOM     51  C   UNL A   1      40.038  29.833  30.159  1.00  0.00     0.034 A 
ATOM     52  C   UNL A   1      45.713  29.517  26.952  1.00  0.00     0.049 A 
ATOM     53  C   UNL A   1      41.179  30.802  29.978  1.00  0.00     0.074 A 
ATOM     54  C   UNL A   1      46.669  30.510  26.814  1.00  0.00     0.029 A 
ATOM     55  N   UNL A   1      44.708  30.048  27.750  1.00  0.00    -0.354 N 
ATOM     56  N   UNL A   1      42.296  30.648  29.305  1.00  0.00    -0.248 NA
ATOM     57  C   UNL A   1      41.043  32.112  30.628  1.00  0.00     0.031 C 
ATOM     58  C   UNL A   1      46.274  31.613  27.578  1.00  0.00     0.029 A 
ATOM     59  C   UNL A   1      45.034  31.342  28.132  1.00  0.00     0.049 A 
ATOM     60  H   UNL A   1      43.884  29.575  28.008  1.00  0.00     0.167 HD
ATOM     61  C   UNL A   1      42.985  31.851  29.435  1.00  0.00     0.074 A 
ATOM     62  C   UNL A   1      42.146  32.727  30.227  1.00  0.00     0.031 C 
ATOM     63  C   UNL A   1      44.200  32.202  28.941  1.00  0.00     0.034 A 
BRANCH  50  64
ATOM     64  C   UNL A   1      46.922  27.721  25.614  1.00  0.00     0.023 A 
ATOM     65  C   UNL A   1      47.115  28.091  24.270  1.00  0.00     0.031 A 
ATOM     66  C   UNL A   1      47.879  26.874  26.202  1.00  0.00     0.131 A 
ATOM     67  C   UNL A   1      48.181  27.548  23.537  1.00  0.00     0.055 A 
ATOM     68  C   UNL A   1      48.988  26.406  25.491  1.00  0.00     0.041 A 
ATOM     69  F   UNL A   1      47.744  26.470  27.474  1.00  0.00    -0.206 F 
ATOM     70  C   UNL A   1      49.134  26.728  24.145  1.00  0.00     0.022 A 
BRANCH  67  71
ATOM     71  S   UNL A   1      48.212  27.801  21.741  1.00  0.00     0.124 S 
ATOM     72  O   UNL A   1      48.481  26.449  21.257  1.00  0.00    -0.237 OA
ATOM     73  O   UNL A   1      46.879  28.324  21.472  1.00  0.00    -0.237 OA
ATOM     74  O   UNL A   1      49.308  28.752  21.548  1.00  0.00    -0.744 OA
ENDBRANCH  67  71
ENDBRANCH  50  64
BRANCH  51  75
ATOM     75  C   UNL A   1      38.873  30.187  31.020  1.00  0.00     0.023 A 
ATOM     76  C   UNL A   1      37.856  31.036  30.557  1.00  0.00     0.031 A 
ATOM     77  C   UNL A   1      38.778  29.701  32.337  1.00  0.00     0.131 A 
ATOM     78  C   UNL A   1      36.809  31.410  31.415  1.00  0.00     0.055 A 
ATOM     79  C   UNL A   1      37.709  30.036  33.171  1.00  0.00     0.041 A 
ATOM     80  F   UNL A   1      39.720  28.881  32.828  1.00  0.00    -0.206 F 
ATOM     81  C   UNL A   1      36.723  30.904  32.714  1.00  0.00     0.022 A 
BRANCH  78  82
ATOM     82  S   UNL A   1      35.598  32.626  30.831  1.00  0.00     0.124 S 
ATOM     83  O   UNL A   1      34.395  32.218  31.549  1.00  0.00    -0.237 OA
ATOM     84  O   UNL A   1      36.203  33.885  31.255  1.00  0.00    -0.237 OA
ATOM     85  O   UNL A   1      35.567  32.409  29.386  1.00  0.00    -0.744 OA
ENDBRANCH  78  82
ENDBRANCH  51  75
BRANCH  63  86
ATOM     86  C   UNL A   1      44.673  33.608  29.223  1.00  0.00     0.023 A 
ATOM     87  C   UNL A   1      44.208  34.707  28.479  1.00  0.00     0.031 A 
ATOM     88  C   UNL A   1      45.625  33.849  30.230  1.00  0.00     0.131 A 
ATOM     89  C   UNL A   1      44.742  35.984  28.708  1.00  0.00     0.055 A 
ATOM     90  C   UNL A   1      46.107  35.132  30.494  1.00  0.00     0.041 A 
ATOM     91  F   UNL A   1      46.106  32.838  30.971  1.00  0.00    -0.206 F 
ATOM     92  C   UNL A   1      45.678  36.206  29.721  1.00  0.00     0.022 A 
BRANCH  89  93
ATOM     93  S   UNL A   1      44.279  37.336  27.589  1.00  0.00     0.124 S 
ATOM     94  O   UNL A   1      43.730  38.321  28.515  1.00  0.00    -0.237 OA
ATOM     95  O   UNL A   1      45.556  37.681  26.973  1.00  0.00    -0.237 OA
ATOM     96  O   UNL A   1      43.305  36.719  26.691  1.00  0.00    -0.744 OA
ENDBRANCH  89  93
ENDBRANCH  63  86
ENDBRANCH  37  38
ENDBRANCH  29  32
ENDBRANCH  27  28
ENDBRANCH   1  27
TORSDOF 15
ENDMDL
