MODEL 1
REMARK VINA RESULT:     -13.6      0.000      0.000
REMARK SMILES O=C(NCCCNC(=O)[C@H](c1c[nH]c2cc(F)ccc12)[NH+]1CC[NH+](CC(=O)N2CCOCC2)CC1)c1ccc(-c2c3nc(c(-c4cc(S(=O)(=O)[O-])ccc4F)c4ccc([nH]4)c(-c4cc(S(=O)(=O)[O-])ccc4F)c4nc(c(-c5cc(S(=O)(=O)[O-])ccc5F)c5ccc2[nH]5)C=C4)C=C3)cc1
REMARK SMILES IDX 5 1 4 2 3 3 1 4 2 5 36 7 37 8 98 9 38 10 97 11 39 12 40 13
REMARK SMILES IDX 41 14 91 15 42 16 96 17 90 18 92 19 43 20 95 21 89 22 88 23
REMARK SMILES IDX 44 25 76 26 56 27 75 28 57 29 60 30 74 31 93 32 58 33 59 34
REMARK SMILES IDX 73 36 94 37 61 38 45 39 46 40 54 41 47 42 53 43 55 44 52 45
REMARK SMILES IDX 48 46 49 47 50 48 51 49 77 50 78 51 86 52 79 53 85 54 87 55
REMARK SMILES IDX 84 56 80 57 81 58 82 59 83 60 62 61 63 62 71 63 64 64 70 65
REMARK SMILES IDX 72 66 69 67 65 68 66 69 67 70 68 71 6 72 7 73 8 74 9 76
REMARK SMILES IDX 10 77 21 78 22 79 35 80 23 82 34 83 24 84 25 86 26 87 27 88
REMARK SMILES IDX 28 89 29 90 33 91 30 92 32 93 31 94 11 95 12 96 20 97 13 98
REMARK SMILES IDX 14 99 19 100 15 102 18 103 16 104 17 105
REMARK H PARENT 3 6 92 24 60 35 7 75 21 81 24 85 13 101
REMARK Flexibility Score: inf
ROOT
ATOM      1  C   UNL A   1      36.644  22.156  24.262  1.00  0.00     0.042 C 
ENDROOT
BRANCH   1   2
ATOM      2  C   UNL A   1      36.904  21.951  25.737  1.00  0.00     0.118 C 
BRANCH   2   3
ATOM      3  N   UNL A   1      37.923  20.941  25.967  1.00  0.00    -0.352 N 
ATOM      4  O   UNL A   1      40.015  20.139  26.178  1.00  0.00    -0.269 OA
ATOM      5  C   UNL A   1      39.253  21.106  26.266  1.00  0.00     0.251 C 
ATOM      6  H   UNL A   1      37.616  20.008  25.899  1.00  0.00     0.163 HD
BRANCH   5   7
ATOM      7  C   UNL A   1      39.769  22.432  26.675  1.00  0.00     0.039 A 
ATOM      8  C   UNL A   1      40.815  22.526  27.591  1.00  0.00     0.014 A 
ATOM      9  C   UNL A   1      39.225  23.599  26.128  1.00  0.00     0.014 A 
ATOM     10  C   UNL A   1      41.179  23.758  28.106  1.00  0.00     0.010 A 
ATOM     11  C   UNL A   1      39.719  24.849  26.521  1.00  0.00     0.010 A 
ATOM     12  C   UNL A   1      40.695  24.939  27.525  1.00  0.00    -0.014 A 
BRANCH  12  13
ATOM     13  C   UNL A   1      41.351  26.217  27.911  1.00  0.00     0.031 A 
ATOM     14  C   UNL A   1      42.752  26.551  27.489  1.00  0.00     0.074 A 
ATOM     15  C   UNL A   1      40.612  27.111  28.603  1.00  0.00     0.049 A 
ATOM     16  N   UNL A   1      43.437  27.642  27.718  1.00  0.00    -0.248 NA
ATOM     17  C   UNL A   1      43.487  25.531  26.727  1.00  0.00     0.031 C 
ATOM     18  C   UNL A   1      39.241  26.878  29.078  1.00  0.00     0.029 A 
ATOM     19  N   UNL A   1      40.873  28.399  28.993  1.00  0.00    -0.354 N 
ATOM     20  C   UNL A   1      44.684  27.444  27.137  1.00  0.00     0.074 A 
ATOM     21  C   UNL A   1      44.673  26.106  26.580  1.00  0.00     0.031 C 
ATOM     22  C   UNL A   1      38.755  28.007  29.606  1.00  0.00     0.029 A 
ATOM     23  C   UNL A   1      39.810  29.007  29.623  1.00  0.00     0.049 A 
ATOM     24  H   UNL A   1      41.736  28.845  28.837  1.00  0.00     0.167 HD
ATOM     25  C   UNL A   1      45.730  28.304  27.069  1.00  0.00     0.034 A 
ATOM     26  C   UNL A   1      39.701  30.223  30.191  1.00  0.00     0.034 A 
ATOM     27  C   UNL A   1      45.715  29.632  27.642  1.00  0.00     0.049 A 
ATOM     28  C   UNL A   1      40.896  31.134  30.138  1.00  0.00     0.074 A 
ATOM     29  C   UNL A   1      46.719  30.584  27.637  1.00  0.00     0.029 A 
ATOM     30  N   UNL A   1      44.642  30.196  28.324  1.00  0.00    -0.354 N 
ATOM     31  N   UNL A   1      42.068  30.924  29.583  1.00  0.00    -0.248 NA
ATOM     32  C   UNL A   1      40.754  32.441  30.784  1.00  0.00     0.031 C 
ATOM     33  C   UNL A   1      46.283  31.692  28.373  1.00  0.00     0.029 A 
ATOM     34  C   UNL A   1      44.973  31.470  28.766  1.00  0.00     0.049 A 
ATOM     35  H   UNL A   1      43.774  29.757  28.473  1.00  0.00     0.167 HD
ATOM     36  C   UNL A   1      42.801  32.084  29.807  1.00  0.00     0.074 A 
ATOM     37  C   UNL A   1      41.920  33.001  30.502  1.00  0.00     0.031 C 
ATOM     38  C   UNL A   1      44.088  32.364  29.478  1.00  0.00     0.034 A 
BRANCH  25  39
ATOM     39  C   UNL A   1      46.992  27.824  26.390  1.00  0.00     0.023 A 
ATOM     40  C   UNL A   1      47.216  28.023  25.017  1.00  0.00     0.031 A 
ATOM     41  C   UNL A   1      47.991  27.164  27.128  1.00  0.00     0.131 A 
ATOM     42  C   UNL A   1      48.382  27.522  24.416  1.00  0.00     0.055 A 
ATOM     43  C   UNL A   1      49.183  26.736  26.541  1.00  0.00     0.041 A 
ATOM     44  F   UNL A   1      47.825  26.922  28.438  1.00  0.00    -0.206 F 
ATOM     45  C   UNL A   1      49.380  26.905  25.173  1.00  0.00     0.022 A 
BRANCH  42  46
ATOM     46  S   UNL A   1      48.524  27.580  22.608  1.00  0.00     0.124 S 
ATOM     47  O   UNL A   1      47.278  28.247  22.236  1.00  0.00    -0.237 OA
ATOM     48  O   UNL A   1      49.748  28.348  22.412  1.00  0.00    -0.237 OA
ATOM     49  O   UNL A   1      48.604  26.172  22.224  1.00  0.00    -0.744 OA
ENDBRANCH  42  46
ENDBRANCH  25  39
BRANCH  26  50
ATOM     50  C   UNL A   1      38.453  30.619  30.906  1.00  0.00     0.023 A 
ATOM     51  C   UNL A   1      37.408  31.277  30.243  1.00  0.00     0.031 A 
ATOM     52  C   UNL A   1      38.313  30.390  32.289  1.00  0.00     0.131 A 
ATOM     53  C   UNL A   1      36.299  31.738  30.971  1.00  0.00     0.055 A 
ATOM     54  C   UNL A   1      37.174  30.781  32.993  1.00  0.00     0.041 A 
ATOM     55  F   UNL A   1      39.282  29.766  32.978  1.00  0.00    -0.206 F 
ATOM     56  C   UNL A   1      36.166  31.478  32.336  1.00  0.00     0.022 A 
BRANCH  53  57
ATOM     57  S   UNL A   1      35.094  32.801  30.130  1.00  0.00     0.124 S 
ATOM     58  O   UNL A   1      34.228  33.197  31.233  1.00  0.00    -0.237 OA
ATOM     59  O   UNL A   1      35.947  33.847  29.576  1.00  0.00    -0.237 OA
ATOM     60  O   UNL A   1      34.485  31.908  29.146  1.00  0.00    -0.744 OA
ENDBRANCH  53  57
ENDBRANCH  26  50
BRANCH  38  61
ATOM     61  C   UNL A   1      44.591  33.738  29.853  1.00  0.00     0.023 A 
ATOM     62  C   UNL A   1      44.477  34.828  28.971  1.00  0.00     0.031 A 
ATOM     63  C   UNL A   1      45.247  33.945  31.078  1.00  0.00     0.131 A 
ATOM     64  C   UNL A   1      45.088  36.049  29.287  1.00  0.00     0.055 A 
ATOM     65  C   UNL A   1      45.782  35.186  31.423  1.00  0.00     0.041 A 
ATOM     66  F   UNL A   1      45.390  32.940  31.957  1.00  0.00    -0.206 F 
ATOM     67  C   UNL A   1      45.723  36.241  30.516  1.00  0.00     0.022 A 
BRANCH  64  68
ATOM     68  S   UNL A   1      45.164  37.335  28.012  1.00  0.00     0.124 S 
ATOM     69  O   UNL A   1      45.905  38.392  28.693  1.00  0.00    -0.237 OA
ATOM     70  O   UNL A   1      45.868  36.659  26.928  1.00  0.00    -0.237 OA
ATOM     71  O   UNL A   1      43.758  37.636  27.746  1.00  0.00    -0.744 OA
ENDBRANCH  64  68
ENDBRANCH  38  61
ENDBRANCH  12  13
ENDBRANCH   5   7
ENDBRANCH   2   3
ENDBRANCH   1   2
BRANCH   1  72
ATOM     72  C   UNL A   1      35.809  23.400  23.979  1.00  0.00     0.118 C 
BRANCH  72  73
ATOM     73  N   UNL A   1      34.940  23.220  22.818  1.00  0.00    -0.351 N 
ATOM     74  C   UNL A   1      33.570  22.991  22.811  1.00  0.00     0.283 C 
ATOM     75  H   UNL A   1      35.377  23.266  21.937  1.00  0.00     0.163 HD
ATOM     76  O   UNL A   1      33.006  22.824  21.729  1.00  0.00    -0.268 OA
BRANCH  74  77
ATOM     77  C   UNL A   1      32.853  23.018  24.165  1.00  0.00     0.308 C 
BRANCH  77  78
ATOM     78  N   UNL A   1      31.577  23.734  24.114  1.00  0.00    -0.312 N 
ATOM     79  C   UNL A   1      30.812  24.084  25.309  1.00  0.00     0.325 C 
ATOM     80  C   UNL A   1      31.607  24.809  23.147  1.00  0.00     0.325 C 
ATOM     81  H   UNL A   1      30.993  22.951  23.823  1.00  0.00     0.349 HD
ATOM     82  C   UNL A   1      30.672  25.606  25.674  1.00  0.00     0.325 C 
ATOM     83  C   UNL A   1      31.962  26.176  23.741  1.00  0.00     0.325 C 
ATOM     84  N   UNL A   1      30.906  26.618  24.630  1.00  0.00    -0.318 N 
ATOM     85  H   UNL A   1      31.196  27.432  25.173  1.00  0.00     0.348 HD
BRANCH  84  86
ATOM     86  C   UNL A   1      29.773  27.256  23.939  1.00  0.00     0.364 C 
BRANCH  86  87
ATOM     87  C   UNL A   1      30.024  28.188  22.736  1.00  0.00     0.277 C 
ATOM     88  O   UNL A   1      30.554  27.732  21.715  1.00  0.00    -0.268 OA
ATOM     89  N   UNL A   1      29.502  29.500  22.752  1.00  0.00    -0.333 N 
ATOM     90  C   UNL A   1      29.670  30.450  23.865  1.00  0.00     0.148 C 
ATOM     91  C   UNL A   1      29.354  30.162  21.458  1.00  0.00     0.148 C 
ATOM     92  C   UNL A   1      28.811  31.712  23.814  1.00  0.00     0.181 C 
ATOM     93  C   UNL A   1      28.375  31.337  21.544  1.00  0.00     0.181 C 
ATOM     94  O   UNL A   1      28.819  32.298  22.510  1.00  0.00    -0.378 OA
ENDBRANCH  86  87
ENDBRANCH  84  86
ENDBRANCH  77  78
BRANCH  77  95
ATOM     95  C   UNL A   1      32.883  21.806  25.056  1.00  0.00     0.044 A 
ATOM     96  C   UNL A   1      33.227  21.693  26.389  1.00  0.00     0.094 A 
ATOM     97  C   UNL A   1      32.687  20.450  24.569  1.00  0.00     0.009 A 
ATOM     98  N   UNL A   1      33.303  20.357  26.706  1.00  0.00    -0.361 N 
ATOM     99  C   UNL A   1      33.000  19.580  25.610  1.00  0.00     0.049 A 
ATOM    100  C   UNL A   1      32.362  19.889  23.307  1.00  0.00     0.014 A 
ATOM    101  H   UNL A   1      33.541  20.004  27.593  1.00  0.00     0.166 HD
ATOM    102  C   UNL A   1      33.006  18.188  25.448  1.00  0.00     0.065 A 
ATOM    103  C   UNL A   1      32.338  18.504  23.133  1.00  0.00     0.040 A 
ATOM    104  C   UNL A   1      32.664  17.679  24.194  1.00  0.00     0.125 A 
ATOM    105  F   UNL A   1      32.675  16.354  24.004  1.00  0.00    -0.207 F 
ENDBRANCH  77  95
ENDBRANCH  74  77
ENDBRANCH  72  73
ENDBRANCH   1  72
TORSDOF 17
ENDMDL
MODEL 2
REMARK VINA RESULT:     -13.5      4.682     10.161
REMARK SMILES O=C(NCCCNC(=O)[C@H](c1c[nH]c2cc(F)ccc12)[NH+]1CC[NH+](CC(=O)N2CCOCC2)CC1)c1ccc(-c2c3nc(c(-c4cc(S(=O)(=O)[O-])ccc4F)c4ccc([nH]4)c(-c4cc(S(=O)(=O)[O-])ccc4F)c4nc(c(-c5cc(S(=O)(=O)[O-])ccc5F)c5ccc2[nH]5)C=C4)C=C3)cc1
REMARK SMILES IDX 5 1 4 2 3 3 1 4 2 5 36 7 37 8 98 9 38 10 97 11 39 12 40 13
REMARK SMILES IDX 41 14 91 15 42 16 96 17 90 18 92 19 43 20 95 21 89 22 88 23
REMARK SMILES IDX 44 25 76 26 56 27 75 28 57 29 60 30 74 31 93 32 58 33 59 34
REMARK SMILES IDX 73 36 94 37 61 38 45 39 46 40 54 41 47 42 53 43 55 44 52 45
REMARK SMILES IDX 48 46 49 47 50 48 51 49 77 50 78 51 86 52 79 53 85 54 87 55
REMARK SMILES IDX 84 56 80 57 81 58 82 59 83 60 62 61 63 62 71 63 64 64 70 65
REMARK SMILES IDX 72 66 69 67 65 68 66 69 67 70 68 71 6 72 7 73 8 74 9 76
REMARK SMILES IDX 10 77 21 78 22 79 35 80 23 82 34 83 24 84 25 86 26 87 27 88
REMARK SMILES IDX 28 89 29 90 33 91 30 92 32 93 31 94 11 95 12 96 20 97 13 98
REMARK SMILES IDX 14 99 19 100 15 102 18 103 16 104 17 105
REMARK H PARENT 3 6 92 24 60 35 7 75 21 81 24 85 13 101
REMARK Flexibility Score: inf
ROOT
ATOM      1  C   UNL A   1      34.110  28.755  26.233  1.00  0.00     0.042 C 
ENDROOT
BRANCH   1   2
ATOM      2  C   UNL A   1      33.292  29.398  27.328  1.00  0.00     0.118 C 
BRANCH   2   3
ATOM      3  N   UNL A   1      33.429  30.845  27.321  1.00  0.00    -0.352 N 
ATOM      4  O   UNL A   1      34.221  32.840  27.997  1.00  0.00    -0.269 OA
ATOM      5  C   UNL A   1      34.405  31.624  27.892  1.00  0.00     0.251 C 
ATOM      6  H   UNL A   1      32.724  31.334  26.839  1.00  0.00     0.163 HD
BRANCH   5   7
ATOM      7  C   UNL A   1      35.657  31.010  28.389  1.00  0.00     0.039 A 
ATOM      8  C   UNL A   1      36.893  31.480  27.948  1.00  0.00     0.014 A 
ATOM      9  C   UNL A   1      35.610  29.969  29.322  1.00  0.00     0.014 A 
ATOM     10  C   UNL A   1      38.052  30.796  28.272  1.00  0.00     0.010 A 
ATOM     11  C   UNL A   1      36.799  29.393  29.787  1.00  0.00     0.010 A 
ATOM     12  C   UNL A   1      38.033  29.797  29.254  1.00  0.00    -0.014 A 
BRANCH  12  13
ATOM     13  C   UNL A   1      39.340  29.319  29.778  1.00  0.00     0.031 A 
ATOM     14  C   UNL A   1      39.975  29.918  30.999  1.00  0.00     0.074 A 
ATOM     15  C   UNL A   1      39.914  28.267  29.154  1.00  0.00     0.049 A 
ATOM     16  N   UNL A   1      41.090  29.577  31.593  1.00  0.00    -0.248 NA
ATOM     17  C   UNL A   1      39.283  31.052  31.629  1.00  0.00     0.031 C 
ATOM     18  C   UNL A   1      39.386  27.618  27.946  1.00  0.00     0.029 A 
ATOM     19  N   UNL A   1      41.027  27.526  29.456  1.00  0.00    -0.354 N 
ATOM     20  C   UNL A   1      41.242  30.454  32.661  1.00  0.00     0.074 A 
ATOM     21  C   UNL A   1      40.121  31.370  32.607  1.00  0.00     0.031 C 
ATOM     22  C   UNL A   1      40.115  26.532  27.669  1.00  0.00     0.029 A 
ATOM     23  C   UNL A   1      41.233  26.470  28.598  1.00  0.00     0.049 A 
ATOM     24  H   UNL A   1      41.621  27.730  30.214  1.00  0.00     0.167 HD
ATOM     25  C   UNL A   1      42.221  30.479  33.599  1.00  0.00     0.034 A 
ATOM     26  C   UNL A   1      42.230  25.568  28.534  1.00  0.00     0.034 A 
ATOM     27  C   UNL A   1      43.334  29.554  33.623  1.00  0.00     0.049 A 
ATOM     28  C   UNL A   1      43.323  25.654  29.562  1.00  0.00     0.074 A 
ATOM     29  C   UNL A   1      44.383  29.492  34.523  1.00  0.00     0.029 A 
ATOM     30  N   UNL A   1      43.543  28.532  32.704  1.00  0.00    -0.354 N 
ATOM     31  N   UNL A   1      43.447  26.494  30.565  1.00  0.00    -0.248 NA
ATOM     32  C   UNL A   1      44.407  24.673  29.452  1.00  0.00     0.031 C 
ATOM     33  C   UNL A   1      45.260  28.483  34.111  1.00  0.00     0.029 A 
ATOM     34  C   UNL A   1      44.717  27.854  33.002  1.00  0.00     0.049 A 
ATOM     35  H   UNL A   1      42.946  28.318  31.951  1.00  0.00     0.167 HD
ATOM     36  C   UNL A   1      44.622  26.131  31.213  1.00  0.00     0.074 A 
ATOM     37  C   UNL A   1      45.138  24.971  30.515  1.00  0.00     0.031 C 
ATOM     38  C   UNL A   1      45.229  26.711  32.281  1.00  0.00     0.034 A 
BRANCH  25  39
ATOM     39  C   UNL A   1      42.158  31.561  34.651  1.00  0.00     0.023 A 
ATOM     40  C   UNL A   1      41.201  31.540  35.680  1.00  0.00     0.031 A 
ATOM     41  C   UNL A   1      43.075  32.628  34.632  1.00  0.00     0.131 A 
ATOM     42  C   UNL A   1      41.148  32.589  36.612  1.00  0.00     0.055 A 
ATOM     43  C   UNL A   1      43.067  33.628  35.606  1.00  0.00     0.041 A 
ATOM     44  F   UNL A   1      43.997  32.717  33.661  1.00  0.00    -0.206 F 
ATOM     45  C   UNL A   1      42.093  33.618  36.599  1.00  0.00     0.022 A 
BRANCH  42  46
ATOM     46  S   UNL A   1      39.754  32.656  37.771  1.00  0.00     0.124 S 
ATOM     47  O   UNL A   1      39.228  33.997  37.522  1.00  0.00    -0.237 OA
ATOM     48  O   UNL A   1      38.920  31.545  37.326  1.00  0.00    -0.237 OA
ATOM     49  O   UNL A   1      40.384  32.476  39.077  1.00  0.00    -0.744 OA
ENDBRANCH  42  46
ENDBRANCH  25  39
BRANCH  26  50
ATOM     50  C   UNL A   1      42.276  24.563  27.433  1.00  0.00     0.023 A 
ATOM     51  C   UNL A   1      41.502  23.394  27.477  1.00  0.00     0.031 A 
ATOM     52  C   UNL A   1      43.146  24.733  26.338  1.00  0.00     0.131 A 
ATOM     53  C   UNL A   1      41.656  22.415  26.483  1.00  0.00     0.055 A 
ATOM     54  C   UNL A   1      43.238  23.793  25.311  1.00  0.00     0.041 A 
ATOM     55  F   UNL A   1      43.913  25.830  26.242  1.00  0.00    -0.206 F 
ATOM     56  C   UNL A   1      42.504  22.615  25.391  1.00  0.00     0.022 A 
BRANCH  53  57
ATOM     57  S   UNL A   1      40.830  20.817  26.707  1.00  0.00     0.124 S 
ATOM     58  O   UNL A   1      39.534  21.064  26.089  1.00  0.00    -0.237 OA
ATOM     59  O   UNL A   1      41.722  19.912  25.988  1.00  0.00    -0.237 OA
ATOM     60  O   UNL A   1      40.810  20.647  28.158  1.00  0.00    -0.744 OA
ENDBRANCH  53  57
ENDBRANCH  26  50
BRANCH  38  61
ATOM     61  C   UNL A   1      46.505  26.060  32.760  1.00  0.00     0.023 A 
ATOM     62  C   UNL A   1      47.707  26.181  32.040  1.00  0.00     0.031 A 
ATOM     63  C   UNL A   1      46.504  25.260  33.916  1.00  0.00     0.131 A 
ATOM     64  C   UNL A   1      48.832  25.442  32.431  1.00  0.00     0.055 A 
ATOM     65  C   UNL A   1      47.650  24.592  34.346  1.00  0.00     0.041 A 
ATOM     66  F   UNL A   1      45.384  25.105  34.640  1.00  0.00    -0.206 F 
ATOM     67  C   UNL A   1      48.817  24.664  33.590  1.00  0.00     0.022 A 
BRANCH  64  68
ATOM     68  S   UNL A   1      50.268  25.402  31.325  1.00  0.00     0.124 S 
ATOM     69  O   UNL A   1      51.065  26.518  31.824  1.00  0.00    -0.237 OA
ATOM     70  O   UNL A   1      50.812  24.071  31.569  1.00  0.00    -0.237 OA
ATOM     71  O   UNL A   1      49.684  25.600  29.999  1.00  0.00    -0.744 OA
ENDBRANCH  64  68
ENDBRANCH  38  61
ENDBRANCH  12  13
ENDBRANCH   5   7
ENDBRANCH   2   3
ENDBRANCH   1   2
BRANCH   1  72
ATOM     72  C   UNL A   1      33.969  27.237  26.207  1.00  0.00     0.118 C 
BRANCH  72  73
ATOM     73  N   UNL A   1      32.622  26.809  26.581  1.00  0.00    -0.351 N 
ATOM     74  C   UNL A   1      31.597  26.402  25.737  1.00  0.00     0.283 C 
ATOM     75  H   UNL A   1      32.418  26.810  27.544  1.00  0.00     0.163 HD
ATOM     76  O   UNL A   1      30.507  26.113  26.233  1.00  0.00    -0.268 OA
BRANCH  74  77
ATOM     77  C   UNL A   1      31.924  26.295  24.244  1.00  0.00     0.308 C 
BRANCH  77  78
ATOM     78  N   UNL A   1      31.553  24.997  23.677  1.00  0.00    -0.312 N 
ATOM     79  C   UNL A   1      31.966  24.565  22.343  1.00  0.00     0.325 C 
ATOM     80  C   UNL A   1      31.658  23.938  24.655  1.00  0.00     0.325 C 
ATOM     81  H   UNL A   1      30.589  25.226  23.437  1.00  0.00     0.349 HD
ATOM     82  C   UNL A   1      32.969  23.360  22.238  1.00  0.00     0.325 C 
ATOM     83  C   UNL A   1      32.993  23.187  24.624  1.00  0.00     0.325 C 
ATOM     84  N   UNL A   1      33.116  22.446  23.385  1.00  0.00    -0.318 N 
ATOM     85  H   UNL A   1      34.062  22.088  23.261  1.00  0.00     0.348 HD
BRANCH  84  86
ATOM     86  C   UNL A   1      32.428  21.145  23.397  1.00  0.00     0.364 C 
BRANCH  86  87
ATOM     87  C   UNL A   1      32.344  20.325  24.700  1.00  0.00     0.277 C 
ATOM     88  O   UNL A   1      31.607  20.714  25.615  1.00  0.00    -0.268 OA
ATOM     89  N   UNL A   1      32.975  19.064  24.771  1.00  0.00    -0.333 N 
ATOM     90  C   UNL A   1      34.374  18.810  24.388  1.00  0.00     0.148 C 
ATOM     91  C   UNL A   1      32.494  18.147  25.802  1.00  0.00     0.148 C 
ATOM     92  C   UNL A   1      34.791  17.344  24.277  1.00  0.00     0.181 C 
ATOM     93  C   UNL A   1      32.896  16.702  25.492  1.00  0.00     0.181 C 
ATOM     94  O   UNL A   1      34.319  16.581  25.390  1.00  0.00    -0.378 OA
ENDBRANCH  86  87
ENDBRANCH  84  86
ENDBRANCH  77  78
BRANCH  77  95
ATOM     95  C   UNL A   1      31.720  27.481  23.343  1.00  0.00     0.044 A 
ATOM     96  C   UNL A   1      32.647  28.332  22.772  1.00  0.00     0.094 A 
ATOM     97  C   UNL A   1      30.413  28.041  23.041  1.00  0.00     0.009 A 
ATOM     98  N   UNL A   1      31.974  29.387  22.202  1.00  0.00    -0.361 N 
ATOM     99  C   UNL A   1      30.615  29.245  22.371  1.00  0.00     0.049 A 
ATOM    100  C   UNL A   1      29.080  27.673  23.361  1.00  0.00     0.014 A 
ATOM    101  H   UNL A   1      32.404  30.141  21.738  1.00  0.00     0.166 HD
ATOM    102  C   UNL A   1      29.557  30.092  22.013  1.00  0.00     0.065 A 
ATOM    103  C   UNL A   1      28.011  28.491  22.991  1.00  0.00     0.040 A 
ATOM    104  C   UNL A   1      28.261  29.682  22.334  1.00  0.00     0.125 A 
ATOM    105  F   UNL A   1      27.231  30.476  22.019  1.00  0.00    -0.207 F 
ENDBRANCH  77  95
ENDBRANCH  74  77
ENDBRANCH  72  73
ENDBRANCH   1  72
TORSDOF 17
ENDMDL
MODEL 3
REMARK VINA RESULT:     -13.4      4.988     10.517
REMARK SMILES O=C(NCCCNC(=O)[C@H](c1c[nH]c2cc(F)ccc12)[NH+]1CC[NH+](CC(=O)N2CCOCC2)CC1)c1ccc(-c2c3nc(c(-c4cc(S(=O)(=O)[O-])ccc4F)c4ccc([nH]4)c(-c4cc(S(=O)(=O)[O-])ccc4F)c4nc(c(-c5cc(S(=O)(=O)[O-])ccc5F)c5ccc2[nH]5)C=C4)C=C3)cc1
REMARK SMILES IDX 5 1 4 2 3 3 1 4 2 5 36 7 37 8 98 9 38 10 97 11 39 12 40 13
REMARK SMILES IDX 41 14 91 15 42 16 96 17 90 18 92 19 43 20 95 21 89 22 88 23
REMARK SMILES IDX 44 25 76 26 56 27 75 28 57 29 60 30 74 31 93 32 58 33 59 34
REMARK SMILES IDX 73 36 94 37 61 38 45 39 46 40 54 41 47 42 53 43 55 44 52 45
REMARK SMILES IDX 48 46 49 47 50 48 51 49 77 50 78 51 86 52 79 53 85 54 87 55
REMARK SMILES IDX 84 56 80 57 81 58 82 59 83 60 62 61 63 62 71 63 64 64 70 65
REMARK SMILES IDX 72 66 69 67 65 68 66 69 67 70 68 71 6 72 7 73 8 74 9 76
REMARK SMILES IDX 10 77 21 78 22 79 35 80 23 82 34 83 24 84 25 86 26 87 27 88
REMARK SMILES IDX 28 89 29 90 33 91 30 92 32 93 31 94 11 95 12 96 20 97 13 98
REMARK SMILES IDX 14 99 19 100 15 102 18 103 16 104 17 105
REMARK H PARENT 3 6 92 24 60 35 7 75 21 81 24 85 13 101
REMARK Flexibility Score: inf
ROOT
ATOM      1  C   UNL A   1      31.783  29.148  26.572  1.00  0.00     0.042 C 
ENDROOT
BRANCH   1   2
ATOM      2  C   UNL A   1      32.905  29.998  26.021  1.00  0.00     0.118 C 
BRANCH   2   3
ATOM      3  N   UNL A   1      32.723  31.402  26.346  1.00  0.00    -0.352 N 
ATOM      4  O   UNL A   1      32.924  33.271  27.584  1.00  0.00    -0.269 OA
ATOM      5  C   UNL A   1      33.384  32.168  27.275  1.00  0.00     0.251 C 
ATOM      6  H   UNL A   1      32.029  31.870  25.827  1.00  0.00     0.163 HD
BRANCH   5   7
ATOM      7  C   UNL A   1      34.626  31.671  27.907  1.00  0.00     0.039 A 
ATOM      8  C   UNL A   1      35.700  32.533  28.121  1.00  0.00     0.014 A 
ATOM      9  C   UNL A   1      34.723  30.337  28.316  1.00  0.00     0.014 A 
ATOM     10  C   UNL A   1      36.918  32.034  28.547  1.00  0.00     0.010 A 
ATOM     11  C   UNL A   1      35.902  29.874  28.914  1.00  0.00     0.010 A 
ATOM     12  C   UNL A   1      37.017  30.719  29.024  1.00  0.00    -0.014 A 
BRANCH  12  13
ATOM     13  C   UNL A   1      38.258  30.339  29.749  1.00  0.00     0.031 A 
ATOM     14  C   UNL A   1      38.542  30.814  31.144  1.00  0.00     0.074 A 
ATOM     15  C   UNL A   1      39.102  29.483  29.131  1.00  0.00     0.049 A 
ATOM     16  N   UNL A   1      39.562  30.531  31.913  1.00  0.00    -0.248 NA
ATOM     17  C   UNL A   1      37.569  31.733  31.753  1.00  0.00     0.031 C 
ATOM     18  C   UNL A   1      38.928  28.972  27.765  1.00  0.00     0.029 A 
ATOM     19  N   UNL A   1      40.240  28.856  29.566  1.00  0.00    -0.354 N 
ATOM     20  C   UNL A   1      39.363  31.239  33.093  1.00  0.00     0.074 A 
ATOM     21  C   UNL A   1      38.141  31.998  32.919  1.00  0.00     0.031 C 
ATOM     22  C   UNL A   1      39.861  28.049  27.513  1.00  0.00     0.029 A 
ATOM     23  C   UNL A   1      40.774  27.986  28.642  1.00  0.00     0.049 A 
ATOM     24  H   UNL A   1      40.637  29.012  30.453  1.00  0.00     0.167 HD
ATOM     25  C   UNL A   1      40.127  31.242  34.214  1.00  0.00     0.034 A 
ATOM     26  C   UNL A   1      41.897  27.244  28.678  1.00  0.00     0.034 A 
ATOM     27  C   UNL A   1      41.347  30.479  34.355  1.00  0.00     0.049 A 
ATOM     28  C   UNL A   1      42.744  27.307  29.918  1.00  0.00     0.074 A 
ATOM     29  C   UNL A   1      42.200  30.411  35.443  1.00  0.00     0.029 A 
ATOM     30  N   UNL A   1      41.891  29.652  33.378  1.00  0.00    -0.354 N 
ATOM     31  N   UNL A   1      42.536  27.985  31.024  1.00  0.00    -0.248 NA
ATOM     32  C   UNL A   1      43.971  26.506  29.917  1.00  0.00     0.031 C 
ATOM     33  C   UNL A   1      43.291  29.604  35.101  1.00  0.00     0.029 A 
ATOM     34  C   UNL A   1      43.079  29.094  33.831  1.00  0.00     0.049 A 
ATOM     35  H   UNL A   1      41.491  29.484  32.494  1.00  0.00     0.167 HD
ATOM     36  C   UNL A   1      43.608  27.680  31.855  1.00  0.00     0.074 A 
ATOM     37  C   UNL A   1      44.427  26.723  31.140  1.00  0.00     0.031 C 
ATOM     38  C   UNL A   1      43.896  28.157  33.094  1.00  0.00     0.034 A 
BRANCH  25  39
ATOM     39  C   UNL A   1      39.689  32.126  35.359  1.00  0.00     0.023 A 
ATOM     40  C   UNL A   1      40.141  33.450  35.487  1.00  0.00     0.031 A 
ATOM     41  C   UNL A   1      38.799  31.640  36.334  1.00  0.00     0.131 A 
ATOM     42  C   UNL A   1      39.745  34.223  36.591  1.00  0.00     0.055 A 
ATOM     43  C   UNL A   1      38.348  32.438  37.387  1.00  0.00     0.041 A 
ATOM     44  F   UNL A   1      38.351  30.375  36.280  1.00  0.00    -0.206 F 
ATOM     45  C   UNL A   1      38.829  33.736  37.526  1.00  0.00     0.022 A 
BRANCH  42  46
ATOM     46  S   UNL A   1      40.536  35.835  36.854  1.00  0.00     0.124 S 
ATOM     47  O   UNL A   1      41.914  35.555  36.454  1.00  0.00    -0.237 OA
ATOM     48  O   UNL A   1      39.775  36.709  35.970  1.00  0.00    -0.237 OA
ATOM     49  O   UNL A   1      40.350  36.079  38.283  1.00  0.00    -0.744 OA
ENDBRANCH  42  46
ENDBRANCH  25  39
BRANCH  26  50
ATOM     50  C   UNL A   1      42.314  26.441  27.491  1.00  0.00     0.023 A 
ATOM     51  C   UNL A   1      41.933  25.099  27.346  1.00  0.00     0.031 A 
ATOM     52  C   UNL A   1      43.155  26.995  26.507  1.00  0.00     0.131 A 
ATOM     53  C   UNL A   1      42.439  24.341  26.278  1.00  0.00     0.055 A 
ATOM     54  C   UNL A   1      43.592  26.259  25.405  1.00  0.00     0.041 A 
ATOM     55  F   UNL A   1      43.556  28.274  26.593  1.00  0.00    -0.206 F 
ATOM     56  C   UNL A   1      43.250  24.916  25.297  1.00  0.00     0.022 A 
BRANCH  53  57
ATOM     57  S   UNL A   1      42.128  22.554  26.262  1.00  0.00     0.124 S 
ATOM     58  O   UNL A   1      40.672  22.507  26.230  1.00  0.00    -0.237 OA
ATOM     59  O   UNL A   1      42.811  22.139  25.042  1.00  0.00    -0.237 OA
ATOM     60  O   UNL A   1      42.742  22.093  27.506  1.00  0.00    -0.744 OA
ENDBRANCH  53  57
ENDBRANCH  26  50
BRANCH  38  61
ATOM     61  C   UNL A   1      45.143  27.611  33.747  1.00  0.00     0.023 A 
ATOM     62  C   UNL A   1      45.107  26.458  34.553  1.00  0.00     0.031 A 
ATOM     63  C   UNL A   1      46.369  28.286  33.615  1.00  0.00     0.131 A 
ATOM     64  C   UNL A   1      46.249  26.067  35.264  1.00  0.00     0.055 A 
ATOM     65  C   UNL A   1      47.524  27.844  34.261  1.00  0.00     0.041 A 
ATOM     66  F   UNL A   1      46.462  29.394  32.863  1.00  0.00    -0.206 F 
ATOM     67  C   UNL A   1      47.462  26.741  35.109  1.00  0.00     0.022 A 
BRANCH  64  68
ATOM     68  S   UNL A   1      46.089  24.753  36.504  1.00  0.00     0.124 S 
ATOM     69  O   UNL A   1      44.908  24.036  36.032  1.00  0.00    -0.237 OA
ATOM     70  O   UNL A   1      47.358  24.046  36.374  1.00  0.00    -0.237 OA
ATOM     71  O   UNL A   1      45.911  25.485  37.757  1.00  0.00    -0.744 OA
ENDBRANCH  64  68
ENDBRANCH  38  61
ENDBRANCH  12  13
ENDBRANCH   5   7
ENDBRANCH   2   3
ENDBRANCH   1   2
BRANCH   1  72
ATOM     72  C   UNL A   1      32.195  27.696  26.785  1.00  0.00     0.118 C 
BRANCH  72  73
ATOM     73  N   UNL A   1      31.038  26.809  26.878  1.00  0.00    -0.351 N 
ATOM     74  C   UNL A   1      30.549  25.947  25.905  1.00  0.00     0.283 C 
ATOM     75  H   UNL A   1      30.546  26.824  27.732  1.00  0.00     0.163 HD
ATOM     76  O   UNL A   1      29.530  25.300  26.150  1.00  0.00    -0.268 OA
BRANCH  74  77
ATOM     77  C   UNL A   1      31.357  25.832  24.609  1.00  0.00     0.308 C 
BRANCH  77  78
ATOM     78  N   UNL A   1      31.282  24.495  24.015  1.00  0.00    -0.312 N 
ATOM     79  C   UNL A   1      32.072  24.096  22.852  1.00  0.00     0.325 C 
ATOM     80  C   UNL A   1      31.233  23.464  25.027  1.00  0.00     0.325 C 
ATOM     81  H   UNL A   1      30.397  24.615  23.523  1.00  0.00     0.349 HD
ATOM     82  C   UNL A   1      33.186  23.007  23.058  1.00  0.00     0.325 C 
ATOM     83  C   UNL A   1      32.599  22.862  25.373  1.00  0.00     0.325 C 
ATOM     84  N   UNL A   1      33.118  22.126  24.238  1.00  0.00    -0.318 N 
ATOM     85  H   UNL A   1      34.096  21.871  24.378  1.00  0.00     0.348 HD
BRANCH  84  86
ATOM     86  C   UNL A   1      32.588  20.758  24.121  1.00  0.00     0.364 C 
BRANCH  86  87
ATOM     87  C   UNL A   1      32.903  19.710  25.207  1.00  0.00     0.277 C 
ATOM     88  O   UNL A   1      32.830  20.031  26.400  1.00  0.00    -0.268 OA
ATOM     89  N   UNL A   1      33.108  18.363  24.836  1.00  0.00    -0.333 N 
ATOM     90  C   UNL A   1      34.024  17.923  23.769  1.00  0.00     0.148 C 
ATOM     91  C   UNL A   1      32.935  17.360  25.884  1.00  0.00     0.148 C 
ATOM     92  C   UNL A   1      33.907  16.463  23.336  1.00  0.00     0.181 C 
ATOM     93  C   UNL A   1      32.717  15.966  25.290  1.00  0.00     0.181 C 
ATOM     94  O   UNL A   1      33.823  15.587  24.462  1.00  0.00    -0.378 OA
ENDBRANCH  86  87
ENDBRANCH  84  86
ENDBRANCH  77  78
BRANCH  77  95
ATOM     95  C   UNL A   1      31.381  26.976  23.633  1.00  0.00     0.044 A 
ATOM     96  C   UNL A   1      32.454  27.647  23.078  1.00  0.00     0.094 A 
ATOM     97  C   UNL A   1      30.190  27.699  23.218  1.00  0.00     0.009 A 
ATOM     98  N   UNL A   1      31.977  28.750  22.411  1.00  0.00    -0.361 N 
ATOM     99  C   UNL A   1      30.605  28.817  22.499  1.00  0.00     0.049 A 
ATOM    100  C   UNL A   1      28.802  27.549  23.471  1.00  0.00     0.014 A 
ATOM    101  H   UNL A   1      32.540  29.404  21.935  1.00  0.00     0.166 HD
ATOM    102  C   UNL A   1      29.705  29.784  22.029  1.00  0.00     0.065 A 
ATOM    103  C   UNL A   1      27.888  28.487  22.990  1.00  0.00     0.040 A 
ATOM    104  C   UNL A   1      28.348  29.587  22.288  1.00  0.00     0.125 A 
ATOM    105  F   UNL A   1      27.465  30.500  21.865  1.00  0.00    -0.207 F 
ENDBRANCH  77  95
ENDBRANCH  74  77
ENDBRANCH  72  73
ENDBRANCH   1  72
TORSDOF 17
ENDMDL
