MODEL 1
REMARK VINA RESULT:     -12.9      0.000      0.000
REMARK SMILES O=C(NCCCNC(=O)[C@@H]1CN(C(=O)[C@H]2CC=CCC2)c2ccccc2O1)c1ccc(-c2c3nc(c(-c4cc(S(=O)(=O)[O-])ccc4F)c4ccc([nH]4)c(-c4cc(S(=O)(=O)[O-])ccc4F)c4nc(c(-c5cc(S(=O)(=O)[O-])ccc5F)c5ccc2[nH]5)C=C4)C=C3)cc1
REMARK SMILES IDX 4 1 3 2 1 3 2 4 28 6 29 7 90 8 30 9 89 10 31 11 32 12 33 13
REMARK SMILES IDX 83 14 34 15 88 16 82 17 84 18 35 19 87 20 81 21 80 22 36 24
REMARK SMILES IDX 68 25 48 26 67 27 49 28 52 29 66 30 85 31 50 32 51 33 65 35
REMARK SMILES IDX 86 36 53 37 37 38 38 39 46 40 39 41 45 42 47 43 44 44 40 45
REMARK SMILES IDX 41 46 42 47 43 48 69 49 70 50 78 51 71 52 77 53 79 54 76 55
REMARK SMILES IDX 72 56 73 57 74 58 75 59 54 60 55 61 63 62 56 63 62 64 64 65
REMARK SMILES IDX 61 66 57 67 58 68 59 69 60 70 5 71 6 72 7 73 8 74 9 76 10 77
REMARK SMILES IDX 11 78 27 79 12 80 26 81 21 82 25 83 22 84 24 85 23 86 13 87
REMARK SMILES IDX 14 88 15 89 16 90 20 91 17 92 19 93 18 94
REMARK H PARENT 3 5 84 23 52 34 7 75
REMARK Flexibility Score: inf
ROOT
ATOM      1  C   UNL A   1      33.515  28.832  25.207  1.00  0.00     0.118 C 
ENDROOT
BRANCH   1   2
ATOM      2  N   UNL A   1      32.870  30.050  25.687  1.00  0.00    -0.352 N 
ATOM      3  O   UNL A   1      32.418  31.715  27.138  1.00  0.00    -0.269 OA
ATOM      4  C   UNL A   1      33.189  30.842  26.765  1.00  0.00     0.251 C 
ATOM      5  H   UNL A   1      32.093  30.347  25.162  1.00  0.00     0.163 HD
BRANCH   4   6
ATOM      6  C   UNL A   1      34.465  30.611  27.471  1.00  0.00     0.039 A 
ATOM      7  C   UNL A   1      34.741  29.352  28.001  1.00  0.00     0.014 A 
ATOM      8  C   UNL A   1      35.376  31.659  27.625  1.00  0.00     0.014 A 
ATOM      9  C   UNL A   1      35.828  29.189  28.842  1.00  0.00     0.010 A 
ATOM     10  C   UNL A   1      36.543  31.454  28.369  1.00  0.00     0.010 A 
ATOM     11  C   UNL A   1      36.762  30.225  29.009  1.00  0.00    -0.014 A 
BRANCH  11  12
ATOM     12  C   UNL A   1      37.990  29.936  29.792  1.00  0.00     0.031 A 
ATOM     13  C   UNL A   1      38.154  30.418  31.205  1.00  0.00     0.074 A 
ATOM     14  C   UNL A   1      38.926  29.151  29.221  1.00  0.00     0.049 A 
ATOM     15  N   UNL A   1      39.139  30.195  32.038  1.00  0.00    -0.248 NA
ATOM     16  C   UNL A   1      37.086  31.267  31.755  1.00  0.00     0.031 C 
ATOM     17  C   UNL A   1      38.864  28.641  27.845  1.00  0.00     0.029 A 
ATOM     18  N   UNL A   1      40.078  28.606  29.719  1.00  0.00    -0.354 N 
ATOM     19  C   UNL A   1      38.820  30.883  33.204  1.00  0.00     0.074 A 
ATOM     20  C   UNL A   1      37.563  31.558  32.959  1.00  0.00     0.031 C 
ATOM     21  C   UNL A   1      39.882  27.796  27.641  1.00  0.00     0.029 A 
ATOM     22  C   UNL A   1      40.722  27.776  28.830  1.00  0.00     0.049 A 
ATOM     23  H   UNL A   1      40.414  28.790  30.627  1.00  0.00     0.167 HD
ATOM     24  C   UNL A   1      39.514  30.936  34.369  1.00  0.00     0.034 A 
ATOM     25  C   UNL A   1      41.873  27.089  28.947  1.00  0.00     0.034 A 
ATOM     26  C   UNL A   1      40.769  30.253  34.588  1.00  0.00     0.049 A 
ATOM     27  C   UNL A   1      42.623  27.179  30.246  1.00  0.00     0.074 A 
ATOM     28  C   UNL A   1      41.560  30.243  35.724  1.00  0.00     0.029 A 
ATOM     29  N   UNL A   1      41.416  29.456  33.651  1.00  0.00    -0.354 N 
ATOM     30  N   UNL A   1      42.307  27.844  31.335  1.00  0.00    -0.248 NA
ATOM     31  C   UNL A   1      43.879  26.429  30.334  1.00  0.00     0.031 C 
ATOM     32  C   UNL A   1      42.709  29.488  35.455  1.00  0.00     0.029 A 
ATOM     33  C   UNL A   1      42.605  28.968  34.175  1.00  0.00     0.049 A 
ATOM     34  H   UNL A   1      41.080  29.266  32.745  1.00  0.00     0.167 HD
ATOM     35  C   UNL A   1      43.332  27.591  32.239  1.00  0.00     0.074 A 
ATOM     36  C   UNL A   1      44.244  26.673  31.582  1.00  0.00     0.031 C 
ATOM     37  C   UNL A   1      43.514  28.080  33.492  1.00  0.00     0.034 A 
BRANCH  24  38
ATOM     38  C   UNL A   1      38.953  31.794  35.478  1.00  0.00     0.023 A 
ATOM     39  C   UNL A   1      38.359  31.232  36.622  1.00  0.00     0.031 A 
ATOM     40  C   UNL A   1      39.015  33.197  35.392  1.00  0.00     0.131 A 
ATOM     41  C   UNL A   1      37.806  32.067  37.607  1.00  0.00     0.055 A 
ATOM     42  C   UNL A   1      38.525  34.022  36.407  1.00  0.00     0.041 A 
ATOM     43  F   UNL A   1      39.552  33.792  34.315  1.00  0.00    -0.206 F 
ATOM     44  C   UNL A   1      37.907  33.457  37.520  1.00  0.00     0.022 A 
BRANCH  41  45
ATOM     45  S   UNL A   1      36.855  31.310  38.955  1.00  0.00     0.124 S 
ATOM     46  O   UNL A   1      37.773  31.452  40.082  1.00  0.00    -0.237 OA
ATOM     47  O   UNL A   1      35.656  32.138  39.000  1.00  0.00    -0.237 OA
ATOM     48  O   UNL A   1      36.649  29.936  38.500  1.00  0.00    -0.744 OA
ENDBRANCH  41  45
ENDBRANCH  24  38
BRANCH  25  49
ATOM     49  C   UNL A   1      42.404  26.308  27.795  1.00  0.00     0.023 A 
ATOM     50  C   UNL A   1      41.961  25.003  27.531  1.00  0.00     0.031 A 
ATOM     51  C   UNL A   1      43.395  26.849  26.954  1.00  0.00     0.131 A 
ATOM     52  C   UNL A   1      42.540  24.267  26.485  1.00  0.00     0.055 A 
ATOM     53  C   UNL A   1      43.921  26.138  25.876  1.00  0.00     0.041 A 
ATOM     54  F   UNL A   1      43.854  28.094  27.159  1.00  0.00    -0.206 F 
ATOM     55  C   UNL A   1      43.504  24.832  25.647  1.00  0.00     0.022 A 
BRANCH  52  56
ATOM     56  S   UNL A   1      42.088  22.521  26.300  1.00  0.00     0.124 S 
ATOM     57  O   UNL A   1      42.741  21.918  27.456  1.00  0.00    -0.237 OA
ATOM     58  O   UNL A   1      40.631  22.580  26.345  1.00  0.00    -0.237 OA
ATOM     59  O   UNL A   1      42.655  22.159  25.002  1.00  0.00    -0.744 OA
ENDBRANCH  52  56
ENDBRANCH  25  49
BRANCH  37  60
ATOM     60  C   UNL A   1      44.749  27.607  34.217  1.00  0.00     0.023 A 
ATOM     61  C   UNL A   1      44.725  26.454  35.020  1.00  0.00     0.031 A 
ATOM     62  C   UNL A   1      45.940  28.350  34.156  1.00  0.00     0.131 A 
ATOM     63  C   UNL A   1      45.846  26.119  35.793  1.00  0.00     0.055 A 
ATOM     64  C   UNL A   1      47.074  27.975  34.876  1.00  0.00     0.041 A 
ATOM     65  F   UNL A   1      46.015  29.460  33.406  1.00  0.00    -0.206 F 
ATOM     66  C   UNL A   1      47.025  26.865  35.715  1.00  0.00     0.022 A 
BRANCH  63  67
ATOM     67  S   UNL A   1      45.698  24.770  36.996  1.00  0.00     0.124 S 
ATOM     68  O   UNL A   1      45.261  25.479  38.195  1.00  0.00    -0.237 OA
ATOM     69  O   UNL A   1      44.706  23.903  36.370  1.00  0.00    -0.237 OA
ATOM     70  O   UNL A   1      47.050  24.219  37.061  1.00  0.00    -0.744 OA
ENDBRANCH  63  67
ENDBRANCH  37  60
ENDBRANCH  11  12
ENDBRANCH   4   6
ENDBRANCH   1   2
BRANCH   1  71
ATOM     71  C   UNL A   1      32.680  27.584  25.463  1.00  0.00     0.042 C 
BRANCH  71  72
ATOM     72  C   UNL A   1      33.287  26.321  24.871  1.00  0.00     0.118 C 
BRANCH  72  73
ATOM     73  N   UNL A   1      33.057  25.187  25.741  1.00  0.00    -0.353 N 
ATOM     74  C   UNL A   1      32.771  23.899  25.410  1.00  0.00     0.262 C 
ATOM     75  H   UNL A   1      33.118  25.373  26.706  1.00  0.00     0.163 HD
ATOM     76  O   UNL A   1      32.351  23.168  26.308  1.00  0.00    -0.271 OA
BRANCH  74  77
ATOM     77  C   UNL A   1      32.936  23.437  23.950  1.00  0.00     0.281 C 
ATOM     78  C   UNL A   1      32.522  21.983  23.789  1.00  0.00     0.181 C 
ATOM     79  O   UNL A   1      34.240  23.606  23.410  1.00  0.00    -0.477 OA
ATOM     80  N   UNL A   1      33.386  21.077  24.552  1.00  0.00    -0.304 N 
ATOM     81  C   UNL A   1      35.143  22.706  23.924  1.00  0.00     0.144 A 
ATOM     82  C   UNL A   1      34.784  21.470  24.508  1.00  0.00     0.086 A 
ATOM     83  C   UNL A   1      36.473  23.127  23.831  1.00  0.00     0.049 A 
ATOM     84  C   UNL A   1      35.832  20.682  25.001  1.00  0.00     0.030 A 
ATOM     85  C   UNL A   1      37.489  22.332  24.344  1.00  0.00     0.004 A 
ATOM     86  C   UNL A   1      37.167  21.111  24.928  1.00  0.00     0.002 A 
BRANCH  80  87
ATOM     87  C   UNL A   1      32.904  20.026  25.334  1.00  0.00     0.230 C 
ATOM     88  O   UNL A   1      32.893  20.066  26.573  1.00  0.00    -0.274 OA
BRANCH  87  89
ATOM     89  C   UNL A   1      32.388  18.700  24.711  1.00  0.00     0.083 C 
ATOM     90  C   UNL A   1      32.529  18.517  23.193  1.00  0.00     0.040 C 
ATOM     91  C   UNL A   1      32.683  17.448  25.545  1.00  0.00     0.018 C 
ATOM     92  C   UNL A   1      33.422  17.389  22.753  1.00  0.00    -0.030 C 
ATOM     93  C   UNL A   1      33.863  16.597  25.082  1.00  0.00     0.028 C 
ATOM     94  C   UNL A   1      34.028  16.542  23.596  1.00  0.00    -0.031 C 
ENDBRANCH  87  89
ENDBRANCH  80  87
ENDBRANCH  74  77
ENDBRANCH  72  73
ENDBRANCH  71  72
ENDBRANCH   1  71
TORSDOF 15
ENDMDL
MODEL 2
REMARK VINA RESULT:     -12.8      5.189     10.702
REMARK SMILES O=C(NCCCNC(=O)[C@@H]1CN(C(=O)[C@H]2CC=CCC2)c2ccccc2O1)c1ccc(-c2c3nc(c(-c4cc(S(=O)(=O)[O-])ccc4F)c4ccc([nH]4)c(-c4cc(S(=O)(=O)[O-])ccc4F)c4nc(c(-c5cc(S(=O)(=O)[O-])ccc5F)c5ccc2[nH]5)C=C4)C=C3)cc1
REMARK SMILES IDX 4 1 3 2 1 3 2 4 28 6 29 7 90 8 30 9 89 10 31 11 32 12 33 13
REMARK SMILES IDX 83 14 34 15 88 16 82 17 84 18 35 19 87 20 81 21 80 22 36 24
REMARK SMILES IDX 68 25 48 26 67 27 49 28 52 29 66 30 85 31 50 32 51 33 65 35
REMARK SMILES IDX 86 36 53 37 37 38 38 39 46 40 39 41 45 42 47 43 44 44 40 45
REMARK SMILES IDX 41 46 42 47 43 48 69 49 70 50 78 51 71 52 77 53 79 54 76 55
REMARK SMILES IDX 72 56 73 57 74 58 75 59 54 60 55 61 63 62 56 63 62 64 64 65
REMARK SMILES IDX 61 66 57 67 58 68 59 69 60 70 5 71 6 72 7 73 8 74 9 76 10 77
REMARK SMILES IDX 11 78 27 79 12 80 26 81 21 82 25 83 22 84 24 85 23 86 13 87
REMARK SMILES IDX 14 88 15 89 16 90 20 91 17 92 19 93 18 94
REMARK H PARENT 3 5 84 23 52 34 7 75
REMARK Flexibility Score: inf
ROOT
ATOM      1  C   UNL A   1      35.527  22.674  25.905  1.00  0.00     0.118 C 
ENDROOT
BRANCH   1   2
ATOM      2  N   UNL A   1      36.401  21.544  25.606  1.00  0.00    -0.352 N 
ATOM      3  O   UNL A   1      38.340  20.503  25.113  1.00  0.00    -0.269 OA
ATOM      4  C   UNL A   1      37.775  21.482  25.580  1.00  0.00     0.251 C 
ATOM      5  H   UNL A   1      35.938  20.702  25.391  1.00  0.00     0.163 HD
BRANCH   4   6
ATOM      6  C   UNL A   1      38.552  22.620  26.110  1.00  0.00     0.039 A 
ATOM      7  C   UNL A   1      38.154  23.923  25.816  1.00  0.00     0.014 A 
ATOM      8  C   UNL A   1      39.694  22.386  26.881  1.00  0.00     0.014 A 
ATOM      9  C   UNL A   1      38.993  24.979  26.126  1.00  0.00     0.010 A 
ATOM     10  C   UNL A   1      40.473  23.468  27.305  1.00  0.00     0.010 A 
ATOM     11  C   UNL A   1      40.144  24.771  26.905  1.00  0.00    -0.014 A 
BRANCH  11  12
ATOM     12  C   UNL A   1      40.914  25.964  27.341  1.00  0.00     0.031 A 
ATOM     13  C   UNL A   1      42.300  26.236  26.828  1.00  0.00     0.074 A 
ATOM     14  C   UNL A   1      40.296  26.845  28.154  1.00  0.00     0.049 A 
ATOM     15  N   UNL A   1      43.075  27.264  27.068  1.00  0.00    -0.248 NA
ATOM     16  C   UNL A   1      42.901  25.226  25.944  1.00  0.00     0.031 C 
ATOM     17  C   UNL A   1      38.952  26.663  28.716  1.00  0.00     0.029 A 
ATOM     18  N   UNL A   1      40.679  28.076  28.612  1.00  0.00    -0.354 N 
ATOM     19  C   UNL A   1      44.258  27.023  26.377  1.00  0.00     0.074 A 
ATOM     20  C   UNL A   1      44.109  25.734  25.734  1.00  0.00     0.031 C 
ATOM     21  C   UNL A   1      38.594  27.774  29.372  1.00  0.00     0.029 A 
ATOM     22  C   UNL A   1      39.712  28.707  29.360  1.00  0.00     0.049 A 
ATOM     23  H   UNL A   1      41.561  28.472  28.426  1.00  0.00     0.167 HD
ATOM     24  C   UNL A   1      45.358  27.812  26.288  1.00  0.00     0.034 A 
ATOM     25  C   UNL A   1      39.727  29.898  29.988  1.00  0.00     0.034 A 
ATOM     26  C   UNL A   1      45.481  29.095  26.941  1.00  0.00     0.049 A 
ATOM     27  C   UNL A   1      40.965  30.741  29.879  1.00  0.00     0.074 A 
ATOM     28  C   UNL A   1      46.551  29.974  26.924  1.00  0.00     0.029 A 
ATOM     29  N   UNL A   1      44.500  29.686  27.728  1.00  0.00    -0.354 N 
ATOM     30  N   UNL A   1      42.078  30.489  29.227  1.00  0.00    -0.248 NA
ATOM     31  C   UNL A   1      40.951  32.025  30.586  1.00  0.00     0.031 C 
ATOM     32  C   UNL A   1      46.239  31.065  27.744  1.00  0.00     0.029 A 
ATOM     33  C   UNL A   1      44.947  30.905  28.217  1.00  0.00     0.049 A 
ATOM     34  H   UNL A   1      43.614  29.296  27.912  1.00  0.00     0.167 HD
ATOM     35  C   UNL A   1      42.899  31.589  29.449  1.00  0.00     0.074 A 
ATOM     36  C   UNL A   1      42.131  32.522  30.250  1.00  0.00     0.031 C 
ATOM     37  C   UNL A   1      44.175  31.805  29.041  1.00  0.00     0.034 A 
BRANCH  24  38
ATOM     38  C   UNL A   1      46.529  27.289  25.490  1.00  0.00     0.023 A 
ATOM     39  C   UNL A   1      46.866  27.819  24.231  1.00  0.00     0.031 A 
ATOM     40  C   UNL A   1      47.326  26.246  25.997  1.00  0.00     0.131 A 
ATOM     41  C   UNL A   1      47.933  27.271  23.502  1.00  0.00     0.055 A 
ATOM     42  C   UNL A   1      48.428  25.751  25.298  1.00  0.00     0.041 A 
ATOM     43  F   UNL A   1      47.042  25.686  27.185  1.00  0.00    -0.206 F 
ATOM     44  C   UNL A   1      48.732  26.257  24.037  1.00  0.00     0.022 A 
BRANCH  41  45
ATOM     45  S   UNL A   1      48.197  27.828  21.795  1.00  0.00     0.124 S 
ATOM     46  O   UNL A   1      46.993  28.618  21.552  1.00  0.00    -0.237 OA
ATOM     47  O   UNL A   1      49.443  28.578  21.897  1.00  0.00    -0.237 OA
ATOM     48  O   UNL A   1      48.278  26.582  21.036  1.00  0.00    -0.744 OA
ENDBRANCH  41  45
ENDBRANCH  24  38
BRANCH  25  49
ATOM     49  C   UNL A   1      38.561  30.330  30.809  1.00  0.00     0.023 A 
ATOM     50  C   UNL A   1      37.497  31.051  30.243  1.00  0.00     0.031 A 
ATOM     51  C   UNL A   1      38.509  30.054  32.188  1.00  0.00     0.131 A 
ATOM     52  C   UNL A   1      36.453  31.512  31.061  1.00  0.00     0.055 A 
ATOM     53  C   UNL A   1      37.438  30.458  32.985  1.00  0.00     0.041 A 
ATOM     54  F   UNL A   1      39.498  29.366  32.781  1.00  0.00    -0.206 F 
ATOM     55  C   UNL A   1      36.409  31.205  32.423  1.00  0.00     0.022 A 
BRANCH  52  56
ATOM     56  S   UNL A   1      35.203  32.607  30.337  1.00  0.00     0.124 S 
ATOM     57  O   UNL A   1      34.778  31.845  29.169  1.00  0.00    -0.237 OA
ATOM     58  O   UNL A   1      34.232  32.715  31.420  1.00  0.00    -0.237 OA
ATOM     59  O   UNL A   1      35.950  33.830  30.048  1.00  0.00    -0.744 OA
ENDBRANCH  52  56
ENDBRANCH  25  49
BRANCH  37  60
ATOM     60  C   UNL A   1      44.794  33.114  29.460  1.00  0.00     0.023 A 
ATOM     61  C   UNL A   1      44.663  34.269  28.669  1.00  0.00     0.031 A 
ATOM     62  C   UNL A   1      45.574  33.194  30.626  1.00  0.00     0.131 A 
ATOM     63  C   UNL A   1      45.366  35.433  29.011  1.00  0.00     0.055 A 
ATOM     64  C   UNL A   1      46.217  34.375  30.997  1.00  0.00     0.041 A 
ATOM     65  F   UNL A   1      45.734  32.121  31.416  1.00  0.00    -0.206 F 
ATOM     66  C   UNL A   1      46.131  35.497  30.178  1.00  0.00     0.022 A 
BRANCH  63  67
ATOM     67  S   UNL A   1      45.366  36.820  27.842  1.00  0.00     0.124 S 
ATOM     68  O   UNL A   1      45.031  37.947  28.708  1.00  0.00    -0.237 OA
ATOM     69  O   UNL A   1      46.731  36.794  27.328  1.00  0.00    -0.237 OA
ATOM     70  O   UNL A   1      44.332  36.453  26.876  1.00  0.00    -0.744 OA
ENDBRANCH  63  67
ENDBRANCH  37  60
ENDBRANCH  11  12
ENDBRANCH   4   6
ENDBRANCH   1   2
BRANCH   1  71
ATOM     71  C   UNL A   1      34.764  23.167  24.683  1.00  0.00     0.042 C 
BRANCH  71  72
ATOM     72  C   UNL A   1      33.577  24.052  25.031  1.00  0.00     0.118 C 
BRANCH  72  73
ATOM     73  N   UNL A   1      33.198  24.869  23.896  1.00  0.00    -0.353 N 
ATOM     74  C   UNL A   1      32.030  25.529  23.671  1.00  0.00     0.262 C 
ATOM     75  H   UNL A   1      33.879  24.958  23.192  1.00  0.00     0.163 HD
ATOM     76  O   UNL A   1      31.827  25.935  22.526  1.00  0.00    -0.271 OA
BRANCH  74  77
ATOM     77  C   UNL A   1      31.018  25.695  24.820  1.00  0.00     0.281 C 
ATOM     78  C   UNL A   1      29.893  26.637  24.423  1.00  0.00     0.181 C 
ATOM     79  O   UNL A   1      31.575  26.137  26.051  1.00  0.00    -0.477 OA
ATOM     80  N   UNL A   1      30.378  27.999  24.172  1.00  0.00    -0.304 N 
ATOM     81  C   UNL A   1      31.938  27.462  26.019  1.00  0.00     0.144 A 
ATOM     82  C   UNL A   1      31.404  28.408  25.115  1.00  0.00     0.086 A 
ATOM     83  C   UNL A   1      32.911  27.803  26.965  1.00  0.00     0.049 A 
ATOM     84  C   UNL A   1      31.903  29.714  25.207  1.00  0.00     0.030 A 
ATOM     85  C   UNL A   1      33.397  29.101  27.021  1.00  0.00     0.004 A 
ATOM     86  C   UNL A   1      32.893  30.055  26.142  1.00  0.00     0.002 A 
BRANCH  80  87
ATOM     87  C   UNL A   1      29.985  28.768  23.075  1.00  0.00     0.230 C 
ATOM     88  O   UNL A   1      30.606  28.765  22.001  1.00  0.00    -0.274 OA
BRANCH  87  89
ATOM     89  C   UNL A   1      28.767  29.729  23.132  1.00  0.00     0.083 C 
ATOM     90  C   UNL A   1      28.974  31.116  23.758  1.00  0.00     0.040 C 
ATOM     91  C   UNL A   1      27.881  29.708  21.881  1.00  0.00     0.018 C 
ATOM     92  C   UNL A   1      28.777  32.284  22.832  1.00  0.00    -0.030 C 
ATOM     93  C   UNL A   1      28.080  30.860  20.901  1.00  0.00     0.028 C 
ATOM     94  C   UNL A   1      28.393  32.169  21.554  1.00  0.00    -0.031 C 
ENDBRANCH  87  89
ENDBRANCH  80  87
ENDBRANCH  74  77
ENDBRANCH  72  73
ENDBRANCH  71  72
ENDBRANCH   1  71
TORSDOF 15
ENDMDL
MODEL 3
REMARK VINA RESULT:     -12.7      1.424      1.652
REMARK SMILES O=C(NCCCNC(=O)[C@@H]1CN(C(=O)[C@H]2CC=CCC2)c2ccccc2O1)c1ccc(-c2c3nc(c(-c4cc(S(=O)(=O)[O-])ccc4F)c4ccc([nH]4)c(-c4cc(S(=O)(=O)[O-])ccc4F)c4nc(c(-c5cc(S(=O)(=O)[O-])ccc5F)c5ccc2[nH]5)C=C4)C=C3)cc1
REMARK SMILES IDX 4 1 3 2 1 3 2 4 28 6 29 7 90 8 30 9 89 10 31 11 32 12 33 13
REMARK SMILES IDX 83 14 34 15 88 16 82 17 84 18 35 19 87 20 81 21 80 22 36 24
REMARK SMILES IDX 68 25 48 26 67 27 49 28 52 29 66 30 85 31 50 32 51 33 65 35
REMARK SMILES IDX 86 36 53 37 37 38 38 39 46 40 39 41 45 42 47 43 44 44 40 45
REMARK SMILES IDX 41 46 42 47 43 48 69 49 70 50 78 51 71 52 77 53 79 54 76 55
REMARK SMILES IDX 72 56 73 57 74 58 75 59 54 60 55 61 63 62 56 63 62 64 64 65
REMARK SMILES IDX 61 66 57 67 58 68 59 69 60 70 5 71 6 72 7 73 8 74 9 76 10 77
REMARK SMILES IDX 11 78 27 79 12 80 26 81 21 82 25 83 22 84 24 85 23 86 13 87
REMARK SMILES IDX 14 88 15 89 16 90 20 91 17 92 19 93 18 94
REMARK H PARENT 3 5 84 23 52 34 7 75
REMARK Flexibility Score: inf
ROOT
ATOM      1  C   UNL A   1      33.456  28.700  25.479  1.00  0.00     0.118 C 
ENDROOT
BRANCH   1   2
ATOM      2  N   UNL A   1      32.873  29.975  25.881  1.00  0.00    -0.352 N 
ATOM      3  O   UNL A   1      32.528  31.764  27.210  1.00  0.00    -0.269 OA
ATOM      4  C   UNL A   1      33.254  30.835  26.885  1.00  0.00     0.251 C 
ATOM      5  H   UNL A   1      32.090  30.262  25.357  1.00  0.00     0.163 HD
BRANCH   4   6
ATOM      6  C   UNL A   1      34.542  30.609  27.569  1.00  0.00     0.039 A 
ATOM      7  C   UNL A   1      34.811  29.365  28.137  1.00  0.00     0.014 A 
ATOM      8  C   UNL A   1      35.473  31.647  27.665  1.00  0.00     0.014 A 
ATOM      9  C   UNL A   1      35.915  29.215  28.959  1.00  0.00     0.010 A 
ATOM     10  C   UNL A   1      36.652  31.450  28.390  1.00  0.00     0.010 A 
ATOM     11  C   UNL A   1      36.868  30.241  29.068  1.00  0.00    -0.014 A 
BRANCH  11  12
ATOM     12  C   UNL A   1      38.110  29.961  29.833  1.00  0.00     0.031 A 
ATOM     13  C   UNL A   1      38.325  30.512  31.214  1.00  0.00     0.074 A 
ATOM     14  C   UNL A   1      39.009  29.121  29.281  1.00  0.00     0.049 A 
ATOM     15  N   UNL A   1      39.326  30.307  32.032  1.00  0.00    -0.248 NA
ATOM     16  C   UNL A   1      37.295  31.417  31.744  1.00  0.00     0.031 C 
ATOM     17  C   UNL A   1      38.896  28.541  27.937  1.00  0.00     0.029 A 
ATOM     18  N   UNL A   1      40.159  28.571  29.777  1.00  0.00    -0.354 N 
ATOM     19  C   UNL A   1      39.058  31.064  33.167  1.00  0.00     0.074 A 
ATOM     20  C   UNL A   1      37.811  31.759  32.918  1.00  0.00     0.031 C 
ATOM     21  C   UNL A   1      39.886  27.659  27.751  1.00  0.00     0.029 A 
ATOM     22  C   UNL A   1      40.757  27.678  28.918  1.00  0.00     0.049 A 
ATOM     23  H   UNL A   1      40.525  28.794  30.665  1.00  0.00     0.167 HD
ATOM     24  C   UNL A   1      39.785  31.160  34.309  1.00  0.00     0.034 A 
ATOM     25  C   UNL A   1      41.893  26.968  29.042  1.00  0.00     0.034 A 
ATOM     26  C   UNL A   1      41.027  30.455  34.531  1.00  0.00     0.049 A 
ATOM     27  C   UNL A   1      42.680  27.106  30.314  1.00  0.00     0.074 A 
ATOM     28  C   UNL A   1      41.848  30.483  35.645  1.00  0.00     0.029 A 
ATOM     29  N   UNL A   1      41.627  29.592  33.622  1.00  0.00    -0.354 N 
ATOM     30  N   UNL A   1      42.412  27.836  31.373  1.00  0.00    -0.248 NA
ATOM     31  C   UNL A   1      43.918  26.327  30.409  1.00  0.00     0.031 C 
ATOM     32  C   UNL A   1      42.969  29.685  35.387  1.00  0.00     0.029 A 
ATOM     33  C   UNL A   1      42.816  29.100  34.140  1.00  0.00     0.049 A 
ATOM     34  H   UNL A   1      41.261  29.363  32.736  1.00  0.00     0.167 HD
ATOM     35  C   UNL A   1      43.454  27.603  32.262  1.00  0.00     0.074 A 
ATOM     36  C   UNL A   1      44.324  26.627  31.633  1.00  0.00     0.031 C 
ATOM     37  C   UNL A   1      43.683  28.152  33.482  1.00  0.00     0.034 A 
BRANCH  24  38
ATOM     38  C   UNL A   1      39.277  32.090  35.384  1.00  0.00     0.023 A 
ATOM     39  C   UNL A   1      39.711  33.424  35.477  1.00  0.00     0.031 A 
ATOM     40  C   UNL A   1      38.340  31.638  36.331  1.00  0.00     0.131 A 
ATOM     41  C   UNL A   1      39.250  34.242  36.522  1.00  0.00     0.055 A 
ATOM     42  C   UNL A   1      37.832  32.475  37.327  1.00  0.00     0.041 A 
ATOM     43  F   UNL A   1      37.902  30.368  36.306  1.00  0.00    -0.206 F 
ATOM     44  C   UNL A   1      38.295  33.784  37.433  1.00  0.00     0.022 A 
BRANCH  41  45
ATOM     45  S   UNL A   1      39.999  35.880  36.740  1.00  0.00     0.124 S 
ATOM     46  O   UNL A   1      39.311  36.364  37.934  1.00  0.00    -0.237 OA
ATOM     47  O   UNL A   1      41.412  35.563  36.903  1.00  0.00    -0.237 OA
ATOM     48  O   UNL A   1      39.654  36.582  35.505  1.00  0.00    -0.744 OA
ENDBRANCH  41  45
ENDBRANCH  24  38
BRANCH  25  49
ATOM     49  C   UNL A   1      42.371  26.112  27.919  1.00  0.00     0.023 A 
ATOM     50  C   UNL A   1      41.891  24.806  27.741  1.00  0.00     0.031 A 
ATOM     51  C   UNL A   1      43.348  26.582  27.022  1.00  0.00     0.131 A 
ATOM     52  C   UNL A   1      42.422  24.000  26.721  1.00  0.00     0.055 A 
ATOM     53  C   UNL A   1      43.826  25.801  25.970  1.00  0.00     0.041 A 
ATOM     54  F   UNL A   1      43.842  27.826  27.145  1.00  0.00    -0.206 F 
ATOM     55  C   UNL A   1      43.373  24.495  25.826  1.00  0.00     0.022 A 
BRANCH  52  56
ATOM     56  S   UNL A   1      41.925  22.258  26.645  1.00  0.00     0.124 S 
ATOM     57  O   UNL A   1      42.503  21.838  25.374  1.00  0.00    -0.237 OA
ATOM     58  O   UNL A   1      42.549  21.713  27.845  1.00  0.00    -0.237 OA
ATOM     59  O   UNL A   1      40.465  22.320  26.677  1.00  0.00    -0.744 OA
ENDBRANCH  52  56
ENDBRANCH  25  49
BRANCH  37  60
ATOM     60  C   UNL A   1      44.925  27.685  34.199  1.00  0.00     0.023 A 
ATOM     61  C   UNL A   1      44.893  26.579  35.066  1.00  0.00     0.031 A 
ATOM     62  C   UNL A   1      46.133  28.389  34.065  1.00  0.00     0.131 A 
ATOM     63  C   UNL A   1      46.026  26.256  35.826  1.00  0.00     0.055 A 
ATOM     64  C   UNL A   1      47.277  28.021  34.774  1.00  0.00     0.041 A 
ATOM     65  F   UNL A   1      46.217  29.454  33.252  1.00  0.00    -0.206 F 
ATOM     66  C   UNL A   1      47.222  26.961  35.675  1.00  0.00     0.022 A 
BRANCH  63  67
ATOM     67  S   UNL A   1      45.875  24.980  37.106  1.00  0.00     0.124 S 
ATOM     68  O   UNL A   1      46.269  25.708  38.309  1.00  0.00    -0.237 OA
ATOM     69  O   UNL A   1      44.465  24.613  37.016  1.00  0.00    -0.237 OA
ATOM     70  O   UNL A   1      46.813  23.946  36.672  1.00  0.00    -0.744 OA
ENDBRANCH  63  67
ENDBRANCH  37  60
ENDBRANCH  11  12
ENDBRANCH   4   6
ENDBRANCH   1   2
BRANCH   1  71
ATOM     71  C   UNL A   1      32.562  27.513  25.812  1.00  0.00     0.042 C 
BRANCH  71  72
ATOM     72  C   UNL A   1      32.919  26.254  25.037  1.00  0.00     0.118 C 
BRANCH  72  73
ATOM     73  N   UNL A   1      32.762  25.079  25.869  1.00  0.00    -0.353 N 
ATOM     74  C   UNL A   1      32.561  23.787  25.494  1.00  0.00     0.262 C 
ATOM     75  H   UNL A   1      32.808  25.237  26.839  1.00  0.00     0.163 HD
ATOM     76  O   UNL A   1      32.187  23.001  26.366  1.00  0.00    -0.271 OA
BRANCH  74  77
ATOM     77  C   UNL A   1      32.758  23.385  24.021  1.00  0.00     0.281 C 
ATOM     78  C   UNL A   1      32.423  21.917  23.807  1.00  0.00     0.181 C 
ATOM     79  O   UNL A   1      34.055  23.640  23.497  1.00  0.00    -0.477 OA
ATOM     80  N   UNL A   1      33.329  21.031  24.546  1.00  0.00    -0.304 N 
ATOM     81  C   UNL A   1      35.001  22.771  23.987  1.00  0.00     0.144 A 
ATOM     82  C   UNL A   1      34.704  21.499  24.527  1.00  0.00     0.086 A 
ATOM     83  C   UNL A   1      36.308  23.264  23.920  1.00  0.00     0.049 A 
ATOM     84  C   UNL A   1      35.789  20.750  25.001  1.00  0.00     0.030 A 
ATOM     85  C   UNL A   1      37.361  22.506  24.414  1.00  0.00     0.004 A 
ATOM     86  C   UNL A   1      37.100  21.250  24.953  1.00  0.00     0.002 A 
BRANCH  80  87
ATOM     87  C   UNL A   1      32.897  19.930  25.288  1.00  0.00     0.230 C 
ATOM     88  O   UNL A   1      32.903  19.917  26.528  1.00  0.00    -0.274 OA
BRANCH  87  89
ATOM     89  C   UNL A   1      32.422  18.614  24.615  1.00  0.00     0.083 C 
ATOM     90  C   UNL A   1      32.768  18.398  23.134  1.00  0.00     0.040 C 
ATOM     91  C   UNL A   1      32.546  17.367  25.499  1.00  0.00     0.018 C 
ATOM     92  C   UNL A   1      33.668  17.230  22.840  1.00  0.00    -0.030 C 
ATOM     93  C   UNL A   1      33.745  16.464  25.217  1.00  0.00     0.028 C 
ATOM     94  C   UNL A   1      34.115  16.376  23.771  1.00  0.00    -0.031 C 
ENDBRANCH  87  89
ENDBRANCH  80  87
ENDBRANCH  74  77
ENDBRANCH  72  73
ENDBRANCH  71  72
ENDBRANCH   1  71
TORSDOF 15
ENDMDL
