MODEL 1
REMARK VINA RESULT:     -12.3      0.000      0.000
REMARK SMILES CC[C@H](NC(=O)NC[C@@]1(C)CCCO1)C(=O)NCCCNC(=O)c1ccc(-c2c3nc(c(-c4cc(S(=O)(=O)[O-])ccc4F)c4ccc([nH]4)c(-c4cc(S(=O)(=O)[O-])ccc4F)c4nc(c(-c5cc(S(=O)(=O)[O-])ccc5F)c5ccc2[nH]5)C=C4)C=C3)cc1
REMARK SMILES IDX 19 1 18 2 17 3 15 4 16 5 3 7 2 8 1 9 4 10 5 11 6 13 7 14
REMARK SMILES IDX 8 16 9 17 10 18 11 19 14 20 12 21 13 22 20 23 21 24 22 25
REMARK SMILES IDX 23 27 24 28 25 29 86 30 26 31 85 32 27 33 28 34 29 35 79 36
REMARK SMILES IDX 30 37 84 38 78 39 80 40 31 41 83 42 77 43 76 44 32 46 64 47
REMARK SMILES IDX 44 48 63 49 45 50 48 51 62 52 81 53 46 54 47 55 61 57 82 58
REMARK SMILES IDX 49 59 33 60 34 61 42 62 35 63 41 64 43 65 40 66 36 67 37 68
REMARK SMILES IDX 38 69 39 70 65 71 66 72 74 73 67 74 73 75 75 76 72 77 68 78
REMARK SMILES IDX 69 79 70 80 71 81 50 82 51 83 59 84 52 85 58 86 60 87 57 88
REMARK SMILES IDX 53 89 54 90 55 91 56 92
REMARK H PARENT 17 6 4 12 7 15 21 26 80 45 48 56
REMARK Flexibility Score: inf
ROOT
ATOM      1  C   UNL A   1      31.358  31.394  26.047  1.00  0.00     0.042 C 
ENDROOT
BRANCH   1   2
ATOM      2  C   UNL A   1      32.044  30.027  26.115  1.00  0.00     0.117 C 
BRANCH   2   3
ATOM      3  N   UNL A   1      33.174  29.698  25.264  1.00  0.00    -0.354 N 
ATOM      4  C   UNL A   1      33.217  28.880  24.163  1.00  0.00     0.242 C 
ATOM      5  O   UNL A   1      33.589  29.330  23.073  1.00  0.00    -0.273 OA
ATOM      6  H   UNL A   1      34.027  30.122  25.510  1.00  0.00     0.163 HD
BRANCH   4   7
ATOM      7  C   UNL A   1      32.796  27.415  24.250  1.00  0.00     0.172 C 
BRANCH   7   8
ATOM      8  C   UNL A   1      33.760  26.609  25.155  1.00  0.00     0.032 C 
ATOM      9  C   UNL A   1      33.146  25.519  26.033  1.00  0.00     0.006 C 
ENDBRANCH   7   8
BRANCH   7  10
ATOM     10  N   UNL A   1      32.536  26.805  22.963  1.00  0.00    -0.326 N 
ATOM     11  C   UNL A   1      31.520  26.943  22.105  1.00  0.00     0.315 C 
ATOM     12  H   UNL A   1      33.232  26.175  22.665  1.00  0.00     0.166 HD
ATOM     13  O   UNL A   1      31.548  26.239  21.089  1.00  0.00    -0.249 OA
ATOM     14  N   UNL A   1      30.516  27.829  22.199  1.00  0.00    -0.335 N 
ATOM     15  H   UNL A   1      30.087  27.962  21.324  1.00  0.00     0.165 HD
BRANCH  14  16
ATOM     16  C   UNL A   1      29.866  28.659  23.229  1.00  0.00     0.152 C 
BRANCH  16  17
ATOM     17  C   UNL A   1      28.615  29.528  22.830  1.00  0.00     0.083 C 
ATOM     18  C   UNL A   1      27.281  28.838  23.065  1.00  0.00     0.044 C 
ATOM     19  C   UNL A   1      28.626  30.910  23.484  1.00  0.00     0.039 C 
ATOM     20  O   UNL A   1      28.650  29.824  21.423  1.00  0.00    -0.373 OA
ATOM     21  C   UNL A   1      27.876  31.780  22.493  1.00  0.00     0.031 C 
ATOM     22  C   UNL A   1      28.219  31.158  21.162  1.00  0.00     0.161 C 
ENDBRANCH  16  17
ENDBRANCH  14  16
ENDBRANCH   7  10
ENDBRANCH   4   7
ENDBRANCH   2   3
ENDBRANCH   1   2
BRANCH   1  23
ATOM     23  C   UNL A   1      31.518  32.439  27.141  1.00  0.00     0.118 C 
BRANCH  23  24
ATOM     24  N   UNL A   1      32.586  33.414  27.062  1.00  0.00    -0.352 N 
ATOM     25  C   UNL A   1      33.389  33.689  28.143  1.00  0.00     0.251 C 
ATOM     26  H   UNL A   1      32.740  33.890  26.215  1.00  0.00     0.163 HD
ATOM     27  O   UNL A   1      33.053  34.465  29.031  1.00  0.00    -0.269 OA
BRANCH  25  28
ATOM     28  C   UNL A   1      34.673  32.927  28.183  1.00  0.00     0.039 A 
ATOM     29  C   UNL A   1      35.868  33.632  28.330  1.00  0.00     0.014 A 
ATOM     30  C   UNL A   1      34.673  31.524  28.291  1.00  0.00     0.014 A 
ATOM     31  C   UNL A   1      37.028  32.956  28.714  1.00  0.00     0.010 A 
ATOM     32  C   UNL A   1      35.812  30.858  28.726  1.00  0.00     0.010 A 
ATOM     33  C   UNL A   1      36.976  31.582  28.999  1.00  0.00    -0.014 A 
BRANCH  33  34
ATOM     34  C   UNL A   1      38.050  30.941  29.793  1.00  0.00     0.031 A 
ATOM     35  C   UNL A   1      38.947  29.907  29.190  1.00  0.00     0.074 A 
ATOM     36  C   UNL A   1      38.113  31.241  31.106  1.00  0.00     0.049 A 
ATOM     37  N   UNL A   1      39.954  29.273  29.734  1.00  0.00    -0.248 NA
ATOM     38  C   UNL A   1      38.652  29.503  27.809  1.00  0.00     0.031 C 
ATOM     39  C   UNL A   1      37.187  32.140  31.807  1.00  0.00     0.029 A 
ATOM     40  N   UNL A   1      38.979  30.836  32.085  1.00  0.00    -0.354 N 
ATOM     41  C   UNL A   1      40.421  28.401  28.758  1.00  0.00     0.074 A 
ATOM     42  C   UNL A   1      39.540  28.538  27.617  1.00  0.00     0.031 C 
ATOM     43  C   UNL A   1      37.566  32.255  33.088  1.00  0.00     0.029 A 
ATOM     44  C   UNL A   1      38.741  31.424  33.307  1.00  0.00     0.049 A 
ATOM     45  H   UNL A   1      39.702  30.186  31.931  1.00  0.00     0.167 HD
ATOM     46  C   UNL A   1      41.503  27.582  28.812  1.00  0.00     0.034 A 
ATOM     47  C   UNL A   1      39.413  31.318  34.469  1.00  0.00     0.034 A 
ATOM     48  C   UNL A   1      42.341  27.461  29.983  1.00  0.00     0.049 A 
ATOM     49  C   UNL A   1      40.646  30.457  34.485  1.00  0.00     0.074 A 
ATOM     50  C   UNL A   1      43.486  26.704  30.159  1.00  0.00     0.029 A 
ATOM     51  N   UNL A   1      42.110  28.113  31.192  1.00  0.00    -0.354 N 
ATOM     52  N   UNL A   1      41.145  29.714  33.522  1.00  0.00    -0.248 NA
ATOM     53  C   UNL A   1      41.421  30.442  35.729  1.00  0.00     0.031 C 
ATOM     54  C   UNL A   1      43.916  26.860  31.484  1.00  0.00     0.029 A 
ATOM     55  C   UNL A   1      43.079  27.763  32.119  1.00  0.00     0.049 A 
ATOM     56  H   UNL A   1      41.365  28.733  31.363  1.00  0.00     0.167 HD
ATOM     57  C   UNL A   1      42.305  29.152  34.042  1.00  0.00     0.074 A 
ATOM     58  C   UNL A   1      42.446  29.674  35.388  1.00  0.00     0.031 C 
ATOM     59  C   UNL A   1      43.174  28.282  33.466  1.00  0.00     0.034 A 
BRANCH  46  60
ATOM     60  C   UNL A   1      41.807  26.761  27.580  1.00  0.00     0.023 A 
ATOM     61  C   UNL A   1      41.432  25.408  27.491  1.00  0.00     0.031 A 
ATOM     62  C   UNL A   1      42.525  27.312  26.504  1.00  0.00     0.131 A 
ATOM     63  C   UNL A   1      41.855  24.629  26.403  1.00  0.00     0.055 A 
ATOM     64  C   UNL A   1      42.869  26.551  25.382  1.00  0.00     0.041 A 
ATOM     65  F   UNL A   1      42.930  28.591  26.534  1.00  0.00    -0.206 F 
ATOM     66  C   UNL A   1      42.550  25.197  25.335  1.00  0.00     0.022 A 
BRANCH  63  67
ATOM     67  S   UNL A   1      41.618  22.832  26.482  1.00  0.00     0.124 S 
ATOM     68  O   UNL A   1      40.160  22.726  26.458  1.00  0.00    -0.237 OA
ATOM     69  O   UNL A   1      42.312  22.367  25.286  1.00  0.00    -0.237 OA
ATOM     70  O   UNL A   1      42.240  22.458  27.749  1.00  0.00    -0.744 OA
ENDBRANCH  63  67
ENDBRANCH  46  60
BRANCH  47  71
ATOM     71  C   UNL A   1      38.970  32.077  35.671  1.00  0.00     0.023 A 
ATOM     72  C   UNL A   1      38.285  31.440  36.718  1.00  0.00     0.031 A 
ATOM     73  C   UNL A   1      39.226  33.455  35.795  1.00  0.00     0.131 A 
ATOM     74  C   UNL A   1      37.845  32.182  37.824  1.00  0.00     0.055 A 
ATOM     75  C   UNL A   1      38.825  34.182  36.918  1.00  0.00     0.041 A 
ATOM     76  F   UNL A   1      39.891  34.110  34.831  1.00  0.00    -0.206 F 
ATOM     77  C   UNL A   1      38.119  33.547  37.936  1.00  0.00     0.022 A 
BRANCH  74  78
ATOM     78  S   UNL A   1      36.846  31.350  39.089  1.00  0.00     0.124 S 
ATOM     79  O   UNL A   1      36.716  30.007  38.533  1.00  0.00    -0.237 OA
ATOM     80  O   UNL A   1      37.691  31.475  40.272  1.00  0.00    -0.237 OA
ATOM     81  O   UNL A   1      35.613  32.133  39.120  1.00  0.00    -0.744 OA
ENDBRANCH  74  78
ENDBRANCH  47  71
BRANCH  59  82
ATOM     82  C   UNL A   1      44.349  27.864  34.311  1.00  0.00     0.023 A 
ATOM     83  C   UNL A   1      44.242  26.819  35.245  1.00  0.00     0.031 A 
ATOM     84  C   UNL A   1      45.572  28.550  34.218  1.00  0.00     0.131 A 
ATOM     85  C   UNL A   1      45.313  26.539  36.104  1.00  0.00     0.055 A 
ATOM     86  C   UNL A   1      46.657  28.224  35.031  1.00  0.00     0.041 A 
ATOM     87  F   UNL A   1      45.725  29.557  33.344  1.00  0.00    -0.206 F 
ATOM     88  C   UNL A   1      46.526  27.225  35.993  1.00  0.00     0.022 A 
BRANCH  85  89
ATOM     89  S   UNL A   1      45.058  25.347  37.446  1.00  0.00     0.124 S 
ATOM     90  O   UNL A   1      45.916  24.240  37.036  1.00  0.00    -0.237 OA
ATOM     91  O   UNL A   1      45.501  26.098  38.616  1.00  0.00    -0.237 OA
ATOM     92  O   UNL A   1      43.624  25.073  37.393  1.00  0.00    -0.744 OA
ENDBRANCH  85  89
ENDBRANCH  59  82
ENDBRANCH  33  34
ENDBRANCH  25  28
ENDBRANCH  23  24
ENDBRANCH   1  23
TORSDOF 17
ENDMDL
MODEL 2
REMARK VINA RESULT:     -11.9      2.034      2.312
REMARK SMILES CC[C@H](NC(=O)NC[C@@]1(C)CCCO1)C(=O)NCCCNC(=O)c1ccc(-c2c3nc(c(-c4cc(S(=O)(=O)[O-])ccc4F)c4ccc([nH]4)c(-c4cc(S(=O)(=O)[O-])ccc4F)c4nc(c(-c5cc(S(=O)(=O)[O-])ccc5F)c5ccc2[nH]5)C=C4)C=C3)cc1
REMARK SMILES IDX 19 1 18 2 17 3 15 4 16 5 3 7 2 8 1 9 4 10 5 11 6 13 7 14
REMARK SMILES IDX 8 16 9 17 10 18 11 19 14 20 12 21 13 22 20 23 21 24 22 25
REMARK SMILES IDX 23 27 24 28 25 29 86 30 26 31 85 32 27 33 28 34 29 35 79 36
REMARK SMILES IDX 30 37 84 38 78 39 80 40 31 41 83 42 77 43 76 44 32 46 64 47
REMARK SMILES IDX 44 48 63 49 45 50 48 51 62 52 81 53 46 54 47 55 61 57 82 58
REMARK SMILES IDX 49 59 33 60 34 61 42 62 35 63 41 64 43 65 40 66 36 67 37 68
REMARK SMILES IDX 38 69 39 70 65 71 66 72 74 73 67 74 73 75 75 76 72 77 68 78
REMARK SMILES IDX 69 79 70 80 71 81 50 82 51 83 59 84 52 85 58 86 60 87 57 88
REMARK SMILES IDX 53 89 54 90 55 91 56 92
REMARK H PARENT 17 6 4 12 7 15 21 26 80 45 48 56
REMARK Flexibility Score: inf
ROOT
ATOM      1  C   UNL A   1      31.212  31.690  25.994  1.00  0.00     0.042 C 
ENDROOT
BRANCH   1   2
ATOM      2  C   UNL A   1      31.697  30.241  25.914  1.00  0.00     0.117 C 
BRANCH   2   3
ATOM      3  N   UNL A   1      32.936  29.887  25.244  1.00  0.00    -0.354 N 
ATOM      4  C   UNL A   1      33.144  28.985  24.231  1.00  0.00     0.242 C 
ATOM      5  O   UNL A   1      33.642  29.360  23.163  1.00  0.00    -0.273 OA
ATOM      6  H   UNL A   1      33.739  30.361  25.560  1.00  0.00     0.163 HD
BRANCH   4   7
ATOM      7  C   UNL A   1      32.754  27.517  24.387  1.00  0.00     0.172 C 
BRANCH   7   8
ATOM      8  C   UNL A   1      33.725  26.779  25.342  1.00  0.00     0.032 C 
ATOM      9  C   UNL A   1      34.259  25.423  24.884  1.00  0.00     0.006 C 
ENDBRANCH   7   8
BRANCH   7  10
ATOM     10  N   UNL A   1      32.523  26.838  23.130  1.00  0.00    -0.326 N 
ATOM     11  C   UNL A   1      31.504  26.892  22.266  1.00  0.00     0.315 C 
ATOM     12  H   UNL A   1      33.246  26.225  22.862  1.00  0.00     0.166 HD
ATOM     13  O   UNL A   1      31.564  26.144  21.284  1.00  0.00    -0.249 OA
ATOM     14  N   UNL A   1      30.462  27.737  22.319  1.00  0.00    -0.335 N 
ATOM     15  H   UNL A   1      30.031  27.812  21.438  1.00  0.00     0.165 HD
BRANCH  14  16
ATOM     16  C   UNL A   1      29.775  28.586  23.309  1.00  0.00     0.152 C 
BRANCH  16  17
ATOM     17  C   UNL A   1      28.537  29.444  22.850  1.00  0.00     0.083 C 
ATOM     18  C   UNL A   1      27.197  28.755  23.051  1.00  0.00     0.044 C 
ATOM     19  C   UNL A   1      28.523  30.838  23.477  1.00  0.00     0.039 C 
ATOM     20  O   UNL A   1      28.622  29.713  21.439  1.00  0.00    -0.373 OA
ATOM     21  C   UNL A   1      27.807  31.687  22.445  1.00  0.00     0.031 C 
ATOM     22  C   UNL A   1      28.198  31.041  21.138  1.00  0.00     0.161 C 
ENDBRANCH  16  17
ENDBRANCH  14  16
ENDBRANCH   7  10
ENDBRANCH   4   7
ENDBRANCH   2   3
ENDBRANCH   1   2
BRANCH   1  23
ATOM     23  C   UNL A   1      31.522  32.586  27.184  1.00  0.00     0.118 C 
BRANCH  23  24
ATOM     24  N   UNL A   1      32.603  33.546  27.107  1.00  0.00    -0.352 N 
ATOM     25  C   UNL A   1      33.413  33.804  28.187  1.00  0.00     0.251 C 
ATOM     26  H   UNL A   1      32.762  34.024  26.261  1.00  0.00     0.163 HD
ATOM     27  O   UNL A   1      33.090  34.581  29.080  1.00  0.00    -0.269 OA
BRANCH  25  28
ATOM     28  C   UNL A   1      34.686  33.024  28.220  1.00  0.00     0.039 A 
ATOM     29  C   UNL A   1      35.896  33.715  28.296  1.00  0.00     0.014 A 
ATOM     30  C   UNL A   1      34.668  31.627  28.391  1.00  0.00     0.014 A 
ATOM     31  C   UNL A   1      37.057  33.037  28.672  1.00  0.00     0.010 A 
ATOM     32  C   UNL A   1      35.811  30.963  28.818  1.00  0.00     0.010 A 
ATOM     33  C   UNL A   1      36.994  31.678  29.021  1.00  0.00    -0.014 A 
BRANCH  33  34
ATOM     34  C   UNL A   1      38.084  31.055  29.807  1.00  0.00     0.031 A 
ATOM     35  C   UNL A   1      38.948  29.984  29.222  1.00  0.00     0.074 A 
ATOM     36  C   UNL A   1      38.193  31.410  31.104  1.00  0.00     0.049 A 
ATOM     37  N   UNL A   1      39.962  29.359  29.760  1.00  0.00    -0.248 NA
ATOM     38  C   UNL A   1      38.603  29.526  27.869  1.00  0.00     0.031 C 
ATOM     39  C   UNL A   1      37.302  32.352  31.794  1.00  0.00     0.029 A 
ATOM     40  N   UNL A   1      39.084  31.035  32.072  1.00  0.00    -0.354 N 
ATOM     41  C   UNL A   1      40.386  28.439  28.810  1.00  0.00     0.074 A 
ATOM     42  C   UNL A   1      39.471  28.540  27.692  1.00  0.00     0.031 C 
ATOM     43  C   UNL A   1      37.723  32.516  33.057  1.00  0.00     0.029 A 
ATOM     44  C   UNL A   1      38.893  31.677  33.274  1.00  0.00     0.049 A 
ATOM     45  H   UNL A   1      39.793  30.368  31.924  1.00  0.00     0.167 HD
ATOM     46  C   UNL A   1      41.458  27.607  28.865  1.00  0.00     0.034 A 
ATOM     47  C   UNL A   1      39.601  31.611  34.418  1.00  0.00     0.034 A 
ATOM     48  C   UNL A   1      42.331  27.523  30.013  1.00  0.00     0.049 A 
ATOM     49  C   UNL A   1      40.822  30.733  34.432  1.00  0.00     0.074 A 
ATOM     50  C   UNL A   1      43.471  26.757  30.186  1.00  0.00     0.029 A 
ATOM     51  N   UNL A   1      42.148  28.230  31.199  1.00  0.00    -0.354 N 
ATOM     52  N   UNL A   1      41.279  29.942  33.487  1.00  0.00    -0.248 NA
ATOM     53  C   UNL A   1      41.635  30.760  35.651  1.00  0.00     0.031 C 
ATOM     54  C   UNL A   1      43.945  26.963  31.488  1.00  0.00     0.029 A 
ATOM     55  C   UNL A   1      43.141  27.905  32.110  1.00  0.00     0.049 A 
ATOM     56  H   UNL A   1      41.417  28.868  31.366  1.00  0.00     0.167 HD
ATOM     57  C   UNL A   1      42.447  29.386  33.994  1.00  0.00     0.074 A 
ATOM     58  C   UNL A   1      42.638  29.963  35.312  1.00  0.00     0.031 C 
ATOM     59  C   UNL A   1      43.286  28.479  33.429  1.00  0.00     0.034 A 
BRANCH  46  60
ATOM     60  C   UNL A   1      41.712  26.730  27.660  1.00  0.00     0.023 A 
ATOM     61  C   UNL A   1      41.395  25.359  27.673  1.00  0.00     0.031 A 
ATOM     62  C   UNL A   1      42.325  27.247  26.506  1.00  0.00     0.131 A 
ATOM     63  C   UNL A   1      41.775  24.537  26.601  1.00  0.00     0.055 A 
ATOM     64  C   UNL A   1      42.623  26.439  25.404  1.00  0.00     0.041 A 
ATOM     65  F   UNL A   1      42.671  28.542  26.436  1.00  0.00    -0.206 F 
ATOM     66  C   UNL A   1      42.365  25.072  25.455  1.00  0.00     0.022 A 
BRANCH  63  67
ATOM     67  S   UNL A   1      41.629  22.739  26.795  1.00  0.00     0.124 S 
ATOM     68  O   UNL A   1      42.622  22.474  27.834  1.00  0.00    -0.237 OA
ATOM     69  O   UNL A   1      40.234  22.574  27.187  1.00  0.00    -0.237 OA
ATOM     70  O   UNL A   1      41.971  22.222  25.472  1.00  0.00    -0.744 OA
ENDBRANCH  63  67
ENDBRANCH  46  60
BRANCH  47  71
ATOM     71  C   UNL A   1      39.206  32.427  35.600  1.00  0.00     0.023 A 
ATOM     72  C   UNL A   1      39.675  33.740  35.763  1.00  0.00     0.031 A 
ATOM     73  C   UNL A   1      38.350  31.907  36.587  1.00  0.00     0.131 A 
ATOM     74  C   UNL A   1      39.320  34.476  36.903  1.00  0.00     0.055 A 
ATOM     75  C   UNL A   1      37.962  32.659  37.699  1.00  0.00     0.041 A 
ATOM     76  F   UNL A   1      37.858  30.663  36.472  1.00  0.00    -0.206 F 
ATOM     77  C   UNL A   1      38.458  33.948  37.868  1.00  0.00     0.022 A 
BRANCH  74  78
ATOM     78  S   UNL A   1      40.055  36.116  37.144  1.00  0.00     0.124 S 
ATOM     79  O   UNL A   1      39.259  36.643  38.248  1.00  0.00    -0.237 OA
ATOM     80  O   UNL A   1      41.441  35.785  37.456  1.00  0.00    -0.237 OA
ATOM     81  O   UNL A   1      39.848  36.776  35.857  1.00  0.00    -0.744 OA
ENDBRANCH  74  78
ENDBRANCH  47  71
BRANCH  59  82
ATOM     82  C   UNL A   1      44.481  28.080  34.255  1.00  0.00     0.023 A 
ATOM     83  C   UNL A   1      45.704  28.764  34.148  1.00  0.00     0.031 A 
ATOM     84  C   UNL A   1      44.411  26.973  35.119  1.00  0.00     0.131 A 
ATOM     85  C   UNL A   1      46.830  28.290  34.834  1.00  0.00     0.055 A 
ATOM     86  C   UNL A   1      45.519  26.544  35.849  1.00  0.00     0.041 A 
ATOM     87  F   UNL A   1      43.267  26.284  35.255  1.00  0.00    -0.206 F 
ATOM     88  C   UNL A   1      46.743  27.193  35.696  1.00  0.00     0.022 A 
BRANCH  85  89
ATOM     89  S   UNL A   1      48.438  29.054  34.492  1.00  0.00     0.124 S 
ATOM     90  O   UNL A   1      49.366  27.997  34.879  1.00  0.00    -0.237 OA
ATOM     91  O   UNL A   1      48.351  29.335  33.062  1.00  0.00    -0.237 OA
ATOM     92  O   UNL A   1      48.448  30.234  35.354  1.00  0.00    -0.744 OA
ENDBRANCH  85  89
ENDBRANCH  59  82
ENDBRANCH  33  34
ENDBRANCH  25  28
ENDBRANCH  23  24
ENDBRANCH   1  23
TORSDOF 17
ENDMDL
MODEL 3
REMARK VINA RESULT:     -11.8      1.602      7.814
REMARK SMILES CC[C@H](NC(=O)NC[C@@]1(C)CCCO1)C(=O)NCCCNC(=O)c1ccc(-c2c3nc(c(-c4cc(S(=O)(=O)[O-])ccc4F)c4ccc([nH]4)c(-c4cc(S(=O)(=O)[O-])ccc4F)c4nc(c(-c5cc(S(=O)(=O)[O-])ccc5F)c5ccc2[nH]5)C=C4)C=C3)cc1
REMARK SMILES IDX 19 1 18 2 17 3 15 4 16 5 3 7 2 8 1 9 4 10 5 11 6 13 7 14
REMARK SMILES IDX 8 16 9 17 10 18 11 19 14 20 12 21 13 22 20 23 21 24 22 25
REMARK SMILES IDX 23 27 24 28 25 29 86 30 26 31 85 32 27 33 28 34 29 35 79 36
REMARK SMILES IDX 30 37 84 38 78 39 80 40 31 41 83 42 77 43 76 44 32 46 64 47
REMARK SMILES IDX 44 48 63 49 45 50 48 51 62 52 81 53 46 54 47 55 61 57 82 58
REMARK SMILES IDX 49 59 33 60 34 61 42 62 35 63 41 64 43 65 40 66 36 67 37 68
REMARK SMILES IDX 38 69 39 70 65 71 66 72 74 73 67 74 73 75 75 76 72 77 68 78
REMARK SMILES IDX 69 79 70 80 71 81 50 82 51 83 59 84 52 85 58 86 60 87 57 88
REMARK SMILES IDX 53 89 54 90 55 91 56 92
REMARK H PARENT 17 6 4 12 7 15 21 26 80 45 48 56
REMARK Flexibility Score: inf
ROOT
ATOM      1  C   UNL A   1      31.031  31.755  25.885  1.00  0.00     0.042 C 
ENDROOT
BRANCH   1   2
ATOM      2  C   UNL A   1      31.428  30.309  25.578  1.00  0.00     0.117 C 
BRANCH   2   3
ATOM      3  N   UNL A   1      32.756  29.968  25.103  1.00  0.00    -0.354 N 
ATOM      4  C   UNL A   1      33.126  29.035  24.167  1.00  0.00     0.242 C 
ATOM      5  O   UNL A   1      33.760  29.384  23.164  1.00  0.00    -0.273 OA
ATOM      6  H   UNL A   1      33.495  30.477  25.508  1.00  0.00     0.163 HD
BRANCH   4   7
ATOM      7  C   UNL A   1      32.755  27.563  24.328  1.00  0.00     0.172 C 
BRANCH   7   8
ATOM      8  C   UNL A   1      33.732  26.841  25.289  1.00  0.00     0.032 C 
ATOM      9  C   UNL A   1      33.727  25.313  25.271  1.00  0.00     0.006 C 
ENDBRANCH   7   8
BRANCH   7  10
ATOM     10  N   UNL A   1      32.535  26.876  23.073  1.00  0.00    -0.326 N 
ATOM     11  C   UNL A   1      31.496  26.876  22.231  1.00  0.00     0.315 C 
ATOM     12  H   UNL A   1      33.285  26.306  22.787  1.00  0.00     0.166 HD
ATOM     13  O   UNL A   1      31.577  26.135  21.245  1.00  0.00    -0.249 OA
ATOM     14  N   UNL A   1      30.411  27.661  22.309  1.00  0.00    -0.335 N 
ATOM     15  H   UNL A   1      29.957  27.714  21.438  1.00  0.00     0.165 HD
BRANCH  14  16
ATOM     16  C   UNL A   1      29.698  28.467  23.318  1.00  0.00     0.152 C 
BRANCH  16  17
ATOM     17  C   UNL A   1      28.500  29.379  22.857  1.00  0.00     0.083 C 
ATOM     18  C   UNL A   1      27.129  28.765  23.092  1.00  0.00     0.044 C 
ATOM     19  C   UNL A   1      28.567  30.785  23.454  1.00  0.00     0.039 C 
ATOM     20  O   UNL A   1      28.577  29.613  21.440  1.00  0.00    -0.373 OA
ATOM     21  C   UNL A   1      27.881  31.648  22.413  1.00  0.00     0.031 C 
ATOM     22  C   UNL A   1      28.218  30.955  21.116  1.00  0.00     0.161 C 
ENDBRANCH  16  17
ENDBRANCH  14  16
ENDBRANCH   7  10
ENDBRANCH   4   7
ENDBRANCH   2   3
ENDBRANCH   1   2
BRANCH   1  23
ATOM     23  C   UNL A   1      31.470  32.467  27.156  1.00  0.00     0.118 C 
BRANCH  23  24
ATOM     24  N   UNL A   1      32.582  33.394  27.121  1.00  0.00    -0.352 N 
ATOM     25  C   UNL A   1      33.379  33.602  28.221  1.00  0.00     0.251 C 
ATOM     26  H   UNL A   1      32.771  33.886  26.290  1.00  0.00     0.163 HD
ATOM     27  O   UNL A   1      33.064  34.368  29.126  1.00  0.00    -0.269 OA
BRANCH  25  28
ATOM     28  C   UNL A   1      34.627  32.782  28.258  1.00  0.00     0.039 A 
ATOM     29  C   UNL A   1      35.857  33.423  28.111  1.00  0.00     0.014 A 
ATOM     30  C   UNL A   1      34.586  31.431  28.649  1.00  0.00     0.014 A 
ATOM     31  C   UNL A   1      37.030  32.762  28.480  1.00  0.00     0.010 A 
ATOM     32  C   UNL A   1      35.747  30.791  29.068  1.00  0.00     0.010 A 
ATOM     33  C   UNL A   1      36.964  31.477  29.044  1.00  0.00    -0.014 A 
BRANCH  33  34
ATOM     34  C   UNL A   1      38.108  30.937  29.814  1.00  0.00     0.031 A 
ATOM     35  C   UNL A   1      38.364  31.363  31.225  1.00  0.00     0.074 A 
ATOM     36  C   UNL A   1      38.972  30.135  29.159  1.00  0.00     0.049 A 
ATOM     37  N   UNL A   1      39.297  30.965  32.048  1.00  0.00    -0.248 NA
ATOM     38  C   UNL A   1      37.479  32.403  31.769  1.00  0.00     0.031 C 
ATOM     39  C   UNL A   1      38.871  29.776  27.739  1.00  0.00     0.029 A 
ATOM     40  N   UNL A   1      40.095  29.479  29.583  1.00  0.00    -0.354 N 
ATOM     41  C   UNL A   1      39.108  31.696  33.215  1.00  0.00     0.074 A 
ATOM     42  C   UNL A   1      38.017  32.613  32.962  1.00  0.00     0.031 C 
ATOM     43  C   UNL A   1      39.861  28.926  27.425  1.00  0.00     0.029 A 
ATOM     44  C   UNL A   1      40.678  28.700  28.610  1.00  0.00     0.049 A 
ATOM     45  H   UNL A   1      40.453  29.557  30.497  1.00  0.00     0.167 HD
ATOM     46  C   UNL A   1      39.776  31.587  34.392  1.00  0.00     0.034 A 
ATOM     47  C   UNL A   1      41.741  27.877  28.675  1.00  0.00     0.034 A 
ATOM     48  C   UNL A   1      40.877  30.672  34.591  1.00  0.00     0.049 A 
ATOM     49  C   UNL A   1      42.423  27.722  30.006  1.00  0.00     0.074 A 
ATOM     50  C   UNL A   1      41.611  30.431  35.739  1.00  0.00     0.029 A 
ATOM     51  N   UNL A   1      41.411  29.850  33.602  1.00  0.00    -0.354 N 
ATOM     52  N   UNL A   1      42.171  28.342  31.138  1.00  0.00    -0.248 NA
ATOM     53  C   UNL A   1      43.510  26.742  30.078  1.00  0.00     0.031 C 
ATOM     54  C   UNL A   1      42.616  29.505  35.430  1.00  0.00     0.029 A 
ATOM     55  C   UNL A   1      42.473  29.117  34.108  1.00  0.00     0.049 A 
ATOM     56  H   UNL A   1      41.081  29.799  32.675  1.00  0.00     0.167 HD
ATOM     57  C   UNL A   1      43.061  27.813  32.064  1.00  0.00     0.074 A 
ATOM     58  C   UNL A   1      43.828  26.800  31.363  1.00  0.00     0.031 C 
ATOM     59  C   UNL A   1      43.236  28.134  33.372  1.00  0.00     0.034 A 
BRANCH  46  60
ATOM     60  C   UNL A   1      39.333  32.490  35.521  1.00  0.00     0.023 A 
ATOM     61  C   UNL A   1      39.759  33.829  35.597  1.00  0.00     0.031 A 
ATOM     62  C   UNL A   1      38.525  32.002  36.562  1.00  0.00     0.131 A 
ATOM     63  C   UNL A   1      39.457  34.602  36.728  1.00  0.00     0.055 A 
ATOM     64  C   UNL A   1      38.155  32.804  37.646  1.00  0.00     0.041 A 
ATOM     65  F   UNL A   1      38.101  30.728  36.561  1.00  0.00    -0.206 F 
ATOM     66  C   UNL A   1      38.637  34.107  37.743  1.00  0.00     0.022 A 
BRANCH  63  67
ATOM     67  S   UNL A   1      40.282  36.206  36.926  1.00  0.00     0.124 S 
ATOM     68  O   UNL A   1      41.666  35.798  37.160  1.00  0.00    -0.237 OA
ATOM     69  O   UNL A   1      40.015  36.860  35.650  1.00  0.00    -0.237 OA
ATOM     70  O   UNL A   1      39.612  36.796  38.083  1.00  0.00    -0.744 OA
ENDBRANCH  63  67
ENDBRANCH  46  60
BRANCH  47  71
ATOM     71  C   UNL A   1      42.181  27.112  27.474  1.00  0.00     0.023 A 
ATOM     72  C   UNL A   1      41.950  25.731  27.371  1.00  0.00     0.031 A 
ATOM     73  C   UNL A   1      42.839  27.751  26.407  1.00  0.00     0.131 A 
ATOM     74  C   UNL A   1      42.406  25.025  26.248  1.00  0.00     0.055 A 
ATOM     75  C   UNL A   1      43.251  27.052  25.270  1.00  0.00     0.041 A 
ATOM     76  F   UNL A   1      43.070  29.072  26.447  1.00  0.00    -0.206 F 
ATOM     77  C   UNL A   1      43.046  25.678  25.191  1.00  0.00     0.022 A 
BRANCH  74  78
ATOM     78  S   UNL A   1      42.210  23.222  26.214  1.00  0.00     0.124 S 
ATOM     79  O   UNL A   1      40.771  23.074  26.405  1.00  0.00    -0.237 OA
ATOM     80  O   UNL A   1      42.718  22.887  24.889  1.00  0.00    -0.237 OA
ATOM     81  O   UNL A   1      43.036  22.768  27.331  1.00  0.00    -0.744 OA
ENDBRANCH  74  78
ENDBRANCH  47  71
BRANCH  59  82
ATOM     82  C   UNL A   1      44.300  27.359  34.107  1.00  0.00     0.023 A 
ATOM     83  C   UNL A   1      43.982  26.215  34.857  1.00  0.00     0.031 A 
ATOM     84  C   UNL A   1      45.634  27.800  34.097  1.00  0.00     0.131 A 
ATOM     85  C   UNL A   1      44.971  25.591  35.630  1.00  0.00     0.055 A 
ATOM     86  C   UNL A   1      46.628  27.137  34.816  1.00  0.00     0.041 A 
ATOM     87  F   UNL A   1      45.989  28.889  33.397  1.00  0.00    -0.206 F 
ATOM     88  C   UNL A   1      46.296  26.036  35.603  1.00  0.00     0.022 A 
BRANCH  85  89
ATOM     89  S   UNL A   1      44.477  24.265  36.762  1.00  0.00     0.124 S 
ATOM     90  O   UNL A   1      43.024  24.277  36.630  1.00  0.00    -0.237 OA
ATOM     91  O   UNL A   1      45.159  23.104  36.199  1.00  0.00    -0.237 OA
ATOM     92  O   UNL A   1      44.985  24.713  38.058  1.00  0.00    -0.744 OA
ENDBRANCH  85  89
ENDBRANCH  59  82
ENDBRANCH  33  34
ENDBRANCH  25  28
ENDBRANCH  23  24
ENDBRANCH   1  23
TORSDOF 17
ENDMDL
