MODEL 1
REMARK VINA RESULT:     -11.2      0.000      0.000
REMARK SMILES C[C@@H](NC(=O)NCCC(=O)NC1CC1)C(=O)NCCCNC(=O)c1ccc(-c2c3nc(c(-c4cc(S(=O)(=O)[O-])ccc4F)c4ccc([nH]4)c(-c4cc(S(=O)(=O)[O-])ccc4F)c4nc(c(-c5cc(S(=O)(=O)[O-])ccc5F)c5ccc2[nH]5)C=C4)C=C3)cc1
REMARK SMILES IDX 18 1 17 2 15 3 16 4 2 6 1 7 3 8 4 9 5 11 6 12 7 14 8 15 9 16
REMARK SMILES IDX 10 17 11 18 12 20 13 21 14 22 19 23 20 24 21 25 22 26 23 28
REMARK SMILES IDX 24 29 25 30 86 31 26 32 85 33 27 34 28 35 29 36 79 37 30 38
REMARK SMILES IDX 84 39 78 40 80 41 31 42 83 43 77 44 76 45 32 47 64 48 44 49
REMARK SMILES IDX 63 50 45 51 48 52 62 53 81 54 46 55 47 56 61 58 82 59 49 60
REMARK SMILES IDX 33 61 34 62 42 63 35 64 41 65 43 66 40 67 36 68 37 69 38 70
REMARK SMILES IDX 39 71 65 72 66 73 74 74 67 75 73 76 75 77 72 78 68 79 69 80
REMARK SMILES IDX 70 81 71 82 50 83 51 84 59 85 52 86 58 87 60 88 57 89 53 90
REMARK SMILES IDX 54 91 55 92 56 93
REMARK H PARENT 17 5 3 10 6 13 11 19 21 27 80 46 48 57
REMARK Flexibility Score: inf
ROOT
ATOM      1  C   UNL A   1      31.446  28.929  24.530  1.00  0.00     0.117 C 
ENDROOT
BRANCH   1   2
ATOM      2  N   UNL A   1      32.537  29.048  23.579  1.00  0.00    -0.354 N 
ATOM      3  C   UNL A   1      33.091  28.094  22.786  1.00  0.00     0.242 C 
ATOM      4  O   UNL A   1      34.027  28.432  22.053  1.00  0.00    -0.273 OA
ATOM      5  H   UNL A   1      32.931  29.946  23.498  1.00  0.00     0.163 HD
BRANCH   3   6
ATOM      6  C   UNL A   1      32.692  26.613  22.896  1.00  0.00     0.170 C 
ATOM      7  C   UNL A   1      31.580  26.401  21.860  1.00  0.00     0.041 C 
BRANCH   6   8
ATOM      8  N   UNL A   1      33.727  25.608  22.680  1.00  0.00    -0.327 N 
ATOM      9  C   UNL A   1      34.150  24.545  23.356  1.00  0.00     0.315 C 
ATOM     10  H   UNL A   1      34.224  25.749  21.842  1.00  0.00     0.166 HD
ATOM     11  O   UNL A   1      34.988  23.820  22.814  1.00  0.00    -0.249 OA
ATOM     12  N   UNL A   1      33.808  24.250  24.606  1.00  0.00    -0.338 N 
ATOM     13  H   UNL A   1      34.346  23.503  24.954  1.00  0.00     0.165 HD
BRANCH  12  14
ATOM     14  C   UNL A   1      32.864  24.722  25.602  1.00  0.00     0.127 C 
BRANCH  14  15
ATOM     15  C   UNL A   1      31.461  24.165  25.391  1.00  0.00     0.121 C 
BRANCH  15  16
ATOM     16  C   UNL A   1      31.034  23.082  26.362  1.00  0.00     0.221 C 
ATOM     17  O   UNL A   1      30.475  23.379  27.421  1.00  0.00    -0.275 OA
ATOM     18  N   UNL A   1      31.220  21.757  26.075  1.00  0.00    -0.353 N 
ATOM     19  H   UNL A   1      30.749  21.132  26.672  1.00  0.00     0.163 HD
BRANCH  18  20
ATOM     20  C   UNL A   1      31.987  21.138  25.047  1.00  0.00     0.082 C 
ATOM     21  C   UNL A   1      33.481  21.006  25.137  1.00  0.00     0.027 C 
ATOM     22  C   UNL A   1      32.621  19.782  25.191  1.00  0.00     0.027 C 
ENDBRANCH  18  20
ENDBRANCH  15  16
ENDBRANCH  14  15
ENDBRANCH  12  14
ENDBRANCH   6   8
ENDBRANCH   3   6
ENDBRANCH   1   2
BRANCH   1  23
ATOM     23  C   UNL A   1      31.948  28.941  25.960  1.00  0.00     0.042 C 
BRANCH  23  24
ATOM     24  C   UNL A   1      33.235  29.734  26.120  1.00  0.00     0.118 C 
BRANCH  24  25
ATOM     25  N   UNL A   1      33.017  31.069  26.660  1.00  0.00    -0.352 N 
ATOM     26  C   UNL A   1      33.806  31.768  27.546  1.00  0.00     0.251 C 
ATOM     27  H   UNL A   1      32.202  31.529  26.354  1.00  0.00     0.163 HD
ATOM     28  O   UNL A   1      33.407  32.825  28.025  1.00  0.00    -0.269 OA
BRANCH  26  29
ATOM     29  C   UNL A   1      35.112  31.200  27.946  1.00  0.00     0.039 A 
ATOM     30  C   UNL A   1      36.236  32.026  27.962  1.00  0.00     0.014 A 
ATOM     31  C   UNL A   1      35.207  29.874  28.382  1.00  0.00     0.014 A 
ATOM     32  C   UNL A   1      37.436  31.542  28.487  1.00  0.00     0.010 A 
ATOM     33  C   UNL A   1      36.370  29.434  29.006  1.00  0.00     0.010 A 
ATOM     34  C   UNL A   1      37.503  30.258  29.056  1.00  0.00    -0.014 A 
BRANCH  34  35
ATOM     35  C   UNL A   1      38.758  29.770  29.690  1.00  0.00     0.031 A 
ATOM     36  C   UNL A   1      39.168  30.274  31.049  1.00  0.00     0.074 A 
ATOM     37  C   UNL A   1      39.541  28.895  29.028  1.00  0.00     0.049 A 
ATOM     38  N   UNL A   1      40.207  29.948  31.773  1.00  0.00    -0.248 NA
ATOM     39  C   UNL A   1      38.317  31.308  31.659  1.00  0.00     0.031 C 
ATOM     40  C   UNL A   1      39.292  28.392  27.673  1.00  0.00     0.029 A 
ATOM     41  N   UNL A   1      40.700  28.262  29.403  1.00  0.00    -0.354 N 
ATOM     42  C   UNL A   1      40.137  30.738  32.916  1.00  0.00     0.074 A 
ATOM     43  C   UNL A   1      39.002  31.618  32.746  1.00  0.00     0.031 C 
ATOM     44  C   UNL A   1      40.236  27.491  27.355  1.00  0.00     0.029 A 
ATOM     45  C   UNL A   1      41.178  27.378  28.463  1.00  0.00     0.049 A 
ATOM     46  H   UNL A   1      41.147  28.426  30.264  1.00  0.00     0.167 HD
ATOM     47  C   UNL A   1      40.922  30.708  34.022  1.00  0.00     0.034 A 
ATOM     48  C   UNL A   1      42.250  26.559  28.496  1.00  0.00     0.034 A 
ATOM     49  C   UNL A   1      42.042  29.813  34.180  1.00  0.00     0.049 A 
ATOM     50  C   UNL A   1      43.099  26.532  29.740  1.00  0.00     0.074 A 
ATOM     51  C   UNL A   1      42.875  29.658  35.275  1.00  0.00     0.029 A 
ATOM     52  N   UNL A   1      42.491  28.923  33.212  1.00  0.00    -0.354 N 
ATOM     53  N   UNL A   1      42.974  27.232  30.845  1.00  0.00    -0.248 NA
ATOM     54  C   UNL A   1      44.220  25.584  29.752  1.00  0.00     0.031 C 
ATOM     55  C   UNL A   1      43.865  28.725  34.944  1.00  0.00     0.029 A 
ATOM     56  C   UNL A   1      43.603  28.235  33.675  1.00  0.00     0.049 A 
ATOM     57  H   UNL A   1      42.079  28.798  32.327  1.00  0.00     0.167 HD
ATOM     58  C   UNL A   1      43.984  26.787  31.692  1.00  0.00     0.074 A 
ATOM     59  C   UNL A   1      44.686  25.737  30.981  1.00  0.00     0.031 C 
ATOM     60  C   UNL A   1      44.305  27.204  32.945  1.00  0.00     0.034 A 
BRANCH  47  61
ATOM     61  C   UNL A   1      40.596  31.685  35.130  1.00  0.00     0.023 A 
ATOM     62  C   UNL A   1      39.596  31.414  36.083  1.00  0.00     0.031 A 
ATOM     63  C   UNL A   1      41.266  32.916  35.218  1.00  0.00     0.131 A 
ATOM     64  C   UNL A   1      39.238  32.391  37.023  1.00  0.00     0.055 A 
ATOM     65  C   UNL A   1      40.966  33.850  36.212  1.00  0.00     0.041 A 
ATOM     66  F   UNL A   1      42.215  33.244  34.326  1.00  0.00    -0.206 F 
ATOM     67  C   UNL A   1      39.935  33.597  37.113  1.00  0.00     0.022 A 
BRANCH  64  68
ATOM     68  S   UNL A   1      37.750  32.124  38.027  1.00  0.00     0.124 S 
ATOM     69  O   UNL A   1      37.484  30.707  37.786  1.00  0.00    -0.237 OA
ATOM     70  O   UNL A   1      38.207  32.469  39.368  1.00  0.00    -0.237 OA
ATOM     71  O   UNL A   1      36.774  33.041  37.443  1.00  0.00    -0.744 OA
ENDBRANCH  64  68
ENDBRANCH  47  61
BRANCH  48  72
ATOM     72  C   UNL A   1      42.574  25.685  27.330  1.00  0.00     0.023 A 
ATOM     73  C   UNL A   1      42.109  24.361  27.263  1.00  0.00     0.031 A 
ATOM     74  C   UNL A   1      43.395  26.147  26.285  1.00  0.00     0.131 A 
ATOM     75  C   UNL A   1      42.511  23.529  26.205  1.00  0.00     0.055 A 
ATOM     76  C   UNL A   1      43.746  25.333  25.207  1.00  0.00     0.041 A 
ATOM     77  F   UNL A   1      43.862  27.405  26.294  1.00  0.00    -0.206 F 
ATOM     78  C   UNL A   1      43.315  24.010  25.170  1.00  0.00     0.022 A 
BRANCH  75  79
ATOM     79  S   UNL A   1      42.038  21.778  26.249  1.00  0.00     0.124 S 
ATOM     80  O   UNL A   1      40.617  21.846  25.928  1.00  0.00    -0.237 OA
ATOM     81  O   UNL A   1      42.902  21.205  25.222  1.00  0.00    -0.237 OA
ATOM     82  O   UNL A   1      42.351  21.376  27.619  1.00  0.00    -0.744 OA
ENDBRANCH  75  79
ENDBRANCH  48  72
BRANCH  60  83
ATOM     83  C   UNL A   1      45.445  26.487  33.629  1.00  0.00     0.023 A 
ATOM     84  C   UNL A   1      45.239  25.306  34.365  1.00  0.00     0.031 A 
ATOM     85  C   UNL A   1      46.746  27.018  33.584  1.00  0.00     0.131 A 
ATOM     86  C   UNL A   1      46.297  24.743  35.094  1.00  0.00     0.055 A 
ATOM     87  C   UNL A   1      47.812  26.410  34.251  1.00  0.00     0.041 A 
ATOM     88  F   UNL A   1      47.004  28.143  32.899  1.00  0.00    -0.206 F 
ATOM     89  C   UNL A   1      47.586  25.278  35.028  1.00  0.00     0.022 A 
BRANCH  86  90
ATOM     90  S   UNL A   1      45.933  23.386  36.242  1.00  0.00     0.124 S 
ATOM     91  O   UNL A   1      44.699  22.841  35.685  1.00  0.00    -0.237 OA
ATOM     92  O   UNL A   1      47.117  22.544  36.114  1.00  0.00    -0.237 OA
ATOM     93  O   UNL A   1      45.786  24.058  37.532  1.00  0.00    -0.744 OA
ENDBRANCH  86  90
ENDBRANCH  60  83
ENDBRANCH  34  35
ENDBRANCH  26  29
ENDBRANCH  24  25
ENDBRANCH  23  24
ENDBRANCH   1  23
TORSDOF 18
ENDMDL
MODEL 2
REMARK VINA RESULT:     -10.9      1.831      2.622
REMARK SMILES C[C@@H](NC(=O)NCCC(=O)NC1CC1)C(=O)NCCCNC(=O)c1ccc(-c2c3nc(c(-c4cc(S(=O)(=O)[O-])ccc4F)c4ccc([nH]4)c(-c4cc(S(=O)(=O)[O-])ccc4F)c4nc(c(-c5cc(S(=O)(=O)[O-])ccc5F)c5ccc2[nH]5)C=C4)C=C3)cc1
REMARK SMILES IDX 18 1 17 2 15 3 16 4 2 6 1 7 3 8 4 9 5 11 6 12 7 14 8 15 9 16
REMARK SMILES IDX 10 17 11 18 12 20 13 21 14 22 19 23 20 24 21 25 22 26 23 28
REMARK SMILES IDX 24 29 25 30 86 31 26 32 85 33 27 34 28 35 29 36 79 37 30 38
REMARK SMILES IDX 84 39 78 40 80 41 31 42 83 43 77 44 76 45 32 47 64 48 44 49
REMARK SMILES IDX 63 50 45 51 48 52 62 53 81 54 46 55 47 56 61 58 82 59 49 60
REMARK SMILES IDX 33 61 34 62 42 63 35 64 41 65 43 66 40 67 36 68 37 69 38 70
REMARK SMILES IDX 39 71 65 72 66 73 74 74 67 75 73 76 75 77 72 78 68 79 69 80
REMARK SMILES IDX 70 81 71 82 50 83 51 84 59 85 52 86 58 87 60 88 57 89 53 90
REMARK SMILES IDX 54 91 55 92 56 93
REMARK H PARENT 17 5 3 10 6 13 11 19 21 27 80 46 48 57
REMARK Flexibility Score: inf
ROOT
ATOM      1  C   UNL A   1      31.193  27.529  26.314  1.00  0.00     0.117 C 
ENDROOT
BRANCH   1   2
ATOM      2  N   UNL A   1      31.776  27.400  24.990  1.00  0.00    -0.354 N 
ATOM      3  C   UNL A   1      32.338  26.312  24.402  1.00  0.00     0.242 C 
ATOM      4  O   UNL A   1      32.779  26.445  23.256  1.00  0.00    -0.273 OA
ATOM      5  H   UNL A   1      31.763  28.217  24.441  1.00  0.00     0.163 HD
BRANCH   3   6
ATOM      6  C   UNL A   1      32.570  25.001  25.173  1.00  0.00     0.170 C 
ATOM      7  C   UNL A   1      33.764  25.266  26.099  1.00  0.00     0.041 C 
BRANCH   6   8
ATOM      8  N   UNL A   1      31.470  24.474  25.972  1.00  0.00    -0.327 N 
ATOM      9  C   UNL A   1      31.273  23.359  26.667  1.00  0.00     0.315 C 
ATOM     10  H   UNL A   1      30.697  25.083  26.004  1.00  0.00     0.166 HD
ATOM     11  O   UNL A   1      30.246  23.283  27.345  1.00  0.00    -0.249 OA
ATOM     12  N   UNL A   1      32.052  22.283  26.619  1.00  0.00    -0.338 N 
ATOM     13  H   UNL A   1      31.643  21.528  27.101  1.00  0.00     0.165 HD
BRANCH  12  14
ATOM     14  C   UNL A   1      33.336  21.909  26.056  1.00  0.00     0.127 C 
BRANCH  14  15
ATOM     15  C   UNL A   1      33.342  20.490  25.501  1.00  0.00     0.121 C 
BRANCH  15  16
ATOM     16  C   UNL A   1      34.683  19.989  25.001  1.00  0.00     0.221 C 
ATOM     17  O   UNL A   1      35.653  20.750  24.946  1.00  0.00    -0.275 OA
ATOM     18  N   UNL A   1      34.862  18.681  24.639  1.00  0.00    -0.353 N 
ATOM     19  H   UNL A   1      35.799  18.411  24.508  1.00  0.00     0.163 HD
BRANCH  18  20
ATOM     20  C   UNL A   1      33.906  17.648  24.423  1.00  0.00     0.082 C 
ATOM     21  C   UNL A   1      32.940  17.684  23.274  1.00  0.00     0.027 C 
ATOM     22  C   UNL A   1      34.013  16.641  23.312  1.00  0.00     0.027 C 
ENDBRANCH  18  20
ENDBRANCH  15  16
ENDBRANCH  14  15
ENDBRANCH  12  14
ENDBRANCH   6   8
ENDBRANCH   3   6
ENDBRANCH   1   2
BRANCH   1  23
ATOM     23  C   UNL A   1      31.825  28.663  27.094  1.00  0.00     0.042 C 
BRANCH  23  24
ATOM     24  C   UNL A   1      32.654  29.586  26.215  1.00  0.00     0.118 C 
BRANCH  24  25
ATOM     25  N   UNL A   1      32.407  30.997  26.480  1.00  0.00    -0.352 N 
ATOM     26  C   UNL A   1      33.182  31.874  27.206  1.00  0.00     0.251 C 
ATOM     27  H   UNL A   1      31.583  31.370  26.091  1.00  0.00     0.163 HD
ATOM     28  O   UNL A   1      32.760  32.997  27.467  1.00  0.00    -0.269 OA
BRANCH  26  29
ATOM     29  C   UNL A   1      34.499  31.424  27.706  1.00  0.00     0.039 A 
ATOM     30  C   UNL A   1      35.503  32.369  27.918  1.00  0.00     0.014 A 
ATOM     31  C   UNL A   1      34.712  30.083  28.040  1.00  0.00     0.014 A 
ATOM     32  C   UNL A   1      36.693  31.978  28.536  1.00  0.00     0.010 A 
ATOM     33  C   UNL A   1      35.849  29.721  28.755  1.00  0.00     0.010 A 
ATOM     34  C   UNL A   1      36.860  30.662  29.002  1.00  0.00    -0.014 A 
BRANCH  34  35
ATOM     35  C   UNL A   1      38.092  30.263  29.734  1.00  0.00     0.031 A 
ATOM     36  C   UNL A   1      38.330  30.744  31.141  1.00  0.00     0.074 A 
ATOM     37  C   UNL A   1      39.011  29.490  29.119  1.00  0.00     0.049 A 
ATOM     38  N   UNL A   1      39.326  30.483  31.948  1.00  0.00    -0.248 NA
ATOM     39  C   UNL A   1      37.334  31.671  31.703  1.00  0.00     0.031 C 
ATOM     40  C   UNL A   1      38.932  29.024  27.731  1.00  0.00     0.029 A 
ATOM     41  N   UNL A   1      40.186  28.950  29.579  1.00  0.00    -0.354 N 
ATOM     42  C   UNL A   1      39.079  31.216  33.105  1.00  0.00     0.074 A 
ATOM     43  C   UNL A   1      37.887  31.996  32.859  1.00  0.00     0.031 C 
ATOM     44  C   UNL A   1      39.982  28.226  27.473  1.00  0.00     0.029 A 
ATOM     45  C   UNL A   1      40.827  28.151  28.660  1.00  0.00     0.049 A 
ATOM     46  H   UNL A   1      40.536  29.117  30.484  1.00  0.00     0.167 HD
ATOM     47  C   UNL A   1      39.761  31.210  34.279  1.00  0.00     0.034 A 
ATOM     48  C   UNL A   1      41.963  27.432  28.765  1.00  0.00     0.034 A 
ATOM     49  C   UNL A   1      40.941  30.414  34.511  1.00  0.00     0.049 A 
ATOM     50  C   UNL A   1      42.695  27.429  30.082  1.00  0.00     0.074 A 
ATOM     51  C   UNL A   1      41.683  30.289  35.672  1.00  0.00     0.029 A 
ATOM     52  N   UNL A   1      41.556  29.609  33.559  1.00  0.00    -0.354 N 
ATOM     53  N   UNL A   1      42.407  28.069  31.192  1.00  0.00    -0.248 NA
ATOM     54  C   UNL A   1      43.895  26.587  30.167  1.00  0.00     0.031 C 
ATOM     55  C   UNL A   1      42.782  29.464  35.404  1.00  0.00     0.029 A 
ATOM     56  C   UNL A   1      42.682  29.006  34.100  1.00  0.00     0.049 A 
ATOM     57  H   UNL A   1      41.239  29.485  32.636  1.00  0.00     0.167 HD
ATOM     58  C   UNL A   1      43.374  27.682  32.115  1.00  0.00     0.074 A 
ATOM     59  C   UNL A   1      44.232  26.730  31.438  1.00  0.00     0.031 C 
ATOM     60  C   UNL A   1      43.540  28.074  33.406  1.00  0.00     0.034 A 
BRANCH  47  61
ATOM     61  C   UNL A   1      39.247  32.106  35.383  1.00  0.00     0.023 A 
ATOM     62  C   UNL A   1      39.637  33.455  35.482  1.00  0.00     0.031 A 
ATOM     63  C   UNL A   1      38.384  31.601  36.370  1.00  0.00     0.131 A 
ATOM     64  C   UNL A   1      39.236  34.224  36.585  1.00  0.00     0.055 A 
ATOM     65  C   UNL A   1      37.916  32.397  37.418  1.00  0.00     0.041 A 
ATOM     66  F   UNL A   1      37.993  30.317  36.345  1.00  0.00    -0.206 F 
ATOM     67  C   UNL A   1      38.355  33.712  37.539  1.00  0.00     0.022 A 
BRANCH  64  68
ATOM     68  S   UNL A   1      40.002  35.849  36.832  1.00  0.00     0.124 S 
ATOM     69  O   UNL A   1      39.752  36.492  35.543  1.00  0.00    -0.237 OA
ATOM     70  O   UNL A   1      39.257  36.382  37.967  1.00  0.00    -0.237 OA
ATOM     71  O   UNL A   1      41.403  35.530  37.098  1.00  0.00    -0.744 OA
ENDBRANCH  64  68
ENDBRANCH  47  61
BRANCH  48  72
ATOM     72  C   UNL A   1      42.472  26.640  27.606  1.00  0.00     0.023 A 
ATOM     73  C   UNL A   1      42.092  25.300  27.419  1.00  0.00     0.031 A 
ATOM     74  C   UNL A   1      43.383  27.199  26.692  1.00  0.00     0.131 A 
ATOM     75  C   UNL A   1      42.662  24.548  26.379  1.00  0.00     0.055 A 
ATOM     76  C   UNL A   1      43.904  26.463  25.626  1.00  0.00     0.041 A 
ATOM     77  F   UNL A   1      43.774  28.477  26.818  1.00  0.00    -0.206 F 
ATOM     78  C   UNL A   1      43.555  25.125  25.474  1.00  0.00     0.022 A 
BRANCH  75  79
ATOM     79  S   UNL A   1      42.286  22.777  26.281  1.00  0.00     0.124 S 
ATOM     80  O   UNL A   1      43.061  22.245  27.397  1.00  0.00    -0.237 OA
ATOM     81  O   UNL A   1      40.837  22.765  26.442  1.00  0.00    -0.237 OA
ATOM     82  O   UNL A   1      42.766  22.402  24.952  1.00  0.00    -0.744 OA
ENDBRANCH  75  79
ENDBRANCH  48  72
BRANCH  60  83
ATOM     83  C   UNL A   1      44.676  27.435  34.169  1.00  0.00     0.023 A 
ATOM     84  C   UNL A   1      44.514  26.215  34.850  1.00  0.00     0.031 A 
ATOM     85  C   UNL A   1      45.924  28.078  34.256  1.00  0.00     0.131 A 
ATOM     86  C   UNL A   1      45.550  25.720  35.655  1.00  0.00     0.055 A 
ATOM     87  C   UNL A   1      46.978  27.541  34.998  1.00  0.00     0.041 A 
ATOM     88  F   UNL A   1      46.137  29.244  33.629  1.00  0.00    -0.206 F 
ATOM     89  C   UNL A   1      46.787  26.366  35.720  1.00  0.00     0.022 A 
BRANCH  86  90
ATOM     90  S   UNL A   1      45.211  24.296  36.727  1.00  0.00     0.124 S 
ATOM     91  O   UNL A   1      44.503  24.917  37.842  1.00  0.00    -0.237 OA
ATOM     92  O   UNL A   1      44.410  23.438  35.861  1.00  0.00    -0.237 OA
ATOM     93  O   UNL A   1      46.543  23.783  37.048  1.00  0.00    -0.744 OA
ENDBRANCH  86  90
ENDBRANCH  60  83
ENDBRANCH  34  35
ENDBRANCH  26  29
ENDBRANCH  24  25
ENDBRANCH  23  24
ENDBRANCH   1  23
TORSDOF 18
ENDMDL
MODEL 3
REMARK VINA RESULT:     -10.8      4.624      9.780
REMARK SMILES C[C@@H](NC(=O)NCCC(=O)NC1CC1)C(=O)NCCCNC(=O)c1ccc(-c2c3nc(c(-c4cc(S(=O)(=O)[O-])ccc4F)c4ccc([nH]4)c(-c4cc(S(=O)(=O)[O-])ccc4F)c4nc(c(-c5cc(S(=O)(=O)[O-])ccc5F)c5ccc2[nH]5)C=C4)C=C3)cc1
REMARK SMILES IDX 18 1 17 2 15 3 16 4 2 6 1 7 3 8 4 9 5 11 6 12 7 14 8 15 9 16
REMARK SMILES IDX 10 17 11 18 12 20 13 21 14 22 19 23 20 24 21 25 22 26 23 28
REMARK SMILES IDX 24 29 25 30 86 31 26 32 85 33 27 34 28 35 29 36 79 37 30 38
REMARK SMILES IDX 84 39 78 40 80 41 31 42 83 43 77 44 76 45 32 47 64 48 44 49
REMARK SMILES IDX 63 50 45 51 48 52 62 53 81 54 46 55 47 56 61 58 82 59 49 60
REMARK SMILES IDX 33 61 34 62 42 63 35 64 41 65 43 66 40 67 36 68 37 69 38 70
REMARK SMILES IDX 39 71 65 72 66 73 74 74 67 75 73 76 75 77 72 78 68 79 69 80
REMARK SMILES IDX 70 81 71 82 50 83 51 84 59 85 52 86 58 87 60 88 57 89 53 90
REMARK SMILES IDX 54 91 55 92 56 93
REMARK H PARENT 17 5 3 10 6 13 11 19 21 27 80 46 48 57
REMARK Flexibility Score: inf
ROOT
ATOM      1  C   UNL A   1      35.015  22.429  26.577  1.00  0.00     0.117 C 
ENDROOT
BRANCH   1   2
ATOM      2  N   UNL A   1      33.747  22.758  27.203  1.00  0.00    -0.354 N 
ATOM      3  C   UNL A   1      32.514  22.862  26.641  1.00  0.00     0.242 C 
ATOM      4  O   UNL A   1      31.572  23.164  27.381  1.00  0.00    -0.273 OA
ATOM      5  H   UNL A   1      33.785  22.930  28.172  1.00  0.00     0.163 HD
BRANCH   3   6
ATOM      6  C   UNL A   1      32.304  22.769  25.121  1.00  0.00     0.170 C 
ATOM      7  C   UNL A   1      32.123  21.277  24.814  1.00  0.00     0.041 C 
BRANCH   6   8
ATOM      8  N   UNL A   1      31.185  23.502  24.539  1.00  0.00    -0.327 N 
ATOM      9  C   UNL A   1      31.029  24.725  24.044  1.00  0.00     0.315 C 
ATOM     10  H   UNL A   1      30.358  22.969  24.505  1.00  0.00     0.166 HD
ATOM     11  O   UNL A   1      29.951  24.989  23.505  1.00  0.00    -0.249 OA
ATOM     12  N   UNL A   1      31.909  25.714  24.161  1.00  0.00    -0.338 N 
ATOM     13  H   UNL A   1      31.529  26.566  23.846  1.00  0.00     0.165 HD
BRANCH  12  14
ATOM     14  C   UNL A   1      33.273  25.890  24.623  1.00  0.00     0.127 C 
BRANCH  14  15
ATOM     15  C   UNL A   1      33.348  26.280  26.094  1.00  0.00     0.121 C 
BRANCH  15  16
ATOM     16  C   UNL A   1      32.193  27.116  26.609  1.00  0.00     0.221 C 
ATOM     17  O   UNL A   1      31.109  26.588  26.874  1.00  0.00    -0.275 OA
ATOM     18  N   UNL A   1      32.332  28.460  26.830  1.00  0.00    -0.353 N 
ATOM     19  H   UNL A   1      31.596  28.876  27.334  1.00  0.00     0.163 HD
BRANCH  18  20
ATOM     20  C   UNL A   1      33.373  29.351  26.447  1.00  0.00     0.082 C 
ATOM     21  C   UNL A   1      33.597  30.662  27.145  1.00  0.00     0.027 C 
ATOM     22  C   UNL A   1      34.615  29.572  27.265  1.00  0.00     0.027 C 
ENDBRANCH  18  20
ENDBRANCH  15  16
ENDBRANCH  14  15
ENDBRANCH  12  14
ENDBRANCH   6   8
ENDBRANCH   3   6
ENDBRANCH   1   2
BRANCH   1  23
ATOM     23  C   UNL A   1      35.863  23.665  26.354  1.00  0.00     0.042 C 
BRANCH  23  24
ATOM     24  C   UNL A   1      36.998  23.424  25.370  1.00  0.00     0.118 C 
BRANCH  24  25
ATOM     25  N   UNL A   1      37.996  22.490  25.871  1.00  0.00    -0.352 N 
ATOM     26  C   UNL A   1      39.148  22.770  26.571  1.00  0.00     0.251 C 
ATOM     27  H   UNL A   1      37.825  21.538  25.685  1.00  0.00     0.163 HD
ATOM     28  O   UNL A   1      39.967  21.881  26.791  1.00  0.00    -0.269 OA
BRANCH  26  29
ATOM     29  C   UNL A   1      39.405  24.160  27.005  1.00  0.00     0.039 A 
ATOM     30  C   UNL A   1      39.119  24.525  28.320  1.00  0.00     0.014 A 
ATOM     31  C   UNL A   1      40.003  25.078  26.134  1.00  0.00     0.014 A 
ATOM     32  C   UNL A   1      39.503  25.786  28.781  1.00  0.00     0.010 A 
ATOM     33  C   UNL A   1      40.483  26.286  26.628  1.00  0.00     0.010 A 
ATOM     34  C   UNL A   1      40.229  26.661  27.955  1.00  0.00    -0.014 A 
BRANCH  34  35
ATOM     35  C   UNL A   1      40.711  27.972  28.469  1.00  0.00     0.031 A 
ATOM     36  C   UNL A   1      42.187  28.239  28.601  1.00  0.00     0.074 A 
ATOM     37  C   UNL A   1      39.817  28.909  28.843  1.00  0.00     0.049 A 
ATOM     38  N   UNL A   1      42.799  29.324  29.001  1.00  0.00    -0.248 NA
ATOM     39  C   UNL A   1      43.095  27.129  28.274  1.00  0.00     0.031 C 
ATOM     40  C   UNL A   1      38.361  28.741  28.836  1.00  0.00     0.029 A 
ATOM     41  N   UNL A   1      39.995  30.194  29.293  1.00  0.00    -0.354 N 
ATOM     42  C   UNL A   1      44.157  29.024  28.980  1.00  0.00     0.074 A 
ATOM     43  C   UNL A   1      44.271  27.630  28.611  1.00  0.00     0.031 C 
ATOM     44  C   UNL A   1      37.780  29.894  29.208  1.00  0.00     0.029 A 
ATOM     45  C   UNL A   1      38.818  30.872  29.516  1.00  0.00     0.049 A 
ATOM     46  H   UNL A   1      40.882  30.593  29.441  1.00  0.00     0.167 HD
ATOM     47  C   UNL A   1      45.215  29.843  29.210  1.00  0.00     0.034 A 
ATOM     48  C   UNL A   1      38.601  32.142  29.913  1.00  0.00     0.034 A 
ATOM     49  C   UNL A   1      45.082  31.235  29.563  1.00  0.00     0.049 A 
ATOM     50  C   UNL A   1      39.789  33.038  30.148  1.00  0.00     0.074 A 
ATOM     51  C   UNL A   1      46.079  32.173  29.768  1.00  0.00     0.029 A 
ATOM     52  N   UNL A   1      43.874  31.891  29.769  1.00  0.00    -0.354 N 
ATOM     53  N   UNL A   1      41.070  32.760  30.050  1.00  0.00    -0.248 NA
ATOM     54  C   UNL A   1      39.503  34.428  30.523  1.00  0.00     0.031 C 
ATOM     55  C   UNL A   1      45.478  33.374  30.163  1.00  0.00     0.029 A 
ATOM     56  C   UNL A   1      44.103  33.212  30.124  1.00  0.00     0.049 A 
ATOM     57  H   UNL A   1      42.985  31.478  29.677  1.00  0.00     0.167 HD
ATOM     58  C   UNL A   1      41.739  33.949  30.323  1.00  0.00     0.074 A 
ATOM     59  C   UNL A   1      40.718  34.951  30.559  1.00  0.00     0.031 C 
ATOM     60  C   UNL A   1      43.074  34.195  30.376  1.00  0.00     0.034 A 
BRANCH  47  61
ATOM     61  C   UNL A   1      46.596  29.239  29.098  1.00  0.00     0.023 A 
ATOM     62  C   UNL A   1      47.253  29.122  27.858  1.00  0.00     0.031 A 
ATOM     63  C   UNL A   1      47.253  28.742  30.235  1.00  0.00     0.131 A 
ATOM     64  C   UNL A   1      48.481  28.450  27.775  1.00  0.00     0.055 A 
ATOM     65  C   UNL A   1      48.518  28.152  30.159  1.00  0.00     0.041 A 
ATOM     66  F   UNL A   1      46.670  28.803  31.443  1.00  0.00    -0.206 F 
ATOM     67  C   UNL A   1      49.132  27.988  28.921  1.00  0.00     0.022 A 
BRANCH  64  68
ATOM     68  S   UNL A   1      49.142  28.054  26.132  1.00  0.00     0.124 S 
ATOM     69  O   UNL A   1      49.883  29.272  25.812  1.00  0.00    -0.237 OA
ATOM     70  O   UNL A   1      49.947  26.866  26.392  1.00  0.00    -0.237 OA
ATOM     71  O   UNL A   1      47.944  27.834  25.325  1.00  0.00    -0.744 OA
ENDBRANCH  64  68
ENDBRANCH  47  61
BRANCH  48  72
ATOM     72  C   UNL A   1      37.210  32.654  30.097  1.00  0.00     0.023 A 
ATOM     73  C   UNL A   1      36.699  32.922  31.378  1.00  0.00     0.031 A 
ATOM     74  C   UNL A   1      36.355  32.839  28.996  1.00  0.00     0.131 A 
ATOM     75  C   UNL A   1      35.357  33.306  31.531  1.00  0.00     0.055 A 
ATOM     76  C   UNL A   1      35.038  33.275  29.149  1.00  0.00     0.041 A 
ATOM     77  F   UNL A   1      36.794  32.605  27.749  1.00  0.00    -0.206 F 
ATOM     78  C   UNL A   1      34.527  33.498  30.424  1.00  0.00     0.022 A 
BRANCH  75  79
ATOM     79  S   UNL A   1      34.684  33.467  33.208  1.00  0.00     0.124 S 
ATOM     80  O   UNL A   1      34.838  34.896  33.454  1.00  0.00    -0.237 OA
ATOM     81  O   UNL A   1      33.317  32.989  33.033  1.00  0.00    -0.237 OA
ATOM     82  O   UNL A   1      35.548  32.598  34.005  1.00  0.00    -0.744 OA
ENDBRANCH  75  79
ENDBRANCH  48  72
BRANCH  60  83
ATOM     83  C   UNL A   1      43.492  35.618  30.663  1.00  0.00     0.023 A 
ATOM     84  C   UNL A   1      43.668  36.085  31.978  1.00  0.00     0.031 A 
ATOM     85  C   UNL A   1      43.672  36.531  29.609  1.00  0.00     0.131 A 
ATOM     86  C   UNL A   1      43.928  37.444  32.209  1.00  0.00     0.055 A 
ATOM     87  C   UNL A   1      44.006  37.867  29.842  1.00  0.00     0.041 A 
ATOM     88  F   UNL A   1      43.517  36.144  28.333  1.00  0.00    -0.206 F 
ATOM     89  C   UNL A   1      44.115  38.334  31.148  1.00  0.00     0.022 A 
BRANCH  86  90
ATOM     90  S   UNL A   1      43.878  38.059  33.915  1.00  0.00     0.124 S 
ATOM     91  O   UNL A   1      43.564  36.847  34.665  1.00  0.00    -0.237 OA
ATOM     92  O   UNL A   1      45.225  38.589  34.094  1.00  0.00    -0.237 OA
ATOM     93  O   UNL A   1      42.815  39.063  33.886  1.00  0.00    -0.744 OA
ENDBRANCH  86  90
ENDBRANCH  60  83
ENDBRANCH  34  35
ENDBRANCH  26  29
ENDBRANCH  24  25
ENDBRANCH  23  24
ENDBRANCH   1  23
TORSDOF 18
ENDMDL
