MODEL 1
REMARK VINA RESULT:     -11.4      0.000      0.000
REMARK SMILES CCc1cc(OC(F)(F)F)cc2c1O[C@@H](C(F)(F)F)C(C(=O)NCCCNC(=O)c1ccc(-c3c4nc(c(-c5cc(S(=O)(=O)[O-])ccc5F)c5ccc([nH]5)c(-c5cc(S(=O)(=O)[O-])ccc5F)c5nc(c(-c6cc(S(=O)(=O)[O-])ccc6F)c6ccc3[nH]6)C=C5)C=C4)cc1)=C2
REMARK SMILES IDX 25 1 24 2 23 3 21 4 22 5 20 7 3 8 4 9 13 10 5 11 12 12 14 13
REMARK SMILES IDX 11 14 93 15 15 16 2 17 1 18 6 19 7 20 8 21 9 22 10 23 16 24
REMARK SMILES IDX 17 25 18 26 19 27 26 28 27 29 28 30 29 32 30 33 31 34 92 35
REMARK SMILES IDX 32 36 91 37 33 38 34 39 35 40 85 41 36 42 90 43 84 44 86 45
REMARK SMILES IDX 37 46 89 47 83 48 82 49 38 51 70 52 50 53 69 54 51 55 54 56
REMARK SMILES IDX 68 57 87 58 52 59 53 60 67 62 88 63 55 64 39 65 40 66 48 67
REMARK SMILES IDX 41 68 47 69 49 70 46 71 42 72 43 73 44 74 45 75 71 76 72 77
REMARK SMILES IDX 80 78 73 79 79 80 81 81 78 82 74 83 75 84 76 85 77 86 56 87
REMARK SMILES IDX 57 88 65 89 58 90 64 91 66 92 63 93 59 94 60 95 61 96 62 97
REMARK H PARENT 23 6 27 31 86 50 54 61
REMARK Flexibility Score: inf
ROOT
ATOM      1  C   UNL A   1      33.062  27.848  27.004  1.00  0.00     0.042 C 
ENDROOT
BRANCH   1   2
ATOM      2  C   UNL A   1      31.811  27.656  26.144  1.00  0.00     0.118 C 
BRANCH   2   3
ATOM      3  N   UNL A   1      32.109  27.909  24.742  1.00  0.00    -0.352 N 
ATOM      4  C   UNL A   1      32.706  27.176  23.769  1.00  0.00     0.251 C 
ATOM      5  O   UNL A   1      32.941  27.732  22.699  1.00  0.00    -0.270 OA
ATOM      6  H   UNL A   1      31.818  28.799  24.437  1.00  0.00     0.163 HD
BRANCH   4   7
ATOM      7  C   UNL A   1      33.014  25.727  23.908  1.00  0.00     0.067 C 
ATOM      8  C   UNL A   1      33.544  21.576  24.418  1.00  0.00    -0.002 A 
ATOM      9  C   UNL A   1      34.750  21.118  24.987  1.00  0.00     0.054 A 
ATOM     10  C   UNL A   1      33.363  22.956  24.227  1.00  0.00     0.131 A 
ATOM     11  C   UNL A   1      35.748  22.012  25.376  1.00  0.00     0.130 A 
ATOM     12  C   UNL A   1      34.371  23.850  24.583  1.00  0.00     0.021 A 
ATOM     13  O   UNL A   1      32.157  23.381  23.752  1.00  0.00    -0.475 OA
ATOM     14  C   UNL A   1      35.555  23.376  25.158  1.00  0.00     0.058 A 
ATOM     15  C   UNL A   1      34.165  25.280  24.429  1.00  0.00     0.025 C 
ATOM     16  C   UNL A   1      32.027  24.752  23.272  1.00  0.00     0.314 C 
BRANCH   8  17
ATOM     17  C   UNL A   1      32.497  20.568  23.994  1.00  0.00     0.036 C 
ATOM     18  C   UNL A   1      32.469  19.323  24.871  1.00  0.00     0.009 C 
ENDBRANCH   8  17
BRANCH  11  19
ATOM     19  O   UNL A   1      36.936  21.703  25.973  1.00  0.00    -0.406 OA
BRANCH  19  20
ATOM     20  C   UNL A   1      38.008  21.291  25.146  1.00  0.00     0.573 C 
ATOM     21  F   UNL A   1      39.139  21.970  25.435  1.00  0.00    -0.132 F 
ATOM     22  F   UNL A   1      38.236  19.967  25.272  1.00  0.00    -0.132 F 
ATOM     23  F   UNL A   1      37.687  21.543  23.858  1.00  0.00    -0.132 F 
ENDBRANCH  19  20
ENDBRANCH  11  19
BRANCH  16  24
ATOM     24  C   UNL A   1      30.526  25.114  23.366  1.00  0.00     0.429 C 
ATOM     25  F   UNL A   1      29.713  24.123  22.940  1.00  0.00    -0.167 F 
ATOM     26  F   UNL A   1      30.164  25.338  24.660  1.00  0.00    -0.167 F 
ATOM     27  F   UNL A   1      30.220  26.241  22.680  1.00  0.00    -0.167 F 
ENDBRANCH  16  24
ENDBRANCH   4   7
ENDBRANCH   2   3
ENDBRANCH   1   2
BRANCH   1  28
ATOM     28  C   UNL A   1      34.100  28.760  26.353  1.00  0.00     0.118 C 
BRANCH  28  29
ATOM     29  N   UNL A   1      33.916  30.149  26.752  1.00  0.00    -0.352 N 
ATOM     30  C   UNL A   1      34.598  30.890  27.686  1.00  0.00     0.251 C 
ATOM     31  H   UNL A   1      33.195  30.627  26.283  1.00  0.00     0.163 HD
ATOM     32  O   UNL A   1      34.123  31.953  28.070  1.00  0.00    -0.269 OA
BRANCH  30  33
ATOM     33  C   UNL A   1      35.886  30.405  28.228  1.00  0.00     0.039 A 
ATOM     34  C   UNL A   1      35.899  29.739  29.456  1.00  0.00     0.014 A 
ATOM     35  C   UNL A   1      37.083  30.636  27.543  1.00  0.00     0.014 A 
ATOM     36  C   UNL A   1      37.104  29.251  29.967  1.00  0.00     0.010 A 
ATOM     37  C   UNL A   1      38.271  30.088  28.019  1.00  0.00     0.010 A 
ATOM     38  C   UNL A   1      38.295  29.391  29.237  1.00  0.00    -0.014 A 
BRANCH  38  39
ATOM     39  C   UNL A   1      39.580  28.825  29.725  1.00  0.00     0.031 A 
ATOM     40  C   UNL A   1      40.332  29.516  30.832  1.00  0.00     0.074 A 
ATOM     41  C   UNL A   1      40.106  27.741  29.119  1.00  0.00     0.049 A 
ATOM     42  N   UNL A   1      41.522  29.260  31.309  1.00  0.00    -0.248 NA
ATOM     43  C   UNL A   1      39.665  30.665  31.463  1.00  0.00     0.031 C 
ATOM     44  C   UNL A   1      39.481  27.003  28.019  1.00  0.00     0.029 A 
ATOM     45  N   UNL A   1      41.290  27.079  29.328  1.00  0.00    -0.354 N 
ATOM     46  C   UNL A   1      41.757  30.228  32.282  1.00  0.00     0.074 A 
ATOM     47  C   UNL A   1      40.606  31.105  32.287  1.00  0.00     0.031 C 
ATOM     48  C   UNL A   1      40.280  25.986  27.660  1.00  0.00     0.029 A 
ATOM     49  C   UNL A   1      41.499  26.030  28.462  1.00  0.00     0.049 A 
ATOM     50  H   UNL A   1      41.931  27.331  30.033  1.00  0.00     0.167 HD
ATOM     51  C   UNL A   1      42.828  30.359  33.103  1.00  0.00     0.034 A 
ATOM     52  C   UNL A   1      42.561  25.213  28.312  1.00  0.00     0.034 A 
ATOM     53  C   UNL A   1      43.958  29.464  33.093  1.00  0.00     0.049 A 
ATOM     54  C   UNL A   1      43.755  25.400  29.218  1.00  0.00     0.074 A 
ATOM     55  C   UNL A   1      45.068  29.470  33.920  1.00  0.00     0.029 A 
ATOM     56  N   UNL A   1      44.131  28.408  32.206  1.00  0.00    -0.354 N 
ATOM     57  N   UNL A   1      43.940  26.293  30.164  1.00  0.00    -0.248 NA
ATOM     58  C   UNL A   1      44.876  24.468  29.044  1.00  0.00     0.031 C 
ATOM     59  C   UNL A   1      45.943  28.470  33.486  1.00  0.00     0.029 A 
ATOM     60  C   UNL A   1      45.343  27.780  32.445  1.00  0.00     0.049 A 
ATOM     61  H   UNL A   1      43.487  28.144  31.510  1.00  0.00     0.167 HD
ATOM     62  C   UNL A   1      45.183  26.001  30.721  1.00  0.00     0.074 A 
ATOM     63  C   UNL A   1      45.695  24.847  30.013  1.00  0.00     0.031 C 
ATOM     64  C   UNL A   1      45.840  26.628  31.730  1.00  0.00     0.034 A 
BRANCH  51  65
ATOM     65  C   UNL A   1      42.838  31.527  34.060  1.00  0.00     0.023 A 
ATOM     66  C   UNL A   1      42.266  31.441  35.342  1.00  0.00     0.031 A 
ATOM     67  C   UNL A   1      43.426  32.748  33.685  1.00  0.00     0.131 A 
ATOM     68  C   UNL A   1      42.235  32.572  36.173  1.00  0.00     0.055 A 
ATOM     69  C   UNL A   1      43.466  33.844  34.548  1.00  0.00     0.041 A 
ATOM     70  F   UNL A   1      43.970  32.898  32.466  1.00  0.00    -0.206 F 
ATOM     71  C   UNL A   1      42.856  33.764  35.796  1.00  0.00     0.022 A 
BRANCH  68  72
ATOM     72  S   UNL A   1      41.256  32.499  37.698  1.00  0.00     0.124 S 
ATOM     73  O   UNL A   1      42.084  31.640  38.539  1.00  0.00    -0.237 OA
ATOM     74  O   UNL A   1      41.181  33.901  38.093  1.00  0.00    -0.237 OA
ATOM     75  O   UNL A   1      39.993  31.905  37.264  1.00  0.00    -0.744 OA
ENDBRANCH  68  72
ENDBRANCH  51  65
BRANCH  52  76
ATOM     76  C   UNL A   1      42.569  24.161  27.254  1.00  0.00     0.023 A 
ATOM     77  C   UNL A   1      42.021  22.890  27.492  1.00  0.00     0.031 A 
ATOM     78  C   UNL A   1      43.177  24.389  26.006  1.00  0.00     0.131 A 
ATOM     79  C   UNL A   1      42.144  21.881  26.524  1.00  0.00     0.055 A 
ATOM     80  C   UNL A   1      43.241  23.401  25.022  1.00  0.00     0.041 A 
ATOM     81  F   UNL A   1      43.715  25.586  25.721  1.00  0.00    -0.206 F 
ATOM     82  C   UNL A   1      42.737  22.132  25.285  1.00  0.00     0.022 A 
BRANCH  79  83
ATOM     83  S   UNL A   1      41.618  20.199  26.955  1.00  0.00     0.124 S 
ATOM     84  O   UNL A   1      41.328  19.635  25.642  1.00  0.00    -0.237 OA
ATOM     85  O   UNL A   1      42.800  19.677  27.631  1.00  0.00    -0.237 OA
ATOM     86  O   UNL A   1      40.455  20.416  27.813  1.00  0.00    -0.744 OA
ENDBRANCH  79  83
ENDBRANCH  52  76
BRANCH  64  87
ATOM     87  C   UNL A   1      47.158  26.037  32.169  1.00  0.00     0.023 A 
ATOM     88  C   UNL A   1      47.249  25.136  33.244  1.00  0.00     0.031 A 
ATOM     89  C   UNL A   1      48.342  26.379  31.491  1.00  0.00     0.131 A 
ATOM     90  C   UNL A   1      48.503  24.646  33.639  1.00  0.00     0.055 A 
ATOM     91  C   UNL A   1      49.577  25.840  31.848  1.00  0.00     0.041 A 
ATOM     92  F   UNL A   1      48.314  27.238  30.459  1.00  0.00    -0.206 F 
ATOM     93  C   UNL A   1      49.665  24.976  32.935  1.00  0.00     0.022 A 
BRANCH  90  94
ATOM     94  S   UNL A   1      48.610  23.634  35.141  1.00  0.00     0.124 S 
ATOM     95  O   UNL A   1      48.498  22.282  34.604  1.00  0.00    -0.237 OA
ATOM     96  O   UNL A   1      49.917  24.003  35.674  1.00  0.00    -0.237 OA
ATOM     97  O   UNL A   1      47.469  24.082  35.938  1.00  0.00    -0.744 OA
ENDBRANCH  90  94
ENDBRANCH  64  87
ENDBRANCH  38  39
ENDBRANCH  30  33
ENDBRANCH  28  29
ENDBRANCH   1  28
TORSDOF 17
ENDMDL
MODEL 2
REMARK VINA RESULT:     -11.2      3.112      8.209
REMARK SMILES CCc1cc(OC(F)(F)F)cc2c1O[C@@H](C(F)(F)F)C(C(=O)NCCCNC(=O)c1ccc(-c3c4nc(c(-c5cc(S(=O)(=O)[O-])ccc5F)c5ccc([nH]5)c(-c5cc(S(=O)(=O)[O-])ccc5F)c5nc(c(-c6cc(S(=O)(=O)[O-])ccc6F)c6ccc3[nH]6)C=C5)C=C4)cc1)=C2
REMARK SMILES IDX 25 1 24 2 23 3 21 4 22 5 20 7 3 8 4 9 13 10 5 11 12 12 14 13
REMARK SMILES IDX 11 14 93 15 15 16 2 17 1 18 6 19 7 20 8 21 9 22 10 23 16 24
REMARK SMILES IDX 17 25 18 26 19 27 26 28 27 29 28 30 29 32 30 33 31 34 92 35
REMARK SMILES IDX 32 36 91 37 33 38 34 39 35 40 85 41 36 42 90 43 84 44 86 45
REMARK SMILES IDX 37 46 89 47 83 48 82 49 38 51 70 52 50 53 69 54 51 55 54 56
REMARK SMILES IDX 68 57 87 58 52 59 53 60 67 62 88 63 55 64 39 65 40 66 48 67
REMARK SMILES IDX 41 68 47 69 49 70 46 71 42 72 43 73 44 74 45 75 71 76 72 77
REMARK SMILES IDX 80 78 73 79 79 80 81 81 78 82 74 83 75 84 76 85 77 86 56 87
REMARK SMILES IDX 57 88 65 89 58 90 64 91 66 92 63 93 59 94 60 95 61 96 62 97
REMARK H PARENT 23 6 27 31 86 50 54 61
REMARK Flexibility Score: inf
ROOT
ATOM      1  C   UNL A   1      31.643  31.251  26.155  1.00  0.00     0.042 C 
ENDROOT
BRANCH   1   2
ATOM      2  C   UNL A   1      31.881  29.802  25.721  1.00  0.00     0.118 C 
BRANCH   2   3
ATOM      3  N   UNL A   1      32.077  29.725  24.281  1.00  0.00    -0.352 N 
ATOM      4  C   UNL A   1      32.487  28.736  23.448  1.00  0.00     0.251 C 
ATOM      5  O   UNL A   1      32.688  29.028  22.271  1.00  0.00    -0.270 OA
ATOM      6  H   UNL A   1      31.869  30.567  23.814  1.00  0.00     0.163 HD
BRANCH   4   7
ATOM      7  C   UNL A   1      32.628  27.316  23.870  1.00  0.00     0.067 C 
ATOM      8  C   UNL A   1      32.694  23.319  25.209  1.00  0.00    -0.002 A 
ATOM      9  C   UNL A   1      33.882  22.823  25.786  1.00  0.00     0.054 A 
ATOM     10  C   UNL A   1      32.666  24.644  24.743  1.00  0.00     0.131 A 
ATOM     11  C   UNL A   1      35.011  23.632  25.914  1.00  0.00     0.130 A 
ATOM     12  C   UNL A   1      33.802  25.444  24.840  1.00  0.00     0.021 A 
ATOM     13  O   UNL A   1      31.483  25.127  24.265  1.00  0.00    -0.475 OA
ATOM     14  C   UNL A   1      34.967  24.938  25.427  1.00  0.00     0.058 A 
ATOM     15  C   UNL A   1      33.758  26.829  24.401  1.00  0.00     0.025 C 
ATOM     16  C   UNL A   1      31.478  26.378  23.517  1.00  0.00     0.314 C 
BRANCH   8  17
ATOM     17  C   UNL A   1      31.499  22.400  25.074  1.00  0.00     0.036 C 
ATOM     18  C   UNL A   1      30.512  22.519  26.228  1.00  0.00     0.009 C 
ENDBRANCH   8  17
BRANCH  11  19
ATOM     19  O   UNL A   1      36.201  23.289  26.488  1.00  0.00    -0.406 OA
BRANCH  19  20
ATOM     20  C   UNL A   1      37.312  23.077  25.637  1.00  0.00     0.573 C 
ATOM     21  F   UNL A   1      36.925  22.585  24.440  1.00  0.00    -0.132 F 
ATOM     22  F   UNL A   1      38.005  24.220  25.449  1.00  0.00    -0.132 F 
ATOM     23  F   UNL A   1      38.136  22.173  26.211  1.00  0.00    -0.132 F 
ENDBRANCH  19  20
ENDBRANCH  11  19
BRANCH  16  24
ATOM     24  C   UNL A   1      30.046  26.954  23.625  1.00  0.00     0.429 C 
ATOM     25  F   UNL A   1      29.752  27.837  22.646  1.00  0.00    -0.167 F 
ATOM     26  F   UNL A   1      29.118  25.965  23.500  1.00  0.00    -0.167 F 
ATOM     27  F   UNL A   1      29.814  27.549  24.819  1.00  0.00    -0.167 F 
ENDBRANCH  16  24
ENDBRANCH   4   7
ENDBRANCH   2   3
ENDBRANCH   1   2
BRANCH   1  28
ATOM     28  C   UNL A   1      32.512  31.669  27.341  1.00  0.00     0.118 C 
BRANCH  28  29
ATOM     29  N   UNL A   1      32.535  33.116  27.503  1.00  0.00    -0.352 N 
ATOM     30  C   UNL A   1      33.319  33.894  28.319  1.00  0.00     0.251 C 
ATOM     31  H   UNL A   1      31.891  33.610  26.946  1.00  0.00     0.163 HD
ATOM     32  O   UNL A   1      33.007  35.063  28.514  1.00  0.00    -0.269 OA
BRANCH  30  33
ATOM     33  C   UNL A   1      34.523  33.322  28.962  1.00  0.00     0.039 A 
ATOM     34  C   UNL A   1      35.779  33.838  28.634  1.00  0.00     0.014 A 
ATOM     35  C   UNL A   1      34.416  32.256  29.861  1.00  0.00     0.014 A 
ATOM     36  C   UNL A   1      36.922  33.327  29.253  1.00  0.00     0.010 A 
ATOM     37  C   UNL A   1      35.548  31.797  30.530  1.00  0.00     0.010 A 
ATOM     38  C   UNL A   1      36.814  32.326  30.232  1.00  0.00    -0.014 A 
BRANCH  38  39
ATOM     39  C   UNL A   1      38.006  31.808  30.954  1.00  0.00     0.031 A 
ATOM     40  C   UNL A   1      38.820  30.693  30.355  1.00  0.00     0.074 A 
ATOM     41  C   UNL A   1      38.304  32.287  32.180  1.00  0.00     0.049 A 
ATOM     42  N   UNL A   1      39.810  30.017  30.879  1.00  0.00    -0.248 NA
ATOM     43  C   UNL A   1      38.449  30.262  28.999  1.00  0.00     0.031 C 
ATOM     44  C   UNL A   1      37.571  33.349  32.872  1.00  0.00     0.029 A 
ATOM     45  N   UNL A   1      39.288  31.933  33.068  1.00  0.00    -0.354 N 
ATOM     46  C   UNL A   1      40.168  29.069  29.926  1.00  0.00     0.074 A 
ATOM     47  C   UNL A   1      39.253  29.224  28.815  1.00  0.00     0.031 C 
ATOM     48  C   UNL A   1      38.138  33.568  34.069  1.00  0.00     0.029 A 
ATOM     49  C   UNL A   1      39.239  32.627  34.256  1.00  0.00     0.049 A 
ATOM     50  H   UNL A   1      39.968  31.247  32.873  1.00  0.00     0.167 HD
ATOM     51  C   UNL A   1      41.177  28.165  29.970  1.00  0.00     0.034 A 
ATOM     52  C   UNL A   1      39.976  32.503  35.377  1.00  0.00     0.034 A 
ATOM     53  C   UNL A   1      42.089  28.037  31.080  1.00  0.00     0.049 A 
ATOM     54  C   UNL A   1      41.073  31.466  35.413  1.00  0.00     0.074 A 
ATOM     55  C   UNL A   1      43.181  27.196  31.204  1.00  0.00     0.029 A 
ATOM     56  N   UNL A   1      42.012  28.762  32.263  1.00  0.00    -0.354 N 
ATOM     57  N   UNL A   1      41.428  30.607  34.483  1.00  0.00    -0.248 NA
ATOM     58  C   UNL A   1      41.874  31.386  36.641  1.00  0.00     0.031 C 
ATOM     59  C   UNL A   1      43.715  27.357  32.486  1.00  0.00     0.029 A 
ATOM     60  C   UNL A   1      43.014  28.363  33.132  1.00  0.00     0.049 A 
ATOM     61  H   UNL A   1      41.342  29.458  32.455  1.00  0.00     0.167 HD
ATOM     62  C   UNL A   1      42.518  29.915  35.005  1.00  0.00     0.074 A 
ATOM     63  C   UNL A   1      42.768  30.462  36.321  1.00  0.00     0.031 C 
ATOM     64  C   UNL A   1      43.250  28.920  34.443  1.00  0.00     0.034 A 
BRANCH  51  65
ATOM     65  C   UNL A   1      41.331  27.227  28.796  1.00  0.00     0.023 A 
ATOM     66  C   UNL A   1      42.337  27.404  27.830  1.00  0.00     0.031 A 
ATOM     67  C   UNL A   1      40.453  26.139  28.638  1.00  0.00     0.131 A 
ATOM     68  C   UNL A   1      42.400  26.550  26.718  1.00  0.00     0.055 A 
ATOM     69  C   UNL A   1      40.573  25.243  27.573  1.00  0.00     0.041 A 
ATOM     70  F   UNL A   1      39.459  25.929  29.515  1.00  0.00    -0.206 F 
ATOM     71  C   UNL A   1      41.542  25.455  26.597  1.00  0.00     0.022 A 
BRANCH  68  72
ATOM     72  S   UNL A   1      43.532  26.972  25.366  1.00  0.00     0.124 S 
ATOM     73  O   UNL A   1      44.547  27.754  26.065  1.00  0.00    -0.237 OA
ATOM     74  O   UNL A   1      43.953  25.660  24.886  1.00  0.00    -0.237 OA
ATOM     75  O   UNL A   1      42.693  27.734  24.443  1.00  0.00    -0.744 OA
ENDBRANCH  68  72
ENDBRANCH  51  65
BRANCH  52  76
ATOM     76  C   UNL A   1      39.697  33.354  36.571  1.00  0.00     0.023 A 
ATOM     77  C   UNL A   1      39.018  32.839  37.685  1.00  0.00     0.031 A 
ATOM     78  C   UNL A   1      40.054  34.715  36.592  1.00  0.00     0.131 A 
ATOM     79  C   UNL A   1      38.663  33.687  38.745  1.00  0.00     0.055 A 
ATOM     80  C   UNL A   1      39.756  35.541  37.677  1.00  0.00     0.041 A 
ATOM     81  F   UNL A   1      40.709  35.263  35.555  1.00  0.00    -0.206 F 
ATOM     82  C   UNL A   1      39.041  35.032  38.755  1.00  0.00     0.022 A 
BRANCH  79  83
ATOM     83  S   UNL A   1      37.600  33.033  40.061  1.00  0.00     0.124 S 
ATOM     84  O   UNL A   1      38.410  31.937  40.579  1.00  0.00    -0.237 OA
ATOM     85  O   UNL A   1      37.455  34.192  40.936  1.00  0.00    -0.237 OA
ATOM     86  O   UNL A   1      36.387  32.633  39.351  1.00  0.00    -0.744 OA
ENDBRANCH  79  83
ENDBRANCH  52  76
BRANCH  64  87
ATOM     87  C   UNL A   1      44.431  28.402  35.229  1.00  0.00     0.023 A 
ATOM     88  C   UNL A   1      44.294  27.403  36.208  1.00  0.00     0.031 A 
ATOM     89  C   UNL A   1      45.718  28.916  34.984  1.00  0.00     0.131 A 
ATOM     90  C   UNL A   1      45.416  26.984  36.939  1.00  0.00     0.055 A 
ATOM     91  C   UNL A   1      46.839  28.450  35.669  1.00  0.00     0.041 A 
ATOM     92  F   UNL A   1      45.906  29.874  34.062  1.00  0.00    -0.206 F 
ATOM     93  C   UNL A   1      46.690  27.486  36.662  1.00  0.00     0.022 A 
BRANCH  90  94
ATOM     94  S   UNL A   1      45.177  25.832  38.319  1.00  0.00     0.124 S 
ATOM     95  O   UNL A   1      44.178  26.527  39.125  1.00  0.00    -0.237 OA
ATOM     96  O   UNL A   1      44.720  24.622  37.641  1.00  0.00    -0.237 OA
ATOM     97  O   UNL A   1      46.505  25.737  38.923  1.00  0.00    -0.744 OA
ENDBRANCH  90  94
ENDBRANCH  64  87
ENDBRANCH  38  39
ENDBRANCH  30  33
ENDBRANCH  28  29
ENDBRANCH   1  28
TORSDOF 17
ENDMDL
MODEL 3
REMARK VINA RESULT:     -11.2      4.873      8.266
REMARK SMILES CCc1cc(OC(F)(F)F)cc2c1O[C@@H](C(F)(F)F)C(C(=O)NCCCNC(=O)c1ccc(-c3c4nc(c(-c5cc(S(=O)(=O)[O-])ccc5F)c5ccc([nH]5)c(-c5cc(S(=O)(=O)[O-])ccc5F)c5nc(c(-c6cc(S(=O)(=O)[O-])ccc6F)c6ccc3[nH]6)C=C5)C=C4)cc1)=C2
REMARK SMILES IDX 25 1 24 2 23 3 21 4 22 5 20 7 3 8 4 9 13 10 5 11 12 12 14 13
REMARK SMILES IDX 11 14 93 15 15 16 2 17 1 18 6 19 7 20 8 21 9 22 10 23 16 24
REMARK SMILES IDX 17 25 18 26 19 27 26 28 27 29 28 30 29 32 30 33 31 34 92 35
REMARK SMILES IDX 32 36 91 37 33 38 34 39 35 40 85 41 36 42 90 43 84 44 86 45
REMARK SMILES IDX 37 46 89 47 83 48 82 49 38 51 70 52 50 53 69 54 51 55 54 56
REMARK SMILES IDX 68 57 87 58 52 59 53 60 67 62 88 63 55 64 39 65 40 66 48 67
REMARK SMILES IDX 41 68 47 69 49 70 46 71 42 72 43 73 44 74 45 75 71 76 72 77
REMARK SMILES IDX 80 78 73 79 79 80 81 81 78 82 74 83 75 84 76 85 77 86 56 87
REMARK SMILES IDX 57 88 65 89 58 90 64 91 66 92 63 93 59 94 60 95 61 96 62 97
REMARK H PARENT 23 6 27 31 86 50 54 61
REMARK Flexibility Score: inf
ROOT
ATOM      1  C   UNL A   1      36.034  21.726  24.236  1.00  0.00     0.042 C 
ENDROOT
BRANCH   1   2
ATOM      2  C   UNL A   1      35.208  22.890  23.683  1.00  0.00     0.118 C 
BRANCH   2   3
ATOM      3  N   UNL A   1      33.920  22.418  23.196  1.00  0.00    -0.352 N 
ATOM      4  C   UNL A   1      32.664  22.928  23.239  1.00  0.00     0.251 C 
ATOM      5  O   UNL A   1      31.743  22.211  22.854  1.00  0.00    -0.270 OA
ATOM      6  H   UNL A   1      33.972  21.546  22.742  1.00  0.00     0.163 HD
BRANCH   4   7
ATOM      7  C   UNL A   1      32.362  24.325  23.652  1.00  0.00     0.067 C 
ATOM      8  C   UNL A   1      31.344  28.145  25.119  1.00  0.00    -0.002 A 
ATOM      9  C   UNL A   1      30.871  29.110  24.207  1.00  0.00     0.054 A 
ATOM     10  C   UNL A   1      31.703  26.874  24.639  1.00  0.00     0.131 A 
ATOM     11  C   UNL A   1      30.737  28.814  22.850  1.00  0.00     0.130 A 
ATOM     12  C   UNL A   1      31.603  26.586  23.279  1.00  0.00     0.021 A 
ATOM     13  O   UNL A   1      32.080  25.931  25.550  1.00  0.00    -0.475 OA
ATOM     14  C   UNL A   1      31.119  27.553  22.393  1.00  0.00     0.058 A 
ATOM     15  C   UNL A   1      31.930  25.257  22.790  1.00  0.00     0.025 C 
ATOM     16  C   UNL A   1      32.727  24.711  25.082  1.00  0.00     0.314 C 
BRANCH   8  17
ATOM     17  C   UNL A   1      31.489  28.516  26.579  1.00  0.00     0.036 C 
ATOM     18  C   UNL A   1      32.088  29.900  26.793  1.00  0.00     0.009 C 
ENDBRANCH   8  17
BRANCH  11  19
ATOM     19  O   UNL A   1      30.254  29.640  21.877  1.00  0.00    -0.406 OA
BRANCH  19  20
ATOM     20  C   UNL A   1      28.928  30.118  22.009  1.00  0.00     0.573 C 
ATOM     21  F   UNL A   1      28.090  29.134  22.402  1.00  0.00    -0.132 F 
ATOM     22  F   UNL A   1      28.866  31.138  22.891  1.00  0.00    -0.132 F 
ATOM     23  F   UNL A   1      28.505  30.571  20.809  1.00  0.00    -0.132 F 
ENDBRANCH  19  20
ENDBRANCH  11  19
BRANCH  16  24
ATOM     24  C   UNL A   1      32.500  23.641  26.176  1.00  0.00     0.429 C 
ATOM     25  F   UNL A   1      33.619  22.950  26.484  1.00  0.00    -0.167 F 
ATOM     26  F   UNL A   1      32.110  24.222  27.345  1.00  0.00    -0.167 F 
ATOM     27  F   UNL A   1      31.531  22.756  25.844  1.00  0.00    -0.167 F 
ENDBRANCH  16  24
ENDBRANCH   4   7
ENDBRANCH   2   3
ENDBRANCH   1   2
BRANCH   1  28
ATOM     28  C   UNL A   1      37.038  22.160  25.303  1.00  0.00     0.118 C 
BRANCH  28  29
ATOM     29  N   UNL A   1      37.926  21.068  25.678  1.00  0.00    -0.352 N 
ATOM     30  C   UNL A   1      39.219  21.109  26.140  1.00  0.00     0.251 C 
ATOM     31  H   UNL A   1      37.542  20.166  25.586  1.00  0.00     0.163 HD
ATOM     32  O   UNL A   1      39.887  20.081  26.143  1.00  0.00    -0.269 OA
BRANCH  30  33
ATOM     33  C   UNL A   1      39.799  22.383  26.619  1.00  0.00     0.039 A 
ATOM     34  C   UNL A   1      40.765  22.352  27.629  1.00  0.00     0.014 A 
ATOM     35  C   UNL A   1      39.368  23.607  26.099  1.00  0.00     0.014 A 
ATOM     36  C   UNL A   1      41.342  23.544  28.073  1.00  0.00     0.010 A 
ATOM     37  C   UNL A   1      39.994  24.786  26.492  1.00  0.00     0.010 A 
ATOM     38  C   UNL A   1      40.987  24.769  27.484  1.00  0.00    -0.014 A 
BRANCH  38  39
ATOM     39  C   UNL A   1      41.631  26.045  27.891  1.00  0.00     0.031 A 
ATOM     40  C   UNL A   1      40.831  27.089  28.623  1.00  0.00     0.074 A 
ATOM     41  C   UNL A   1      42.907  26.294  27.530  1.00  0.00     0.049 A 
ATOM     42  N   UNL A   1      41.165  28.311  28.949  1.00  0.00    -0.248 NA
ATOM     43  C   UNL A   1      39.462  26.717  29.012  1.00  0.00     0.031 C 
ATOM     44  C   UNL A   1      43.772  25.369  26.796  1.00  0.00     0.029 A 
ATOM     45  N   UNL A   1      43.694  27.404  27.715  1.00  0.00    -0.354 N 
ATOM     46  C   UNL A   1      40.044  28.861  29.563  1.00  0.00     0.074 A 
ATOM     47  C   UNL A   1      39.005  27.855  29.515  1.00  0.00     0.031 C 
ATOM     48  C   UNL A   1      44.971  25.943  26.605  1.00  0.00     0.029 A 
ATOM     49  C   UNL A   1      44.944  27.296  27.152  1.00  0.00     0.049 A 
ATOM     50  H   UNL A   1      43.391  28.202  28.207  1.00  0.00     0.167 HD
ATOM     51  C   UNL A   1      39.904  30.085  30.128  1.00  0.00     0.034 A 
ATOM     52  C   UNL A   1      45.947  28.194  27.060  1.00  0.00     0.034 A 
ATOM     53  C   UNL A   1      40.958  31.067  30.179  1.00  0.00     0.049 A 
ATOM     54  C   UNL A   1      45.754  29.562  27.669  1.00  0.00     0.074 A 
ATOM     55  C   UNL A   1      40.943  32.316  30.778  1.00  0.00     0.029 A 
ATOM     56  N   UNL A   1      42.214  30.920  29.604  1.00  0.00    -0.354 N 
ATOM     57  N   UNL A   1      44.701  30.048  28.287  1.00  0.00    -0.248 NA
ATOM     58  C   UNL A   1      46.882  30.497  27.577  1.00  0.00     0.031 C 
ATOM     59  C   UNL A   1      42.157  32.950  30.498  1.00  0.00     0.029 A 
ATOM     60  C   UNL A   1      42.967  32.067  29.803  1.00  0.00     0.049 A 
ATOM     61  H   UNL A   1      42.524  30.119  29.124  1.00  0.00     0.167 HD
ATOM     62  C   UNL A   1      45.060  31.333  28.689  1.00  0.00     0.074 A 
ATOM     63  C   UNL A   1      46.425  31.539  28.254  1.00  0.00     0.031 C 
ATOM     64  C   UNL A   1      44.329  32.257  29.363  1.00  0.00     0.034 A 
BRANCH  51  65
ATOM     65  C   UNL A   1      38.556  30.439  30.710  1.00  0.00     0.023 A 
ATOM     66  C   UNL A   1      37.574  31.107  29.957  1.00  0.00     0.031 A 
ATOM     67  C   UNL A   1      38.248  30.107  32.041  1.00  0.00     0.131 A 
ATOM     68  C   UNL A   1      36.361  31.479  30.558  1.00  0.00     0.055 A 
ATOM     69  C   UNL A   1      37.009  30.406  32.609  1.00  0.00     0.041 A 
ATOM     70  F   UNL A   1      39.153  29.488  32.818  1.00  0.00    -0.206 F 
ATOM     71  C   UNL A   1      36.061  31.109  31.870  1.00  0.00     0.022 A 
BRANCH  68  72
ATOM     72  S   UNL A   1      35.240  32.569  29.641  1.00  0.00     0.124 S 
ATOM     73  O   UNL A   1      36.160  33.587  29.142  1.00  0.00    -0.237 OA
ATOM     74  O   UNL A   1      34.676  31.671  28.639  1.00  0.00    -0.237 OA
ATOM     75  O   UNL A   1      34.302  33.031  30.662  1.00  0.00    -0.744 OA
ENDBRANCH  68  72
ENDBRANCH  51  65
BRANCH  52  76
ATOM     76  C   UNL A   1      47.213  27.851  26.348  1.00  0.00     0.023 A 
ATOM     77  C   UNL A   1      47.335  28.028  24.961  1.00  0.00     0.031 A 
ATOM     78  C   UNL A   1      48.303  27.286  27.035  1.00  0.00     0.131 A 
ATOM     79  C   UNL A   1      48.490  27.590  24.297  1.00  0.00     0.055 A 
ATOM     80  C   UNL A   1      49.476  26.910  26.379  1.00  0.00     0.041 A 
ATOM     81  F   UNL A   1      48.245  27.095  28.364  1.00  0.00    -0.206 F 
ATOM     82  C   UNL A   1      49.568  27.046  24.999  1.00  0.00     0.022 A 
BRANCH  79  83
ATOM     83  S   UNL A   1      48.519  27.638  22.484  1.00  0.00     0.124 S 
ATOM     84  O   UNL A   1      49.752  28.372  22.226  1.00  0.00    -0.237 OA
ATOM     85  O   UNL A   1      48.533  26.219  22.145  1.00  0.00    -0.237 OA
ATOM     86  O   UNL A   1      47.287  28.347  22.143  1.00  0.00    -0.744 OA
ENDBRANCH  79  83
ENDBRANCH  52  76
BRANCH  64  87
ATOM     87  C   UNL A   1      45.014  33.552  29.724  1.00  0.00     0.023 A 
ATOM     88  C   UNL A   1      45.031  34.655  28.852  1.00  0.00     0.031 A 
ATOM     89  C   UNL A   1      45.656  33.684  30.970  1.00  0.00     0.131 A 
ATOM     90  C   UNL A   1      45.716  35.823  29.218  1.00  0.00     0.055 A 
ATOM     91  C   UNL A   1      46.281  34.870  31.353  1.00  0.00     0.041 A 
ATOM     92  F   UNL A   1      45.674  32.662  31.839  1.00  0.00    -0.206 F 
ATOM     93  C   UNL A   1      46.324  35.945  30.471  1.00  0.00     0.022 A 
BRANCH  90  94
ATOM     94  S   UNL A   1      45.877  37.157  27.999  1.00  0.00     0.124 S 
ATOM     95  O   UNL A   1      44.908  36.758  26.984  1.00  0.00    -0.237 OA
ATOM     96  O   UNL A   1      45.529  38.339  28.782  1.00  0.00    -0.237 OA
ATOM     97  O   UNL A   1      47.277  37.079  27.587  1.00  0.00    -0.744 OA
ENDBRANCH  90  94
ENDBRANCH  64  87
ENDBRANCH  38  39
ENDBRANCH  30  33
ENDBRANCH  28  29
ENDBRANCH   1  28
TORSDOF 17
ENDMDL
