MODEL 1
REMARK VINA RESULT:     -12.3      0.000      0.000
REMARK SMILES Cc1nn2c(nnc3c(=O)n(CCCC(=O)NCCCNC(=O)c4ccc(-c5c6nc(c(-c7cc(S(=O)(=O)[O-])ccc7F)c7ccc([nH]7)c(-c7cc(S(=O)(=O)[O-])ccc7F)c7nc(c(-c8cc(S(=O)(=O)[O-])ccc8F)c8ccc5[nH]8)C=C7)C=C6)cc4)ccc32)c1-c1ccc(F)cc1
REMARK SMILES IDX 18 1 17 2 15 3 16 4 14 6 13 7 12 8 11 9 1 10 2 11 3 12 90 13
REMARK SMILES IDX 4 14 5 15 89 16 6 17 8 18 88 19 7 20 9 21 87 22 10 23 91 24
REMARK SMILES IDX 92 25 97 26 93 27 96 28 94 29 95 30 19 31 20 32 21 33 22 34
REMARK SMILES IDX 23 36 24 37 25 38 86 39 26 40 85 41 27 42 28 43 29 44 79 45
REMARK SMILES IDX 30 46 84 47 78 48 80 49 31 50 83 51 77 52 76 53 32 55 64 56
REMARK SMILES IDX 44 57 63 58 45 59 48 60 62 61 81 62 46 63 47 64 61 66 82 67
REMARK SMILES IDX 49 68 33 69 34 70 42 71 35 72 41 73 43 74 40 75 36 76 37 77
REMARK SMILES IDX 38 78 39 79 65 80 66 81 74 82 67 83 73 84 75 85 72 86 68 87
REMARK SMILES IDX 69 88 70 89 71 90 50 91 51 92 59 93 52 94 58 95 60 96 57 97
REMARK SMILES IDX 53 98 54 99 55 100 56 101
REMARK H PARENT 17 5 21 35 80 54 48 65
REMARK Flexibility Score: inf
ROOT
ATOM      1  C   UNL A   1      44.513  22.062  24.379  1.00  0.00     0.117 C 
ENDROOT
BRANCH   1   2
ATOM      2  N   UNL A   1      44.854  20.714  23.984  1.00  0.00    -0.356 N 
ATOM      3  C   UNL A   1      44.509  19.498  24.466  1.00  0.00     0.220 C 
ATOM      4  O   UNL A   1      44.883  18.527  23.797  1.00  0.00    -0.275 OA
ATOM      5  H   UNL A   1      45.459  20.672  23.208  1.00  0.00     0.163 HD
BRANCH   3   6
ATOM      6  C   UNL A   1      43.612  19.248  25.665  1.00  0.00     0.102 C 
BRANCH   6   7
ATOM      7  C   UNL A   1      42.086  19.108  25.611  1.00  0.00     0.032 C 
BRANCH   7   8
ATOM      8  C   UNL A   1      41.080  19.864  26.487  1.00  0.00     0.126 C 
BRANCH   8   9
ATOM      9  N   UNL A   1      39.824  20.465  25.988  1.00  0.00    -0.313 N 
ATOM     10  C   UNL A   1      33.029  22.179  23.008  1.00  0.00     0.069 C 
ATOM     11  C   UNL A   1      34.189  22.378  23.912  1.00  0.00     0.070 A 
ATOM     12  N   UNL A   1      35.041  21.367  24.147  1.00  0.00    -0.170 NA
ATOM     13  C   UNL A   1      34.587  23.569  24.559  1.00  0.00     0.051 A 
ATOM     14  N   UNL A   1      36.049  21.924  24.878  1.00  0.00    -0.210 N 
ATOM     15  C   UNL A   1      35.781  23.255  25.164  1.00  0.00     0.186 A 
ATOM     16  C   UNL A   1      37.276  21.383  25.264  1.00  0.00     0.102 A 
ATOM     17  N   UNL A   1      36.662  24.008  25.879  1.00  0.00    -0.129 NA
ATOM     18  C   UNL A   1      38.130  22.247  25.835  1.00  0.00     0.177 A 
ATOM     19  C   UNL A   1      37.664  20.004  25.063  1.00  0.00     0.049 A 
ATOM     20  N   UNL A   1      37.796  23.548  26.153  1.00  0.00    -0.141 NA
ATOM     21  C   UNL A   1      39.540  21.825  26.086  1.00  0.00     0.280 A 
ATOM     22  C   UNL A   1      38.874  19.587  25.464  1.00  0.00     0.091 A 
ATOM     23  O   UNL A   1      40.352  22.698  26.360  1.00  0.00    -0.267 OA
BRANCH  13  24
ATOM     24  C   UNL A   1      34.036  24.905  24.624  1.00  0.00    -0.012 A 
ATOM     25  C   UNL A   1      33.768  25.495  25.864  1.00  0.00     0.012 A 
ATOM     26  C   UNL A   1      33.903  25.661  23.448  1.00  0.00     0.012 A 
ATOM     27  C   UNL A   1      33.388  26.838  25.927  1.00  0.00     0.040 A 
ATOM     28  C   UNL A   1      33.523  27.001  23.515  1.00  0.00     0.040 A 
ATOM     29  C   UNL A   1      33.275  27.578  24.753  1.00  0.00     0.123 A 
ATOM     30  F   UNL A   1      32.934  28.872  24.821  1.00  0.00    -0.207 F 
ENDBRANCH  13  24
ENDBRANCH   8   9
ENDBRANCH   7   8
ENDBRANCH   6   7
ENDBRANCH   3   6
ENDBRANCH   1   2
BRANCH   1  31
ATOM     31  C   UNL A   1      45.570  22.674  25.306  1.00  0.00     0.042 C 
BRANCH  31  32
ATOM     32  C   UNL A   1      44.970  23.411  26.485  1.00  0.00     0.118 C 
BRANCH  32  33
ATOM     33  N   UNL A   1      43.953  22.613  27.169  1.00  0.00    -0.352 N 
ATOM     34  C   UNL A   1      43.140  23.006  28.218  1.00  0.00     0.251 C 
ATOM     35  H   UNL A   1      43.834  21.691  26.848  1.00  0.00     0.163 HD
ATOM     36  O   UNL A   1      42.602  22.182  28.934  1.00  0.00    -0.269 OA
BRANCH  34  37
ATOM     37  C   UNL A   1      42.958  24.451  28.441  1.00  0.00     0.039 A 
ATOM     38  C   UNL A   1      41.976  25.166  27.751  1.00  0.00     0.014 A 
ATOM     39  C   UNL A   1      43.757  25.065  29.402  1.00  0.00     0.014 A 
ATOM     40  C   UNL A   1      41.750  26.493  28.102  1.00  0.00     0.010 A 
ATOM     41  C   UNL A   1      43.432  26.317  29.853  1.00  0.00     0.010 A 
ATOM     42  C   UNL A   1      42.469  27.052  29.169  1.00  0.00    -0.014 A 
BRANCH  42  43
ATOM     43  C   UNL A   1      42.194  28.405  29.621  1.00  0.00     0.031 A 
ATOM     44  C   UNL A   1      42.987  29.478  28.962  1.00  0.00     0.074 A 
ATOM     45  C   UNL A   1      41.137  28.695  30.406  1.00  0.00     0.049 A 
ATOM     46  N   UNL A   1      43.934  30.188  29.476  1.00  0.00    -0.248 NA
ATOM     47  C   UNL A   1      42.798  29.692  27.520  1.00  0.00     0.031 C 
ATOM     48  C   UNL A   1      40.036  27.815  30.815  1.00  0.00     0.029 A 
ATOM     49  N   UNL A   1      40.757  29.898  30.900  1.00  0.00    -0.354 N 
ATOM     50  C   UNL A   1      44.328  31.086  28.485  1.00  0.00     0.074 A 
ATOM     51  C   UNL A   1      43.740  30.603  27.260  1.00  0.00     0.031 C 
ATOM     52  C   UNL A   1      39.008  28.566  31.263  1.00  0.00     0.029 A 
ATOM     53  C   UNL A   1      39.443  29.949  31.338  1.00  0.00     0.049 A 
ATOM     54  H   UNL A   1      41.364  30.673  30.944  1.00  0.00     0.167 HD
ATOM     55  C   UNL A   1      44.928  32.275  28.788  1.00  0.00     0.034 A 
ATOM     56  C   UNL A   1      38.748  31.065  31.663  1.00  0.00     0.034 A 
ATOM     57  C   UNL A   1      45.273  32.336  30.185  1.00  0.00     0.049 A 
ATOM     58  C   UNL A   1      39.732  32.152  31.907  1.00  0.00     0.074 A 
ATOM     59  C   UNL A   1      46.087  31.589  31.012  1.00  0.00     0.029 A 
ATOM     60  N   UNL A   1      44.420  33.031  31.012  1.00  0.00    -0.354 N 
ATOM     61  N   UNL A   1      40.560  32.175  32.916  1.00  0.00    -0.248 NA
ATOM     62  C   UNL A   1      40.112  32.980  30.771  1.00  0.00     0.031 C 
ATOM     63  C   UNL A   1      45.366  31.491  32.236  1.00  0.00     0.029 A 
ATOM     64  C   UNL A   1      44.199  32.252  32.117  1.00  0.00     0.049 A 
ATOM     65  H   UNL A   1      44.040  33.923  30.842  1.00  0.00     0.167 HD
ATOM     66  C   UNL A   1      41.753  32.631  32.374  1.00  0.00     0.074 A 
ATOM     67  C   UNL A   1      41.390  33.212  31.083  1.00  0.00     0.031 C 
ATOM     68  C   UNL A   1      42.962  32.233  32.873  1.00  0.00     0.034 A 
BRANCH  55  69
ATOM     69  C   UNL A   1      44.906  33.512  27.924  1.00  0.00     0.023 A 
ATOM     70  C   UNL A   1      44.056  34.603  28.173  1.00  0.00     0.031 A 
ATOM     71  C   UNL A   1      45.901  33.721  26.945  1.00  0.00     0.131 A 
ATOM     72  C   UNL A   1      44.182  35.811  27.473  1.00  0.00     0.055 A 
ATOM     73  C   UNL A   1      46.073  34.950  26.294  1.00  0.00     0.041 A 
ATOM     74  F   UNL A   1      46.775  32.753  26.629  1.00  0.00    -0.206 F 
ATOM     75  C   UNL A   1      45.210  36.005  26.556  1.00  0.00     0.022 A 
BRANCH  72  76
ATOM     76  S   UNL A   1      43.013  37.164  27.774  1.00  0.00     0.124 S 
ATOM     77  O   UNL A   1      42.149  36.595  28.801  1.00  0.00    -0.237 OA
ATOM     78  O   UNL A   1      43.907  38.232  28.215  1.00  0.00    -0.237 OA
ATOM     79  O   UNL A   1      42.395  37.376  26.468  1.00  0.00    -0.744 OA
ENDBRANCH  72  76
ENDBRANCH  55  69
BRANCH  56  80
ATOM     80  C   UNL A   1      37.323  31.330  31.357  1.00  0.00     0.023 A 
ATOM     81  C   UNL A   1      36.881  31.378  30.021  1.00  0.00     0.031 A 
ATOM     82  C   UNL A   1      36.449  31.820  32.341  1.00  0.00     0.131 A 
ATOM     83  C   UNL A   1      35.643  31.948  29.696  1.00  0.00     0.055 A 
ATOM     84  C   UNL A   1      35.206  32.379  32.015  1.00  0.00     0.041 A 
ATOM     85  F   UNL A   1      36.812  31.826  33.633  1.00  0.00    -0.206 F 
ATOM     86  C   UNL A   1      34.804  32.458  30.686  1.00  0.00     0.022 A 
BRANCH  83  87
ATOM     87  S   UNL A   1      35.143  32.082  27.958  1.00  0.00     0.124 S 
ATOM     88  O   UNL A   1      33.693  32.230  28.056  1.00  0.00    -0.237 OA
ATOM     89  O   UNL A   1      35.871  33.271  27.531  1.00  0.00    -0.237 OA
ATOM     90  O   UNL A   1      35.595  30.817  27.384  1.00  0.00    -0.744 OA
ENDBRANCH  83  87
ENDBRANCH  56  80
BRANCH  68  91
ATOM     91  C   UNL A   1      43.018  31.484  34.185  1.00  0.00     0.023 A 
ATOM     92  C   UNL A   1      42.698  30.116  34.142  1.00  0.00     0.031 A 
ATOM     93  C   UNL A   1      43.098  32.093  35.451  1.00  0.00     0.131 A 
ATOM     94  C   UNL A   1      42.412  29.419  35.319  1.00  0.00     0.055 A 
ATOM     95  C   UNL A   1      42.878  31.375  36.631  1.00  0.00     0.041 A 
ATOM     96  F   UNL A   1      43.295  33.411  35.587  1.00  0.00    -0.206 F 
ATOM     97  C   UNL A   1      42.512  30.036  36.569  1.00  0.00     0.022 A 
BRANCH  94  98
ATOM     98  S   UNL A   1      41.739  27.739  35.240  1.00  0.00     0.124 S 
ATOM     99  O   UNL A   1      40.810  27.832  34.119  1.00  0.00    -0.237 OA
ATOM    100  O   UNL A   1      42.937  26.937  34.997  1.00  0.00    -0.237 OA
ATOM    101  O   UNL A   1      41.120  27.542  36.548  1.00  0.00    -0.744 OA
ENDBRANCH  94  98
ENDBRANCH  68  91
ENDBRANCH  42  43
ENDBRANCH  34  37
ENDBRANCH  32  33
ENDBRANCH  31  32
ENDBRANCH   1  31
TORSDOF 17
ENDMDL
MODEL 2
REMARK VINA RESULT:     -12.1      4.796     12.918
REMARK SMILES Cc1nn2c(nnc3c(=O)n(CCCC(=O)NCCCNC(=O)c4ccc(-c5c6nc(c(-c7cc(S(=O)(=O)[O-])ccc7F)c7ccc([nH]7)c(-c7cc(S(=O)(=O)[O-])ccc7F)c7nc(c(-c8cc(S(=O)(=O)[O-])ccc8F)c8ccc5[nH]8)C=C7)C=C6)cc4)ccc32)c1-c1ccc(F)cc1
REMARK SMILES IDX 18 1 17 2 15 3 16 4 14 6 13 7 12 8 11 9 1 10 2 11 3 12 90 13
REMARK SMILES IDX 4 14 5 15 89 16 6 17 8 18 88 19 7 20 9 21 87 22 10 23 91 24
REMARK SMILES IDX 92 25 97 26 93 27 96 28 94 29 95 30 19 31 20 32 21 33 22 34
REMARK SMILES IDX 23 36 24 37 25 38 86 39 26 40 85 41 27 42 28 43 29 44 79 45
REMARK SMILES IDX 30 46 84 47 78 48 80 49 31 50 83 51 77 52 76 53 32 55 64 56
REMARK SMILES IDX 44 57 63 58 45 59 48 60 62 61 81 62 46 63 47 64 61 66 82 67
REMARK SMILES IDX 49 68 33 69 34 70 42 71 35 72 41 73 43 74 40 75 36 76 37 77
REMARK SMILES IDX 38 78 39 79 65 80 66 81 74 82 67 83 73 84 75 85 72 86 68 87
REMARK SMILES IDX 69 88 70 89 71 90 50 91 51 92 59 93 52 94 58 95 60 96 57 97
REMARK SMILES IDX 53 98 54 99 55 100 56 101
REMARK H PARENT 17 5 21 35 80 54 48 65
REMARK Flexibility Score: inf
ROOT
ATOM      1  C   UNL A   1      35.095  33.443  33.698  1.00  0.00     0.117 C 
ENDROOT
BRANCH   1   2
ATOM      2  N   UNL A   1      36.235  34.290  33.971  1.00  0.00    -0.356 N 
ATOM      3  C   UNL A   1      37.518  34.272  33.545  1.00  0.00     0.220 C 
ATOM      4  O   UNL A   1      38.211  35.241  33.878  1.00  0.00    -0.275 OA
ATOM      5  H   UNL A   1      36.036  35.029  34.591  1.00  0.00     0.163 HD
BRANCH   3   6
ATOM      6  C   UNL A   1      38.119  33.241  32.605  1.00  0.00     0.102 C 
BRANCH   6   7
ATOM      7  C   UNL A   1      38.814  31.947  33.043  1.00  0.00     0.032 C 
BRANCH   7   8
ATOM      8  C   UNL A   1      39.722  31.782  34.268  1.00  0.00     0.126 C 
BRANCH   8   9
ATOM      9  N   UNL A   1      39.319  32.104  35.655  1.00  0.00    -0.313 N 
ATOM     10  C   UNL A   1      38.013  35.000  42.575  1.00  0.00     0.069 C 
ATOM     11  C   UNL A   1      37.712  34.154  41.394  1.00  0.00     0.070 A 
ATOM     12  N   UNL A   1      38.325  34.391  40.223  1.00  0.00    -0.170 NA
ATOM     13  C   UNL A   1      36.863  33.027  41.331  1.00  0.00     0.051 A 
ATOM     14  N   UNL A   1      37.944  33.359  39.416  1.00  0.00    -0.210 N 
ATOM     15  C   UNL A   1      37.033  32.533  40.059  1.00  0.00     0.186 A 
ATOM     16  C   UNL A   1      38.399  33.003  38.146  1.00  0.00     0.102 A 
ATOM     17  N   UNL A   1      36.525  31.433  39.438  1.00  0.00    -0.129 NA
ATOM     18  C   UNL A   1      37.947  31.828  37.682  1.00  0.00     0.177 A 
ATOM     19  C   UNL A   1      39.314  33.793  37.352  1.00  0.00     0.049 A 
ATOM     20  N   UNL A   1      36.994  31.070  38.333  1.00  0.00    -0.141 NA
ATOM     21  C   UNL A   1      38.537  31.256  36.436  1.00  0.00     0.280 A 
ATOM     22  C   UNL A   1      39.698  33.355  36.144  1.00  0.00     0.091 A 
ATOM     23  O   UNL A   1      38.299  30.083  36.183  1.00  0.00    -0.267 OA
BRANCH  13  24
ATOM     24  C   UNL A   1      36.003  32.367  42.289  1.00  0.00    -0.012 A 
ATOM     25  C   UNL A   1      36.540  31.453  43.202  1.00  0.00     0.012 A 
ATOM     26  C   UNL A   1      34.656  32.749  42.395  1.00  0.00     0.012 A 
ATOM     27  C   UNL A   1      35.740  30.941  44.225  1.00  0.00     0.040 A 
ATOM     28  C   UNL A   1      33.859  32.235  43.418  1.00  0.00     0.040 A 
ATOM     29  C   UNL A   1      34.410  31.339  44.326  1.00  0.00     0.123 A 
ATOM     30  F   UNL A   1      33.652  30.864  45.323  1.00  0.00    -0.207 F 
ENDBRANCH  13  24
ENDBRANCH   8   9
ENDBRANCH   7   8
ENDBRANCH   6   7
ENDBRANCH   3   6
ENDBRANCH   1   2
BRANCH   1  31
ATOM     31  C   UNL A   1      34.647  33.535  32.235  1.00  0.00     0.042 C 
BRANCH  31  32
ATOM     32  C   UNL A   1      34.950  32.282  31.441  1.00  0.00     0.118 C 
BRANCH  32  33
ATOM     33  N   UNL A   1      34.304  32.294  30.130  1.00  0.00    -0.352 N 
ATOM     34  C   UNL A   1      34.903  32.126  28.894  1.00  0.00     0.251 C 
ATOM     35  H   UNL A   1      33.330  32.440  30.125  1.00  0.00     0.163 HD
ATOM     36  O   UNL A   1      34.355  32.506  27.876  1.00  0.00    -0.269 OA
BRANCH  34  37
ATOM     37  C   UNL A   1      36.228  31.482  28.856  1.00  0.00     0.039 A 
ATOM     38  C   UNL A   1      37.394  32.227  29.049  1.00  0.00     0.014 A 
ATOM     39  C   UNL A   1      36.274  30.101  28.683  1.00  0.00     0.014 A 
ATOM     40  C   UNL A   1      38.606  31.551  29.147  1.00  0.00     0.010 A 
ATOM     41  C   UNL A   1      37.440  29.426  28.934  1.00  0.00     0.010 A 
ATOM     42  C   UNL A   1      38.614  30.150  29.110  1.00  0.00    -0.014 A 
BRANCH  42  43
ATOM     43  C   UNL A   1      39.850  29.410  29.302  1.00  0.00     0.031 A 
ATOM     44  C   UNL A   1      40.158  29.025  30.705  1.00  0.00     0.074 A 
ATOM     45  C   UNL A   1      40.548  28.905  28.265  1.00  0.00     0.049 A 
ATOM     46  N   UNL A   1      41.080  29.504  31.471  1.00  0.00    -0.248 NA
ATOM     47  C   UNL A   1      39.245  28.094  31.384  1.00  0.00     0.031 C 
ATOM     48  C   UNL A   1      40.170  28.855  26.848  1.00  0.00     0.029 A 
ATOM     49  N   UNL A   1      41.705  28.200  28.291  1.00  0.00    -0.354 N 
ATOM     50  C   UNL A   1      41.001  28.791  32.667  1.00  0.00     0.074 A 
ATOM     51  C   UNL A   1      39.742  28.090  32.624  1.00  0.00     0.031 C 
ATOM     52  C   UNL A   1      40.941  27.947  26.213  1.00  0.00     0.029 A 
ATOM     53  C   UNL A   1      41.971  27.492  27.129  1.00  0.00     0.049 A 
ATOM     54  H   UNL A   1      42.307  28.190  29.070  1.00  0.00     0.167 HD
ATOM     55  C   UNL A   1      42.075  28.665  33.502  1.00  0.00     0.034 A 
ATOM     56  C   UNL A   1      42.925  26.544  26.966  1.00  0.00     0.034 A 
ATOM     57  C   UNL A   1      43.154  29.523  33.086  1.00  0.00     0.049 A 
ATOM     58  C   UNL A   1      43.911  26.705  28.067  1.00  0.00     0.074 A 
ATOM     59  C   UNL A   1      43.298  30.887  32.930  1.00  0.00     0.029 A 
ATOM     60  N   UNL A   1      44.174  28.945  32.364  1.00  0.00    -0.354 N 
ATOM     61  N   UNL A   1      44.714  27.728  28.183  1.00  0.00    -0.248 NA
ATOM     62  C   UNL A   1      43.677  25.955  29.293  1.00  0.00     0.031 C 
ATOM     63  C   UNL A   1      44.072  31.035  31.744  1.00  0.00     0.029 A 
ATOM     64  C   UNL A   1      44.428  29.761  31.293  1.00  0.00     0.049 A 
ATOM     65  H   UNL A   1      44.635  28.103  32.578  1.00  0.00     0.167 HD
ATOM     66  C   UNL A   1      44.712  28.018  29.540  1.00  0.00     0.074 A 
ATOM     67  C   UNL A   1      44.147  26.833  30.183  1.00  0.00     0.031 C 
ATOM     68  C   UNL A   1      44.882  29.294  29.997  1.00  0.00     0.034 A 
BRANCH  55  69
ATOM     69  C   UNL A   1      42.293  27.540  34.484  1.00  0.00     0.023 A 
ATOM     70  C   UNL A   1      43.077  26.411  34.191  1.00  0.00     0.031 A 
ATOM     71  C   UNL A   1      41.890  27.675  35.830  1.00  0.00     0.131 A 
ATOM     72  C   UNL A   1      43.417  25.473  35.176  1.00  0.00     0.055 A 
ATOM     73  C   UNL A   1      42.287  26.776  36.830  1.00  0.00     0.041 A 
ATOM     74  F   UNL A   1      41.145  28.717  36.228  1.00  0.00    -0.206 F 
ATOM     75  C   UNL A   1      43.054  25.665  36.505  1.00  0.00     0.022 A 
BRANCH  72  76
ATOM     76  S   UNL A   1      44.366  23.992  34.735  1.00  0.00     0.124 S 
ATOM     77  O   UNL A   1      44.170  23.925  33.292  1.00  0.00    -0.237 OA
ATOM     78  O   UNL A   1      45.708  24.361  35.178  1.00  0.00    -0.237 OA
ATOM     79  O   UNL A   1      43.727  22.935  35.513  1.00  0.00    -0.744 OA
ENDBRANCH  72  76
ENDBRANCH  55  69
BRANCH  56  80
ATOM     80  C   UNL A   1      42.789  25.288  26.193  1.00  0.00     0.023 A 
ATOM     81  C   UNL A   1      41.864  24.305  26.592  1.00  0.00     0.031 A 
ATOM     82  C   UNL A   1      43.751  24.915  25.241  1.00  0.00     0.131 A 
ATOM     83  C   UNL A   1      41.948  22.997  26.096  1.00  0.00     0.055 A 
ATOM     84  C   UNL A   1      43.828  23.610  24.737  1.00  0.00     0.041 A 
ATOM     85  F   UNL A   1      44.680  25.793  24.831  1.00  0.00    -0.206 F 
ATOM     86  C   UNL A   1      42.932  22.640  25.175  1.00  0.00     0.022 A 
BRANCH  83  87
ATOM     87  S   UNL A   1      40.801  21.729  26.700  1.00  0.00     0.124 S 
ATOM     88  O   UNL A   1      39.531  22.141  26.106  1.00  0.00    -0.237 OA
ATOM     89  O   UNL A   1      41.388  20.513  26.151  1.00  0.00    -0.237 OA
ATOM     90  O   UNL A   1      40.877  21.876  28.151  1.00  0.00    -0.744 OA
ENDBRANCH  83  87
ENDBRANCH  56  80
BRANCH  68  91
ATOM     91  C   UNL A   1      45.326  30.378  29.041  1.00  0.00     0.023 A 
ATOM     92  C   UNL A   1      46.682  30.746  29.094  1.00  0.00     0.031 A 
ATOM     93  C   UNL A   1      44.454  31.212  28.316  1.00  0.00     0.131 A 
ATOM     94  C   UNL A   1      47.117  31.932  28.495  1.00  0.00     0.055 A 
ATOM     95  C   UNL A   1      44.907  32.361  27.660  1.00  0.00     0.041 A 
ATOM     96  F   UNL A   1      43.133  30.999  28.296  1.00  0.00    -0.206 F 
ATOM     97  C   UNL A   1      46.241  32.738  27.765  1.00  0.00     0.022 A 
BRANCH  94  98
ATOM     98  S   UNL A   1      48.798  32.537  28.794  1.00  0.00     0.124 S 
ATOM     99  O   UNL A   1      49.460  31.354  29.334  1.00  0.00    -0.237 OA
ATOM    100  O   UNL A   1      49.225  32.939  27.455  1.00  0.00    -0.237 OA
ATOM    101  O   UNL A   1      48.617  33.635  29.740  1.00  0.00    -0.744 OA
ENDBRANCH  94  98
ENDBRANCH  68  91
ENDBRANCH  42  43
ENDBRANCH  34  37
ENDBRANCH  32  33
ENDBRANCH  31  32
ENDBRANCH   1  31
TORSDOF 17
ENDMDL
MODEL 3
REMARK VINA RESULT:     -11.8      4.435     12.122
REMARK SMILES Cc1nn2c(nnc3c(=O)n(CCCC(=O)NCCCNC(=O)c4ccc(-c5c6nc(c(-c7cc(S(=O)(=O)[O-])ccc7F)c7ccc([nH]7)c(-c7cc(S(=O)(=O)[O-])ccc7F)c7nc(c(-c8cc(S(=O)(=O)[O-])ccc8F)c8ccc5[nH]8)C=C7)C=C6)cc4)ccc32)c1-c1ccc(F)cc1
REMARK SMILES IDX 18 1 17 2 15 3 16 4 14 6 13 7 12 8 11 9 1 10 2 11 3 12 90 13
REMARK SMILES IDX 4 14 5 15 89 16 6 17 8 18 88 19 7 20 9 21 87 22 10 23 91 24
REMARK SMILES IDX 92 25 97 26 93 27 96 28 94 29 95 30 19 31 20 32 21 33 22 34
REMARK SMILES IDX 23 36 24 37 25 38 86 39 26 40 85 41 27 42 28 43 29 44 79 45
REMARK SMILES IDX 30 46 84 47 78 48 80 49 31 50 83 51 77 52 76 53 32 55 64 56
REMARK SMILES IDX 44 57 63 58 45 59 48 60 62 61 81 62 46 63 47 64 61 66 82 67
REMARK SMILES IDX 49 68 33 69 34 70 42 71 35 72 41 73 43 74 40 75 36 76 37 77
REMARK SMILES IDX 38 78 39 79 65 80 66 81 74 82 67 83 73 84 75 85 72 86 68 87
REMARK SMILES IDX 69 88 70 89 71 90 50 91 51 92 59 93 52 94 58 95 60 96 57 97
REMARK SMILES IDX 53 98 54 99 55 100 56 101
REMARK H PARENT 17 5 21 35 80 54 48 65
REMARK Flexibility Score: inf
ROOT
ATOM      1  C   UNL A   1      36.575  31.254  32.477  1.00  0.00     0.117 C 
ENDROOT
BRANCH   1   2
ATOM      2  N   UNL A   1      36.985  31.143  33.859  1.00  0.00    -0.356 N 
ATOM      3  C   UNL A   1      37.626  31.986  34.701  1.00  0.00     0.220 C 
ATOM      4  O   UNL A   1      37.704  31.617  35.879  1.00  0.00    -0.275 OA
ATOM      5  H   UNL A   1      36.751  30.279  34.270  1.00  0.00     0.163 HD
BRANCH   3   6
ATOM      6  C   UNL A   1      38.128  33.374  34.342  1.00  0.00     0.102 C 
BRANCH   6   7
ATOM      7  C   UNL A   1      39.466  33.971  34.792  1.00  0.00     0.032 C 
BRANCH   7   8
ATOM      8  C   UNL A   1      40.852  33.571  34.271  1.00  0.00     0.126 C 
BRANCH   8   9
ATOM      9  N   UNL A   1      41.380  33.936  32.938  1.00  0.00    -0.313 N 
ATOM     10  C   UNL A   1      43.010  34.959  25.571  1.00  0.00     0.069 C 
ATOM     11  C   UNL A   1      42.986  35.333  27.006  1.00  0.00     0.070 A 
ATOM     12  N   UNL A   1      42.145  34.713  27.850  1.00  0.00    -0.170 NA
ATOM     13  C   UNL A   1      43.811  36.268  27.671  1.00  0.00     0.051 A 
ATOM     14  N   UNL A   1      42.486  35.180  29.086  1.00  0.00    -0.210 N 
ATOM     15  C   UNL A   1      43.477  36.146  28.999  1.00  0.00     0.186 A 
ATOM     16  C   UNL A   1      42.056  34.764  30.347  1.00  0.00     0.102 A 
ATOM     17  N   UNL A   1      43.974  36.743  30.118  1.00  0.00    -0.129 NA
ATOM     18  C   UNL A   1      42.710  35.309  31.385  1.00  0.00     0.177 A 
ATOM     19  C   UNL A   1      41.006  33.797  30.577  1.00  0.00     0.049 A 
ATOM     20  N   UNL A   1      43.649  36.312  31.249  1.00  0.00    -0.141 NA
ATOM     21  C   UNL A   1      42.477  34.775  32.759  1.00  0.00     0.280 A 
ATOM     22  C   UNL A   1      40.676  33.458  31.832  1.00  0.00     0.091 A 
ATOM     23  O   UNL A   1      43.264  35.105  33.635  1.00  0.00    -0.267 OA
BRANCH  13  24
ATOM     24  C   UNL A   1      44.856  37.168  27.234  1.00  0.00    -0.012 A 
ATOM     25  C   UNL A   1      46.122  36.669  26.907  1.00  0.00     0.012 A 
ATOM     26  C   UNL A   1      44.559  38.521  27.002  1.00  0.00     0.012 A 
ATOM     27  C   UNL A   1      47.076  37.514  26.336  1.00  0.00     0.040 A 
ATOM     28  C   UNL A   1      45.514  39.362  26.432  1.00  0.00     0.040 A 
ATOM     29  C   UNL A   1      46.761  38.850  26.100  1.00  0.00     0.123 A 
ATOM     30  F   UNL A   1      47.671  39.651  25.529  1.00  0.00    -0.207 F 
ENDBRANCH  13  24
ENDBRANCH   8   9
ENDBRANCH   7   8
ENDBRANCH   6   7
ENDBRANCH   3   6
ENDBRANCH   1   2
BRANCH   1  31
ATOM     31  C   UNL A   1      35.233  31.981  32.332  1.00  0.00     0.042 C 
BRANCH  31  32
ATOM     32  C   UNL A   1      35.226  32.995  31.208  1.00  0.00     0.118 C 
BRANCH  32  33
ATOM     33  N   UNL A   1      34.378  32.570  30.094  1.00  0.00    -0.352 N 
ATOM     34  C   UNL A   1      34.780  31.980  28.908  1.00  0.00     0.251 C 
ATOM     35  H   UNL A   1      33.412  32.721  30.200  1.00  0.00     0.163 HD
ATOM     36  O   UNL A   1      34.062  31.999  27.926  1.00  0.00    -0.269 OA
BRANCH  34  37
ATOM     37  C   UNL A   1      36.108  31.341  28.875  1.00  0.00     0.039 A 
ATOM     38  C   UNL A   1      37.275  32.106  28.947  1.00  0.00     0.014 A 
ATOM     39  C   UNL A   1      36.157  29.950  28.830  1.00  0.00     0.014 A 
ATOM     40  C   UNL A   1      38.495  31.447  29.057  1.00  0.00     0.010 A 
ATOM     41  C   UNL A   1      37.338  29.307  29.094  1.00  0.00     0.010 A 
ATOM     42  C   UNL A   1      38.512  30.048  29.151  1.00  0.00    -0.014 A 
BRANCH  42  43
ATOM     43  C   UNL A   1      39.761  29.334  29.359  1.00  0.00     0.031 A 
ATOM     44  C   UNL A   1      40.050  28.939  30.763  1.00  0.00     0.074 A 
ATOM     45  C   UNL A   1      40.492  28.859  28.331  1.00  0.00     0.049 A 
ATOM     46  N   UNL A   1      40.945  29.429  31.553  1.00  0.00    -0.248 NA
ATOM     47  C   UNL A   1      39.145  27.979  31.413  1.00  0.00     0.031 C 
ATOM     48  C   UNL A   1      40.143  28.818  26.906  1.00  0.00     0.029 A 
ATOM     49  N   UNL A   1      41.664  28.180  28.371  1.00  0.00    -0.354 N 
ATOM     50  C   UNL A   1      40.859  28.700  32.739  1.00  0.00     0.074 A 
ATOM     51  C   UNL A   1      39.618  27.970  32.662  1.00  0.00     0.031 C 
ATOM     52  C   UNL A   1      40.948  27.936  26.275  1.00  0.00     0.029 A 
ATOM     53  C   UNL A   1      41.969  27.494  27.207  1.00  0.00     0.049 A 
ATOM     54  H   UNL A   1      42.250  28.174  29.162  1.00  0.00     0.167 HD
ATOM     55  C   UNL A   1      41.919  28.588  33.594  1.00  0.00     0.034 A 
ATOM     56  C   UNL A   1      42.948  26.570  27.052  1.00  0.00     0.034 A 
ATOM     57  C   UNL A   1      42.985  29.476  33.211  1.00  0.00     0.049 A 
ATOM     58  C   UNL A   1      43.908  26.740  28.174  1.00  0.00     0.074 A 
ATOM     59  C   UNL A   1      43.101  30.844  33.074  1.00  0.00     0.029 A 
ATOM     60  N   UNL A   1      44.033  28.931  32.503  1.00  0.00    -0.354 N 
ATOM     61  N   UNL A   1      44.685  27.780  28.319  1.00  0.00    -0.248 NA
ATOM     62  C   UNL A   1      43.668  25.969  29.386  1.00  0.00     0.031 C 
ATOM     63  C   UNL A   1      43.894  31.025  31.906  1.00  0.00     0.029 A 
ATOM     64  C   UNL A   1      44.289  29.766  31.448  1.00  0.00     0.049 A 
ATOM     65  H   UNL A   1      44.509  28.096  32.716  1.00  0.00     0.167 HD
ATOM     66  C   UNL A   1      44.649  28.052  29.679  1.00  0.00     0.074 A 
ATOM     67  C   UNL A   1      44.099  26.846  30.296  1.00  0.00     0.031 C 
ATOM     68  C   UNL A   1      44.780  29.326  30.156  1.00  0.00     0.034 A 
BRANCH  55  69
ATOM     69  C   UNL A   1      42.143  27.455  34.566  1.00  0.00     0.023 A 
ATOM     70  C   UNL A   1      42.881  26.305  34.242  1.00  0.00     0.031 A 
ATOM     71  C   UNL A   1      41.799  27.601  35.928  1.00  0.00     0.131 A 
ATOM     72  C   UNL A   1      43.232  25.356  35.212  1.00  0.00     0.055 A 
ATOM     73  C   UNL A   1      42.209  26.689  36.911  1.00  0.00     0.041 A 
ATOM     74  F   UNL A   1      41.102  28.664  36.356  1.00  0.00    -0.206 F 
ATOM     75  C   UNL A   1      42.930  25.557  36.555  1.00  0.00     0.022 A 
BRANCH  72  76
ATOM     76  S   UNL A   1      44.119  23.848  34.733  1.00  0.00     0.124 S 
ATOM     77  O   UNL A   1      45.181  24.378  33.887  1.00  0.00    -0.237 OA
ATOM     78  O   UNL A   1      44.538  23.330  36.033  1.00  0.00    -0.237 OA
ATOM     79  O   UNL A   1      43.099  23.056  34.052  1.00  0.00    -0.744 OA
ENDBRANCH  72  76
ENDBRANCH  55  69
BRANCH  56  80
ATOM     80  C   UNL A   1      42.857  25.321  26.260  1.00  0.00     0.023 A 
ATOM     81  C   UNL A   1      42.027  24.268  26.689  1.00  0.00     0.031 A 
ATOM     82  C   UNL A   1      43.788  25.035  25.249  1.00  0.00     0.131 A 
ATOM     83  C   UNL A   1      42.175  22.979  26.161  1.00  0.00     0.055 A 
ATOM     84  C   UNL A   1      43.928  23.747  24.714  1.00  0.00     0.041 A 
ATOM     85  F   UNL A   1      44.628  25.983  24.807  1.00  0.00    -0.206 F 
ATOM     86  C   UNL A   1      43.127  22.708  25.180  1.00  0.00     0.022 A 
BRANCH  83  87
ATOM     87  S   UNL A   1      41.155  21.622  26.800  1.00  0.00     0.124 S 
ATOM     88  O   UNL A   1      39.976  21.679  25.939  1.00  0.00    -0.237 OA
ATOM     89  O   UNL A   1      42.029  20.474  26.596  1.00  0.00    -0.237 OA
ATOM     90  O   UNL A   1      40.921  22.008  28.189  1.00  0.00    -0.744 OA
ENDBRANCH  83  87
ENDBRANCH  56  80
BRANCH  68  91
ATOM     91  C   UNL A   1      45.218  30.432  29.222  1.00  0.00     0.023 A 
ATOM     92  C   UNL A   1      46.563  30.832  29.308  1.00  0.00     0.031 A 
ATOM     93  C   UNL A   1      44.341  31.253  28.488  1.00  0.00     0.131 A 
ATOM     94  C   UNL A   1      46.982  32.035  28.733  1.00  0.00     0.055 A 
ATOM     95  C   UNL A   1      44.779  32.421  27.855  1.00  0.00     0.041 A 
ATOM     96  F   UNL A   1      43.026  31.009  28.437  1.00  0.00    -0.206 F 
ATOM     97  C   UNL A   1      46.101  32.829  27.994  1.00  0.00     0.022 A 
BRANCH  94  98
ATOM     98  S   UNL A   1      48.640  32.677  29.075  1.00  0.00     0.124 S 
ATOM     99  O   UNL A   1      48.939  33.422  27.856  1.00  0.00    -0.237 OA
ATOM    100  O   UNL A   1      48.417  33.490  30.269  1.00  0.00    -0.237 OA
ATOM    101  O   UNL A   1      49.448  31.479  29.286  1.00  0.00    -0.744 OA
ENDBRANCH  94  98
ENDBRANCH  68  91
ENDBRANCH  42  43
ENDBRANCH  34  37
ENDBRANCH  32  33
ENDBRANCH  31  32
ENDBRANCH   1  31
TORSDOF 17
ENDMDL
