MODEL 1
REMARK VINA RESULT:     -12.2      0.000      0.000
REMARK SMILES O=C(NCCCNC(=O)c1cc2ncoc2cn1)c1ccc(-c2c3nc(c(-c4cc(S(=O)(=O)[O-])ccc4F)c4ccc([nH]4)c(-c4cc(S(=O)(=O)[O-])ccc4F)c4nc(c(-c5cc(S(=O)(=O)[O-])ccc5F)c5ccc2[nH]5)C=C4)C=C3)cc1
REMARK SMILES IDX 1 1 2 2 3 3 19 5 20 6 81 7 21 8 80 9 22 10 23 11 24 12 74 13
REMARK SMILES IDX 25 14 79 15 73 16 75 17 26 18 78 19 72 20 71 21 27 23 59 24
REMARK SMILES IDX 39 25 58 26 40 27 43 28 57 29 76 30 41 31 42 32 56 34 77 35
REMARK SMILES IDX 44 36 28 37 29 38 37 39 30 40 36 41 38 42 35 43 31 44 32 45
REMARK SMILES IDX 33 46 34 47 60 48 61 49 69 50 62 51 68 52 70 53 67 54 63 55
REMARK SMILES IDX 64 56 65 57 66 58 45 59 46 60 54 61 47 62 53 63 55 64 52 65
REMARK SMILES IDX 48 66 49 67 50 68 51 69 4 70 5 71 6 72 7 73 8 74 9 76 10 77
REMARK SMILES IDX 11 78 18 79 12 80 17 81 13 82 16 83 14 84 15 85
REMARK H PARENT 3 4 75 22 43 33 7 75
REMARK Flexibility Score: inf
ROOT
ATOM      1  O   UNL A   1      32.517  35.706  28.805  1.00  0.00    -0.269 OA
ATOM      2  C   UNL A   1      32.934  34.616  28.467  1.00  0.00     0.251 C 
ATOM      3  N   UNL A   1      32.231  33.818  27.562  1.00  0.00    -0.352 N 
ATOM      4  H   UNL A   1      31.527  34.275  27.047  1.00  0.00     0.163 HD
ENDROOT
BRANCH   2   5
ATOM      5  C   UNL A   1      34.214  34.091  28.986  1.00  0.00     0.039 A 
ATOM      6  C   UNL A   1      34.406  33.524  30.246  1.00  0.00     0.014 A 
ATOM      7  C   UNL A   1      35.252  34.104  28.080  1.00  0.00     0.014 A 
ATOM      8  C   UNL A   1      35.660  32.970  30.515  1.00  0.00     0.010 A 
ATOM      9  C   UNL A   1      36.178  33.124  28.172  1.00  0.00     0.010 A 
ATOM     10  C   UNL A   1      36.555  32.803  29.447  1.00  0.00    -0.014 A 
BRANCH  10  11
ATOM     11  C   UNL A   1      37.921  32.321  29.561  1.00  0.00     0.031 A 
ATOM     12  C   UNL A   1      38.095  30.923  29.134  1.00  0.00     0.074 A 
ATOM     13  C   UNL A   1      38.971  33.145  29.804  1.00  0.00     0.049 A 
ATOM     14  N   UNL A   1      38.260  29.892  29.889  1.00  0.00    -0.248 NA
ATOM     15  C   UNL A   1      37.853  30.605  27.720  1.00  0.00     0.031 C 
ATOM     16  C   UNL A   1      39.020  34.618  29.873  1.00  0.00     0.029 A 
ATOM     17  N   UNL A   1      40.277  32.816  29.964  1.00  0.00    -0.354 N 
ATOM     18  C   UNL A   1      38.365  28.807  29.027  1.00  0.00     0.074 A 
ATOM     19  C   UNL A   1      37.892  29.272  27.748  1.00  0.00     0.031 C 
ATOM     20  C   UNL A   1      40.305  35.042  29.826  1.00  0.00     0.029 A 
ATOM     21  C   UNL A   1      41.166  33.883  29.929  1.00  0.00     0.049 A 
ATOM     22  H   UNL A   1      40.574  31.886  30.095  1.00  0.00     0.167 HD
ATOM     23  C   UNL A   1      39.040  27.681  29.392  1.00  0.00     0.034 A 
ATOM     24  C   UNL A   1      42.521  33.806  29.967  1.00  0.00     0.034 A 
ATOM     25  C   UNL A   1      39.361  27.716  30.799  1.00  0.00     0.049 A 
ATOM     26  C   UNL A   1      42.867  32.458  30.484  1.00  0.00     0.074 A 
ATOM     27  C   UNL A   1      38.613  27.703  31.957  1.00  0.00     0.029 A 
ATOM     28  N   UNL A   1      40.597  28.211  31.147  1.00  0.00    -0.354 N 
ATOM     29  N   UNL A   1      42.627  32.066  31.706  1.00  0.00    -0.248 NA
ATOM     30  C   UNL A   1      43.026  31.394  29.506  1.00  0.00     0.031 C 
ATOM     31  C   UNL A   1      39.274  28.611  32.833  1.00  0.00     0.029 A 
ATOM     32  C   UNL A   1      40.435  29.071  32.204  1.00  0.00     0.049 A 
ATOM     33  H   UNL A   1      41.452  27.986  30.712  1.00  0.00     0.167 HD
ATOM     34  C   UNL A   1      42.162  30.765  31.572  1.00  0.00     0.074 A 
ATOM     35  C   UNL A   1      42.512  30.378  30.204  1.00  0.00     0.031 C 
ATOM     36  C   UNL A   1      41.280  30.228  32.465  1.00  0.00     0.034 A 
BRANCH  23  37
ATOM     37  C   UNL A   1      39.690  26.717  28.433  1.00  0.00     0.023 A 
ATOM     38  C   UNL A   1      40.750  27.072  27.577  1.00  0.00     0.031 A 
ATOM     39  C   UNL A   1      39.387  25.343  28.495  1.00  0.00     0.131 A 
ATOM     40  C   UNL A   1      41.445  26.115  26.827  1.00  0.00     0.055 A 
ATOM     41  C   UNL A   1      40.124  24.378  27.797  1.00  0.00     0.041 A 
ATOM     42  F   UNL A   1      38.394  24.886  29.275  1.00  0.00    -0.206 F 
ATOM     43  C   UNL A   1      41.162  24.762  26.957  1.00  0.00     0.022 A 
BRANCH  40  44
ATOM     44  S   UNL A   1      42.747  26.627  25.671  1.00  0.00     0.124 S 
ATOM     45  O   UNL A   1      43.772  27.135  26.576  1.00  0.00    -0.237 OA
ATOM     46  O   UNL A   1      43.061  25.366  25.003  1.00  0.00    -0.237 OA
ATOM     47  O   UNL A   1      42.088  27.623  24.831  1.00  0.00    -0.744 OA
ENDBRANCH  40  44
ENDBRANCH  23  37
BRANCH  24  48
ATOM     48  C   UNL A   1      43.462  34.575  29.117  1.00  0.00     0.023 A 
ATOM     49  C   UNL A   1      43.590  34.251  27.753  1.00  0.00     0.031 A 
ATOM     50  C   UNL A   1      44.469  35.375  29.686  1.00  0.00     0.131 A 
ATOM     51  C   UNL A   1      44.719  34.655  27.027  1.00  0.00     0.055 A 
ATOM     52  C   UNL A   1      45.582  35.802  28.951  1.00  0.00     0.041 A 
ATOM     53  F   UNL A   1      44.428  35.693  30.989  1.00  0.00    -0.206 F 
ATOM     54  C   UNL A   1      45.721  35.426  27.619  1.00  0.00     0.022 A 
BRANCH  51  55
ATOM     55  S   UNL A   1      44.969  34.082  25.323  1.00  0.00     0.124 S 
ATOM     56  O   UNL A   1      43.784  34.601  24.645  1.00  0.00    -0.237 OA
ATOM     57  O   UNL A   1      46.228  34.734  24.975  1.00  0.00    -0.237 OA
ATOM     58  O   UNL A   1      45.022  32.629  25.455  1.00  0.00    -0.744 OA
ENDBRANCH  51  55
ENDBRANCH  24  48
BRANCH  36  59
ATOM     59  C   UNL A   1      40.971  30.992  33.741  1.00  0.00     0.023 A 
ATOM     60  C   UNL A   1      39.854  31.844  33.716  1.00  0.00     0.031 A 
ATOM     61  C   UNL A   1      41.838  31.102  34.846  1.00  0.00     0.131 A 
ATOM     62  C   UNL A   1      39.666  32.803  34.718  1.00  0.00     0.055 A 
ATOM     63  C   UNL A   1      41.608  32.013  35.885  1.00  0.00     0.041 A 
ATOM     64  F   UNL A   1      42.977  30.404  34.917  1.00  0.00    -0.206 F 
ATOM     65  C   UNL A   1      40.528  32.885  35.813  1.00  0.00     0.022 A 
BRANCH  62  66
ATOM     66  S   UNL A   1      38.396  34.080  34.524  1.00  0.00     0.124 S 
ATOM     67  O   UNL A   1      37.349  33.611  35.427  1.00  0.00    -0.237 OA
ATOM     68  O   UNL A   1      39.101  35.287  34.953  1.00  0.00    -0.237 OA
ATOM     69  O   UNL A   1      38.062  34.034  33.104  1.00  0.00    -0.744 OA
ENDBRANCH  62  66
ENDBRANCH  36  59
ENDBRANCH  10  11
ENDBRANCH   2   5
BRANCH   3  70
ATOM     70  C   UNL A   1      32.402  32.378  27.275  1.00  0.00     0.118 C 
BRANCH  70  71
ATOM     71  C   UNL A   1      31.346  31.794  26.363  1.00  0.00     0.042 C 
BRANCH  71  72
ATOM     72  C   UNL A   1      31.702  30.373  25.923  1.00  0.00     0.118 C 
BRANCH  72  73
ATOM     73  N   UNL A   1      31.048  29.956  24.687  1.00  0.00    -0.351 N 
ATOM     74  C   UNL A   1      30.972  28.705  24.113  1.00  0.00     0.269 C 
ATOM     75  H   UNL A   1      30.594  30.675  24.189  1.00  0.00     0.163 HD
ATOM     76  O   UNL A   1      30.406  28.554  23.034  1.00  0.00    -0.268 OA
BRANCH  74  77
ATOM     77  C   UNL A   1      31.601  27.535  24.786  1.00  0.00     0.130 A 
ATOM     78  C   UNL A   1      30.795  26.707  25.562  1.00  0.00     0.066 A 
ATOM     79  N   UNL A   1      32.934  27.342  24.549  1.00  0.00    -0.247 NA
ATOM     80  C   UNL A   1      31.427  25.559  26.036  1.00  0.00     0.113 A 
ATOM     81  C   UNL A   1      33.533  26.225  25.018  1.00  0.00     0.161 A 
ATOM     82  N   UNL A   1      30.952  24.500  26.773  1.00  0.00    -0.216 NA
ATOM     83  C   UNL A   1      32.764  25.343  25.742  1.00  0.00     0.172 A 
ATOM     84  C   UNL A   1      31.993  23.703  26.875  1.00  0.00     0.309 A 
ATOM     85  O   UNL A   1      33.135  24.147  26.276  1.00  0.00    -0.442 OA
ENDBRANCH  74  77
ENDBRANCH  72  73
ENDBRANCH  71  72
ENDBRANCH  70  71
ENDBRANCH   3  70
TORSDOF 13
ENDMDL
MODEL 2
REMARK VINA RESULT:     -12.2      4.706     10.089
REMARK SMILES O=C(NCCCNC(=O)c1cc2ncoc2cn1)c1ccc(-c2c3nc(c(-c4cc(S(=O)(=O)[O-])ccc4F)c4ccc([nH]4)c(-c4cc(S(=O)(=O)[O-])ccc4F)c4nc(c(-c5cc(S(=O)(=O)[O-])ccc5F)c5ccc2[nH]5)C=C4)C=C3)cc1
REMARK SMILES IDX 1 1 2 2 3 3 19 5 20 6 81 7 21 8 80 9 22 10 23 11 24 12 74 13
REMARK SMILES IDX 25 14 79 15 73 16 75 17 26 18 78 19 72 20 71 21 27 23 59 24
REMARK SMILES IDX 39 25 58 26 40 27 43 28 57 29 76 30 41 31 42 32 56 34 77 35
REMARK SMILES IDX 44 36 28 37 29 38 37 39 30 40 36 41 38 42 35 43 31 44 32 45
REMARK SMILES IDX 33 46 34 47 60 48 61 49 69 50 62 51 68 52 70 53 67 54 63 55
REMARK SMILES IDX 64 56 65 57 66 58 45 59 46 60 54 61 47 62 53 63 55 64 52 65
REMARK SMILES IDX 48 66 49 67 50 68 51 69 4 70 5 71 6 72 7 73 8 74 9 76 10 77
REMARK SMILES IDX 11 78 18 79 12 80 17 81 13 82 16 83 14 84 15 85
REMARK H PARENT 3 4 75 22 43 33 7 75
REMARK Flexibility Score: inf
ROOT
ATOM      1  O   UNL A   1      42.107  18.382  25.743  1.00  0.00    -0.269 OA
ATOM      2  C   UNL A   1      41.318  19.283  25.950  1.00  0.00     0.251 C 
ATOM      3  N   UNL A   1      39.949  19.115  25.728  1.00  0.00    -0.352 N 
ATOM      4  H   UNL A   1      39.643  18.184  25.630  1.00  0.00     0.163 HD
ENDROOT
BRANCH   2   5
ATOM      5  C   UNL A   1      41.769  20.593  26.462  1.00  0.00     0.039 A 
ATOM      6  C   UNL A   1      42.427  21.571  25.717  1.00  0.00     0.014 A 
ATOM      7  C   UNL A   1      41.405  20.859  27.765  1.00  0.00     0.014 A 
ATOM      8  C   UNL A   1      42.667  22.799  26.341  1.00  0.00     0.010 A 
ATOM      9  C   UNL A   1      41.162  22.145  28.099  1.00  0.00     0.010 A 
ATOM     10  C   UNL A   1      42.033  23.056  27.566  1.00  0.00    -0.014 A 
BRANCH  10  11
ATOM     11  C   UNL A   1      42.233  24.239  28.385  1.00  0.00     0.031 A 
ATOM     12  C   UNL A   1      41.153  25.233  28.266  1.00  0.00     0.074 A 
ATOM     13  C   UNL A   1      43.190  24.314  29.344  1.00  0.00     0.049 A 
ATOM     14  N   UNL A   1      41.190  26.351  27.628  1.00  0.00    -0.248 NA
ATOM     15  C   UNL A   1      39.815  24.847  28.736  1.00  0.00     0.031 C 
ATOM     16  C   UNL A   1      44.101  23.271  29.854  1.00  0.00     0.029 A 
ATOM     17  N   UNL A   1      43.495  25.365  30.145  1.00  0.00    -0.354 N 
ATOM     18  C   UNL A   1      39.936  26.924  27.799  1.00  0.00     0.074 A 
ATOM     19  C   UNL A   1      39.084  25.870  28.290  1.00  0.00     0.031 C 
ATOM     20  C   UNL A   1      44.673  23.680  31.010  1.00  0.00     0.029 A 
ATOM     21  C   UNL A   1      44.333  25.072  31.214  1.00  0.00     0.049 A 
ATOM     22  H   UNL A   1      43.148  26.271  29.980  1.00  0.00     0.167 HD
ATOM     23  C   UNL A   1      39.763  28.274  27.730  1.00  0.00     0.034 A 
ATOM     24  C   UNL A   1      44.703  25.922  32.205  1.00  0.00     0.034 A 
ATOM     25  C   UNL A   1      40.956  28.912  27.227  1.00  0.00     0.049 A 
ATOM     26  C   UNL A   1      44.427  27.299  31.725  1.00  0.00     0.074 A 
ATOM     27  C   UNL A   1      41.626  28.886  26.022  1.00  0.00     0.029 A 
ATOM     28  N   UNL A   1      41.858  29.375  28.158  1.00  0.00    -0.354 N 
ATOM     29  N   UNL A   1      45.074  27.869  30.745  1.00  0.00    -0.248 NA
ATOM     30  C   UNL A   1      43.110  27.849  32.008  1.00  0.00     0.031 C 
ATOM     31  C   UNL A   1      43.008  28.890  26.370  1.00  0.00     0.029 A 
ATOM     32  C   UNL A   1      43.118  29.002  27.759  1.00  0.00     0.049 A 
ATOM     33  H   UNL A   1      41.637  29.886  28.970  1.00  0.00     0.167 HD
ATOM     34  C   UNL A   1      44.092  28.523  30.011  1.00  0.00     0.074 A 
ATOM     35  C   UNL A   1      42.919  28.546  30.885  1.00  0.00     0.031 C 
ATOM     36  C   UNL A   1      44.221  28.719  28.665  1.00  0.00     0.034 A 
BRANCH  23  37
ATOM     37  C   UNL A   1      38.659  29.037  28.414  1.00  0.00     0.023 A 
ATOM     38  C   UNL A   1      38.529  29.127  29.813  1.00  0.00     0.031 A 
ATOM     39  C   UNL A   1      37.805  29.872  27.666  1.00  0.00     0.131 A 
ATOM     40  C   UNL A   1      37.599  29.984  30.415  1.00  0.00     0.055 A 
ATOM     41  C   UNL A   1      36.921  30.777  28.267  1.00  0.00     0.041 A 
ATOM     42  F   UNL A   1      37.836  29.871  26.324  1.00  0.00    -0.206 F 
ATOM     43  C   UNL A   1      36.814  30.837  29.651  1.00  0.00     0.022 A 
BRANCH  40  44
ATOM     44  S   UNL A   1      37.406  30.002  32.219  1.00  0.00     0.124 S 
ATOM     45  O   UNL A   1      38.687  30.548  32.654  1.00  0.00    -0.237 OA
ATOM     46  O   UNL A   1      36.253  30.885  32.384  1.00  0.00    -0.237 OA
ATOM     47  O   UNL A   1      37.163  28.602  32.554  1.00  0.00    -0.744 OA
ENDBRANCH  40  44
ENDBRANCH  23  37
BRANCH  24  48
ATOM     48  C   UNL A   1      44.757  25.603  33.653  1.00  0.00     0.023 A 
ATOM     49  C   UNL A   1      43.575  25.638  34.417  1.00  0.00     0.031 A 
ATOM     50  C   UNL A   1      45.977  25.603  34.353  1.00  0.00     0.131 A 
ATOM     51  C   UNL A   1      43.632  25.744  35.814  1.00  0.00     0.055 A 
ATOM     52  C   UNL A   1      46.031  25.681  35.750  1.00  0.00     0.041 A 
ATOM     53  F   UNL A   1      47.142  25.606  33.687  1.00  0.00    -0.206 F 
ATOM     54  C   UNL A   1      44.854  25.771  36.487  1.00  0.00     0.022 A 
BRANCH  51  55
ATOM     55  S   UNL A   1      42.113  25.974  36.781  1.00  0.00     0.124 S 
ATOM     56  O   UNL A   1      41.445  27.051  36.054  1.00  0.00    -0.237 OA
ATOM     57  O   UNL A   1      41.490  24.659  36.668  1.00  0.00    -0.237 OA
ATOM     58  O   UNL A   1      42.604  26.333  38.108  1.00  0.00    -0.744 OA
ENDBRANCH  51  55
ENDBRANCH  24  48
BRANCH  36  59
ATOM     59  C   UNL A   1      45.552  28.408  28.002  1.00  0.00     0.023 A 
ATOM     60  C   UNL A   1      45.691  27.135  27.424  1.00  0.00     0.031 A 
ATOM     61  C   UNL A   1      46.720  29.184  28.134  1.00  0.00     0.131 A 
ATOM     62  C   UNL A   1      46.954  26.649  27.065  1.00  0.00     0.055 A 
ATOM     63  C   UNL A   1      47.972  28.725  27.706  1.00  0.00     0.041 A 
ATOM     64  F   UNL A   1      46.709  30.369  28.755  1.00  0.00    -0.206 F 
ATOM     65  C   UNL A   1      48.096  27.441  27.188  1.00  0.00     0.022 A 
BRANCH  62  66
ATOM     66  S   UNL A   1      47.156  24.911  26.596  1.00  0.00     0.124 S 
ATOM     67  O   UNL A   1      48.394  24.551  27.281  1.00  0.00    -0.237 OA
ATOM     68  O   UNL A   1      45.941  24.301  27.133  1.00  0.00    -0.237 OA
ATOM     69  O   UNL A   1      47.236  24.945  25.138  1.00  0.00    -0.744 OA
ENDBRANCH  62  66
ENDBRANCH  36  59
ENDBRANCH  10  11
ENDBRANCH   2   5
BRANCH   3  70
ATOM     70  C   UNL A   1      38.898  20.149  25.621  1.00  0.00     0.118 C 
BRANCH  70  71
ATOM     71  C   UNL A   1      37.627  19.679  24.949  1.00  0.00     0.042 C 
BRANCH  71  72
ATOM     72  C   UNL A   1      36.549  20.764  24.957  1.00  0.00     0.118 C 
BRANCH  72  73
ATOM     73  N   UNL A   1      35.187  20.242  25.002  1.00  0.00    -0.351 N 
ATOM     74  C   UNL A   1      33.987  20.906  24.851  1.00  0.00     0.269 C 
ATOM     75  H   UNL A   1      35.113  19.273  25.165  1.00  0.00     0.163 HD
ATOM     76  O   UNL A   1      32.927  20.297  24.964  1.00  0.00    -0.268 OA
BRANCH  74  77
ATOM     77  C   UNL A   1      33.973  22.369  24.577  1.00  0.00     0.130 A 
ATOM     78  C   UNL A   1      33.918  22.793  23.252  1.00  0.00     0.066 A 
ATOM     79  N   UNL A   1      33.972  23.192  25.669  1.00  0.00    -0.247 NA
ATOM     80  C   UNL A   1      33.760  24.168  23.088  1.00  0.00     0.113 A 
ATOM     81  C   UNL A   1      33.821  24.522  25.494  1.00  0.00     0.161 A 
ATOM     82  N   UNL A   1      33.615  24.936  21.958  1.00  0.00    -0.216 NA
ATOM     83  C   UNL A   1      33.703  24.988  24.204  1.00  0.00     0.172 A 
ATOM     84  C   UNL A   1      33.463  26.154  22.429  1.00  0.00     0.309 A 
ATOM     85  O   UNL A   1      33.507  26.269  23.787  1.00  0.00    -0.442 OA
ENDBRANCH  74  77
ENDBRANCH  72  73
ENDBRANCH  71  72
ENDBRANCH  70  71
ENDBRANCH   3  70
TORSDOF 13
ENDMDL
MODEL 3
REMARK VINA RESULT:     -12.1      3.991      8.571
REMARK SMILES O=C(NCCCNC(=O)c1cc2ncoc2cn1)c1ccc(-c2c3nc(c(-c4cc(S(=O)(=O)[O-])ccc4F)c4ccc([nH]4)c(-c4cc(S(=O)(=O)[O-])ccc4F)c4nc(c(-c5cc(S(=O)(=O)[O-])ccc5F)c5ccc2[nH]5)C=C4)C=C3)cc1
REMARK SMILES IDX 1 1 2 2 3 3 19 5 20 6 81 7 21 8 80 9 22 10 23 11 24 12 74 13
REMARK SMILES IDX 25 14 79 15 73 16 75 17 26 18 78 19 72 20 71 21 27 23 59 24
REMARK SMILES IDX 39 25 58 26 40 27 43 28 57 29 76 30 41 31 42 32 56 34 77 35
REMARK SMILES IDX 44 36 28 37 29 38 37 39 30 40 36 41 38 42 35 43 31 44 32 45
REMARK SMILES IDX 33 46 34 47 60 48 61 49 69 50 62 51 68 52 70 53 67 54 63 55
REMARK SMILES IDX 64 56 65 57 66 58 45 59 46 60 54 61 47 62 53 63 55 64 52 65
REMARK SMILES IDX 48 66 49 67 50 68 51 69 4 70 5 71 6 72 7 73 8 74 9 76 10 77
REMARK SMILES IDX 11 78 18 79 12 80 17 81 13 82 16 83 14 84 15 85
REMARK H PARENT 3 4 75 22 43 33 7 75
REMARK Flexibility Score: inf
ROOT
ATOM      1  O   UNL A   1      33.979  30.744  27.520  1.00  0.00    -0.269 OA
ATOM      2  C   UNL A   1      34.753  31.586  27.934  1.00  0.00     0.251 C 
ATOM      3  N   UNL A   1      34.360  32.916  28.099  1.00  0.00    -0.352 N 
ATOM      4  H   UNL A   1      33.388  33.078  28.091  1.00  0.00     0.163 HD
ENDROOT
BRANCH   2   5
ATOM      5  C   UNL A   1      36.141  31.236  28.298  1.00  0.00     0.039 A 
ATOM      6  C   UNL A   1      36.947  31.942  29.190  1.00  0.00     0.014 A 
ATOM      7  C   UNL A   1      36.600  30.056  27.752  1.00  0.00     0.014 A 
ATOM      8  C   UNL A   1      38.192  31.390  29.504  1.00  0.00     0.010 A 
ATOM      9  C   UNL A   1      37.488  29.336  28.471  1.00  0.00     0.010 A 
ATOM     10  C   UNL A   1      38.454  30.071  29.103  1.00  0.00    -0.014 A 
BRANCH  10  11
ATOM     11  C   UNL A   1      39.717  29.375  29.273  1.00  0.00     0.031 A 
ATOM     12  C   UNL A   1      39.998  28.987  30.666  1.00  0.00     0.074 A 
ATOM     13  C   UNL A   1      40.448  28.913  28.227  1.00  0.00     0.049 A 
ATOM     14  N   UNL A   1      40.833  29.540  31.475  1.00  0.00    -0.248 NA
ATOM     15  C   UNL A   1      39.104  28.005  31.295  1.00  0.00     0.031 C 
ATOM     16  C   UNL A   1      40.120  28.877  26.789  1.00  0.00     0.029 A 
ATOM     17  N   UNL A   1      41.647  28.282  28.254  1.00  0.00    -0.354 N 
ATOM     18  C   UNL A   1      40.731  28.830  32.666  1.00  0.00     0.074 A 
ATOM     19  C   UNL A   1      39.516  28.061  32.563  1.00  0.00     0.031 C 
ATOM     20  C   UNL A   1      40.980  28.061  26.137  1.00  0.00     0.029 A 
ATOM     21  C   UNL A   1      42.029  27.682  27.060  1.00  0.00     0.049 A 
ATOM     22  H   UNL A   1      42.208  28.251  29.062  1.00  0.00     0.167 HD
ATOM     23  C   UNL A   1      41.772  28.772  33.543  1.00  0.00     0.034 A 
ATOM     24  C   UNL A   1      43.130  26.914  26.859  1.00  0.00     0.034 A 
ATOM     25  C   UNL A   1      42.801  29.712  33.171  1.00  0.00     0.049 A 
ATOM     26  C   UNL A   1      44.061  27.182  27.984  1.00  0.00     0.074 A 
ATOM     27  C   UNL A   1      42.870  31.088  33.104  1.00  0.00     0.029 A 
ATOM     28  N   UNL A   1      43.826  29.239  32.383  1.00  0.00    -0.354 N 
ATOM     29  N   UNL A   1      44.666  28.324  28.169  1.00  0.00    -0.248 NA
ATOM     30  C   UNL A   1      43.929  26.346  29.167  1.00  0.00     0.031 C 
ATOM     31  C   UNL A   1      43.628  31.362  31.929  1.00  0.00     0.029 A 
ATOM     32  C   UNL A   1      44.056  30.149  31.381  1.00  0.00     0.049 A 
ATOM     33  H   UNL A   1      44.312  28.393  32.516  1.00  0.00     0.167 HD
ATOM     34  C   UNL A   1      44.585  28.546  29.537  1.00  0.00     0.074 A 
ATOM     35  C   UNL A   1      44.198  27.255  30.107  1.00  0.00     0.031 C 
ATOM     36  C   UNL A   1      44.544  29.811  30.053  1.00  0.00     0.034 A 
BRANCH  23  37
ATOM     37  C   UNL A   1      42.007  27.656  34.527  1.00  0.00     0.023 A 
ATOM     38  C   UNL A   1      42.712  26.479  34.212  1.00  0.00     0.031 A 
ATOM     39  C   UNL A   1      41.692  27.834  35.889  1.00  0.00     0.131 A 
ATOM     40  C   UNL A   1      43.063  25.543  35.193  1.00  0.00     0.055 A 
ATOM     41  C   UNL A   1      42.099  26.931  36.880  1.00  0.00     0.041 A 
ATOM     42  F   UNL A   1      41.019  28.916  36.309  1.00  0.00    -0.206 F 
ATOM     43  C   UNL A   1      42.790  25.777  36.534  1.00  0.00     0.022 A 
BRANCH  40  44
ATOM     44  S   UNL A   1      43.895  23.998  34.728  1.00  0.00     0.124 S 
ATOM     45  O   UNL A   1      44.746  23.754  35.888  1.00  0.00    -0.237 OA
ATOM     46  O   UNL A   1      42.763  23.089  34.570  1.00  0.00    -0.237 OA
ATOM     47  O   UNL A   1      44.589  24.340  33.490  1.00  0.00    -0.744 OA
ENDBRANCH  40  44
ENDBRANCH  23  37
BRANCH  24  48
ATOM     48  C   UNL A   1      43.178  25.640  26.101  1.00  0.00     0.023 A 
ATOM     49  C   UNL A   1      42.363  24.563  26.500  1.00  0.00     0.031 A 
ATOM     50  C   UNL A   1      44.239  25.354  25.224  1.00  0.00     0.131 A 
ATOM     51  C   UNL A   1      42.658  23.256  26.090  1.00  0.00     0.055 A 
ATOM     52  C   UNL A   1      44.516  24.051  24.793  1.00  0.00     0.041 A 
ATOM     53  F   UNL A   1      45.077  26.327  24.832  1.00  0.00    -0.206 F 
ATOM     54  C   UNL A   1      43.734  22.991  25.241  1.00  0.00     0.022 A 
BRANCH  51  55
ATOM     55  S   UNL A   1      41.719  21.851  26.751  1.00  0.00     0.124 S 
ATOM     56  O   UNL A   1      42.669  20.751  26.611  1.00  0.00    -0.237 OA
ATOM     57  O   UNL A   1      41.460  22.288  28.119  1.00  0.00    -0.237 OA
ATOM     58  O   UNL A   1      40.552  21.778  25.877  1.00  0.00    -0.744 OA
ENDBRANCH  51  55
ENDBRANCH  24  48
BRANCH  36  59
ATOM     59  C   UNL A   1      44.808  30.988  29.130  1.00  0.00     0.023 A 
ATOM     60  C   UNL A   1      46.123  31.481  29.090  1.00  0.00     0.031 A 
ATOM     61  C   UNL A   1      43.810  31.768  28.511  1.00  0.00     0.131 A 
ATOM     62  C   UNL A   1      46.399  32.729  28.517  1.00  0.00     0.055 A 
ATOM     63  C   UNL A   1      44.102  32.980  27.874  1.00  0.00     0.041 A 
ATOM     64  F   UNL A   1      42.517  31.433  28.576  1.00  0.00    -0.206 F 
ATOM     65  C   UNL A   1      45.399  33.477  27.894  1.00  0.00     0.022 A 
BRANCH  62  66
ATOM     66  S   UNL A   1      48.033  33.480  28.728  1.00  0.00     0.124 S 
ATOM     67  O   UNL A   1      48.752  32.986  27.557  1.00  0.00    -0.237 OA
ATOM     68  O   UNL A   1      47.722  34.909  28.717  1.00  0.00    -0.237 OA
ATOM     69  O   UNL A   1      48.499  32.962  30.011  1.00  0.00    -0.744 OA
ENDBRANCH  62  66
ENDBRANCH  36  59
ENDBRANCH  10  11
ENDBRANCH   2   5
BRANCH   3  70
ATOM     70  C   UNL A   1      35.207  34.112  28.282  1.00  0.00     0.118 C 
BRANCH  70  71
ATOM     71  C   UNL A   1      34.439  35.386  28.556  1.00  0.00     0.042 C 
BRANCH  71  72
ATOM     72  C   UNL A   1      33.144  35.111  29.322  1.00  0.00     0.118 C 
BRANCH  72  73
ATOM     73  N   UNL A   1      32.739  36.199  30.206  1.00  0.00    -0.351 N 
ATOM     74  C   UNL A   1      33.005  36.385  31.547  1.00  0.00     0.269 C 
ATOM     75  H   UNL A   1      32.195  36.903  29.784  1.00  0.00     0.163 HD
ATOM     76  O   UNL A   1      32.538  37.354  32.139  1.00  0.00    -0.268 OA
BRANCH  74  77
ATOM     77  C   UNL A   1      33.838  35.398  32.287  1.00  0.00     0.130 A 
ATOM     78  C   UNL A   1      35.150  35.743  32.599  1.00  0.00     0.066 A 
ATOM     79  N   UNL A   1      33.222  34.230  32.644  1.00  0.00    -0.247 NA
ATOM     80  C   UNL A   1      35.812  34.828  33.417  1.00  0.00     0.113 A 
ATOM     81  C   UNL A   1      33.878  33.353  33.434  1.00  0.00     0.161 A 
ATOM     82  N   UNL A   1      37.071  34.849  33.968  1.00  0.00    -0.216 NA
ATOM     83  C   UNL A   1      35.159  33.674  33.820  1.00  0.00     0.172 A 
ATOM     84  C   UNL A   1      37.116  33.742  34.676  1.00  0.00     0.309 A 
ATOM     85  O   UNL A   1      35.993  32.971  34.636  1.00  0.00    -0.442 OA
ENDBRANCH  74  77
ENDBRANCH  72  73
ENDBRANCH  71  72
ENDBRANCH  70  71
ENDBRANCH   3  70
TORSDOF 13
ENDMDL
