MODEL 1
REMARK VINA RESULT:     -12.5      0.000      0.000
REMARK SMILES CC(C)Cc1cc2c(cc1Cl)C=C(C(=O)NCCCNC(=O)c1ccc(-c3c4nc(c(-c5cc(S(=O)(=O)[O-])ccc5F)c5ccc([nH]5)c(-c5cc(S(=O)(=O)[O-])ccc5F)c5nc(c(-c6cc(S(=O)(=O)[O-])ccc6F)c6ccc3[nH]6)C=C5)C=C4)cc1)[C@@H](C(F)(F)F)O2
REMARK SMILES IDX 18 1 17 2 16 3 14 4 15 5 13 7 5 8 6 9 10 10 7 11 9 12 11 13
REMARK SMILES IDX 8 14 91 15 12 16 86 17 4 18 2 19 1 20 3 21 87 22 88 23 89 24
REMARK SMILES IDX 90 25 19 26 20 27 21 28 22 30 23 31 24 32 85 33 25 34 84 35
REMARK SMILES IDX 26 36 27 37 28 38 78 39 29 40 83 41 77 42 79 43 30 44 82 45
REMARK SMILES IDX 76 46 75 47 31 49 63 50 43 51 62 52 44 53 47 54 61 55 80 56
REMARK SMILES IDX 45 57 46 58 60 60 81 61 48 62 32 63 33 64 41 65 34 66 40 67
REMARK SMILES IDX 42 68 39 69 35 70 36 71 37 72 38 73 64 74 65 75 73 76 66 77
REMARK SMILES IDX 72 78 74 79 71 80 67 81 68 82 69 83 70 84 49 85 50 86 58 87
REMARK SMILES IDX 51 88 57 89 59 90 56 91 52 92 53 93 54 94 55 95
REMARK H PARENT 16 6 20 29 79 48 47 59
REMARK Flexibility Score: inf
ROOT
ATOM      1  C   UNL A   1      35.247  22.144  24.748  1.00  0.00     0.042 C 
ENDROOT
BRANCH   1   2
ATOM      2  C   UNL A   1      34.173  21.080  24.904  1.00  0.00     0.118 C 
BRANCH   2   3
ATOM      3  N   UNL A   1      33.334  20.962  23.719  1.00  0.00    -0.352 N 
ATOM      4  C   UNL A   1      32.433  21.727  23.057  1.00  0.00     0.251 C 
ATOM      5  O   UNL A   1      31.951  21.219  22.040  1.00  0.00    -0.270 OA
ATOM      6  H   UNL A   1      33.454  20.089  23.279  1.00  0.00     0.163 HD
BRANCH   4   7
ATOM      7  C   UNL A   1      32.007  23.097  23.470  1.00  0.00     0.067 C 
ATOM      8  C   UNL A   1      31.544  28.105  23.971  1.00  0.00    -0.025 A 
ATOM      9  C   UNL A   1      30.797  26.986  24.357  1.00  0.00     0.052 A 
ATOM     10  C   UNL A   1      32.782  27.880  23.347  1.00  0.00     0.045 A 
ATOM     11  C   UNL A   1      31.208  25.701  24.037  1.00  0.00     0.128 A 
ATOM     12  C   UNL A   1      33.226  26.573  23.081  1.00  0.00     0.032 A 
ATOM     13  Cl  UNL A   1      33.815  29.180  22.866  1.00  0.00    -0.084 Cl
ATOM     14  C   UNL A   1      32.423  25.476  23.405  1.00  0.00     0.019 A 
ATOM     15  O   UNL A   1      30.305  24.723  24.312  1.00  0.00    -0.475 OA
ATOM     16  C   UNL A   1      32.792  24.109  23.054  1.00  0.00     0.025 C 
ATOM     17  C   UNL A   1      30.790  23.360  24.311  1.00  0.00     0.314 C 
BRANCH   8  18
ATOM     18  C   UNL A   1      30.935  29.467  24.220  1.00  0.00     0.040 C 
BRANCH  18  19
ATOM     19  C   UNL A   1      29.672  29.764  23.371  1.00  0.00    -0.013 C 
ATOM     20  C   UNL A   1      29.002  31.107  23.696  1.00  0.00     0.008 C 
ATOM     21  C   UNL A   1      30.043  29.759  21.886  1.00  0.00     0.008 C 
ENDBRANCH  18  19
ENDBRANCH   8  18
BRANCH  17  22
ATOM     22  C   UNL A   1      30.963  22.930  25.778  1.00  0.00     0.429 C 
ATOM     23  F   UNL A   1      32.159  23.358  26.257  1.00  0.00    -0.167 F 
ATOM     24  F   UNL A   1      30.016  23.441  26.596  1.00  0.00    -0.167 F 
ATOM     25  F   UNL A   1      30.927  21.586  25.929  1.00  0.00    -0.167 F 
ENDBRANCH  17  22
ENDBRANCH   4   7
ENDBRANCH   2   3
ENDBRANCH   1   2
BRANCH   1  26
ATOM     26  C   UNL A   1      36.214  22.157  25.923  1.00  0.00     0.118 C 
BRANCH  26  27
ATOM     27  N   UNL A   1      37.266  21.150  25.779  1.00  0.00    -0.352 N 
ATOM     28  C   UNL A   1      38.631  21.263  25.896  1.00  0.00     0.251 C 
ATOM     29  H   UNL A   1      36.945  20.246  25.561  1.00  0.00     0.163 HD
ATOM     30  O   UNL A   1      39.350  20.351  25.495  1.00  0.00    -0.269 OA
BRANCH  28  31
ATOM     31  C   UNL A   1      39.223  22.484  26.481  1.00  0.00     0.039 A 
ATOM     32  C   UNL A   1      38.725  23.737  26.130  1.00  0.00     0.014 A 
ATOM     33  C   UNL A   1      40.287  22.380  27.381  1.00  0.00     0.014 A 
ATOM     34  C   UNL A   1      39.419  24.880  26.499  1.00  0.00     0.010 A 
ATOM     35  C   UNL A   1      40.911  23.541  27.852  1.00  0.00     0.010 A 
ATOM     36  C   UNL A   1      40.517  24.798  27.371  1.00  0.00    -0.014 A 
BRANCH  36  37
ATOM     37  C   UNL A   1      41.210  26.052  27.770  1.00  0.00     0.031 A 
ATOM     38  C   UNL A   1      42.613  26.342  27.309  1.00  0.00     0.074 A 
ATOM     39  C   UNL A   1      40.535  26.963  28.501  1.00  0.00     0.049 A 
ATOM     40  N   UNL A   1      43.349  27.397  27.544  1.00  0.00    -0.248 NA
ATOM     41  C   UNL A   1      43.282  25.322  26.485  1.00  0.00     0.031 C 
ATOM     42  C   UNL A   1      39.172  26.780  29.004  1.00  0.00     0.029 A 
ATOM     43  N   UNL A   1      40.877  28.222  28.925  1.00  0.00    -0.354 N 
ATOM     44  C   UNL A   1      44.571  27.160  26.925  1.00  0.00     0.074 A 
ATOM     45  C   UNL A   1      44.489  25.849  26.322  1.00  0.00     0.031 C 
ATOM     46  C   UNL A   1      38.773  27.903  29.612  1.00  0.00     0.029 A 
ATOM     47  C   UNL A   1      39.877  28.857  29.624  1.00  0.00     0.049 A 
ATOM     48  H   UNL A   1      41.753  28.632  28.745  1.00  0.00     0.167 HD
ATOM     49  C   UNL A   1      45.654  27.969  26.860  1.00  0.00     0.034 A 
ATOM     50  C   UNL A   1      39.850  30.061  30.231  1.00  0.00     0.034 A 
ATOM     51  C   UNL A   1      45.702  29.289  27.435  1.00  0.00     0.049 A 
ATOM     52  C   UNL A   1      41.064  30.944  30.133  1.00  0.00     0.074 A 
ATOM     53  C   UNL A   1      46.745  30.199  27.392  1.00  0.00     0.029 A 
ATOM     54  N   UNL A   1      44.673  29.895  28.141  1.00  0.00    -0.354 N 
ATOM     55  N   UNL A   1      42.196  30.715  29.508  1.00  0.00    -0.248 NA
ATOM     56  C   UNL A   1      41.009  32.244  30.813  1.00  0.00     0.031 C 
ATOM     57  C   UNL A   1      46.369  31.328  28.117  1.00  0.00     0.029 A 
ATOM     58  C   UNL A   1      45.066  31.158  28.556  1.00  0.00     0.049 A 
ATOM     59  H   UNL A   1      43.795  29.489  28.320  1.00  0.00     0.167 HD
ATOM     60  C   UNL A   1      42.982  31.843  29.713  1.00  0.00     0.074 A 
ATOM     61  C   UNL A   1      42.183  32.770  30.488  1.00  0.00     0.031 C 
ATOM     62  C   UNL A   1      44.255  32.081  29.311  1.00  0.00     0.034 A 
BRANCH  49  63
ATOM     63  C   UNL A   1      46.886  27.491  26.137  1.00  0.00     0.023 A 
ATOM     64  C   UNL A   1      47.116  27.894  24.808  1.00  0.00     0.031 A 
ATOM     65  C   UNL A   1      47.731  26.514  26.692  1.00  0.00     0.131 A 
ATOM     66  C   UNL A   1      48.130  27.282  24.060  1.00  0.00     0.055 A 
ATOM     67  C   UNL A   1      48.766  25.937  25.955  1.00  0.00     0.041 A 
ATOM     68  F   UNL A   1      47.552  26.100  27.957  1.00  0.00    -0.206 F 
ATOM     69  C   UNL A   1      48.959  26.310  24.628  1.00  0.00     0.022 A 
BRANCH  66  70
ATOM     70  S   UNL A   1      48.369  27.676  22.305  1.00  0.00     0.124 S 
ATOM     71  O   UNL A   1      47.157  28.435  22.000  1.00  0.00    -0.237 OA
ATOM     72  O   UNL A   1      49.602  28.454  22.334  1.00  0.00    -0.237 OA
ATOM     73  O   UNL A   1      48.457  26.370  21.662  1.00  0.00    -0.744 OA
ENDBRANCH  66  70
ENDBRANCH  49  63
BRANCH  50  74
ATOM     74  C   UNL A   1      38.615  30.478  30.961  1.00  0.00     0.023 A 
ATOM     75  C   UNL A   1      37.540  31.067  30.267  1.00  0.00     0.031 A 
ATOM     76  C   UNL A   1      38.535  30.408  32.361  1.00  0.00     0.131 A 
ATOM     77  C   UNL A   1      36.477  31.637  30.977  1.00  0.00     0.055 A 
ATOM     78  C   UNL A   1      37.433  30.904  33.060  1.00  0.00     0.041 A 
ATOM     79  F   UNL A   1      39.539  29.869  33.070  1.00  0.00    -0.206 F 
ATOM     80  C   UNL A   1      36.408  31.543  32.369  1.00  0.00     0.022 A 
BRANCH  77  81
ATOM     81  S   UNL A   1      35.247  32.667  30.127  1.00  0.00     0.124 S 
ATOM     82  O   UNL A   1      36.037  33.839  29.762  1.00  0.00    -0.237 OA
ATOM     83  O   UNL A   1      34.844  31.805  29.018  1.00  0.00    -0.237 OA
ATOM     84  O   UNL A   1      34.221  32.883  31.142  1.00  0.00    -0.744 OA
ENDBRANCH  77  81
ENDBRANCH  50  74
BRANCH  62  85
ATOM     85  C   UNL A   1      44.897  33.394  29.689  1.00  0.00     0.023 A 
ATOM     86  C   UNL A   1      44.872  34.473  28.786  1.00  0.00     0.031 A 
ATOM     87  C   UNL A   1      45.669  33.517  30.855  1.00  0.00     0.131 A 
ATOM     88  C   UNL A   1      45.642  35.613  29.043  1.00  0.00     0.055 A 
ATOM     89  C   UNL A   1      46.397  34.674  31.131  1.00  0.00     0.041 A 
ATOM     90  F   UNL A   1      45.732  32.509  31.740  1.00  0.00    -0.206 F 
ATOM     91  C   UNL A   1      46.398  35.723  30.215  1.00  0.00     0.022 A 
BRANCH  88  92
ATOM     92  S   UNL A   1      45.766  36.953  27.827  1.00  0.00     0.124 S 
ATOM     93  O   UNL A   1      44.422  37.526  27.872  1.00  0.00    -0.237 OA
ATOM     94  O   UNL A   1      46.820  37.789  28.396  1.00  0.00    -0.237 OA
ATOM     95  O   UNL A   1      46.108  36.270  26.584  1.00  0.00    -0.744 OA
ENDBRANCH  88  92
ENDBRANCH  62  85
ENDBRANCH  36  37
ENDBRANCH  28  31
ENDBRANCH  26  27
ENDBRANCH   1  26
TORSDOF 16
ENDMDL
MODEL 2
REMARK VINA RESULT:     -12.5      5.704     10.645
REMARK SMILES CC(C)Cc1cc2c(cc1Cl)C=C(C(=O)NCCCNC(=O)c1ccc(-c3c4nc(c(-c5cc(S(=O)(=O)[O-])ccc5F)c5ccc([nH]5)c(-c5cc(S(=O)(=O)[O-])ccc5F)c5nc(c(-c6cc(S(=O)(=O)[O-])ccc6F)c6ccc3[nH]6)C=C5)C=C4)cc1)[C@@H](C(F)(F)F)O2
REMARK SMILES IDX 18 1 17 2 16 3 14 4 15 5 13 7 5 8 6 9 10 10 7 11 9 12 11 13
REMARK SMILES IDX 8 14 91 15 12 16 86 17 4 18 2 19 1 20 3 21 87 22 88 23 89 24
REMARK SMILES IDX 90 25 19 26 20 27 21 28 22 30 23 31 24 32 85 33 25 34 84 35
REMARK SMILES IDX 26 36 27 37 28 38 78 39 29 40 83 41 77 42 79 43 30 44 82 45
REMARK SMILES IDX 76 46 75 47 31 49 63 50 43 51 62 52 44 53 47 54 61 55 80 56
REMARK SMILES IDX 45 57 46 58 60 60 81 61 48 62 32 63 33 64 41 65 34 66 40 67
REMARK SMILES IDX 42 68 39 69 35 70 36 71 37 72 38 73 64 74 65 75 73 76 66 77
REMARK SMILES IDX 72 78 74 79 71 80 67 81 68 82 69 83 70 84 49 85 50 86 58 87
REMARK SMILES IDX 51 88 57 89 59 90 56 91 52 92 53 93 54 94 55 95
REMARK H PARENT 16 6 20 29 79 48 47 59
REMARK Flexibility Score: inf
ROOT
ATOM      1  C   UNL A   1      31.723  31.544  26.817  1.00  0.00     0.042 C 
ENDROOT
BRANCH   1   2
ATOM      2  C   UNL A   1      31.991  30.094  26.448  1.00  0.00     0.118 C 
BRANCH   2   3
ATOM      3  N   UNL A   1      32.478  29.951  25.082  1.00  0.00    -0.352 N 
ATOM      4  C   UNL A   1      32.764  28.939  24.229  1.00  0.00     0.251 C 
ATOM      5  O   UNL A   1      33.152  29.285  23.108  1.00  0.00    -0.270 OA
ATOM      6  H   UNL A   1      32.643  30.828  24.667  1.00  0.00     0.163 HD
BRANCH   4   7
ATOM      7  C   UNL A   1      32.642  27.487  24.551  1.00  0.00     0.067 C 
ATOM      8  C   UNL A   1      33.587  22.592  25.387  1.00  0.00    -0.025 A 
ATOM      9  C   UNL A   1      32.515  23.460  25.623  1.00  0.00     0.052 A 
ATOM     10  C   UNL A   1      34.693  23.096  24.682  1.00  0.00     0.045 A 
ATOM     11  C   UNL A   1      32.584  24.801  25.275  1.00  0.00     0.128 A 
ATOM     12  C   UNL A   1      34.732  24.441  24.273  1.00  0.00     0.032 A 
ATOM     13  Cl  UNL A   1      36.056  22.110  24.289  1.00  0.00    -0.084 Cl
ATOM     14  C   UNL A   1      33.682  25.307  24.593  1.00  0.00     0.019 A 
ATOM     15  O   UNL A   1      31.552  25.565  25.721  1.00  0.00    -0.475 OA
ATOM     16  C   UNL A   1      33.725  26.731  24.285  1.00  0.00     0.025 C 
ATOM     17  C   UNL A   1      31.397  26.874  25.124  1.00  0.00     0.314 C 
BRANCH   8  18
ATOM     18  C   UNL A   1      33.484  21.191  25.948  1.00  0.00     0.040 C 
BRANCH  18  19
ATOM     19  C   UNL A   1      32.483  20.276  25.196  1.00  0.00    -0.013 C 
ATOM     20  C   UNL A   1      32.528  20.424  23.668  1.00  0.00     0.008 C 
ATOM     21  C   UNL A   1      32.767  18.814  25.546  1.00  0.00     0.008 C 
ENDBRANCH  18  19
ENDBRANCH   8  18
BRANCH  17  22
ATOM     22  C   UNL A   1      30.243  26.784  24.109  1.00  0.00     0.429 C 
ATOM     23  F   UNL A   1      29.224  26.047  24.618  1.00  0.00    -0.167 F 
ATOM     24  F   UNL A   1      29.724  27.991  23.789  1.00  0.00    -0.167 F 
ATOM     25  F   UNL A   1      30.622  26.201  22.949  1.00  0.00    -0.167 F 
ENDBRANCH  17  22
ENDBRANCH   4   7
ENDBRANCH   2   3
ENDBRANCH   1   2
BRANCH   1  26
ATOM     26  C   UNL A   1      32.978  32.249  27.311  1.00  0.00     0.118 C 
BRANCH  26  27
ATOM     27  N   UNL A   1      32.728  33.655  27.629  1.00  0.00    -0.352 N 
ATOM     28  C   UNL A   1      33.238  34.447  28.630  1.00  0.00     0.251 C 
ATOM     29  H   UNL A   1      32.091  34.106  27.030  1.00  0.00     0.163 HD
ATOM     30  O   UNL A   1      32.711  35.531  28.870  1.00  0.00    -0.269 OA
BRANCH  28  31
ATOM     31  C   UNL A   1      34.395  33.983  29.423  1.00  0.00     0.039 A 
ATOM     32  C   UNL A   1      35.685  34.367  29.063  1.00  0.00     0.014 A 
ATOM     33  C   UNL A   1      34.194  33.152  30.528  1.00  0.00     0.014 A 
ATOM     34  C   UNL A   1      36.776  33.756  29.663  1.00  0.00     0.010 A 
ATOM     35  C   UNL A   1      35.298  32.632  31.212  1.00  0.00     0.010 A 
ATOM     36  C   UNL A   1      36.598  32.886  30.750  1.00  0.00    -0.014 A 
BRANCH  36  37
ATOM     37  C   UNL A   1      37.798  32.279  31.387  1.00  0.00     0.031 A 
ATOM     38  C   UNL A   1      38.278  32.744  32.736  1.00  0.00     0.074 A 
ATOM     39  C   UNL A   1      38.414  31.255  30.764  1.00  0.00     0.049 A 
ATOM     40  N   UNL A   1      39.289  32.303  33.439  1.00  0.00    -0.248 NA
ATOM     41  C   UNL A   1      37.540  33.844  33.378  1.00  0.00     0.031 C 
ATOM     42  C   UNL A   1      38.034  30.729  29.451  1.00  0.00     0.029 A 
ATOM     43  N   UNL A   1      39.462  30.455  31.148  1.00  0.00    -0.354 N 
ATOM     44  C   UNL A   1      39.326  33.085  34.589  1.00  0.00     0.074 A 
ATOM     45  C   UNL A   1      38.250  34.045  34.480  1.00  0.00     0.031 C 
ATOM     46  C   UNL A   1      38.791  29.663  29.167  1.00  0.00     0.029 A 
ATOM     47  C   UNL A   1      39.772  29.477  30.232  1.00  0.00     0.049 A 
ATOM     48  H   UNL A   1      39.944  30.571  31.998  1.00  0.00     0.167 HD
ATOM     49  C   UNL A   1      40.174  32.997  35.639  1.00  0.00     0.034 A 
ATOM     50  C   UNL A   1      40.748  28.547  30.228  1.00  0.00     0.034 A 
ATOM     51  C   UNL A   1      41.216  32.007  35.747  1.00  0.00     0.049 A 
ATOM     52  C   UNL A   1      41.670  28.466  31.414  1.00  0.00     0.074 A 
ATOM     53  C   UNL A   1      42.105  31.819  36.791  1.00  0.00     0.029 A 
ATOM     54  N   UNL A   1      41.503  31.038  34.797  1.00  0.00    -0.354 N 
ATOM     55  N   UNL A   1      41.662  29.190  32.509  1.00  0.00    -0.248 NA
ATOM     56  C   UNL A   1      42.730  27.450  31.376  1.00  0.00     0.031 C 
ATOM     57  C   UNL A   1      42.964  30.776  36.448  1.00  0.00     0.029 A 
ATOM     58  C   UNL A   1      42.570  30.263  35.223  1.00  0.00     0.049 A 
ATOM     59  H   UNL A   1      41.021  30.919  33.948  1.00  0.00     0.167 HD
ATOM     60  C   UNL A   1      42.707  28.713  33.292  1.00  0.00     0.074 A 
ATOM     61  C   UNL A   1      43.303  27.612  32.562  1.00  0.00     0.031 C 
ATOM     62  C   UNL A   1      43.144  29.157  34.496  1.00  0.00     0.034 A 
BRANCH  49  63
ATOM     63  C   UNL A   1      40.032  33.969  36.782  1.00  0.00     0.023 A 
ATOM     64  C   UNL A   1      39.480  33.535  38.003  1.00  0.00     0.031 A 
ATOM     65  C   UNL A   1      40.275  35.343  36.612  1.00  0.00     0.131 A 
ATOM     66  C   UNL A   1      39.139  34.475  38.985  1.00  0.00     0.055 A 
ATOM     67  C   UNL A   1      39.972  36.270  37.611  1.00  0.00     0.041 A 
ATOM     68  F   UNL A   1      40.803  35.803  35.466  1.00  0.00    -0.206 F 
ATOM     69  C   UNL A   1      39.387  35.837  38.797  1.00  0.00     0.022 A 
BRANCH  66  70
ATOM     70  S   UNL A   1      38.302  33.969  40.513  1.00  0.00     0.124 S 
ATOM     71  O   UNL A   1      37.923  35.258  41.089  1.00  0.00    -0.237 OA
ATOM     72  O   UNL A   1      37.197  33.165  40.002  1.00  0.00    -0.237 OA
ATOM     73  O   UNL A   1      39.329  33.241  41.251  1.00  0.00    -0.744 OA
ENDBRANCH  66  70
ENDBRANCH  49  63
BRANCH  50  74
ATOM     74  C   UNL A   1      40.867  27.625  29.059  1.00  0.00     0.023 A 
ATOM     75  C   UNL A   1      41.806  27.879  28.040  1.00  0.00     0.031 A 
ATOM     76  C   UNL A   1      39.975  26.555  28.879  1.00  0.00     0.131 A 
ATOM     77  C   UNL A   1      41.775  27.132  26.857  1.00  0.00     0.055 A 
ATOM     78  C   UNL A   1      40.003  25.759  27.731  1.00  0.00     0.041 A 
ATOM     79  F   UNL A   1      39.053  26.279  29.813  1.00  0.00    -0.206 F 
ATOM     80  C   UNL A   1      40.891  26.061  26.704  1.00  0.00     0.022 A 
BRANCH  77  81
ATOM     81  S   UNL A   1      42.759  27.641  25.419  1.00  0.00     0.124 S 
ATOM     82  O   UNL A   1      42.847  26.399  24.659  1.00  0.00    -0.237 OA
ATOM     83  O   UNL A   1      41.919  28.684  24.831  1.00  0.00    -0.237 OA
ATOM     84  O   UNL A   1      44.006  28.117  26.007  1.00  0.00    -0.744 OA
ENDBRANCH  77  81
ENDBRANCH  50  74
BRANCH  62  85
ATOM     85  C   UNL A   1      44.328  28.471  35.132  1.00  0.00     0.023 A 
ATOM     86  C   UNL A   1      44.125  27.498  36.128  1.00  0.00     0.031 A 
ATOM     87  C   UNL A   1      45.641  28.899  34.873  1.00  0.00     0.131 A 
ATOM     88  C   UNL A   1      45.215  27.017  36.863  1.00  0.00     0.055 A 
ATOM     89  C   UNL A   1      46.729  28.381  35.575  1.00  0.00     0.041 A 
ATOM     90  F   UNL A   1      45.881  29.833  33.939  1.00  0.00    -0.206 F 
ATOM     91  C   UNL A   1      46.517  27.447  36.586  1.00  0.00     0.022 A 
BRANCH  88  92
ATOM     92  S   UNL A   1      44.976  25.890  38.263  1.00  0.00     0.124 S 
ATOM     93  O   UNL A   1      44.484  24.685  37.599  1.00  0.00    -0.237 OA
ATOM     94  O   UNL A   1      46.325  25.792  38.814  1.00  0.00    -0.237 OA
ATOM     95  O   UNL A   1      44.002  26.576  39.106  1.00  0.00    -0.744 OA
ENDBRANCH  88  92
ENDBRANCH  62  85
ENDBRANCH  36  37
ENDBRANCH  28  31
ENDBRANCH  26  27
ENDBRANCH   1  26
TORSDOF 16
ENDMDL
MODEL 3
REMARK VINA RESULT:     -12.4      5.699      8.645
REMARK SMILES CC(C)Cc1cc2c(cc1Cl)C=C(C(=O)NCCCNC(=O)c1ccc(-c3c4nc(c(-c5cc(S(=O)(=O)[O-])ccc5F)c5ccc([nH]5)c(-c5cc(S(=O)(=O)[O-])ccc5F)c5nc(c(-c6cc(S(=O)(=O)[O-])ccc6F)c6ccc3[nH]6)C=C5)C=C4)cc1)[C@@H](C(F)(F)F)O2
REMARK SMILES IDX 18 1 17 2 16 3 14 4 15 5 13 7 5 8 6 9 10 10 7 11 9 12 11 13
REMARK SMILES IDX 8 14 91 15 12 16 86 17 4 18 2 19 1 20 3 21 87 22 88 23 89 24
REMARK SMILES IDX 90 25 19 26 20 27 21 28 22 30 23 31 24 32 85 33 25 34 84 35
REMARK SMILES IDX 26 36 27 37 28 38 78 39 29 40 83 41 77 42 79 43 30 44 82 45
REMARK SMILES IDX 76 46 75 47 31 49 63 50 43 51 62 52 44 53 47 54 61 55 80 56
REMARK SMILES IDX 45 57 46 58 60 60 81 61 48 62 32 63 33 64 41 65 34 66 40 67
REMARK SMILES IDX 42 68 39 69 35 70 36 71 37 72 38 73 64 74 65 75 73 76 66 77
REMARK SMILES IDX 72 78 74 79 71 80 67 81 68 82 69 83 70 84 49 85 50 86 58 87
REMARK SMILES IDX 51 88 57 89 59 90 56 91 52 92 53 93 54 94 55 95
REMARK H PARENT 16 6 20 29 79 48 47 59
REMARK Flexibility Score: inf
ROOT
ATOM      1  C   UNL A   1      31.606  31.617  26.740  1.00  0.00     0.042 C 
ENDROOT
BRANCH   1   2
ATOM      2  C   UNL A   1      31.882  30.484  25.765  1.00  0.00     0.118 C 
BRANCH   2   3
ATOM      3  N   UNL A   1      30.890  30.417  24.700  1.00  0.00    -0.352 N 
ATOM      4  C   UNL A   1      30.463  29.505  23.794  1.00  0.00     0.251 C 
ATOM      5  O   UNL A   1      29.544  29.878  23.058  1.00  0.00    -0.270 OA
ATOM      6  H   UNL A   1      30.396  31.264  24.616  1.00  0.00     0.163 HD
BRANCH   4   7
ATOM      7  C   UNL A   1      31.016  28.127  23.641  1.00  0.00     0.067 C 
ATOM      8  C   UNL A   1      31.853  23.153  23.978  1.00  0.00    -0.025 A 
ATOM      9  C   UNL A   1      32.308  24.192  23.158  1.00  0.00     0.052 A 
ATOM     10  C   UNL A   1      31.007  23.488  25.048  1.00  0.00     0.045 A 
ATOM     11  C   UNL A   1      31.852  25.492  23.324  1.00  0.00     0.128 A 
ATOM     12  C   UNL A   1      30.598  24.818  25.253  1.00  0.00     0.032 A 
ATOM     13  Cl  UNL A   1      30.418  22.300  26.157  1.00  0.00    -0.084 Cl
ATOM     14  C   UNL A   1      31.003  25.824  24.370  1.00  0.00     0.019 A 
ATOM     15  O   UNL A   1      32.233  26.364  22.353  1.00  0.00    -0.475 OA
ATOM     16  C   UNL A   1      30.520  27.196  24.478  1.00  0.00     0.025 C 
ATOM     17  C   UNL A   1      32.073  27.773  22.634  1.00  0.00     0.314 C 
BRANCH   8  18
ATOM     18  C   UNL A   1      32.277  21.747  23.619  1.00  0.00     0.040 C 
BRANCH  18  19
ATOM     19  C   UNL A   1      33.498  21.226  24.422  1.00  0.00    -0.013 C 
ATOM     20  C   UNL A   1      34.131  22.275  25.347  1.00  0.00     0.008 C 
ATOM     21  C   UNL A   1      33.073  20.027  25.273  1.00  0.00     0.008 C 
ENDBRANCH  18  19
ENDBRANCH   8  18
BRANCH  17  22
ATOM     22  C   UNL A   1      33.462  28.332  22.992  1.00  0.00     0.429 C 
ATOM     23  F   UNL A   1      33.806  27.969  24.253  1.00  0.00    -0.167 F 
ATOM     24  F   UNL A   1      34.442  27.879  22.179  1.00  0.00    -0.167 F 
ATOM     25  F   UNL A   1      33.503  29.684  22.937  1.00  0.00    -0.167 F 
ENDBRANCH  17  22
ENDBRANCH   4   7
ENDBRANCH   2   3
ENDBRANCH   1   2
BRANCH   1  26
ATOM     26  C   UNL A   1      32.889  32.246  27.263  1.00  0.00     0.118 C 
BRANCH  26  27
ATOM     27  N   UNL A   1      32.721  33.669  27.559  1.00  0.00    -0.352 N 
ATOM     28  C   UNL A   1      33.258  34.442  28.561  1.00  0.00     0.251 C 
ATOM     29  H   UNL A   1      32.126  34.151  26.941  1.00  0.00     0.163 HD
ATOM     30  O   UNL A   1      32.796  35.559  28.776  1.00  0.00    -0.269 OA
BRANCH  28  31
ATOM     31  C   UNL A   1      34.368  33.917  29.384  1.00  0.00     0.039 A 
ATOM     32  C   UNL A   1      35.687  34.192  29.032  1.00  0.00     0.014 A 
ATOM     33  C   UNL A   1      34.091  33.138  30.511  1.00  0.00     0.014 A 
ATOM     34  C   UNL A   1      36.721  33.519  29.665  1.00  0.00     0.010 A 
ATOM     35  C   UNL A   1      35.145  32.558  31.226  1.00  0.00     0.010 A 
ATOM     36  C   UNL A   1      36.465  32.699  30.776  1.00  0.00    -0.014 A 
BRANCH  36  37
ATOM     37  C   UNL A   1      37.608  32.024  31.448  1.00  0.00     0.031 A 
ATOM     38  C   UNL A   1      38.361  30.913  30.767  1.00  0.00     0.074 A 
ATOM     39  C   UNL A   1      38.005  32.471  32.657  1.00  0.00     0.049 A 
ATOM     40  N   UNL A   1      39.395  30.240  31.202  1.00  0.00    -0.248 NA
ATOM     41  C   UNL A   1      37.898  30.496  29.433  1.00  0.00     0.031 C 
ATOM     42  C   UNL A   1      37.341  33.539  33.408  1.00  0.00     0.029 A 
ATOM     43  N   UNL A   1      39.062  32.115  33.455  1.00  0.00    -0.354 N 
ATOM     44  C   UNL A   1      39.689  29.307  30.215  1.00  0.00     0.074 A 
ATOM     45  C   UNL A   1      38.711  29.482  29.165  1.00  0.00     0.031 C 
ATOM     46  C   UNL A   1      38.038  33.792  34.522  1.00  0.00     0.029 A 
ATOM     47  C   UNL A   1      39.148  32.849  34.615  1.00  0.00     0.049 A 
ATOM     48  H   UNL A   1      39.699  31.402  33.219  1.00  0.00     0.167 HD
ATOM     49  C   UNL A   1      40.691  28.398  30.187  1.00  0.00     0.034 A 
ATOM     50  C   UNL A   1      40.003  32.764  35.654  1.00  0.00     0.034 A 
ATOM     51  C   UNL A   1      41.680  28.265  31.226  1.00  0.00     0.049 A 
ATOM     52  C   UNL A   1      41.114  31.751  35.591  1.00  0.00     0.074 A 
ATOM     53  C   UNL A   1      42.756  27.394  31.271  1.00  0.00     0.029 A 
ATOM     54  N   UNL A   1      41.731  29.021  32.388  1.00  0.00    -0.354 N 
ATOM     55  N   UNL A   1      41.398  30.904  34.629  1.00  0.00    -0.248 NA
ATOM     56  C   UNL A   1      42.023  31.674  36.742  1.00  0.00     0.031 C 
ATOM     57  C   UNL A   1      43.420  27.583  32.481  1.00  0.00     0.029 A 
ATOM     58  C   UNL A   1      42.806  28.621  33.164  1.00  0.00     0.049 A 
ATOM     59  H   UNL A   1      41.097  29.736  32.625  1.00  0.00     0.167 HD
ATOM     60  C   UNL A   1      42.519  30.202  35.054  1.00  0.00     0.074 A 
ATOM     61  C   UNL A   1      42.887  30.749  36.344  1.00  0.00     0.031 C 
ATOM     62  C   UNL A   1      43.174  29.186  34.440  1.00  0.00     0.034 A 
BRANCH  49  63
ATOM     63  C   UNL A   1      40.809  27.470  29.005  1.00  0.00     0.023 A 
ATOM     64  C   UNL A   1      41.757  27.739  27.999  1.00  0.00     0.031 A 
ATOM     65  C   UNL A   1      39.883  26.435  28.789  1.00  0.00     0.131 A 
ATOM     66  C   UNL A   1      41.722  27.016  26.800  1.00  0.00     0.055 A 
ATOM     67  C   UNL A   1      39.879  25.691  27.608  1.00  0.00     0.041 A 
ATOM     68  F   UNL A   1      38.963  26.140  29.721  1.00  0.00    -0.206 F 
ATOM     69  C   UNL A   1      40.792  25.992  26.601  1.00  0.00     0.022 A 
BRANCH  66  70
ATOM     70  S   UNL A   1      42.836  27.425  25.427  1.00  0.00     0.124 S 
ATOM     71  O   UNL A   1      42.858  26.172  24.674  1.00  0.00    -0.237 OA
ATOM     72  O   UNL A   1      42.132  28.529  24.783  1.00  0.00    -0.237 OA
ATOM     73  O   UNL A   1      44.091  27.771  26.087  1.00  0.00    -0.744 OA
ENDBRANCH  66  70
ENDBRANCH  49  63
BRANCH  50  74
ATOM     74  C   UNL A   1      39.827  33.686  36.816  1.00  0.00     0.023 A 
ATOM     75  C   UNL A   1      39.279  33.215  38.025  1.00  0.00     0.031 A 
ATOM     76  C   UNL A   1      40.087  35.061  36.703  1.00  0.00     0.131 A 
ATOM     77  C   UNL A   1      38.931  34.119  39.035  1.00  0.00     0.055 A 
ATOM     78  C   UNL A   1      39.814  35.949  37.745  1.00  0.00     0.041 A 
ATOM     79  F   UNL A   1      40.596  35.562  35.567  1.00  0.00    -0.206 F 
ATOM     80  C   UNL A   1      39.212  35.482  38.910  1.00  0.00     0.022 A 
BRANCH  77  81
ATOM     81  S   UNL A   1      37.945  33.577  40.459  1.00  0.00     0.124 S 
ATOM     82  O   UNL A   1      37.793  34.818  41.211  1.00  0.00    -0.237 OA
ATOM     83  O   UNL A   1      36.733  33.075  39.815  1.00  0.00    -0.237 OA
ATOM     84  O   UNL A   1      38.778  32.554  41.083  1.00  0.00    -0.744 OA
ENDBRANCH  77  81
ENDBRANCH  50  74
BRANCH  62  85
ATOM     85  C   UNL A   1      44.366  28.572  35.133  1.00  0.00     0.023 A 
ATOM     86  C   UNL A   1      44.176  27.555  36.087  1.00  0.00     0.031 A 
ATOM     87  C   UNL A   1      45.655  29.107  34.975  1.00  0.00     0.131 A 
ATOM     88  C   UNL A   1      45.251  27.134  36.878  1.00  0.00     0.055 A 
ATOM     89  C   UNL A   1      46.733  28.651  35.732  1.00  0.00     0.041 A 
ATOM     90  F   UNL A   1      45.881  30.087  34.085  1.00  0.00    -0.206 F 
ATOM     91  C   UNL A   1      46.530  27.671  36.700  1.00  0.00     0.022 A 
BRANCH  88  92
ATOM     92  S   UNL A   1      45.012  25.946  38.228  1.00  0.00     0.124 S 
ATOM     93  O   UNL A   1      43.909  26.552  38.971  1.00  0.00    -0.237 OA
ATOM     94  O   UNL A   1      44.680  24.721  37.506  1.00  0.00    -0.237 OA
ATOM     95  O   UNL A   1      46.296  25.938  38.922  1.00  0.00    -0.744 OA
ENDBRANCH  88  92
ENDBRANCH  62  85
ENDBRANCH  36  37
ENDBRANCH  28  31
ENDBRANCH  26  27
ENDBRANCH   1  26
TORSDOF 16
ENDMDL
