MODEL 1
REMARK VINA RESULT:     -12.4      0.000      0.000
REMARK SMILES CC1(C)C(Nc2cc(C(=O)NCCCNC(=O)c3ccc(-c4c5nc(c(-c6cc(S(=O)(=O)[O-])ccc6F)c6ccc([nH]6)c(-c6cc(S(=O)(=O)[O-])ccc6F)c6nc(c(-c7cc(S(=O)(=O)[O-])ccc7F)c7ccc4[nH]7)C=C6)C=C5)cc3)cc(Cl)n2)C1(C)C
REMARK SMILES IDX 13 1 12 2 11 3 9 4 10 5 8 7 6 8 7 9 84 10 82 11 81 12 83 13
REMARK SMILES IDX 5 14 4 16 1 17 2 18 3 19 85 20 86 21 87 22 14 23 15 24 16 25
REMARK SMILES IDX 17 27 18 28 19 29 80 30 20 31 79 32 21 33 22 34 23 35 73 36
REMARK SMILES IDX 24 37 78 38 72 39 74 40 25 41 77 42 71 43 70 44 26 46 58 47
REMARK SMILES IDX 38 48 57 49 39 50 42 51 56 52 75 53 40 54 41 55 55 57 76 58
REMARK SMILES IDX 43 59 27 60 28 61 36 62 29 63 35 64 37 65 34 66 30 67 31 68
REMARK SMILES IDX 32 69 33 70 59 71 60 72 68 73 61 74 67 75 69 76 66 77 62 78
REMARK SMILES IDX 63 79 64 80 65 81 44 82 45 83 53 84 46 85 52 86 54 87 51 88
REMARK SMILES IDX 47 89 48 90 49 91 50 92
REMARK H PARENT 11 6 5 15 15 26 74 45 42 56
REMARK Flexibility Score: inf
ROOT
ATOM      1  C   UNL A   1      31.571  32.162  26.762  1.00  0.00     0.042 C 
ENDROOT
BRANCH   1   2
ATOM      2  C   UNL A   1      31.743  30.669  26.487  1.00  0.00     0.118 C 
BRANCH   2   3
ATOM      3  N   UNL A   1      32.998  30.185  27.030  1.00  0.00    -0.352 N 
ATOM      4  C   UNL A   1      33.614  28.966  27.071  1.00  0.00     0.251 C 
ATOM      5  O   UNL A   1      34.714  28.924  27.627  1.00  0.00    -0.269 OA
ATOM      6  H   UNL A   1      33.524  30.893  27.467  1.00  0.00     0.163 HD
BRANCH   4   7
ATOM      7  C   UNL A   1      33.079  27.716  26.463  1.00  0.00     0.046 A 
ATOM      8  C   UNL A   1      33.585  25.772  25.119  1.00  0.00     0.128 A 
ATOM      9  C   UNL A   1      33.992  26.955  25.721  1.00  0.00     0.060 A 
ATOM     10  N   UNL A   1      32.308  25.364  25.141  1.00  0.00    -0.219 NA
ATOM     11  C   UNL A   1      31.459  26.083  25.897  1.00  0.00     0.132 A 
ATOM     12  C   UNL A   1      31.791  27.223  26.606  1.00  0.00     0.055 A 
ATOM     13  Cl  UNL A   1      29.864  25.450  25.957  1.00  0.00    -0.062 Cl
BRANCH   8  14
ATOM     14  N   UNL A   1      34.509  24.892  24.542  1.00  0.00    -0.366 N 
ATOM     15  H   UNL A   1      35.238  25.236  23.978  1.00  0.00     0.162 HD
BRANCH  14  16
ATOM     16  C   UNL A   1      34.377  23.449  24.788  1.00  0.00     0.093 C 
ATOM     17  C   UNL A   1      32.780  21.536  24.187  1.00  0.00     0.014 C 
ATOM     18  C   UNL A   1      33.841  22.511  23.717  1.00  0.00    -0.008 C 
ATOM     19  C   UNL A   1      33.525  23.052  22.339  1.00  0.00     0.014 C 
ATOM     20  C   UNL A   1      35.306  22.412  24.206  1.00  0.00    -0.008 C 
ATOM     21  C   UNL A   1      35.730  21.297  25.139  1.00  0.00     0.014 C 
ATOM     22  C   UNL A   1      36.448  22.867  23.326  1.00  0.00     0.014 C 
ENDBRANCH  14  16
ENDBRANCH   8  14
ENDBRANCH   4   7
ENDBRANCH   2   3
ENDBRANCH   1   2
BRANCH   1  23
ATOM     23  C   UNL A   1      32.844  32.816  27.305  1.00  0.00     0.118 C 
BRANCH  23  24
ATOM     24  N   UNL A   1      32.614  34.203  27.693  1.00  0.00    -0.352 N 
ATOM     25  C   UNL A   1      33.148  34.933  28.726  1.00  0.00     0.251 C 
ATOM     26  H   UNL A   1      31.976  34.692  27.125  1.00  0.00     0.163 HD
ATOM     27  O   UNL A   1      32.628  36.001  29.036  1.00  0.00    -0.269 OA
BRANCH  25  28
ATOM     28  C   UNL A   1      34.330  34.435  29.463  1.00  0.00     0.039 A 
ATOM     29  C   UNL A   1      34.144  33.783  30.686  1.00  0.00     0.014 A 
ATOM     30  C   UNL A   1      35.620  34.640  28.969  1.00  0.00     0.014 A 
ATOM     31  C   UNL A   1      35.247  33.280  31.379  1.00  0.00     0.010 A 
ATOM     32  C   UNL A   1      36.711  34.075  29.625  1.00  0.00     0.010 A 
ATOM     33  C   UNL A   1      36.537  33.389  30.836  1.00  0.00    -0.014 A 
BRANCH  33  34
ATOM     34  C   UNL A   1      37.721  32.793  31.508  1.00  0.00     0.031 A 
ATOM     35  C   UNL A   1      38.438  31.631  30.877  1.00  0.00     0.074 A 
ATOM     36  C   UNL A   1      38.093  33.241  32.724  1.00  0.00     0.049 A 
ATOM     37  N   UNL A   1      39.394  30.882  31.364  1.00  0.00    -0.248 NA
ATOM     38  C   UNL A   1      37.996  31.241  29.529  1.00  0.00     0.031 C 
ATOM     39  C   UNL A   1      37.459  34.346  33.447  1.00  0.00     0.029 A 
ATOM     40  N   UNL A   1      39.080  32.812  33.578  1.00  0.00    -0.354 N 
ATOM     41  C   UNL A   1      39.654  29.920  30.394  1.00  0.00     0.074 A 
ATOM     42  C   UNL A   1      38.717  30.150  29.314  1.00  0.00     0.031 C 
ATOM     43  C   UNL A   1      38.080  34.513  34.626  1.00  0.00     0.029 A 
ATOM     44  C   UNL A   1      39.114  33.496  34.772  1.00  0.00     0.049 A 
ATOM     45  H   UNL A   1      39.704  32.083  33.356  1.00  0.00     0.167 HD
ATOM     46  C   UNL A   1      40.598  28.947  30.398  1.00  0.00     0.034 A 
ATOM     47  C   UNL A   1      39.873  33.306  35.870  1.00  0.00     0.034 A 
ATOM     48  C   UNL A   1      41.531  28.743  31.481  1.00  0.00     0.049 A 
ATOM     49  C   UNL A   1      40.890  32.192  35.869  1.00  0.00     0.074 A 
ATOM     50  C   UNL A   1      42.564  27.826  31.565  1.00  0.00     0.029 A 
ATOM     51  N   UNL A   1      41.537  29.458  32.672  1.00  0.00    -0.354 N 
ATOM     52  N   UNL A   1      41.154  31.316  34.926  1.00  0.00    -0.248 NA
ATOM     53  C   UNL A   1      41.716  32.042  37.074  1.00  0.00     0.031 C 
ATOM     54  C   UNL A   1      43.143  27.933  32.834  1.00  0.00     0.029 A 
ATOM     55  C   UNL A   1      42.532  28.978  33.509  1.00  0.00     0.049 A 
ATOM     56  H   UNL A   1      40.925  30.198  32.890  1.00  0.00     0.167 HD
ATOM     57  C   UNL A   1      42.201  30.538  35.411  1.00  0.00     0.074 A 
ATOM     58  C   UNL A   1      42.524  31.052  36.726  1.00  0.00     0.031 C 
ATOM     59  C   UNL A   1      42.843  29.499  34.820  1.00  0.00     0.034 A 
BRANCH  46  60
ATOM     60  C   UNL A   1      40.646  28.011  29.213  1.00  0.00     0.023 A 
ATOM     61  C   UNL A   1      41.593  28.165  28.185  1.00  0.00     0.031 A 
ATOM     62  C   UNL A   1      39.721  26.958  29.101  1.00  0.00     0.131 A 
ATOM     63  C   UNL A   1      41.547  27.330  27.058  1.00  0.00     0.055 A 
ATOM     64  C   UNL A   1      39.735  26.076  28.018  1.00  0.00     0.041 A 
ATOM     65  F   UNL A   1      38.779  26.772  30.039  1.00  0.00    -0.206 F 
ATOM     66  C   UNL A   1      40.642  26.268  26.980  1.00  0.00     0.022 A 
BRANCH  63  67
ATOM     67  S   UNL A   1      42.588  27.744  25.632  1.00  0.00     0.124 S 
ATOM     68  O   UNL A   1      41.870  28.881  25.063  1.00  0.00    -0.237 OA
ATOM     69  O   UNL A   1      43.872  28.044  26.255  1.00  0.00    -0.237 OA
ATOM     70  O   UNL A   1      42.557  26.527  24.821  1.00  0.00    -0.744 OA
ENDBRANCH  63  67
ENDBRANCH  46  60
BRANCH  47  71
ATOM     71  C   UNL A   1      39.690  34.170  37.074  1.00  0.00     0.023 A 
ATOM     72  C   UNL A   1      39.099  33.665  38.242  1.00  0.00     0.031 A 
ATOM     73  C   UNL A   1      40.063  35.525  37.058  1.00  0.00     0.131 A 
ATOM     74  C   UNL A   1      38.852  34.520  39.328  1.00  0.00     0.055 A 
ATOM     75  C   UNL A   1      39.871  36.358  38.163  1.00  0.00     0.041 A 
ATOM     76  F   UNL A   1      40.636  36.061  35.968  1.00  0.00    -0.206 F 
ATOM     77  C   UNL A   1      39.248  35.859  39.302  1.00  0.00     0.022 A 
BRANCH  74  78
ATOM     78  S   UNL A   1      37.914  33.879  40.742  1.00  0.00     0.124 S 
ATOM     79  O   UNL A   1      36.811  33.194  40.078  1.00  0.00    -0.237 OA
ATOM     80  O   UNL A   1      38.899  33.026  41.397  1.00  0.00    -0.237 OA
ATOM     81  O   UNL A   1      37.545  35.085  41.480  1.00  0.00    -0.744 OA
ENDBRANCH  74  78
ENDBRANCH  47  71
BRANCH  59  82
ATOM     82  C   UNL A   1      44.002  28.885  35.566  1.00  0.00     0.023 A 
ATOM     83  C   UNL A   1      43.842  27.771  36.408  1.00  0.00     0.031 A 
ATOM     84  C   UNL A   1      45.295  29.419  35.414  1.00  0.00     0.131 A 
ATOM     85  C   UNL A   1      44.949  27.251  37.096  1.00  0.00     0.055 A 
ATOM     86  C   UNL A   1      46.402  28.861  36.054  1.00  0.00     0.041 A 
ATOM     87  F   UNL A   1      45.505  30.486  34.627  1.00  0.00    -0.206 F 
ATOM     88  C   UNL A   1      46.230  27.777  36.908  1.00  0.00     0.022 A 
BRANCH  85  89
ATOM     89  S   UNL A   1      44.683  25.921  38.300  1.00  0.00     0.124 S 
ATOM     90  O   UNL A   1      43.558  25.202  37.714  1.00  0.00    -0.237 OA
ATOM     91  O   UNL A   1      45.965  25.223  38.284  1.00  0.00    -0.237 OA
ATOM     92  O   UNL A   1      44.384  26.636  39.541  1.00  0.00    -0.744 OA
ENDBRANCH  85  89
ENDBRANCH  59  82
ENDBRANCH  33  34
ENDBRANCH  25  28
ENDBRANCH  23  24
ENDBRANCH   1  23
TORSDOF 15
ENDMDL
MODEL 2
REMARK VINA RESULT:     -12.1      1.436      1.713
REMARK SMILES CC1(C)C(Nc2cc(C(=O)NCCCNC(=O)c3ccc(-c4c5nc(c(-c6cc(S(=O)(=O)[O-])ccc6F)c6ccc([nH]6)c(-c6cc(S(=O)(=O)[O-])ccc6F)c6nc(c(-c7cc(S(=O)(=O)[O-])ccc7F)c7ccc4[nH]7)C=C6)C=C5)cc3)cc(Cl)n2)C1(C)C
REMARK SMILES IDX 13 1 12 2 11 3 9 4 10 5 8 7 6 8 7 9 84 10 82 11 81 12 83 13
REMARK SMILES IDX 5 14 4 16 1 17 2 18 3 19 85 20 86 21 87 22 14 23 15 24 16 25
REMARK SMILES IDX 17 27 18 28 19 29 80 30 20 31 79 32 21 33 22 34 23 35 73 36
REMARK SMILES IDX 24 37 78 38 72 39 74 40 25 41 77 42 71 43 70 44 26 46 58 47
REMARK SMILES IDX 38 48 57 49 39 50 42 51 56 52 75 53 40 54 41 55 55 57 76 58
REMARK SMILES IDX 43 59 27 60 28 61 36 62 29 63 35 64 37 65 34 66 30 67 31 68
REMARK SMILES IDX 32 69 33 70 59 71 60 72 68 73 61 74 67 75 69 76 66 77 62 78
REMARK SMILES IDX 63 79 64 80 65 81 44 82 45 83 53 84 46 85 52 86 54 87 51 88
REMARK SMILES IDX 47 89 48 90 49 91 50 92
REMARK H PARENT 11 6 5 15 15 26 74 45 42 56
REMARK Flexibility Score: inf
ROOT
ATOM      1  C   UNL A   1      31.499  31.983  26.798  1.00  0.00     0.042 C 
ENDROOT
BRANCH   1   2
ATOM      2  C   UNL A   1      31.777  30.722  25.982  1.00  0.00     0.118 C 
BRANCH   2   3
ATOM      3  N   UNL A   1      32.967  30.046  26.462  1.00  0.00    -0.352 N 
ATOM      4  C   UNL A   1      33.458  28.776  26.343  1.00  0.00     0.251 C 
ATOM      5  O   UNL A   1      34.538  28.551  26.895  1.00  0.00    -0.269 OA
ATOM      6  H   UNL A   1      33.553  30.633  26.992  1.00  0.00     0.163 HD
BRANCH   4   7
ATOM      7  C   UNL A   1      32.812  27.678  25.572  1.00  0.00     0.046 A 
ATOM      8  C   UNL A   1      33.154  25.598  24.390  1.00  0.00     0.128 A 
ATOM      9  C   UNL A   1      33.666  26.665  25.115  1.00  0.00     0.060 A 
ATOM     10  N   UNL A   1      31.866  25.540  24.022  1.00  0.00    -0.219 NA
ATOM     11  C   UNL A   1      31.056  26.495  24.510  1.00  0.00     0.132 A 
ATOM     12  C   UNL A   1      31.457  27.547  25.314  1.00  0.00     0.055 A 
ATOM     13  Cl  UNL A   1      29.405  26.305  24.078  1.00  0.00    -0.062 Cl
BRANCH   8  14
ATOM     14  N   UNL A   1      33.938  24.477  24.090  1.00  0.00    -0.366 N 
ATOM     15  H   UNL A   1      33.899  24.068  23.196  1.00  0.00     0.162 HD
BRANCH  14  16
ATOM     16  C   UNL A   1      34.819  23.919  25.125  1.00  0.00     0.093 C 
ATOM     17  C   UNL A   1      34.780  22.047  26.876  1.00  0.00     0.014 C 
ATOM     18  C   UNL A   1      34.856  22.426  25.411  1.00  0.00    -0.008 C 
ATOM     19  C   UNL A   1      34.043  21.480  24.552  1.00  0.00     0.014 C 
ATOM     20  C   UNL A   1      36.087  23.157  24.825  1.00  0.00    -0.008 C 
ATOM     21  C   UNL A   1      37.280  23.475  25.703  1.00  0.00     0.014 C 
ATOM     22  C   UNL A   1      36.493  22.957  23.383  1.00  0.00     0.014 C 
ENDBRANCH  14  16
ENDBRANCH   8  14
ENDBRANCH   4   7
ENDBRANCH   2   3
ENDBRANCH   1   2
BRANCH   1  23
ATOM     23  C   UNL A   1      32.766  32.580  27.416  1.00  0.00     0.118 C 
BRANCH  23  24
ATOM     24  N   UNL A   1      32.592  33.989  27.750  1.00  0.00    -0.352 N 
ATOM     25  C   UNL A   1      33.176  34.743  28.737  1.00  0.00     0.251 C 
ATOM     26  H   UNL A   1      31.955  34.475  27.177  1.00  0.00     0.163 HD
ATOM     27  O   UNL A   1      32.699  35.840  29.013  1.00  0.00    -0.269 OA
BRANCH  25  28
ATOM     28  C   UNL A   1      34.360  34.238  29.465  1.00  0.00     0.039 A 
ATOM     29  C   UNL A   1      34.175  33.543  30.664  1.00  0.00     0.014 A 
ATOM     30  C   UNL A   1      35.650  34.479  28.988  1.00  0.00     0.014 A 
ATOM     31  C   UNL A   1      35.281  33.033  31.348  1.00  0.00     0.010 A 
ATOM     32  C   UNL A   1      36.745  33.909  29.632  1.00  0.00     0.010 A 
ATOM     33  C   UNL A   1      36.572  33.178  30.818  1.00  0.00    -0.014 A 
BRANCH  33  34
ATOM     34  C   UNL A   1      37.761  32.578  31.479  1.00  0.00     0.031 A 
ATOM     35  C   UNL A   1      38.483  31.431  30.827  1.00  0.00     0.074 A 
ATOM     36  C   UNL A   1      38.132  33.006  32.702  1.00  0.00     0.049 A 
ATOM     37  N   UNL A   1      39.444  30.679  31.300  1.00  0.00    -0.248 NA
ATOM     38  C   UNL A   1      38.042  31.062  29.472  1.00  0.00     0.031 C 
ATOM     39  C   UNL A   1      37.492  34.094  33.445  1.00  0.00     0.029 A 
ATOM     40  N   UNL A   1      39.121  32.568  33.547  1.00  0.00    -0.354 N 
ATOM     41  C   UNL A   1      39.708  29.735  30.312  1.00  0.00     0.074 A 
ATOM     42  C   UNL A   1      38.769  29.980  29.237  1.00  0.00     0.031 C 
ATOM     43  C   UNL A   1      38.113  34.245  34.627  1.00  0.00     0.029 A 
ATOM     44  C   UNL A   1      39.153  33.231  34.753  1.00  0.00     0.049 A 
ATOM     45  H   UNL A   1      39.749  31.847  33.312  1.00  0.00     0.167 HD
ATOM     46  C   UNL A   1      40.658  28.768  30.298  1.00  0.00     0.034 A 
ATOM     47  C   UNL A   1      39.914  33.026  35.847  1.00  0.00     0.034 A 
ATOM     48  C   UNL A   1      41.593  28.551  31.376  1.00  0.00     0.049 A 
ATOM     49  C   UNL A   1      40.938  31.918  35.826  1.00  0.00     0.074 A 
ATOM     50  C   UNL A   1      42.632  27.639  31.443  1.00  0.00     0.029 A 
ATOM     51  N   UNL A   1      41.597  29.244  32.580  1.00  0.00    -0.354 N 
ATOM     52  N   UNL A   1      41.205  31.061  34.867  1.00  0.00    -0.248 NA
ATOM     53  C   UNL A   1      41.766  31.751  37.027  1.00  0.00     0.031 C 
ATOM     54  C   UNL A   1      43.211  27.726  32.713  1.00  0.00     0.029 A 
ATOM     55  C   UNL A   1      42.595  28.755  33.408  1.00  0.00     0.049 A 
ATOM     56  H   UNL A   1      40.980  29.976  32.812  1.00  0.00     0.167 HD
ATOM     57  C   UNL A   1      42.257  30.280  35.338  1.00  0.00     0.074 A 
ATOM     58  C   UNL A   1      42.579  30.772  36.661  1.00  0.00     0.031 C 
ATOM     59  C   UNL A   1      42.904  29.255  34.728  1.00  0.00     0.034 A 
BRANCH  46  60
ATOM     60  C   UNL A   1      40.710  27.854  29.097  1.00  0.00     0.023 A 
ATOM     61  C   UNL A   1      41.629  28.055  28.052  1.00  0.00     0.031 A 
ATOM     62  C   UNL A   1      39.816  26.773  28.986  1.00  0.00     0.131 A 
ATOM     63  C   UNL A   1      41.585  27.237  26.912  1.00  0.00     0.055 A 
ATOM     64  C   UNL A   1      39.835  25.909  27.889  1.00  0.00     0.041 A 
ATOM     65  F   UNL A   1      38.902  26.542  29.941  1.00  0.00    -0.206 F 
ATOM     66  C   UNL A   1      40.713  26.148  26.836  1.00  0.00     0.022 A 
BRANCH  63  67
ATOM     67  S   UNL A   1      42.581  27.707  25.472  1.00  0.00     0.124 S 
ATOM     68  O   UNL A   1      42.453  26.523  24.626  1.00  0.00    -0.237 OA
ATOM     69  O   UNL A   1      41.904  28.908  24.998  1.00  0.00    -0.237 OA
ATOM     70  O   UNL A   1      43.915  27.922  26.033  1.00  0.00    -0.744 OA
ENDBRANCH  63  67
ENDBRANCH  46  60
BRANCH  47  71
ATOM     71  C   UNL A   1      39.727  33.867  37.066  1.00  0.00     0.023 A 
ATOM     72  C   UNL A   1      40.594  34.934  37.349  1.00  0.00     0.031 A 
ATOM     73  C   UNL A   1      38.703  33.589  37.989  1.00  0.00     0.131 A 
ATOM     74  C   UNL A   1      40.454  35.651  38.548  1.00  0.00     0.055 A 
ATOM     75  C   UNL A   1      38.530  34.344  39.151  1.00  0.00     0.041 A 
ATOM     76  F   UNL A   1      37.842  32.583  37.767  1.00  0.00    -0.206 F 
ATOM     77  C   UNL A   1      39.418  35.373  39.443  1.00  0.00     0.022 A 
BRANCH  74  78
ATOM     78  S   UNL A   1      41.709  36.892  38.968  1.00  0.00     0.124 S 
ATOM     79  O   UNL A   1      42.275  37.195  37.659  1.00  0.00    -0.237 OA
ATOM     80  O   UNL A   1      40.902  37.942  39.579  1.00  0.00    -0.237 OA
ATOM     81  O   UNL A   1      42.599  36.178  39.883  1.00  0.00    -0.744 OA
ENDBRANCH  74  78
ENDBRANCH  47  71
BRANCH  59  82
ATOM     82  C   UNL A   1      44.067  28.635  35.462  1.00  0.00     0.023 A 
ATOM     83  C   UNL A   1      43.898  27.575  36.369  1.00  0.00     0.031 A 
ATOM     84  C   UNL A   1      45.374  29.106  35.231  1.00  0.00     0.131 A 
ATOM     85  C   UNL A   1      45.011  27.047  37.042  1.00  0.00     0.055 A 
ATOM     86  C   UNL A   1      46.483  28.538  35.858  1.00  0.00     0.041 A 
ATOM     87  F   UNL A   1      45.593  30.120  34.378  1.00  0.00    -0.206 F 
ATOM     88  C   UNL A   1      46.303  27.509  36.776  1.00  0.00     0.022 A 
BRANCH  85  89
ATOM     89  S   UNL A   1      44.742  25.796  38.327  1.00  0.00     0.124 S 
ATOM     90  O   UNL A   1      44.272  24.656  37.547  1.00  0.00    -0.237 OA
ATOM     91  O   UNL A   1      46.070  25.661  38.916  1.00  0.00    -0.237 OA
ATOM     92  O   UNL A   1      43.738  26.408  39.197  1.00  0.00    -0.744 OA
ENDBRANCH  85  89
ENDBRANCH  59  82
ENDBRANCH  33  34
ENDBRANCH  25  28
ENDBRANCH  23  24
ENDBRANCH   1  23
TORSDOF 15
ENDMDL
MODEL 3
REMARK VINA RESULT:     -12.1      5.938     11.086
REMARK SMILES CC1(C)C(Nc2cc(C(=O)NCCCNC(=O)c3ccc(-c4c5nc(c(-c6cc(S(=O)(=O)[O-])ccc6F)c6ccc([nH]6)c(-c6cc(S(=O)(=O)[O-])ccc6F)c6nc(c(-c7cc(S(=O)(=O)[O-])ccc7F)c7ccc4[nH]7)C=C6)C=C5)cc3)cc(Cl)n2)C1(C)C
REMARK SMILES IDX 13 1 12 2 11 3 9 4 10 5 8 7 6 8 7 9 84 10 82 11 81 12 83 13
REMARK SMILES IDX 5 14 4 16 1 17 2 18 3 19 85 20 86 21 87 22 14 23 15 24 16 25
REMARK SMILES IDX 17 27 18 28 19 29 80 30 20 31 79 32 21 33 22 34 23 35 73 36
REMARK SMILES IDX 24 37 78 38 72 39 74 40 25 41 77 42 71 43 70 44 26 46 58 47
REMARK SMILES IDX 38 48 57 49 39 50 42 51 56 52 75 53 40 54 41 55 55 57 76 58
REMARK SMILES IDX 43 59 27 60 28 61 36 62 29 63 35 64 37 65 34 66 30 67 31 68
REMARK SMILES IDX 32 69 33 70 59 71 60 72 68 73 61 74 67 75 69 76 66 77 62 78
REMARK SMILES IDX 63 79 64 80 65 81 44 82 45 83 53 84 46 85 52 86 54 87 51 88
REMARK SMILES IDX 47 89 48 90 49 91 50 92
REMARK H PARENT 11 6 5 15 15 26 74 45 42 56
REMARK Flexibility Score: inf
ROOT
ATOM      1  C   UNL A   1      35.912  20.479  25.020  1.00  0.00     0.042 C 
ENDROOT
BRANCH   1   2
ATOM      2  C   UNL A   1      34.842  21.514  25.365  1.00  0.00     0.118 C 
BRANCH   2   3
ATOM      3  N   UNL A   1      34.182  21.996  24.167  1.00  0.00    -0.352 N 
ATOM      4  C   UNL A   1      33.036  22.699  23.925  1.00  0.00     0.251 C 
ATOM      5  O   UNL A   1      32.781  22.945  22.743  1.00  0.00    -0.269 OA
ATOM      6  H   UNL A   1      34.669  21.765  23.343  1.00  0.00     0.163 HD
BRANCH   4   7
ATOM      7  C   UNL A   1      32.112  23.217  24.972  1.00  0.00     0.046 A 
ATOM      8  C   UNL A   1      31.483  25.124  26.316  1.00  0.00     0.128 A 
ATOM      9  C   UNL A   1      32.299  24.553  25.349  1.00  0.00     0.060 A 
ATOM     10  N   UNL A   1      30.565  24.412  26.984  1.00  0.00    -0.219 NA
ATOM     11  C   UNL A   1      30.369  23.146  26.574  1.00  0.00     0.132 A 
ATOM     12  C   UNL A   1      31.069  22.518  25.560  1.00  0.00     0.055 A 
ATOM     13  Cl  UNL A   1      29.113  22.324  27.408  1.00  0.00    -0.062 Cl
BRANCH   8  14
ATOM     14  N   UNL A   1      31.511  26.500  26.573  1.00  0.00    -0.366 N 
ATOM     15  H   UNL A   1      31.337  26.840  27.481  1.00  0.00     0.162 HD
BRANCH  14  16
ATOM     16  C   UNL A   1      31.802  27.431  25.475  1.00  0.00     0.093 C 
ATOM     17  C   UNL A   1      31.085  29.764  24.692  1.00  0.00     0.014 C 
ATOM     18  C   UNL A   1      31.850  28.934  25.703  1.00  0.00    -0.008 C 
ATOM     19  C   UNL A   1      31.688  29.482  27.105  1.00  0.00     0.014 C 
ATOM     20  C   UNL A   1      33.121  28.145  25.309  1.00  0.00    -0.008 C 
ATOM     21  C   UNL A   1      33.666  28.223  23.898  1.00  0.00     0.014 C 
ATOM     22  C   UNL A   1      34.219  27.892  26.318  1.00  0.00     0.014 C 
ENDBRANCH  14  16
ENDBRANCH   8  14
ENDBRANCH   4   7
ENDBRANCH   2   3
ENDBRANCH   1   2
BRANCH   1  23
ATOM     23  C   UNL A   1      37.334  21.029  25.153  1.00  0.00     0.118 C 
BRANCH  23  24
ATOM     24  N   UNL A   1      38.285  19.984  25.513  1.00  0.00    -0.352 N 
ATOM     25  C   UNL A   1      39.583  20.081  25.949  1.00  0.00     0.251 C 
ATOM     26  H   UNL A   1      37.942  19.065  25.431  1.00  0.00     0.163 HD
ATOM     27  O   UNL A   1      40.292  19.079  25.947  1.00  0.00    -0.269 OA
BRANCH  25  28
ATOM     28  C   UNL A   1      40.124  21.379  26.408  1.00  0.00     0.039 A 
ATOM     29  C   UNL A   1      41.042  21.398  27.462  1.00  0.00     0.014 A 
ATOM     30  C   UNL A   1      39.704  22.576  25.825  1.00  0.00     0.014 A 
ATOM     31  C   UNL A   1      41.586  22.613  27.887  1.00  0.00     0.010 A 
ATOM     32  C   UNL A   1      40.300  23.778  26.201  1.00  0.00     0.010 A 
ATOM     33  C   UNL A   1      41.248  23.809  27.235  1.00  0.00    -0.014 A 
BRANCH  33  34
ATOM     34  C   UNL A   1      41.870  25.106  27.608  1.00  0.00     0.031 A 
ATOM     35  C   UNL A   1      41.050  26.163  28.295  1.00  0.00     0.074 A 
ATOM     36  C   UNL A   1      43.145  25.362  27.251  1.00  0.00     0.049 A 
ATOM     37  N   UNL A   1      41.359  27.403  28.574  1.00  0.00    -0.248 NA
ATOM     38  C   UNL A   1      39.685  25.780  28.692  1.00  0.00     0.031 C 
ATOM     39  C   UNL A   1      44.033  24.424  26.559  1.00  0.00     0.029 A 
ATOM     40  N   UNL A   1      43.911  26.492  27.398  1.00  0.00    -0.354 N 
ATOM     41  C   UNL A   1      40.224  27.956  29.158  1.00  0.00     0.074 A 
ATOM     42  C   UNL A   1      39.204  26.928  29.144  1.00  0.00     0.031 C 
ATOM     43  C   UNL A   1      45.222  25.013  26.355  1.00  0.00     0.029 A 
ATOM     44  C   UNL A   1      45.167  26.386  26.845  1.00  0.00     0.049 A 
ATOM     45  H   UNL A   1      43.592  27.303  27.857  1.00  0.00     0.167 HD
ATOM     46  C   UNL A   1      40.057  29.198  29.674  1.00  0.00     0.034 A 
ATOM     47  C   UNL A   1      46.151  27.299  26.720  1.00  0.00     0.034 A 
ATOM     48  C   UNL A   1      41.093  30.203  29.689  1.00  0.00     0.049 A 
ATOM     49  C   UNL A   1      45.930  28.688  27.265  1.00  0.00     0.074 A 
ATOM     50  C   UNL A   1      41.051  31.474  30.236  1.00  0.00     0.029 A 
ATOM     51  N   UNL A   1      42.353  30.057  29.122  1.00  0.00    -0.354 N 
ATOM     52  N   UNL A   1      44.864  29.183  27.854  1.00  0.00    -0.248 NA
ATOM     53  C   UNL A   1      47.040  29.640  27.135  1.00  0.00     0.031 C 
ATOM     54  C   UNL A   1      42.253  32.122  29.933  1.00  0.00     0.029 A 
ATOM     55  C   UNL A   1      43.082  31.226  29.275  1.00  0.00     0.049 A 
ATOM     56  H   UNL A   1      42.681  29.243  28.677  1.00  0.00     0.167 HD
ATOM     57  C   UNL A   1      45.193  30.491  28.197  1.00  0.00     0.074 A 
ATOM     58  C   UNL A   1      46.556  30.705  27.756  1.00  0.00     0.031 C 
ATOM     59  C   UNL A   1      44.441  31.427  28.828  1.00  0.00     0.034 A 
BRANCH  46  60
ATOM     60  C   UNL A   1      38.698  29.549  30.232  1.00  0.00     0.023 A 
ATOM     61  C   UNL A   1      37.743  30.249  29.472  1.00  0.00     0.031 A 
ATOM     62  C   UNL A   1      38.356  29.193  31.549  1.00  0.00     0.131 A 
ATOM     63  C   UNL A   1      36.527  30.633  30.057  1.00  0.00     0.055 A 
ATOM     64  C   UNL A   1      37.109  29.503  32.097  1.00  0.00     0.041 A 
ATOM     65  F   UNL A   1      39.232  28.544  32.331  1.00  0.00    -0.206 F 
ATOM     66  C   UNL A   1      36.192  30.241  31.356  1.00  0.00     0.022 A 
BRANCH  63  67
ATOM     67  S   UNL A   1      35.454  31.777  29.147  1.00  0.00     0.124 S 
ATOM     68  O   UNL A   1      36.428  32.704  28.576  1.00  0.00    -0.237 OA
ATOM     69  O   UNL A   1      34.780  30.894  28.203  1.00  0.00    -0.237 OA
ATOM     70  O   UNL A   1      34.599  32.347  30.188  1.00  0.00    -0.744 OA
ENDBRANCH  63  67
ENDBRANCH  46  60
BRANCH  47  71
ATOM     71  C   UNL A   1      47.428  26.944  26.031  1.00  0.00     0.023 A 
ATOM     72  C   UNL A   1      48.448  26.258  26.707  1.00  0.00     0.031 A 
ATOM     73  C   UNL A   1      47.663  27.326  24.698  1.00  0.00     0.131 A 
ATOM     74  C   UNL A   1      49.674  26.018  26.067  1.00  0.00     0.055 A 
ATOM     75  C   UNL A   1      48.862  27.033  24.046  1.00  0.00     0.041 A 
ATOM     76  F   UNL A   1      46.721  27.983  24.002  1.00  0.00    -0.206 F 
ATOM     77  C   UNL A   1      49.882  26.387  24.736  1.00  0.00     0.022 A 
BRANCH  74  78
ATOM     78  S   UNL A   1      51.032  25.303  27.034  1.00  0.00     0.124 S 
ATOM     79  O   UNL A   1      51.535  26.472  27.747  1.00  0.00    -0.237 OA
ATOM     80  O   UNL A   1      50.337  24.307  27.842  1.00  0.00    -0.237 OA
ATOM     81  O   UNL A   1      51.928  24.762  26.013  1.00  0.00    -0.744 OA
ENDBRANCH  74  78
ENDBRANCH  47  71
BRANCH  59  82
ATOM     82  C   UNL A   1      45.095  32.752  29.134  1.00  0.00     0.023 A 
ATOM     83  C   UNL A   1      45.016  33.845  28.254  1.00  0.00     0.031 A 
ATOM     84  C   UNL A   1      45.796  32.925  30.343  1.00  0.00     0.131 A 
ATOM     85  C   UNL A   1      45.660  35.049  28.576  1.00  0.00     0.055 A 
ATOM     86  C   UNL A   1      46.384  34.143  30.684  1.00  0.00     0.041 A 
ATOM     87  F   UNL A   1      45.908  31.913  31.218  1.00  0.00    -0.206 F 
ATOM     88  C   UNL A   1      46.326  35.210  29.794  1.00  0.00     0.022 A 
BRANCH  85  89
ATOM     89  S   UNL A   1      45.681  36.384  27.348  1.00  0.00     0.124 S 
ATOM     90  O   UNL A   1      45.792  35.643  26.096  1.00  0.00    -0.237 OA
ATOM     91  O   UNL A   1      44.403  37.048  27.585  1.00  0.00    -0.237 OA
ATOM     92  O   UNL A   1      46.862  37.167  27.712  1.00  0.00    -0.744 OA
ENDBRANCH  85  89
ENDBRANCH  59  82
ENDBRANCH  33  34
ENDBRANCH  25  28
ENDBRANCH  23  24
ENDBRANCH   1  23
TORSDOF 15
ENDMDL
