MODEL 1
REMARK VINA RESULT:     -13.1      0.000      0.000
REMARK SMILES CC(C)Cc1cc2c(cc1Cl)C=C(C(=O)NCCCNC(=O)c1ccc(-c3c4nc(c(-c5cc(S(=O)(=O)[O-])ccc5F)c5ccc([nH]5)c(-c5cc(S(=O)(=O)[O-])ccc5F)c5nc(c(-c6cc(S(=O)(=O)[O-])ccc6F)c6ccc3[nH]6)C=C5)C=C4)cc1)[C@H](C(F)(F)F)O2
REMARK SMILES IDX 18 1 17 2 16 3 14 4 15 5 13 7 5 8 6 9 10 10 7 11 9 12 11 13
REMARK SMILES IDX 8 14 91 15 12 16 86 17 4 18 2 19 1 20 3 21 87 22 88 23 89 24
REMARK SMILES IDX 90 25 19 26 20 27 21 28 22 30 23 31 24 32 85 33 25 34 84 35
REMARK SMILES IDX 26 36 27 37 28 38 78 39 29 40 83 41 77 42 79 43 30 44 82 45
REMARK SMILES IDX 76 46 75 47 31 49 63 50 43 51 62 52 44 53 47 54 61 55 80 56
REMARK SMILES IDX 45 57 46 58 60 60 81 61 48 62 32 63 33 64 41 65 34 66 40 67
REMARK SMILES IDX 42 68 39 69 35 70 36 71 37 72 38 73 64 74 65 75 73 76 66 77
REMARK SMILES IDX 72 78 74 79 71 80 67 81 68 82 69 83 70 84 49 85 50 86 58 87
REMARK SMILES IDX 51 88 57 89 59 90 56 91 52 92 53 93 54 94 55 95
REMARK H PARENT 16 6 20 29 79 48 47 59
REMARK Flexibility Score: inf
ROOT
ATOM      1  C   UNL A   1      31.286  30.443  25.417  1.00  0.00     0.042 C 
ENDROOT
BRANCH   1   2
ATOM      2  C   UNL A   1      31.868  29.103  24.990  1.00  0.00     0.118 C 
BRANCH   2   3
ATOM      3  N   UNL A   1      32.914  29.264  23.995  1.00  0.00    -0.352 N 
ATOM      4  C   UNL A   1      33.710  28.469  23.246  1.00  0.00     0.251 C 
ATOM      5  O   UNL A   1      34.465  29.070  22.475  1.00  0.00    -0.270 OA
ATOM      6  H   UNL A   1      33.091  30.216  23.815  1.00  0.00     0.163 HD
BRANCH   4   7
ATOM      7  C   UNL A   1      33.726  26.978  23.278  1.00  0.00     0.067 C 
ATOM      8  C   UNL A   1      34.305  22.194  24.790  1.00  0.00    -0.025 A 
ATOM      9  C   UNL A   1      34.218  22.828  23.540  1.00  0.00     0.052 A 
ATOM     10  C   UNL A   1      34.187  22.980  25.949  1.00  0.00     0.045 A 
ATOM     11  C   UNL A   1      34.053  24.208  23.457  1.00  0.00     0.128 A 
ATOM     12  C   UNL A   1      34.064  24.370  25.858  1.00  0.00     0.032 A 
ATOM     13  Cl  UNL A   1      34.216  22.295  27.535  1.00  0.00    -0.084 Cl
ATOM     14  C   UNL A   1      34.015  24.988  24.609  1.00  0.00     0.019 A 
ATOM     15  O   UNL A   1      33.992  24.744  22.204  1.00  0.00    -0.475 OA
ATOM     16  C   UNL A   1      33.991  26.438  24.483  1.00  0.00     0.025 C 
ATOM     17  C   UNL A   1      33.414  26.078  22.114  1.00  0.00     0.314 C 
BRANCH   8  18
ATOM     18  C   UNL A   1      34.594  20.709  24.814  1.00  0.00     0.040 C 
BRANCH  18  19
ATOM     19  C   UNL A   1      33.383  19.856  24.375  1.00  0.00    -0.013 C 
ATOM     20  C   UNL A   1      33.553  18.370  24.701  1.00  0.00     0.008 C 
ATOM     21  C   UNL A   1      32.110  20.381  25.039  1.00  0.00     0.008 C 
ENDBRANCH  18  19
ENDBRANCH   8  18
BRANCH  17  22
ATOM     22  C   UNL A   1      31.908  25.998  21.798  1.00  0.00     0.429 C 
ATOM     23  F   UNL A   1      31.250  27.136  22.120  1.00  0.00    -0.167 F 
ATOM     24  F   UNL A   1      31.720  25.796  20.470  1.00  0.00    -0.167 F 
ATOM     25  F   UNL A   1      31.291  24.987  22.450  1.00  0.00    -0.167 F 
ENDBRANCH  17  22
ENDBRANCH   4   7
ENDBRANCH   2   3
ENDBRANCH   1   2
BRANCH   1  26
ATOM     26  C   UNL A   1      31.818  30.902  26.768  1.00  0.00     0.118 C 
BRANCH  26  27
ATOM     27  N   UNL A   1      31.876  32.357  26.867  1.00  0.00    -0.352 N 
ATOM     28  C   UNL A   1      32.783  33.172  27.506  1.00  0.00     0.251 C 
ATOM     29  H   UNL A   1      31.149  32.832  26.401  1.00  0.00     0.163 HD
ATOM     30  O   UNL A   1      32.506  34.352  27.684  1.00  0.00    -0.269 OA
BRANCH  28  31
ATOM     31  C   UNL A   1      34.063  32.616  27.996  1.00  0.00     0.039 A 
ATOM     32  C   UNL A   1      34.152  31.280  28.381  1.00  0.00     0.014 A 
ATOM     33  C   UNL A   1      35.189  33.440  28.076  1.00  0.00     0.014 A 
ATOM     34  C   UNL A   1      35.282  30.829  29.047  1.00  0.00     0.010 A 
ATOM     35  C   UNL A   1      36.374  32.943  28.629  1.00  0.00     0.010 A 
ATOM     36  C   UNL A   1      36.413  31.650  29.173  1.00  0.00    -0.014 A 
BRANCH  36  37
ATOM     37  C   UNL A   1      37.620  31.122  29.863  1.00  0.00     0.031 A 
ATOM     38  C   UNL A   1      37.940  31.519  31.279  1.00  0.00     0.074 A 
ATOM     39  C   UNL A   1      38.401  30.232  29.220  1.00  0.00     0.049 A 
ATOM     40  N   UNL A   1      38.937  31.138  32.034  1.00  0.00    -0.248 NA
ATOM     41  C   UNL A   1      37.028  32.474  31.929  1.00  0.00     0.031 C 
ATOM     42  C   UNL A   1      38.182  29.772  27.849  1.00  0.00     0.029 A 
ATOM     43  N   UNL A   1      39.509  29.536  29.632  1.00  0.00    -0.354 N 
ATOM     44  C   UNL A   1      38.781  31.809  33.242  1.00  0.00     0.074 A 
ATOM     45  C   UNL A   1      37.626  32.667  33.096  1.00  0.00     0.031 C 
ATOM     46  C   UNL A   1      39.078  28.823  27.555  1.00  0.00     0.029 A 
ATOM     47  C   UNL A   1      39.999  28.672  28.679  1.00  0.00     0.049 A 
ATOM     48  H   UNL A   1      39.915  29.643  30.523  1.00  0.00     0.167 HD
ATOM     49  C   UNL A   1      39.519  31.701  34.374  1.00  0.00     0.034 A 
ATOM     50  C   UNL A   1      41.077  27.863  28.690  1.00  0.00     0.034 A 
ATOM     51  C   UNL A   1      40.667  30.836  34.496  1.00  0.00     0.049 A 
ATOM     52  C   UNL A   1      41.916  27.794  29.936  1.00  0.00     0.074 A 
ATOM     53  C   UNL A   1      41.484  30.651  35.598  1.00  0.00     0.029 A 
ATOM     54  N   UNL A   1      41.161  30.011  33.493  1.00  0.00    -0.354 N 
ATOM     55  N   UNL A   1      41.742  28.419  31.077  1.00  0.00    -0.248 NA
ATOM     56  C   UNL A   1      43.091  26.917  29.905  1.00  0.00     0.031 C 
ATOM     57  C   UNL A   1      42.508  29.773  35.239  1.00  0.00     0.029 A 
ATOM     58  C   UNL A   1      42.286  29.337  33.942  1.00  0.00     0.049 A 
ATOM     59  H   UNL A   1      40.770  29.919  32.595  1.00  0.00     0.167 HD
ATOM     60  C   UNL A   1      42.779  28.002  31.906  1.00  0.00     0.074 A 
ATOM     61  C   UNL A   1      43.558  27.048  31.141  1.00  0.00     0.031 C 
ATOM     62  C   UNL A   1      43.059  28.382  33.178  1.00  0.00     0.034 A 
BRANCH  49  63
ATOM     63  C   UNL A   1      39.115  32.525  35.576  1.00  0.00     0.023 A 
ATOM     64  C   UNL A   1      39.610  33.832  35.742  1.00  0.00     0.031 A 
ATOM     65  C   UNL A   1      38.319  31.987  36.605  1.00  0.00     0.131 A 
ATOM     66  C   UNL A   1      39.326  34.545  36.914  1.00  0.00     0.055 A 
ATOM     67  C   UNL A   1      37.995  32.719  37.747  1.00  0.00     0.041 A 
ATOM     68  F   UNL A   1      37.824  30.742  36.504  1.00  0.00    -0.206 F 
ATOM     69  C   UNL A   1      38.510  34.002  37.912  1.00  0.00     0.022 A 
BRANCH  66  70
ATOM     70  S   UNL A   1      40.055  36.177  37.226  1.00  0.00     0.124 S 
ATOM     71  O   UNL A   1      41.419  35.824  37.616  1.00  0.00    -0.237 OA
ATOM     72  O   UNL A   1      39.927  36.822  35.923  1.00  0.00    -0.237 OA
ATOM     73  O   UNL A   1      39.228  36.734  38.291  1.00  0.00    -0.744 OA
ENDBRANCH  66  70
ENDBRANCH  49  63
BRANCH  50  74
ATOM     74  C   UNL A   1      41.356  27.036  27.479  1.00  0.00     0.023 A 
ATOM     75  C   UNL A   1      41.058  25.659  27.469  1.00  0.00     0.031 A 
ATOM     76  C   UNL A   1      42.081  27.564  26.400  1.00  0.00     0.131 A 
ATOM     77  C   UNL A   1      41.581  24.842  26.461  1.00  0.00     0.055 A 
ATOM     78  C   UNL A   1      42.527  26.757  25.350  1.00  0.00     0.041 A 
ATOM     79  F   UNL A   1      42.399  28.867  26.370  1.00  0.00    -0.206 F 
ATOM     80  C   UNL A   1      42.300  25.384  25.392  1.00  0.00     0.022 A 
BRANCH  77  81
ATOM     81  S   UNL A   1      41.498  23.034  26.600  1.00  0.00     0.124 S 
ATOM     82  O   UNL A   1      40.068  22.781  26.455  1.00  0.00    -0.237 OA
ATOM     83  O   UNL A   1      42.331  22.614  25.475  1.00  0.00    -0.237 OA
ATOM     84  O   UNL A   1      42.056  22.762  27.920  1.00  0.00    -0.744 OA
ENDBRANCH  77  81
ENDBRANCH  50  74
BRANCH  62  85
ATOM     85  C   UNL A   1      44.265  27.781  33.863  1.00  0.00     0.023 A 
ATOM     86  C   UNL A   1      44.128  26.601  34.620  1.00  0.00     0.031 A 
ATOM     87  C   UNL A   1      45.497  28.456  33.906  1.00  0.00     0.131 A 
ATOM     88  C   UNL A   1      45.182  26.164  35.430  1.00  0.00     0.055 A 
ATOM     89  C   UNL A   1      46.566  27.984  34.670  1.00  0.00     0.041 A 
ATOM     90  F   UNL A   1      45.677  29.591  33.212  1.00  0.00    -0.206 F 
ATOM     91  C   UNL A   1      46.405  26.842  35.450  1.00  0.00     0.022 A 
BRANCH  88  92
ATOM     92  S   UNL A   1      44.974  24.763  36.563  1.00  0.00     0.124 S 
ATOM     93  O   UNL A   1      44.027  23.922  35.833  1.00  0.00    -0.237 OA
ATOM     94  O   UNL A   1      46.333  24.237  36.652  1.00  0.00    -0.237 OA
ATOM     95  O   UNL A   1      44.454  25.369  37.783  1.00  0.00    -0.744 OA
ENDBRANCH  88  92
ENDBRANCH  62  85
ENDBRANCH  36  37
ENDBRANCH  28  31
ENDBRANCH  26  27
ENDBRANCH   1  26
TORSDOF 16
ENDMDL
MODEL 2
REMARK VINA RESULT:     -12.8      1.379      1.591
REMARK SMILES CC(C)Cc1cc2c(cc1Cl)C=C(C(=O)NCCCNC(=O)c1ccc(-c3c4nc(c(-c5cc(S(=O)(=O)[O-])ccc5F)c5ccc([nH]5)c(-c5cc(S(=O)(=O)[O-])ccc5F)c5nc(c(-c6cc(S(=O)(=O)[O-])ccc6F)c6ccc3[nH]6)C=C5)C=C4)cc1)[C@H](C(F)(F)F)O2
REMARK SMILES IDX 18 1 17 2 16 3 14 4 15 5 13 7 5 8 6 9 10 10 7 11 9 12 11 13
REMARK SMILES IDX 8 14 91 15 12 16 86 17 4 18 2 19 1 20 3 21 87 22 88 23 89 24
REMARK SMILES IDX 90 25 19 26 20 27 21 28 22 30 23 31 24 32 85 33 25 34 84 35
REMARK SMILES IDX 26 36 27 37 28 38 78 39 29 40 83 41 77 42 79 43 30 44 82 45
REMARK SMILES IDX 76 46 75 47 31 49 63 50 43 51 62 52 44 53 47 54 61 55 80 56
REMARK SMILES IDX 45 57 46 58 60 60 81 61 48 62 32 63 33 64 41 65 34 66 40 67
REMARK SMILES IDX 42 68 39 69 35 70 36 71 37 72 38 73 64 74 65 75 73 76 66 77
REMARK SMILES IDX 72 78 74 79 71 80 67 81 68 82 69 83 70 84 49 85 50 86 58 87
REMARK SMILES IDX 51 88 57 89 59 90 56 91 52 92 53 93 54 94 55 95
REMARK H PARENT 16 6 20 29 79 48 47 59
REMARK Flexibility Score: inf
ROOT
ATOM      1  C   UNL A   1      31.040  30.330  25.617  1.00  0.00     0.042 C 
ENDROOT
BRANCH   1   2
ATOM      2  C   UNL A   1      31.382  29.119  24.760  1.00  0.00     0.118 C 
BRANCH   2   3
ATOM      3  N   UNL A   1      32.607  29.324  24.006  1.00  0.00    -0.352 N 
ATOM      4  C   UNL A   1      33.567  28.561  23.436  1.00  0.00     0.251 C 
ATOM      5  O   UNL A   1      34.447  29.194  22.844  1.00  0.00    -0.270 OA
ATOM      6  H   UNL A   1      32.788  30.282  23.873  1.00  0.00     0.163 HD
BRANCH   4   7
ATOM      7  C   UNL A   1      33.623  27.071  23.462  1.00  0.00     0.067 C 
ATOM      8  C   UNL A   1      34.352  22.299  24.945  1.00  0.00    -0.025 A 
ATOM      9  C   UNL A   1      34.228  22.935  23.700  1.00  0.00     0.052 A 
ATOM     10  C   UNL A   1      34.233  23.078  26.110  1.00  0.00     0.045 A 
ATOM     11  C   UNL A   1      34.026  24.310  23.625  1.00  0.00     0.128 A 
ATOM     12  C   UNL A   1      34.071  24.464  26.026  1.00  0.00     0.032 A 
ATOM     13  Cl  UNL A   1      34.306  22.388  27.692  1.00  0.00    -0.084 Cl
ATOM     14  C   UNL A   1      33.986  25.085  24.780  1.00  0.00     0.019 A 
ATOM     15  O   UNL A   1      33.930  24.849  22.375  1.00  0.00    -0.475 OA
ATOM     16  C   UNL A   1      33.921  26.534  24.660  1.00  0.00     0.025 C 
ATOM     17  C   UNL A   1      33.315  26.167  22.300  1.00  0.00     0.314 C 
BRANCH   8  18
ATOM     18  C   UNL A   1      34.681  20.822  24.959  1.00  0.00     0.040 C 
BRANCH  18  19
ATOM     19  C   UNL A   1      33.584  19.958  24.298  1.00  0.00    -0.013 C 
ATOM     20  C   UNL A   1      33.914  18.464  24.314  1.00  0.00     0.008 C 
ATOM     21  C   UNL A   1      32.246  20.191  25.003  1.00  0.00     0.008 C 
ENDBRANCH  18  19
ENDBRANCH   8  18
BRANCH  17  22
ATOM     22  C   UNL A   1      31.807  26.048  22.008  1.00  0.00     0.429 C 
ATOM     23  F   UNL A   1      31.418  24.769  21.802  1.00  0.00    -0.167 F 
ATOM     24  F   UNL A   1      31.090  26.513  23.062  1.00  0.00    -0.167 F 
ATOM     25  F   UNL A   1      31.428  26.756  20.921  1.00  0.00    -0.167 F 
ENDBRANCH  17  22
ENDBRANCH   4   7
ENDBRANCH   2   3
ENDBRANCH   1   2
BRANCH   1  26
ATOM     26  C   UNL A   1      32.192  30.743  26.522  1.00  0.00     0.118 C 
BRANCH  26  27
ATOM     27  N   UNL A   1      32.178  32.176  26.805  1.00  0.00    -0.352 N 
ATOM     28  C   UNL A   1      33.017  32.938  27.586  1.00  0.00     0.251 C 
ATOM     29  H   UNL A   1      31.452  32.676  26.368  1.00  0.00     0.163 HD
ATOM     30  O   UNL A   1      32.679  34.073  27.897  1.00  0.00    -0.269 OA
BRANCH  28  31
ATOM     31  C   UNL A   1      34.299  32.376  28.066  1.00  0.00     0.039 A 
ATOM     32  C   UNL A   1      34.397  31.028  28.405  1.00  0.00     0.014 A 
ATOM     33  C   UNL A   1      35.418  33.206  28.182  1.00  0.00     0.014 A 
ATOM     34  C   UNL A   1      35.527  30.564  29.062  1.00  0.00     0.010 A 
ATOM     35  C   UNL A   1      36.603  32.701  28.725  1.00  0.00     0.010 A 
ATOM     36  C   UNL A   1      36.649  31.390  29.224  1.00  0.00    -0.014 A 
BRANCH  36  37
ATOM     37  C   UNL A   1      37.857  30.850  29.904  1.00  0.00     0.031 A 
ATOM     38  C   UNL A   1      38.188  31.236  31.320  1.00  0.00     0.074 A 
ATOM     39  C   UNL A   1      38.627  29.957  29.252  1.00  0.00     0.049 A 
ATOM     40  N   UNL A   1      39.187  30.842  32.067  1.00  0.00    -0.248 NA
ATOM     41  C   UNL A   1      37.288  32.194  31.981  1.00  0.00     0.031 C 
ATOM     42  C   UNL A   1      38.396  29.506  27.879  1.00  0.00     0.029 A 
ATOM     43  N   UNL A   1      39.732  29.250  29.652  1.00  0.00    -0.354 N 
ATOM     44  C   UNL A   1      39.043  31.508  33.280  1.00  0.00     0.074 A 
ATOM     45  C   UNL A   1      37.894  32.376  33.146  1.00  0.00     0.031 C 
ATOM     46  C   UNL A   1      39.283  28.553  27.575  1.00  0.00     0.029 A 
ATOM     47  C   UNL A   1      40.209  28.388  28.692  1.00  0.00     0.049 A 
ATOM     48  H   UNL A   1      40.144  29.349  30.542  1.00  0.00     0.167 HD
ATOM     49  C   UNL A   1      39.787  31.388  34.407  1.00  0.00     0.034 A 
ATOM     50  C   UNL A   1      41.281  27.570  28.691  1.00  0.00     0.034 A 
ATOM     51  C   UNL A   1      40.929  30.514  34.517  1.00  0.00     0.049 A 
ATOM     52  C   UNL A   1      42.127  27.488  29.932  1.00  0.00     0.074 A 
ATOM     53  C   UNL A   1      41.751  30.316  35.613  1.00  0.00     0.029 A 
ATOM     54  N   UNL A   1      41.411  29.691  33.506  1.00  0.00    -0.354 N 
ATOM     55  N   UNL A   1      41.965  28.108  31.078  1.00  0.00    -0.248 NA
ATOM     56  C   UNL A   1      43.295  26.602  29.889  1.00  0.00     0.031 C 
ATOM     57  C   UNL A   1      42.766  29.432  35.243  1.00  0.00     0.029 A 
ATOM     58  C   UNL A   1      42.533  29.005  33.945  1.00  0.00     0.049 A 
ATOM     59  H   UNL A   1      41.013  29.607  32.610  1.00  0.00     0.167 HD
ATOM     60  C   UNL A   1      43.003  27.678  31.898  1.00  0.00     0.074 A 
ATOM     61  C   UNL A   1      43.770  26.722  31.123  1.00  0.00     0.031 C 
ATOM     62  C   UNL A   1      43.294  28.048  33.171  1.00  0.00     0.034 A 
BRANCH  49  63
ATOM     63  C   UNL A   1      39.397  32.208  35.616  1.00  0.00     0.023 A 
ATOM     64  C   UNL A   1      38.617  31.639  36.640  1.00  0.00     0.031 A 
ATOM     65  C   UNL A   1      39.715  33.577  35.712  1.00  0.00     0.131 A 
ATOM     66  C   UNL A   1      38.163  32.437  37.699  1.00  0.00     0.055 A 
ATOM     67  C   UNL A   1      39.304  34.355  36.795  1.00  0.00     0.041 A 
ATOM     68  F   UNL A   1      40.451  34.174  34.761  1.00  0.00    -0.206 F 
ATOM     69  C   UNL A   1      38.514  33.788  37.790  1.00  0.00     0.022 A 
BRANCH  66  70
ATOM     70  S   UNL A   1      37.044  31.776  38.965  1.00  0.00     0.124 S 
ATOM     71  O   UNL A   1      37.854  31.903  40.175  1.00  0.00    -0.237 OA
ATOM     72  O   UNL A   1      35.909  32.691  38.877  1.00  0.00    -0.237 OA
ATOM     73  O   UNL A   1      36.788  30.408  38.528  1.00  0.00    -0.744 OA
ENDBRANCH  66  70
ENDBRANCH  49  63
BRANCH  50  74
ATOM     74  C   UNL A   1      41.546  26.748  27.474  1.00  0.00     0.023 A 
ATOM     75  C   UNL A   1      41.203  25.382  27.445  1.00  0.00     0.031 A 
ATOM     76  C   UNL A   1      42.301  27.263  26.410  1.00  0.00     0.131 A 
ATOM     77  C   UNL A   1      41.710  24.559  26.434  1.00  0.00     0.055 A 
ATOM     78  C   UNL A   1      42.732  26.454  25.356  1.00  0.00     0.041 A 
ATOM     79  F   UNL A   1      42.663  28.555  26.398  1.00  0.00    -0.206 F 
ATOM     80  C   UNL A   1      42.459  25.089  25.379  1.00  0.00     0.022 A 
BRANCH  77  81
ATOM     81  S   UNL A   1      41.565  22.754  26.551  1.00  0.00     0.124 S 
ATOM     82  O   UNL A   1      40.119  22.561  26.539  1.00  0.00    -0.237 OA
ATOM     83  O   UNL A   1      42.269  22.323  25.345  1.00  0.00    -0.237 OA
ATOM     84  O   UNL A   1      42.234  22.433  27.807  1.00  0.00    -0.744 OA
ENDBRANCH  77  81
ENDBRANCH  50  74
BRANCH  62  85
ATOM     85  C   UNL A   1      44.500  27.435  33.845  1.00  0.00     0.023 A 
ATOM     86  C   UNL A   1      44.361  26.240  34.578  1.00  0.00     0.031 A 
ATOM     87  C   UNL A   1      45.731  28.109  33.902  1.00  0.00     0.131 A 
ATOM     88  C   UNL A   1      45.416  25.787  35.381  1.00  0.00     0.055 A 
ATOM     89  C   UNL A   1      46.799  27.622  34.658  1.00  0.00     0.041 A 
ATOM     90  F   UNL A   1      45.912  29.257  33.230  1.00  0.00    -0.206 F 
ATOM     91  C   UNL A   1      46.638  26.465  35.416  1.00  0.00     0.022 A 
BRANCH  88  92
ATOM     92  S   UNL A   1      45.206  24.364  36.486  1.00  0.00     0.124 S 
ATOM     93  O   UNL A   1      43.828  23.965  36.208  1.00  0.00    -0.237 OA
ATOM     94  O   UNL A   1      46.231  23.446  35.999  1.00  0.00    -0.237 OA
ATOM     95  O   UNL A   1      45.437  24.914  37.817  1.00  0.00    -0.744 OA
ENDBRANCH  88  92
ENDBRANCH  62  85
ENDBRANCH  36  37
ENDBRANCH  28  31
ENDBRANCH  26  27
ENDBRANCH   1  26
TORSDOF 16
ENDMDL
MODEL 3
REMARK VINA RESULT:     -12.6      2.246      2.723
REMARK SMILES CC(C)Cc1cc2c(cc1Cl)C=C(C(=O)NCCCNC(=O)c1ccc(-c3c4nc(c(-c5cc(S(=O)(=O)[O-])ccc5F)c5ccc([nH]5)c(-c5cc(S(=O)(=O)[O-])ccc5F)c5nc(c(-c6cc(S(=O)(=O)[O-])ccc6F)c6ccc3[nH]6)C=C5)C=C4)cc1)[C@H](C(F)(F)F)O2
REMARK SMILES IDX 18 1 17 2 16 3 14 4 15 5 13 7 5 8 6 9 10 10 7 11 9 12 11 13
REMARK SMILES IDX 8 14 91 15 12 16 86 17 4 18 2 19 1 20 3 21 87 22 88 23 89 24
REMARK SMILES IDX 90 25 19 26 20 27 21 28 22 30 23 31 24 32 85 33 25 34 84 35
REMARK SMILES IDX 26 36 27 37 28 38 78 39 29 40 83 41 77 42 79 43 30 44 82 45
REMARK SMILES IDX 76 46 75 47 31 49 63 50 43 51 62 52 44 53 47 54 61 55 80 56
REMARK SMILES IDX 45 57 46 58 60 60 81 61 48 62 32 63 33 64 41 65 34 66 40 67
REMARK SMILES IDX 42 68 39 69 35 70 36 71 37 72 38 73 64 74 65 75 73 76 66 77
REMARK SMILES IDX 72 78 74 79 71 80 67 81 68 82 69 83 70 84 49 85 50 86 58 87
REMARK SMILES IDX 51 88 57 89 59 90 56 91 52 92 53 93 54 94 55 95
REMARK H PARENT 16 6 20 29 79 48 47 59
REMARK Flexibility Score: inf
ROOT
ATOM      1  C   UNL A   1      31.983  31.236  26.693  1.00  0.00     0.042 C 
ENDROOT
BRANCH   1   2
ATOM      2  C   UNL A   1      32.270  29.781  26.353  1.00  0.00     0.118 C 
BRANCH   2   3
ATOM      3  N   UNL A   1      33.017  29.657  25.112  1.00  0.00    -0.352 N 
ATOM      4  C   UNL A   1      33.285  28.695  24.201  1.00  0.00     0.251 C 
ATOM      5  O   UNL A   1      33.970  29.067  23.242  1.00  0.00    -0.270 OA
ATOM      6  H   UNL A   1      33.444  30.509  24.866  1.00  0.00     0.163 HD
BRANCH   4   7
ATOM      7  C   UNL A   1      32.818  27.280  24.268  1.00  0.00     0.067 C 
ATOM      8  C   UNL A   1      32.535  22.339  25.272  1.00  0.00    -0.025 A 
ATOM      9  C   UNL A   1      31.950  23.185  24.316  1.00  0.00     0.052 A 
ATOM     10  C   UNL A   1      33.389  22.905  26.234  1.00  0.00     0.045 A 
ATOM     11  C   UNL A   1      32.241  24.546  24.304  1.00  0.00     0.128 A 
ATOM     12  C   UNL A   1      33.709  24.266  26.190  1.00  0.00     0.032 A 
ATOM     13  Cl  UNL A   1      34.110  21.968  27.493  1.00  0.00    -0.084 Cl
ATOM     14  C   UNL A   1      33.148  25.086  25.211  1.00  0.00     0.019 A 
ATOM     15  O   UNL A   1      31.640  25.292  23.332  1.00  0.00    -0.475 OA
ATOM     16  C   UNL A   1      33.539  26.481  25.077  1.00  0.00     0.025 C 
ATOM     17  C   UNL A   1      31.605  26.729  23.569  1.00  0.00     0.314 C 
BRANCH   8  18
ATOM     18  C   UNL A   1      32.267  20.854  25.165  1.00  0.00     0.040 C 
BRANCH  18  19
ATOM     19  C   UNL A   1      33.130  20.165  24.083  1.00  0.00    -0.013 C 
ATOM     20  C   UNL A   1      33.916  18.967  24.622  1.00  0.00     0.008 C 
ATOM     21  C   UNL A   1      32.241  19.711  22.924  1.00  0.00     0.008 C 
ENDBRANCH  18  19
ENDBRANCH   8  18
BRANCH  17  22
ATOM     22  C   UNL A   1      30.281  27.137  24.243  1.00  0.00     0.429 C 
ATOM     23  F   UNL A   1      29.253  26.328  23.897  1.00  0.00    -0.167 F 
ATOM     24  F   UNL A   1      30.403  27.066  25.592  1.00  0.00    -0.167 F 
ATOM     25  F   UNL A   1      29.909  28.400  23.939  1.00  0.00    -0.167 F 
ENDBRANCH  17  22
ENDBRANCH   4   7
ENDBRANCH   2   3
ENDBRANCH   1   2
BRANCH   1  26
ATOM     26  C   UNL A   1      33.204  31.952  27.253  1.00  0.00     0.118 C 
BRANCH  26  27
ATOM     27  N   UNL A   1      32.923  33.351  27.564  1.00  0.00    -0.352 N 
ATOM     28  C   UNL A   1      33.393  34.150  28.581  1.00  0.00     0.251 C 
ATOM     29  H   UNL A   1      32.296  33.793  26.946  1.00  0.00     0.163 HD
ATOM     30  O   UNL A   1      32.835  35.215  28.812  1.00  0.00    -0.269 OA
BRANCH  28  31
ATOM     31  C   UNL A   1      34.542  33.708  29.401  1.00  0.00     0.039 A 
ATOM     32  C   UNL A   1      35.828  34.165  29.119  1.00  0.00     0.014 A 
ATOM     33  C   UNL A   1      34.336  32.823  30.463  1.00  0.00     0.014 A 
ATOM     34  C   UNL A   1      36.920  33.576  29.740  1.00  0.00     0.010 A 
ATOM     35  C   UNL A   1      35.431  32.330  31.178  1.00  0.00     0.010 A 
ATOM     36  C   UNL A   1      36.738  32.657  30.784  1.00  0.00    -0.014 A 
BRANCH  36  37
ATOM     37  C   UNL A   1      37.931  32.070  31.452  1.00  0.00     0.031 A 
ATOM     38  C   UNL A   1      38.345  32.510  32.829  1.00  0.00     0.074 A 
ATOM     39  C   UNL A   1      38.609  31.088  30.826  1.00  0.00     0.049 A 
ATOM     40  N   UNL A   1      39.343  32.088  33.562  1.00  0.00    -0.248 NA
ATOM     41  C   UNL A   1      37.542  33.567  33.464  1.00  0.00     0.031 C 
ATOM     42  C   UNL A   1      38.292  30.578  29.492  1.00  0.00     0.029 A 
ATOM     43  N   UNL A   1      39.677  30.326  31.228  1.00  0.00    -0.354 N 
ATOM     44  C   UNL A   1      39.295  32.831  34.737  1.00  0.00     0.074 A 
ATOM     45  C   UNL A   1      38.206  33.771  34.593  1.00  0.00     0.031 C 
ATOM     46  C   UNL A   1      39.096  29.547  29.213  1.00  0.00     0.029 A 
ATOM     47  C   UNL A   1      40.053  29.378  30.303  1.00  0.00     0.049 A 
ATOM     48  H   UNL A   1      40.130  30.445  32.094  1.00  0.00     0.167 HD
ATOM     49  C   UNL A   1      40.074  32.721  35.842  1.00  0.00     0.034 A 
ATOM     50  C   UNL A   1      41.063  28.486  30.313  1.00  0.00     0.034 A 
ATOM     51  C   UNL A   1      41.155  31.773  35.962  1.00  0.00     0.049 A 
ATOM     52  C   UNL A   1      41.951  28.414  31.525  1.00  0.00     0.074 A 
ATOM     53  C   UNL A   1      42.004  31.578  37.037  1.00  0.00     0.029 A 
ATOM     54  N   UNL A   1      41.536  30.861  34.985  1.00  0.00    -0.354 N 
ATOM     55  N   UNL A   1      41.879  29.107  32.637  1.00  0.00    -0.248 NA
ATOM     56  C   UNL A   1      43.051  27.444  31.493  1.00  0.00     0.031 C 
ATOM     57  C   UNL A   1      42.939  30.604  36.684  1.00  0.00     0.029 A 
ATOM     58  C   UNL A   1      42.624  30.122  35.423  1.00  0.00     0.049 A 
ATOM     59  H   UNL A   1      41.098  30.756  34.111  1.00  0.00     0.167 HD
ATOM     60  C   UNL A   1      42.917  28.650  33.443  1.00  0.00     0.074 A 
ATOM     61  C   UNL A   1      43.582  27.599  32.699  1.00  0.00     0.031 C 
ATOM     62  C   UNL A   1      43.284  29.070  34.681  1.00  0.00     0.034 A 
BRANCH  49  63
ATOM     63  C   UNL A   1      39.792  33.634  37.013  1.00  0.00     0.023 A 
ATOM     64  C   UNL A   1      39.118  33.147  38.149  1.00  0.00     0.031 A 
ATOM     65  C   UNL A   1      40.103  35.007  36.969  1.00  0.00     0.131 A 
ATOM     66  C   UNL A   1      38.758  34.027  39.179  1.00  0.00     0.055 A 
ATOM     67  C   UNL A   1      39.788  35.868  38.021  1.00  0.00     0.041 A 
ATOM     68  F   UNL A   1      40.740  35.528  35.908  1.00  0.00    -0.206 F 
ATOM     69  C   UNL A   1      39.101  35.381  39.128  1.00  0.00     0.022 A 
BRANCH  66  70
ATOM     70  S   UNL A   1      37.770  33.466  40.595  1.00  0.00     0.124 S 
ATOM     71  O   UNL A   1      38.602  32.391  41.132  1.00  0.00    -0.237 OA
ATOM     72  O   UNL A   1      37.703  34.672  41.416  1.00  0.00    -0.237 OA
ATOM     73  O   UNL A   1      36.510  33.039  39.996  1.00  0.00    -0.744 OA
ENDBRANCH  66  70
ENDBRANCH  49  63
BRANCH  50  74
ATOM     74  C   UNL A   1      41.221  27.580  29.138  1.00  0.00     0.023 A 
ATOM     75  C   UNL A   1      42.241  27.804  28.194  1.00  0.00     0.031 A 
ATOM     76  C   UNL A   1      40.255  26.604  28.849  1.00  0.00     0.131 A 
ATOM     77  C   UNL A   1      42.206  27.143  26.961  1.00  0.00     0.055 A 
ATOM     78  C   UNL A   1      40.274  25.884  27.652  1.00  0.00     0.041 A 
ATOM     79  F   UNL A   1      39.256  26.363  29.711  1.00  0.00    -0.206 F 
ATOM     80  C   UNL A   1      41.238  26.172  26.689  1.00  0.00     0.022 A 
BRANCH  77  81
ATOM     81  S   UNL A   1      43.304  27.651  25.607  1.00  0.00     0.124 S 
ATOM     82  O   UNL A   1      42.353  28.025  24.565  1.00  0.00    -0.237 OA
ATOM     83  O   UNL A   1      44.035  28.757  26.221  1.00  0.00    -0.237 OA
ATOM     84  O   UNL A   1      44.097  26.456  25.338  1.00  0.00    -0.744 OA
ENDBRANCH  77  81
ENDBRANCH  50  74
BRANCH  62  85
ATOM     85  C   UNL A   1      44.469  28.409  35.346  1.00  0.00     0.023 A 
ATOM     86  C   UNL A   1      44.262  27.416  36.323  1.00  0.00     0.031 A 
ATOM     87  C   UNL A   1      45.779  28.873  35.140  1.00  0.00     0.131 A 
ATOM     88  C   UNL A   1      45.338  26.960  37.095  1.00  0.00     0.055 A 
ATOM     89  C   UNL A   1      46.858  28.373  35.872  1.00  0.00     0.041 A 
ATOM     90  F   UNL A   1      46.030  29.826  34.228  1.00  0.00    -0.206 F 
ATOM     91  C   UNL A   1      46.637  27.425  36.867  1.00  0.00     0.022 A 
BRANCH  88  92
ATOM     92  S   UNL A   1      45.077  25.828  38.488  1.00  0.00     0.124 S 
ATOM     93  O   UNL A   1      44.440  24.686  37.835  1.00  0.00    -0.237 OA
ATOM     94  O   UNL A   1      46.441  25.598  38.954  1.00  0.00    -0.237 OA
ATOM     95  O   UNL A   1      44.221  26.580  39.398  1.00  0.00    -0.744 OA
ENDBRANCH  88  92
ENDBRANCH  62  85
ENDBRANCH  36  37
ENDBRANCH  28  31
ENDBRANCH  26  27
ENDBRANCH   1  26
TORSDOF 16
ENDMDL
