MODEL 1
REMARK VINA RESULT:     -14.3      0.000      0.000
REMARK SMILES Cc1ccc(-c2cc(C(=O)NCCCNC(=O)c3ccc(-c4c5nc(c(-c6cc(S(=O)(=O)[O-])ccc6F)c6ccc([nH]6)c(-c6cc(S(=O)(=O)[O-])ccc6F)c6nc(c(-c7cc(S(=O)(=O)[O-])ccc7F)c7ccc4[nH]7)C=C6)C=C5)cc3)c3c(-c4cccc([N+](=O)[O-])c4)[nH]nc3n2)cc1
REMARK SMILES IDX 13 1 12 2 11 3 9 4 10 5 8 7 6 8 7 9 95 10 94 11 81 12 93 13
REMARK SMILES IDX 82 14 92 15 5 17 1 18 2 19 3 20 97 21 4 22 96 23 83 24 84 25
REMARK SMILES IDX 91 26 85 27 87 28 86 29 88 30 89 31 90 32 14 33 15 34 16 35
REMARK SMILES IDX 17 37 18 38 19 39 80 40 20 41 79 42 21 43 22 44 23 45 73 46
REMARK SMILES IDX 24 47 78 48 72 49 74 50 25 51 77 52 71 53 70 54 26 56 58 57
REMARK SMILES IDX 38 58 57 59 39 60 42 61 56 62 75 63 40 64 41 65 55 67 76 68
REMARK SMILES IDX 43 69 27 70 28 71 36 72 29 73 35 74 37 75 34 76 30 77 31 78
REMARK SMILES IDX 32 79 33 80 59 81 60 82 68 83 61 84 67 85 69 86 66 87 62 88
REMARK SMILES IDX 63 89 64 90 65 91 44 92 45 93 53 94 46 95 52 96 54 97 51 98
REMARK SMILES IDX 47 99 48 100 49 101 50 102
REMARK H PARENT 11 6 92 16 15 36 74 55 42 66
REMARK Flexibility Score: inf
ROOT
ATOM      1  C   UNL A   1      33.635  29.354  26.094  1.00  0.00     0.042 C 
ENDROOT
BRANCH   1   2
ATOM      2  C   UNL A   1      33.680  27.885  25.719  1.00  0.00     0.118 C 
BRANCH   2   3
ATOM      3  N   UNL A   1      32.640  27.061  26.340  1.00  0.00    -0.352 N 
ATOM      4  C   UNL A   1      32.280  25.743  26.127  1.00  0.00     0.252 C 
ATOM      5  O   UNL A   1      31.339  25.239  26.727  1.00  0.00    -0.269 OA
ATOM      6  H   UNL A   1      32.105  27.525  27.024  1.00  0.00     0.163 HD
BRANCH   4   7
ATOM      7  C   UNL A   1      33.058  24.925  25.184  1.00  0.00     0.055 A 
ATOM      8  C   UNL A   1      35.059  23.529  24.811  1.00  0.00     0.074 A 
ATOM      9  C   UNL A   1      34.067  24.078  25.654  1.00  0.00     0.043 A 
ATOM     10  N   UNL A   1      35.023  23.542  23.447  1.00  0.00    -0.226 NA
ATOM     11  C   UNL A   1      33.926  24.173  22.951  1.00  0.00     0.182 A 
ATOM     12  C   UNL A   1      32.985  24.866  23.790  1.00  0.00     0.059 A 
ATOM     13  N   UNL A   1      33.604  24.272  21.660  1.00  0.00    -0.154 NA
ATOM     14  C   UNL A   1      32.066  25.419  22.919  1.00  0.00     0.076 A 
ATOM     15  N   UNL A   1      32.473  24.998  21.675  1.00  0.00    -0.275 N 
ATOM     16  H   UNL A   1      31.973  25.214  20.854  1.00  0.00     0.190 HD
BRANCH   8  17
ATOM     17  C   UNL A   1      36.346  23.142  25.439  1.00  0.00     0.000 A 
ATOM     18  C   UNL A   1      40.450  22.235  26.501  1.00  0.00     0.044 C 
ATOM     19  C   UNL A   1      39.016  22.535  26.184  1.00  0.00    -0.051 A 
ATOM     20  C   UNL A   1      38.218  21.576  25.552  1.00  0.00     0.004 A 
ATOM     21  C   UNL A   1      38.462  23.781  26.484  1.00  0.00     0.004 A 
ATOM     22  C   UNL A   1      36.901  21.876  25.187  1.00  0.00     0.010 A 
ATOM     23  C   UNL A   1      37.144  24.076  26.125  1.00  0.00     0.010 A 
ENDBRANCH   8  17
BRANCH  14  24
ATOM     24  C   UNL A   1      30.859  26.214  23.081  1.00  0.00     0.007 A 
ATOM     25  C   UNL A   1      29.715  25.649  23.665  1.00  0.00     0.011 A 
ATOM     26  C   UNL A   1      30.842  27.552  22.680  1.00  0.00     0.096 A 
ATOM     27  C   UNL A   1      28.570  26.422  23.876  1.00  0.00     0.008 A 
ATOM     28  C   UNL A   1      29.690  28.322  22.897  1.00  0.00     0.270 A 
ATOM     29  C   UNL A   1      28.554  27.763  23.495  1.00  0.00     0.085 A 
BRANCH  28  30
ATOM     30  N   UNL A   1      29.669  29.725  22.468  1.00  0.00     0.062 N 
ATOM     31  O   UNL A   1      29.519  30.592  23.341  1.00  0.00    -0.258 OA
ATOM     32  O   UNL A   1      29.740  29.956  21.251  1.00  0.00    -0.258 OA
ENDBRANCH  28  30
ENDBRANCH  14  24
ENDBRANCH   4   7
ENDBRANCH   2   3
ENDBRANCH   1   2
BRANCH   1  33
ATOM     33  C   UNL A   1      33.479  29.594  27.585  1.00  0.00     0.118 C 
BRANCH  33  34
ATOM     34  N   UNL A   1      34.139  30.828  28.034  1.00  0.00    -0.352 N 
ATOM     35  C   UNL A   1      35.478  31.042  28.337  1.00  0.00     0.251 C 
ATOM     36  H   UNL A   1      33.551  31.611  28.134  1.00  0.00     0.163 HD
ATOM     37  O   UNL A   1      35.927  32.127  28.630  1.00  0.00    -0.269 OA
BRANCH  35  38
ATOM     38  C   UNL A   1      36.379  29.877  28.188  1.00  0.00     0.039 A 
ATOM     39  C   UNL A   1      36.665  29.164  29.355  1.00  0.00     0.014 A 
ATOM     40  C   UNL A   1      37.203  29.815  27.068  1.00  0.00     0.014 A 
ATOM     41  C   UNL A   1      37.928  28.604  29.502  1.00  0.00     0.010 A 
ATOM     42  C   UNL A   1      38.487  29.327  27.249  1.00  0.00     0.010 A 
ATOM     43  C   UNL A   1      38.874  28.808  28.496  1.00  0.00    -0.014 A 
BRANCH  43  44
ATOM     44  C   UNL A   1      40.309  28.666  28.740  1.00  0.00     0.031 A 
ATOM     45  C   UNL A   1      41.051  27.522  28.180  1.00  0.00     0.074 A 
ATOM     46  C   UNL A   1      40.988  29.578  29.475  1.00  0.00     0.049 A 
ATOM     47  N   UNL A   1      42.128  27.029  28.696  1.00  0.00    -0.248 NA
ATOM     48  C   UNL A   1      40.598  26.807  26.997  1.00  0.00     0.031 C 
ATOM     49  C   UNL A   1      42.436  29.674  29.645  1.00  0.00     0.029 A 
ATOM     50  N   UNL A   1      40.469  30.434  30.447  1.00  0.00    -0.354 N 
ATOM     51  C   UNL A   1      42.665  26.157  27.781  1.00  0.00     0.074 A 
ATOM     52  C   UNL A   1      41.644  26.009  26.769  1.00  0.00     0.031 C 
ATOM     53  C   UNL A   1      42.694  30.268  30.819  1.00  0.00     0.029 A 
ATOM     54  C   UNL A   1      41.426  30.484  31.486  1.00  0.00     0.049 A 
ATOM     55  H   UNL A   1      39.607  30.910  30.415  1.00  0.00     0.167 HD
ATOM     56  C   UNL A   1      43.961  25.752  27.908  1.00  0.00     0.034 A 
ATOM     57  C   UNL A   1      41.104  30.101  32.756  1.00  0.00     0.034 A 
ATOM     58  C   UNL A   1      44.588  26.257  29.132  1.00  0.00     0.049 A 
ATOM     59  C   UNL A   1      41.902  28.914  33.262  1.00  0.00     0.074 A 
ATOM     60  C   UNL A   1      45.516  27.243  29.426  1.00  0.00     0.029 A 
ATOM     61  N   UNL A   1      44.061  25.867  30.353  1.00  0.00    -0.354 N 
ATOM     62  N   UNL A   1      42.877  28.336  32.612  1.00  0.00    -0.248 NA
ATOM     63  C   UNL A   1      41.583  28.219  34.510  1.00  0.00     0.031 C 
ATOM     64  C   UNL A   1      45.527  27.442  30.840  1.00  0.00     0.029 A 
ATOM     65  C   UNL A   1      44.621  26.564  31.407  1.00  0.00     0.049 A 
ATOM     66  H   UNL A   1      43.369  25.175  30.457  1.00  0.00     0.167 HD
ATOM     67  C   UNL A   1      43.237  27.179  33.262  1.00  0.00     0.074 A 
ATOM     68  C   UNL A   1      42.403  27.157  34.450  1.00  0.00     0.031 C 
ATOM     69  C   UNL A   1      44.140  26.286  32.752  1.00  0.00     0.034 A 
BRANCH  56  70
ATOM     70  C   UNL A   1      44.719  25.102  26.774  1.00  0.00     0.023 A 
ATOM     71  C   UNL A   1      44.487  23.748  26.461  1.00  0.00     0.031 A 
ATOM     72  C   UNL A   1      45.709  25.739  26.000  1.00  0.00     0.131 A 
ATOM     73  C   UNL A   1      45.291  23.066  25.529  1.00  0.00     0.055 A 
ATOM     74  C   UNL A   1      46.569  25.044  25.141  1.00  0.00     0.041 A 
ATOM     75  F   UNL A   1      45.848  27.072  26.000  1.00  0.00    -0.206 F 
ATOM     76  C   UNL A   1      46.373  23.692  24.913  1.00  0.00     0.022 A 
BRANCH  73  77
ATOM     77  S   UNL A   1      44.889  21.351  25.100  1.00  0.00     0.124 S 
ATOM     78  O   UNL A   1      46.140  20.655  25.377  1.00  0.00    -0.237 OA
ATOM     79  O   UNL A   1      43.776  21.065  26.000  1.00  0.00    -0.237 OA
ATOM     80  O   UNL A   1      44.528  21.431  23.685  1.00  0.00    -0.744 OA
ENDBRANCH  73  77
ENDBRANCH  56  70
BRANCH  57  81
ATOM     81  C   UNL A   1      39.689  30.445  33.100  1.00  0.00     0.023 A 
ATOM     82  C   UNL A   1      39.396  31.819  33.255  1.00  0.00     0.031 A 
ATOM     83  C   UNL A   1      38.620  29.573  32.864  1.00  0.00     0.131 A 
ATOM     84  C   UNL A   1      38.116  32.306  32.959  1.00  0.00     0.055 A 
ATOM     85  C   UNL A   1      37.318  30.057  32.678  1.00  0.00     0.041 A 
ATOM     86  F   UNL A   1      38.829  28.264  32.667  1.00  0.00    -0.206 F 
ATOM     87  C   UNL A   1      37.071  31.431  32.668  1.00  0.00     0.022 A 
BRANCH  84  88
ATOM     88  S   UNL A   1      37.943  34.085  32.624  1.00  0.00     0.124 S 
ATOM     89  O   UNL A   1      37.432  34.597  33.888  1.00  0.00    -0.237 OA
ATOM     90  O   UNL A   1      39.312  34.472  32.277  1.00  0.00    -0.237 OA
ATOM     91  O   UNL A   1      37.015  34.150  31.497  1.00  0.00    -0.744 OA
ENDBRANCH  84  88
ENDBRANCH  57  81
BRANCH  69  92
ATOM     92  C   UNL A   1      44.579  25.028  33.474  1.00  0.00     0.023 A 
ATOM     93  C   UNL A   1      45.369  25.067  34.637  1.00  0.00     0.031 A 
ATOM     94  C   UNL A   1      44.278  23.736  32.984  1.00  0.00     0.131 A 
ATOM     95  C   UNL A   1      45.723  23.886  35.316  1.00  0.00     0.055 A 
ATOM     96  C   UNL A   1      44.699  22.561  33.616  1.00  0.00     0.041 A 
ATOM     97  F   UNL A   1      43.536  23.548  31.883  1.00  0.00    -0.206 F 
ATOM     98  C   UNL A   1      45.409  22.631  34.803  1.00  0.00     0.022 A 
BRANCH  95  99
ATOM     99  S   UNL A   1      46.540  24.026  36.926  1.00  0.00     0.124 S 
ATOM    100  O   UNL A   1      45.437  23.833  37.862  1.00  0.00    -0.237 OA
ATOM    101  O   UNL A   1      47.512  22.937  36.860  1.00  0.00    -0.237 OA
ATOM    102  O   UNL A   1      47.113  25.370  36.908  1.00  0.00    -0.744 OA
ENDBRANCH  95  99
ENDBRANCH  69  92
ENDBRANCH  43  44
ENDBRANCH  35  38
ENDBRANCH  33  34
ENDBRANCH   1  33
TORSDOF 16
ENDMDL
MODEL 2
REMARK VINA RESULT:     -13.6      3.757     10.093
REMARK SMILES Cc1ccc(-c2cc(C(=O)NCCCNC(=O)c3ccc(-c4c5nc(c(-c6cc(S(=O)(=O)[O-])ccc6F)c6ccc([nH]6)c(-c6cc(S(=O)(=O)[O-])ccc6F)c6nc(c(-c7cc(S(=O)(=O)[O-])ccc7F)c7ccc4[nH]7)C=C6)C=C5)cc3)c3c(-c4cccc([N+](=O)[O-])c4)[nH]nc3n2)cc1
REMARK SMILES IDX 13 1 12 2 11 3 9 4 10 5 8 7 6 8 7 9 95 10 94 11 81 12 93 13
REMARK SMILES IDX 82 14 92 15 5 17 1 18 2 19 3 20 97 21 4 22 96 23 83 24 84 25
REMARK SMILES IDX 91 26 85 27 87 28 86 29 88 30 89 31 90 32 14 33 15 34 16 35
REMARK SMILES IDX 17 37 18 38 19 39 80 40 20 41 79 42 21 43 22 44 23 45 73 46
REMARK SMILES IDX 24 47 78 48 72 49 74 50 25 51 77 52 71 53 70 54 26 56 58 57
REMARK SMILES IDX 38 58 57 59 39 60 42 61 56 62 75 63 40 64 41 65 55 67 76 68
REMARK SMILES IDX 43 69 27 70 28 71 36 72 29 73 35 74 37 75 34 76 30 77 31 78
REMARK SMILES IDX 32 79 33 80 59 81 60 82 68 83 61 84 67 85 69 86 66 87 62 88
REMARK SMILES IDX 63 89 64 90 65 91 44 92 45 93 53 94 46 95 52 96 54 97 51 98
REMARK SMILES IDX 47 99 48 100 49 101 50 102
REMARK H PARENT 11 6 92 16 15 36 74 55 42 66
REMARK Flexibility Score: inf
ROOT
ATOM      1  C   UNL A   1      37.405  23.670  25.046  1.00  0.00     0.042 C 
ENDROOT
BRANCH   1   2
ATOM      2  C   UNL A   1      35.890  23.731  25.056  1.00  0.00     0.118 C 
BRANCH   2   3
ATOM      3  N   UNL A   1      35.278  23.996  23.752  1.00  0.00    -0.352 N 
ATOM      4  C   UNL A   1      34.089  24.620  23.418  1.00  0.00     0.252 C 
ATOM      5  O   UNL A   1      33.727  24.710  22.252  1.00  0.00    -0.269 OA
ATOM      6  H   UNL A   1      35.800  23.674  22.982  1.00  0.00     0.163 HD
BRANCH   4   7
ATOM      7  C   UNL A   1      33.261  25.212  24.481  1.00  0.00     0.055 A 
ATOM      8  C   UNL A   1      32.829  27.162  25.931  1.00  0.00     0.074 A 
ATOM      9  C   UNL A   1      33.325  26.585  24.740  1.00  0.00     0.043 A 
ATOM     10  N   UNL A   1      32.031  26.526  26.836  1.00  0.00    -0.226 NA
ATOM     11  C   UNL A   1      31.764  25.238  26.496  1.00  0.00     0.182 A 
ATOM     12  C   UNL A   1      32.379  24.590  25.368  1.00  0.00     0.059 A 
ATOM     13  N   UNL A   1      30.957  24.409  27.162  1.00  0.00    -0.154 NA
ATOM     14  C   UNL A   1      31.907  23.292  25.397  1.00  0.00     0.076 A 
ATOM     15  N   UNL A   1      31.042  23.263  26.465  1.00  0.00    -0.275 N 
ATOM     16  H   UNL A   1      30.523  22.461  26.703  1.00  0.00     0.190 HD
BRANCH   8  17
ATOM     17  C   UNL A   1      33.422  28.452  26.357  1.00  0.00     0.000 A 
ATOM     18  C   UNL A   1      34.922  31.967  28.405  1.00  0.00     0.044 C 
ATOM     19  C   UNL A   1      34.421  30.773  27.650  1.00  0.00    -0.051 A 
ATOM     20  C   UNL A   1      33.085  30.704  27.246  1.00  0.00     0.004 A 
ATOM     21  C   UNL A   1      35.268  29.699  27.366  1.00  0.00     0.004 A 
ATOM     22  C   UNL A   1      32.594  29.561  26.606  1.00  0.00     0.010 A 
ATOM     23  C   UNL A   1      34.777  28.560  26.721  1.00  0.00     0.010 A 
ENDBRANCH   8  17
BRANCH  14  24
ATOM     24  C   UNL A   1      32.098  22.120  24.557  1.00  0.00     0.007 A 
ATOM     25  C   UNL A   1      31.840  22.190  23.179  1.00  0.00     0.011 A 
ATOM     26  C   UNL A   1      32.562  20.926  25.114  1.00  0.00     0.096 A 
ATOM     27  C   UNL A   1      32.074  21.086  22.356  1.00  0.00     0.008 A 
ATOM     28  C   UNL A   1      32.797  19.822  24.282  1.00  0.00     0.270 A 
ATOM     29  C   UNL A   1      32.557  19.897  22.904  1.00  0.00     0.085 A 
BRANCH  28  30
ATOM     30  N   UNL A   1      33.277  18.566  24.868  1.00  0.00     0.062 N 
ATOM     31  O   UNL A   1      34.313  18.071  24.401  1.00  0.00    -0.258 OA
ATOM     32  O   UNL A   1      32.584  18.043  25.754  1.00  0.00    -0.258 OA
ENDBRANCH  28  30
ENDBRANCH  14  24
ENDBRANCH   4   7
ENDBRANCH   2   3
ENDBRANCH   1   2
BRANCH   1  33
ATOM     33  C   UNL A   1      37.987  22.859  26.189  1.00  0.00     0.118 C 
BRANCH  33  34
ATOM     34  N   UNL A   1      39.455  22.906  26.231  1.00  0.00    -0.352 N 
ATOM     35  C   UNL A   1      40.285  23.940  26.648  1.00  0.00     0.251 C 
ATOM     36  H   UNL A   1      39.914  22.093  25.920  1.00  0.00     0.163 HD
ATOM     37  O   UNL A   1      41.490  23.841  26.708  1.00  0.00    -0.269 OA
BRANCH  35  38
ATOM     38  C   UNL A   1      39.613  25.169  27.124  1.00  0.00     0.039 A 
ATOM     39  C   UNL A   1      39.989  26.361  26.498  1.00  0.00     0.014 A 
ATOM     40  C   UNL A   1      39.019  25.157  28.383  1.00  0.00     0.014 A 
ATOM     41  C   UNL A   1      40.026  27.527  27.252  1.00  0.00     0.010 A 
ATOM     42  C   UNL A   1      39.134  26.302  29.153  1.00  0.00     0.010 A 
ATOM     43  C   UNL A   1      39.724  27.457  28.613  1.00  0.00    -0.014 A 
BRANCH  43  44
ATOM     44  C   UNL A   1      40.159  28.485  29.558  1.00  0.00     0.031 A 
ATOM     45  C   UNL A   1      39.227  29.542  29.992  1.00  0.00     0.074 A 
ATOM     46  C   UNL A   1      41.416  28.488  30.060  1.00  0.00     0.049 A 
ATOM     47  N   UNL A   1      39.590  30.715  30.391  1.00  0.00    -0.248 NA
ATOM     48  C   UNL A   1      37.783  29.362  29.965  1.00  0.00     0.031 C 
ATOM     49  C   UNL A   1      41.933  29.324  31.142  1.00  0.00     0.029 A 
ATOM     50  N   UNL A   1      42.556  27.922  29.487  1.00  0.00    -0.354 N 
ATOM     51  C   UNL A   1      38.492  31.324  30.944  1.00  0.00     0.074 A 
ATOM     52  C   UNL A   1      37.380  30.466  30.599  1.00  0.00     0.031 C 
ATOM     53  C   UNL A   1      43.256  29.474  30.976  1.00  0.00     0.029 A 
ATOM     54  C   UNL A   1      43.616  28.824  29.732  1.00  0.00     0.049 A 
ATOM     55  H   UNL A   1      42.611  27.063  29.007  1.00  0.00     0.167 HD
ATOM     56  C   UNL A   1      38.650  32.419  31.741  1.00  0.00     0.034 A 
ATOM     57  C   UNL A   1      44.316  29.380  28.701  1.00  0.00     0.034 A 
ATOM     58  C   UNL A   1      40.043  32.868  31.806  1.00  0.00     0.049 A 
ATOM     59  C   UNL A   1      44.208  30.892  28.628  1.00  0.00     0.074 A 
ATOM     60  C   UNL A   1      41.055  32.799  32.750  1.00  0.00     0.029 A 
ATOM     61  N   UNL A   1      40.655  33.291  30.636  1.00  0.00    -0.354 N 
ATOM     62  N   UNL A   1      43.585  31.640  29.500  1.00  0.00    -0.248 NA
ATOM     63  C   UNL A   1      44.710  31.669  27.495  1.00  0.00     0.031 C 
ATOM     64  C   UNL A   1      42.281  33.181  32.124  1.00  0.00     0.029 A 
ATOM     65  C   UNL A   1      42.011  33.498  30.805  1.00  0.00     0.049 A 
ATOM     66  H   UNL A   1      40.180  33.429  29.786  1.00  0.00     0.167 HD
ATOM     67  C   UNL A   1      43.506  32.927  29.024  1.00  0.00     0.074 A 
ATOM     68  C   UNL A   1      44.235  32.895  27.769  1.00  0.00     0.031 C 
ATOM     69  C   UNL A   1      42.795  33.914  29.651  1.00  0.00     0.034 A 
BRANCH  56  70
ATOM     70  C   UNL A   1      37.558  32.916  32.659  1.00  0.00     0.023 A 
ATOM     71  C   UNL A   1      36.473  33.641  32.129  1.00  0.00     0.031 A 
ATOM     72  C   UNL A   1      37.548  32.752  34.058  1.00  0.00     0.131 A 
ATOM     73  C   UNL A   1      35.530  34.263  32.969  1.00  0.00     0.055 A 
ATOM     74  C   UNL A   1      36.667  33.442  34.900  1.00  0.00     0.041 A 
ATOM     75  F   UNL A   1      38.355  31.871  34.666  1.00  0.00    -0.206 F 
ATOM     76  C   UNL A   1      35.658  34.219  34.355  1.00  0.00     0.022 A 
BRANCH  73  77
ATOM     77  S   UNL A   1      34.106  35.107  32.230  1.00  0.00     0.124 S 
ATOM     78  O   UNL A   1      34.322  34.898  30.803  1.00  0.00    -0.237 OA
ATOM     79  O   UNL A   1      32.984  34.390  32.826  1.00  0.00    -0.237 OA
ATOM     80  O   UNL A   1      34.259  36.490  32.681  1.00  0.00    -0.744 OA
ENDBRANCH  73  77
ENDBRANCH  56  70
BRANCH  57  81
ATOM     81  C   UNL A   1      44.464  28.434  27.552  1.00  0.00     0.023 A 
ATOM     82  C   UNL A   1      45.318  27.326  27.756  1.00  0.00     0.031 A 
ATOM     83  C   UNL A   1      43.530  28.354  26.513  1.00  0.00     0.131 A 
ATOM     84  C   UNL A   1      45.079  26.118  27.087  1.00  0.00     0.055 A 
ATOM     85  C   UNL A   1      43.370  27.176  25.770  1.00  0.00     0.041 A 
ATOM     86  F   UNL A   1      42.662  29.351  26.289  1.00  0.00    -0.206 F 
ATOM     87  C   UNL A   1      44.105  26.035  26.093  1.00  0.00     0.022 A 
BRANCH  84  88
ATOM     88  S   UNL A   1      45.813  24.606  27.783  1.00  0.00     0.124 S 
ATOM     89  O   UNL A   1      44.651  23.748  27.969  1.00  0.00    -0.237 OA
ATOM     90  O   UNL A   1      46.751  24.203  26.734  1.00  0.00    -0.237 OA
ATOM     91  O   UNL A   1      46.467  25.056  29.009  1.00  0.00    -0.744 OA
ENDBRANCH  84  88
ENDBRANCH  57  81
BRANCH  69  92
ATOM     92  C   UNL A   1      42.733  35.348  29.164  1.00  0.00     0.023 A 
ATOM     93  C   UNL A   1      43.613  36.338  29.633  1.00  0.00     0.031 A 
ATOM     94  C   UNL A   1      41.742  35.790  28.257  1.00  0.00     0.131 A 
ATOM     95  C   UNL A   1      43.566  37.652  29.128  1.00  0.00     0.055 A 
ATOM     96  C   UNL A   1      41.646  37.115  27.817  1.00  0.00     0.041 A 
ATOM     97  F   UNL A   1      40.836  34.955  27.731  1.00  0.00    -0.206 F 
ATOM     98  C   UNL A   1      42.575  38.052  28.236  1.00  0.00     0.022 A 
BRANCH  95  99
ATOM     99  S   UNL A   1      44.875  38.810  29.605  1.00  0.00     0.124 S 
ATOM    100  O   UNL A   1      45.318  39.338  28.319  1.00  0.00    -0.237 OA
ATOM    101  O   UNL A   1      44.145  39.746  30.457  1.00  0.00    -0.237 OA
ATOM    102  O   UNL A   1      45.845  37.968  30.300  1.00  0.00    -0.744 OA
ENDBRANCH  95  99
ENDBRANCH  69  92
ENDBRANCH  43  44
ENDBRANCH  35  38
ENDBRANCH  33  34
ENDBRANCH   1  33
TORSDOF 16
ENDMDL
MODEL 3
REMARK VINA RESULT:     -13.3      4.108     10.245
REMARK SMILES Cc1ccc(-c2cc(C(=O)NCCCNC(=O)c3ccc(-c4c5nc(c(-c6cc(S(=O)(=O)[O-])ccc6F)c6ccc([nH]6)c(-c6cc(S(=O)(=O)[O-])ccc6F)c6nc(c(-c7cc(S(=O)(=O)[O-])ccc7F)c7ccc4[nH]7)C=C6)C=C5)cc3)c3c(-c4cccc([N+](=O)[O-])c4)[nH]nc3n2)cc1
REMARK SMILES IDX 13 1 12 2 11 3 9 4 10 5 8 7 6 8 7 9 95 10 94 11 81 12 93 13
REMARK SMILES IDX 82 14 92 15 5 17 1 18 2 19 3 20 97 21 4 22 96 23 83 24 84 25
REMARK SMILES IDX 91 26 85 27 87 28 86 29 88 30 89 31 90 32 14 33 15 34 16 35
REMARK SMILES IDX 17 37 18 38 19 39 80 40 20 41 79 42 21 43 22 44 23 45 73 46
REMARK SMILES IDX 24 47 78 48 72 49 74 50 25 51 77 52 71 53 70 54 26 56 58 57
REMARK SMILES IDX 38 58 57 59 39 60 42 61 56 62 75 63 40 64 41 65 55 67 76 68
REMARK SMILES IDX 43 69 27 70 28 71 36 72 29 73 35 74 37 75 34 76 30 77 31 78
REMARK SMILES IDX 32 79 33 80 59 81 60 82 68 83 61 84 67 85 69 86 66 87 62 88
REMARK SMILES IDX 63 89 64 90 65 91 44 92 45 93 53 94 46 95 52 96 54 97 51 98
REMARK SMILES IDX 47 99 48 100 49 101 50 102
REMARK H PARENT 11 6 92 16 15 36 74 55 42 66
REMARK Flexibility Score: inf
ROOT
ATOM      1  C   UNL A   1      37.430  23.211  24.621  1.00  0.00     0.042 C 
ENDROOT
BRANCH   1   2
ATOM      2  C   UNL A   1      36.084  23.907  24.546  1.00  0.00     0.118 C 
BRANCH   2   3
ATOM      3  N   UNL A   1      35.190  23.402  23.502  1.00  0.00    -0.352 N 
ATOM      4  C   UNL A   1      33.828  23.161  23.513  1.00  0.00     0.252 C 
ATOM      5  O   UNL A   1      33.260  22.691  22.535  1.00  0.00    -0.269 OA
ATOM      6  H   UNL A   1      35.634  23.199  22.647  1.00  0.00     0.163 HD
BRANCH   4   7
ATOM      7  C   UNL A   1      33.045  23.500  24.711  1.00  0.00     0.055 A 
ATOM      8  C   UNL A   1      31.818  25.238  25.964  1.00  0.00     0.074 A 
ATOM      9  C   UNL A   1      32.311  24.690  24.758  1.00  0.00     0.043 A 
ATOM     10  N   UNL A   1      31.771  24.583  27.160  1.00  0.00    -0.226 NA
ATOM     11  C   UNL A   1      32.280  23.324  27.096  1.00  0.00     0.182 A 
ATOM     12  C   UNL A   1      32.921  22.805  25.917  1.00  0.00     0.059 A 
ATOM     13  N   UNL A   1      32.295  22.441  28.096  1.00  0.00    -0.154 NA
ATOM     14  C   UNL A   1      33.352  21.541  26.268  1.00  0.00     0.076 A 
ATOM     15  N   UNL A   1      32.917  21.376  27.563  1.00  0.00    -0.275 N 
ATOM     16  H   UNL A   1      33.053  20.538  28.062  1.00  0.00     0.190 HD
BRANCH   8  17
ATOM     17  C   UNL A   1      31.575  26.700  25.996  1.00  0.00     0.000 A 
ATOM     18  C   UNL A   1      31.736  31.032  26.049  1.00  0.00     0.044 C 
ATOM     19  C   UNL A   1      31.626  29.537  26.032  1.00  0.00    -0.051 A 
ATOM     20  C   UNL A   1      31.734  28.809  27.221  1.00  0.00     0.004 A 
ATOM     21  C   UNL A   1      31.448  28.847  24.831  1.00  0.00     0.004 A 
ATOM     22  C   UNL A   1      31.706  27.410  27.202  1.00  0.00     0.010 A 
ATOM     23  C   UNL A   1      31.413  27.449  24.816  1.00  0.00     0.010 A 
ENDBRANCH   8  17
BRANCH  14  24
ATOM     24  C   UNL A   1      34.042  20.469  25.569  1.00  0.00     0.007 A 
ATOM     25  C   UNL A   1      35.443  20.478  25.472  1.00  0.00     0.011 A 
ATOM     26  C   UNL A   1      33.317  19.414  25.012  1.00  0.00     0.096 A 
ATOM     27  C   UNL A   1      36.118  19.424  24.850  1.00  0.00     0.008 A 
ATOM     28  C   UNL A   1      34.001  18.359  24.391  1.00  0.00     0.270 A 
ATOM     29  C   UNL A   1      35.399  18.357  24.310  1.00  0.00     0.085 A 
BRANCH  28  30
ATOM     30  N   UNL A   1      33.238  17.254  23.800  1.00  0.00     0.062 N 
ATOM     31  O   UNL A   1      32.864  16.343  24.553  1.00  0.00    -0.258 OA
ATOM     32  O   UNL A   1      33.068  17.266  22.571  1.00  0.00    -0.258 OA
ENDBRANCH  28  30
ENDBRANCH  14  24
ENDBRANCH   4   7
ENDBRANCH   2   3
ENDBRANCH   1   2
BRANCH   1  33
ATOM     33  C   UNL A   1      37.892  22.935  26.041  1.00  0.00     0.118 C 
BRANCH  33  34
ATOM     34  N   UNL A   1      39.353  22.833  26.153  1.00  0.00    -0.352 N 
ATOM     35  C   UNL A   1      40.260  23.766  26.641  1.00  0.00     0.251 C 
ATOM     36  H   UNL A   1      39.744  21.986  25.839  1.00  0.00     0.163 HD
ATOM     37  O   UNL A   1      41.444  23.544  26.755  1.00  0.00    -0.269 OA
BRANCH  35  38
ATOM     38  C   UNL A   1      39.691  25.044  27.123  1.00  0.00     0.039 A 
ATOM     39  C   UNL A   1      40.058  26.191  26.412  1.00  0.00     0.014 A 
ATOM     40  C   UNL A   1      39.219  25.110  28.431  1.00  0.00     0.014 A 
ATOM     41  C   UNL A   1      40.217  27.383  27.108  1.00  0.00     0.010 A 
ATOM     42  C   UNL A   1      39.457  26.279  29.136  1.00  0.00     0.010 A 
ATOM     43  C   UNL A   1      40.043  27.381  28.493  1.00  0.00    -0.014 A 
BRANCH  43  44
ATOM     44  C   UNL A   1      40.610  28.425  29.347  1.00  0.00     0.031 A 
ATOM     45  C   UNL A   1      39.782  29.562  29.785  1.00  0.00     0.074 A 
ATOM     46  C   UNL A   1      41.899  28.368  29.759  1.00  0.00     0.049 A 
ATOM     47  N   UNL A   1      40.247  30.727  30.092  1.00  0.00    -0.248 NA
ATOM     48  C   UNL A   1      38.331  29.480  29.869  1.00  0.00     0.031 C 
ATOM     49  C   UNL A   1      42.545  29.221  30.754  1.00  0.00     0.029 A 
ATOM     50  N   UNL A   1      42.955  27.698  29.140  1.00  0.00    -0.354 N 
ATOM     51  C   UNL A   1      39.233  31.437  30.686  1.00  0.00     0.074 A 
ATOM     52  C   UNL A   1      38.047  30.639  30.467  1.00  0.00     0.031 C 
ATOM     53  C   UNL A   1      43.859  29.273  30.488  1.00  0.00     0.029 A 
ATOM     54  C   UNL A   1      44.085  28.538  29.261  1.00  0.00     0.049 A 
ATOM     55  H   UNL A   1      42.919  26.815  28.706  1.00  0.00     0.167 HD
ATOM     56  C   UNL A   1      39.518  32.557  31.408  1.00  0.00     0.034 A 
ATOM     57  C   UNL A   1      44.742  28.993  28.154  1.00  0.00     0.034 A 
ATOM     58  C   UNL A   1      40.938  32.913  31.351  1.00  0.00     0.049 A 
ATOM     59  C   UNL A   1      44.725  30.503  28.005  1.00  0.00     0.074 A 
ATOM     60  C   UNL A   1      42.009  32.825  32.225  1.00  0.00     0.029 A 
ATOM     61  N   UNL A   1      41.489  33.235  30.120  1.00  0.00    -0.354 N 
ATOM     62  N   UNL A   1      44.217  31.335  28.875  1.00  0.00    -0.248 NA
ATOM     63  C   UNL A   1      45.192  31.186  26.798  1.00  0.00     0.031 C 
ATOM     64  C   UNL A   1      43.208  33.091  31.494  1.00  0.00     0.029 A 
ATOM     65  C   UNL A   1      42.864  33.358  30.182  1.00  0.00     0.049 A 
ATOM     66  H   UNL A   1      40.962  33.362  29.298  1.00  0.00     0.167 HD
ATOM     67  C   UNL A   1      44.185  32.598  28.335  1.00  0.00     0.074 A 
ATOM     68  C   UNL A   1      44.817  32.453  27.036  1.00  0.00     0.031 C 
ATOM     69  C   UNL A   1      43.586  33.662  28.955  1.00  0.00     0.034 A 
BRANCH  56  70
ATOM     70  C   UNL A   1      38.530  33.173  32.371  1.00  0.00     0.023 A 
ATOM     71  C   UNL A   1      38.572  32.825  33.735  1.00  0.00     0.031 A 
ATOM     72  C   UNL A   1      37.501  34.063  32.006  1.00  0.00     0.131 A 
ATOM     73  C   UNL A   1      37.567  33.245  34.627  1.00  0.00     0.055 A 
ATOM     74  C   UNL A   1      36.451  34.407  32.867  1.00  0.00     0.041 A 
ATOM     75  F   UNL A   1      37.500  34.683  30.818  1.00  0.00    -0.206 F 
ATOM     76  C   UNL A   1      36.471  33.983  34.185  1.00  0.00     0.022 A 
BRANCH  73  77
ATOM     77  S   UNL A   1      37.721  32.843  36.388  1.00  0.00     0.124 S 
ATOM     78  O   UNL A   1      38.939  33.550  36.767  1.00  0.00    -0.237 OA
ATOM     79  O   UNL A   1      36.472  33.367  36.931  1.00  0.00    -0.237 OA
ATOM     80  O   UNL A   1      37.828  31.384  36.395  1.00  0.00    -0.744 OA
ENDBRANCH  73  77
ENDBRANCH  56  70
BRANCH  57  81
ATOM     81  C   UNL A   1      44.745  27.982  27.052  1.00  0.00     0.023 A 
ATOM     82  C   UNL A   1      45.577  26.854  27.236  1.00  0.00     0.031 A 
ATOM     83  C   UNL A   1      43.711  27.883  26.113  1.00  0.00     0.131 A 
ATOM     84  C   UNL A   1      45.234  25.622  26.662  1.00  0.00     0.055 A 
ATOM     85  C   UNL A   1      43.440  26.674  25.457  1.00  0.00     0.041 A 
ATOM     86  F   UNL A   1      42.859  28.899  25.917  1.00  0.00    -0.206 F 
ATOM     87  C   UNL A   1      44.165  25.524  25.773  1.00  0.00     0.022 A 
BRANCH  84  88
ATOM     88  S   UNL A   1      45.981  24.122  27.369  1.00  0.00     0.124 S 
ATOM     89  O   UNL A   1      45.192  23.060  26.761  1.00  0.00    -0.237 OA
ATOM     90  O   UNL A   1      47.372  24.227  26.926  1.00  0.00    -0.237 OA
ATOM     91  O   UNL A   1      45.814  24.283  28.812  1.00  0.00    -0.744 OA
ENDBRANCH  84  88
ENDBRANCH  57  81
BRANCH  69  92
ATOM     92  C   UNL A   1      43.580  35.069  28.394  1.00  0.00     0.023 A 
ATOM     93  C   UNL A   1      44.743  35.856  28.330  1.00  0.00     0.031 A 
ATOM     94  C   UNL A   1      42.390  35.701  27.964  1.00  0.00     0.131 A 
ATOM     95  C   UNL A   1      44.720  37.143  27.759  1.00  0.00     0.055 A 
ATOM     96  C   UNL A   1      42.355  37.011  27.472  1.00  0.00     0.041 A 
ATOM     97  F   UNL A   1      41.207  35.071  27.973  1.00  0.00    -0.206 F 
ATOM     98  C   UNL A   1      43.529  37.734  27.347  1.00  0.00     0.022 A 
BRANCH  95  99
ATOM     99  S   UNL A   1      46.293  38.003  27.499  1.00  0.00     0.124 S 
ATOM    100  O   UNL A   1      46.091  38.655  26.210  1.00  0.00    -0.237 OA
ATOM    101  O   UNL A   1      46.339  38.891  28.658  1.00  0.00    -0.237 OA
ATOM    102  O   UNL A   1      47.280  36.926  27.504  1.00  0.00    -0.744 OA
ENDBRANCH  95  99
ENDBRANCH  69  92
ENDBRANCH  43  44
ENDBRANCH  35  38
ENDBRANCH  33  34
ENDBRANCH   1  33
TORSDOF 16
ENDMDL
