MODEL 1
REMARK VINA RESULT:     -11.9      0.000      0.000
REMARK SMILES O=C1NC(=S)S/C1=C\c1ccc(OCc2cn(-c3ccc(C(=O)NCCCNC(=O)c4ccc(-c5c6nc(c(-c7cc(S(=O)(=O)[O-])ccc7F)c7ccc([nH]7)c(-c7cc(S(=O)(=O)[O-])ccc7F)c7nc(c(-c8cc(S(=O)(=O)[O-])ccc8F)c8ccc5[nH]8)C=C7)C=C6)cc4)cc3)nn2)cc1
REMARK SMILES IDX 25 1 24 2 22 3 23 4 21 6 18 7 19 8 95 9 20 10 94 11 17 12
REMARK SMILES IDX 15 13 16 14 97 15 96 16 14 17 13 18 12 19 9 20 10 21 99 22
REMARK SMILES IDX 11 23 98 24 8 25 1 26 2 27 3 28 7 29 4 30 6 32 5 33 26 34
REMARK SMILES IDX 27 35 28 36 29 37 30 39 31 40 32 41 93 42 33 43 92 44 34 45
REMARK SMILES IDX 35 46 36 47 86 48 37 49 91 50 85 51 87 52 38 53 90 54 84 55
REMARK SMILES IDX 83 56 39 58 71 59 51 60 70 61 52 62 55 63 69 64 88 65 53 66
REMARK SMILES IDX 54 67 68 69 89 70 56 71 40 72 41 73 49 74 42 75 48 76 50 77
REMARK SMILES IDX 47 78 43 79 44 80 45 81 46 82 72 83 73 84 81 85 74 86 80 87
REMARK SMILES IDX 82 88 79 89 75 90 76 91 77 92 78 93 57 94 58 95 66 96 59 97
REMARK SMILES IDX 65 98 67 99 64 100 60 101 61 102 62 103 63 104
REMARK H PARENT 24 5 3 31 28 38 87 57 55 68
REMARK Flexibility Score: inf
ROOT
ATOM      1  C   UNL A   1      44.095  23.940  25.921  1.00  0.00     0.118 C 
ENDROOT
BRANCH   1   2
ATOM      2  N   UNL A   1      43.920  23.512  27.303  1.00  0.00    -0.352 N 
ATOM      3  C   UNL A   1      42.866  22.917  27.952  1.00  0.00     0.251 C 
ATOM      4  O   UNL A   1      43.018  22.578  29.125  1.00  0.00    -0.269 OA
ATOM      5  H   UNL A   1      44.703  23.678  27.876  1.00  0.00     0.163 HD
BRANCH   3   6
ATOM      6  C   UNL A   1      41.573  22.611  27.278  1.00  0.00     0.039 A 
ATOM      7  C   UNL A   1      39.041  22.044  26.223  1.00  0.00     0.066 A 
ATOM      8  C   UNL A   1      39.262  23.261  26.879  1.00  0.00     0.029 A 
ATOM      9  C   UNL A   1      40.090  21.152  26.022  1.00  0.00     0.029 A 
ATOM     10  C   UNL A   1      40.520  23.526  27.430  1.00  0.00     0.016 A 
ATOM     11  C   UNL A   1      41.354  21.474  26.499  1.00  0.00     0.016 A 
BRANCH   7  12
ATOM     12  N   UNL A   1      37.762  21.713  25.748  1.00  0.00    -0.220 N 
ATOM     13  C   UNL A   1      35.627  21.637  25.315  1.00  0.00     0.120 A 
ATOM     14  C   UNL A   1      36.589  22.417  25.916  1.00  0.00     0.144 A 
ATOM     15  N   UNL A   1      36.241  20.541  24.768  1.00  0.00    -0.131 NA
ATOM     16  N   UNL A   1      37.538  20.614  25.004  1.00  0.00    -0.062 NA
BRANCH  13  17
ATOM     17  C   UNL A   1      34.170  21.882  25.105  1.00  0.00     0.289 C 
BRANCH  17  18
ATOM     18  O   UNL A   1      33.720  21.863  23.737  1.00  0.00    -0.487 OA
BRANCH  18  19
ATOM     19  C   UNL A   1      32.976  22.916  23.280  1.00  0.00     0.119 A 
ATOM     20  C   UNL A   1      31.753  25.331  22.535  1.00  0.00    -0.024 A 
ATOM     21  C   UNL A   1      33.073  25.070  22.163  1.00  0.00     0.012 A 
ATOM     22  C   UNL A   1      31.021  24.337  23.190  1.00  0.00     0.012 A 
ATOM     23  C   UNL A   1      33.682  23.869  22.543  1.00  0.00     0.047 A 
ATOM     24  C   UNL A   1      31.621  23.124  23.525  1.00  0.00     0.047 A 
BRANCH  20  25
ATOM     25  C   UNL A   1      31.130  26.628  22.264  1.00  0.00     0.029 C 
ATOM     26  O   UNL A   1      29.764  29.151  21.804  1.00  0.00    -0.268 OA
ATOM     27  C   UNL A   1      30.448  28.948  22.783  1.00  0.00     0.263 C 
ATOM     28  N   UNL A   1      30.652  29.845  23.799  1.00  0.00    -0.307 N 
ATOM     29  C   UNL A   1      31.182  27.687  23.084  1.00  0.00     0.080 C 
ATOM     30  C   UNL A   1      31.445  29.471  24.839  1.00  0.00     0.145 C 
ATOM     31  H   UNL A   1      30.235  30.736  23.776  1.00  0.00     0.171 HD
ATOM     32  S   UNL A   1      32.023  27.841  24.586  1.00  0.00    -0.055 SA
ATOM     33  S   UNL A   1      31.780  30.455  26.128  1.00  0.00    -0.052 S 
ENDBRANCH  20  25
ENDBRANCH  18  19
ENDBRANCH  17  18
ENDBRANCH  13  17
ENDBRANCH   7  12
ENDBRANCH   3   6
ENDBRANCH   1   2
BRANCH   1  34
ATOM     34  C   UNL A   1      45.029  25.156  25.810  1.00  0.00     0.042 C 
BRANCH  34  35
ATOM     35  C   UNL A   1      44.259  26.458  25.790  1.00  0.00     0.118 C 
BRANCH  35  36
ATOM     36  N   UNL A   1      42.949  26.323  25.133  1.00  0.00    -0.352 N 
ATOM     37  C   UNL A   1      41.674  26.462  25.668  1.00  0.00     0.251 C 
ATOM     38  H   UNL A   1      42.982  26.103  24.173  1.00  0.00     0.163 HD
ATOM     39  O   UNL A   1      40.712  25.963  25.100  1.00  0.00    -0.269 OA
BRANCH  37  40
ATOM     40  C   UNL A   1      41.512  27.216  26.925  1.00  0.00     0.039 A 
ATOM     41  C   UNL A   1      41.486  26.642  28.199  1.00  0.00     0.014 A 
ATOM     42  C   UNL A   1      41.455  28.588  26.794  1.00  0.00     0.014 A 
ATOM     43  C   UNL A   1      41.394  27.496  29.302  1.00  0.00     0.010 A 
ATOM     44  C   UNL A   1      41.880  29.340  27.834  1.00  0.00     0.010 A 
ATOM     45  C   UNL A   1      41.565  28.867  29.086  1.00  0.00    -0.014 A 
BRANCH  45  46
ATOM     46  C   UNL A   1      41.493  29.907  30.096  1.00  0.00     0.031 A 
ATOM     47  C   UNL A   1      40.127  30.423  30.303  1.00  0.00     0.074 A 
ATOM     48  C   UNL A   1      42.498  30.099  30.985  1.00  0.00     0.049 A 
ATOM     49  N   UNL A   1      39.661  31.561  29.919  1.00  0.00    -0.248 NA
ATOM     50  C   UNL A   1      39.092  29.492  30.786  1.00  0.00     0.031 C 
ATOM     51  C   UNL A   1      43.779  29.385  31.111  1.00  0.00     0.029 A 
ATOM     52  N   UNL A   1      42.528  30.917  32.068  1.00  0.00    -0.354 N 
ATOM     53  C   UNL A   1      38.342  31.591  30.353  1.00  0.00     0.074 A 
ATOM     54  C   UNL A   1      37.990  30.220  30.601  1.00  0.00     0.031 C 
ATOM     55  C   UNL A   1      44.332  29.644  32.320  1.00  0.00     0.029 A 
ATOM     56  C   UNL A   1      43.526  30.644  33.001  1.00  0.00     0.049 A 
ATOM     57  H   UNL A   1      41.886  31.656  32.186  1.00  0.00     0.167 HD
ATOM     58  C   UNL A   1      37.750  32.759  30.728  1.00  0.00     0.034 A 
ATOM     59  C   UNL A   1      43.635  31.169  34.256  1.00  0.00     0.034 A 
ATOM     60  C   UNL A   1      38.598  33.883  30.380  1.00  0.00     0.049 A 
ATOM     61  C   UNL A   1      42.838  32.431  34.238  1.00  0.00     0.074 A 
ATOM     62  C   UNL A   1      39.119  34.363  29.194  1.00  0.00     0.029 A 
ATOM     63  N   UNL A   1      39.393  34.417  31.377  1.00  0.00    -0.354 N 
ATOM     64  N   UNL A   1      43.144  33.451  33.477  1.00  0.00    -0.248 NA
ATOM     65  C   UNL A   1      41.431  32.354  34.614  1.00  0.00     0.031 C 
ATOM     66  C   UNL A   1      40.469  34.704  29.504  1.00  0.00     0.029 A 
ATOM     67  C   UNL A   1      40.670  34.534  30.876  1.00  0.00     0.049 A 
ATOM     68  H   UNL A   1      39.099  34.667  32.283  1.00  0.00     0.167 HD
ATOM     69  C   UNL A   1      41.940  33.870  32.924  1.00  0.00     0.074 A 
ATOM     70  C   UNL A   1      40.909  33.213  33.731  1.00  0.00     0.031 C 
ATOM     71  C   UNL A   1      41.881  34.441  31.680  1.00  0.00     0.034 A 
BRANCH  58  72
ATOM     72  C   UNL A   1      36.606  32.903  31.704  1.00  0.00     0.023 A 
ATOM     73  C   UNL A   1      35.496  33.654  31.269  1.00  0.00     0.031 A 
ATOM     74  C   UNL A   1      36.620  32.579  33.078  1.00  0.00     0.131 A 
ATOM     75  C   UNL A   1      34.542  34.133  32.180  1.00  0.00     0.055 A 
ATOM     76  C   UNL A   1      35.630  33.001  33.972  1.00  0.00     0.041 A 
ATOM     77  F   UNL A   1      37.622  31.916  33.664  1.00  0.00    -0.206 F 
ATOM     78  C   UNL A   1      34.600  33.812  33.532  1.00  0.00     0.022 A 
BRANCH  75  79
ATOM     79  S   UNL A   1      33.321  35.331  31.587  1.00  0.00     0.124 S 
ATOM     80  O   UNL A   1      33.957  36.597  31.933  1.00  0.00    -0.237 OA
ATOM     81  O   UNL A   1      33.253  35.009  30.165  1.00  0.00    -0.237 OA
ATOM     82  O   UNL A   1      32.124  35.002  32.358  1.00  0.00    -0.744 OA
ENDBRANCH  75  79
ENDBRANCH  58  72
BRANCH  59  83
ATOM     83  C   UNL A   1      44.046  30.442  35.503  1.00  0.00     0.023 A 
ATOM     84  C   UNL A   1      43.734  29.086  35.770  1.00  0.00     0.031 A 
ATOM     85  C   UNL A   1      44.978  31.045  36.382  1.00  0.00     0.131 A 
ATOM     86  C   UNL A   1      44.335  28.409  36.866  1.00  0.00     0.055 A 
ATOM     87  C   UNL A   1      45.566  30.376  37.458  1.00  0.00     0.041 A 
ATOM     88  F   UNL A   1      45.423  32.293  36.174  1.00  0.00    -0.206 F 
ATOM     89  C   UNL A   1      45.253  29.049  37.701  1.00  0.00     0.022 A 
BRANCH  86  90
ATOM     90  S   UNL A   1      44.002  26.641  37.184  1.00  0.00     0.124 S 
ATOM     91  O   UNL A   1      43.085  26.297  36.105  1.00  0.00    -0.237 OA
ATOM     92  O   UNL A   1      45.335  26.051  37.116  1.00  0.00    -0.237 OA
ATOM     93  O   UNL A   1      43.404  26.637  38.520  1.00  0.00    -0.744 OA
ENDBRANCH  86  90
ENDBRANCH  59  83
BRANCH  71  94
ATOM     94  C   UNL A   1      43.183  34.822  30.985  1.00  0.00     0.023 A 
ATOM     95  C   UNL A   1      43.814  34.071  29.963  1.00  0.00     0.031 A 
ATOM     96  C   UNL A   1      43.716  36.091  31.273  1.00  0.00     0.131 A 
ATOM     97  C   UNL A   1      44.932  34.599  29.280  1.00  0.00     0.055 A 
ATOM     98  C   UNL A   1      44.802  36.621  30.577  1.00  0.00     0.041 A 
ATOM     99  F   UNL A   1      43.151  36.868  32.212  1.00  0.00    -0.206 F 
ATOM    100  C   UNL A   1      45.418  35.875  29.581  1.00  0.00     0.022 A 
BRANCH  97 101
ATOM    101  S   UNL A   1      45.792  33.631  27.994  1.00  0.00     0.124 S 
ATOM    102  O   UNL A   1      46.522  34.641  27.238  1.00  0.00    -0.237 OA
ATOM    103  O   UNL A   1      46.606  32.707  28.782  1.00  0.00    -0.237 OA
ATOM    104  O   UNL A   1      44.697  32.994  27.258  1.00  0.00    -0.744 OA
ENDBRANCH  97 101
ENDBRANCH  71  94
ENDBRANCH  45  46
ENDBRANCH  37  40
ENDBRANCH  35  36
ENDBRANCH  34  35
ENDBRANCH   1  34
TORSDOF 18
ENDMDL
MODEL 2
REMARK VINA RESULT:     -11.6      4.841     10.605
REMARK SMILES O=C1NC(=S)S/C1=C\c1ccc(OCc2cn(-c3ccc(C(=O)NCCCNC(=O)c4ccc(-c5c6nc(c(-c7cc(S(=O)(=O)[O-])ccc7F)c7ccc([nH]7)c(-c7cc(S(=O)(=O)[O-])ccc7F)c7nc(c(-c8cc(S(=O)(=O)[O-])ccc8F)c8ccc5[nH]8)C=C7)C=C6)cc4)cc3)nn2)cc1
REMARK SMILES IDX 25 1 24 2 22 3 23 4 21 6 18 7 19 8 95 9 20 10 94 11 17 12
REMARK SMILES IDX 15 13 16 14 97 15 96 16 14 17 13 18 12 19 9 20 10 21 99 22
REMARK SMILES IDX 11 23 98 24 8 25 1 26 2 27 3 28 7 29 4 30 6 32 5 33 26 34
REMARK SMILES IDX 27 35 28 36 29 37 30 39 31 40 32 41 93 42 33 43 92 44 34 45
REMARK SMILES IDX 35 46 36 47 86 48 37 49 91 50 85 51 87 52 38 53 90 54 84 55
REMARK SMILES IDX 83 56 39 58 71 59 51 60 70 61 52 62 55 63 69 64 88 65 53 66
REMARK SMILES IDX 54 67 68 69 89 70 56 71 40 72 41 73 49 74 42 75 48 76 50 77
REMARK SMILES IDX 47 78 43 79 44 80 45 81 46 82 72 83 73 84 81 85 74 86 80 87
REMARK SMILES IDX 82 88 79 89 75 90 76 91 77 92 78 93 57 94 58 95 66 96 59 97
REMARK SMILES IDX 65 98 67 99 64 100 60 101 61 102 62 103 63 104
REMARK H PARENT 24 5 3 31 28 38 87 57 55 68
REMARK Flexibility Score: inf
ROOT
ATOM      1  C   UNL A   1      38.775  33.977  29.444  1.00  0.00     0.118 C 
ENDROOT
BRANCH   1   2
ATOM      2  N   UNL A   1      39.224  32.759  30.105  1.00  0.00    -0.352 N 
ATOM      3  C   UNL A   1      38.720  31.481  30.114  1.00  0.00     0.251 C 
ATOM      4  O   UNL A   1      39.355  30.606  30.700  1.00  0.00    -0.269 OA
ATOM      5  H   UNL A   1      40.041  32.872  30.643  1.00  0.00     0.163 HD
BRANCH   3   6
ATOM      6  C   UNL A   1      37.471  31.102  29.394  1.00  0.00     0.039 A 
ATOM      7  C   UNL A   1      35.242  30.424  27.841  1.00  0.00     0.066 A 
ATOM      8  C   UNL A   1      36.406  29.651  27.758  1.00  0.00     0.029 A 
ATOM      9  C   UNL A   1      35.159  31.475  28.749  1.00  0.00     0.029 A 
ATOM     10  C   UNL A   1      37.526  30.012  28.513  1.00  0.00     0.016 A 
ATOM     11  C   UNL A   1      36.252  31.762  29.555  1.00  0.00     0.016 A 
BRANCH   7  12
ATOM     12  N   UNL A   1      34.138  30.140  27.021  1.00  0.00    -0.220 N 
ATOM     13  C   UNL A   1      32.780  29.349  25.510  1.00  0.00     0.120 A 
ATOM     14  C   UNL A   1      34.029  29.160  26.058  1.00  0.00     0.144 A 
ATOM     15  N   UNL A   1      32.167  30.376  26.179  1.00  0.00    -0.131 NA
ATOM     16  N   UNL A   1      32.982  30.824  27.116  1.00  0.00    -0.062 NA
BRANCH  13  17
ATOM     17  C   UNL A   1      32.049  28.569  24.469  1.00  0.00     0.289 C 
BRANCH  17  18
ATOM     18  O   UNL A   1      30.876  27.866  24.919  1.00  0.00    -0.487 OA
BRANCH  18  19
ATOM     19  C   UNL A   1      30.880  26.498  24.879  1.00  0.00     0.119 A 
ATOM     20  C   UNL A   1      31.219  23.719  25.089  1.00  0.00    -0.024 A 
ATOM     21  C   UNL A   1      30.954  24.480  26.229  1.00  0.00     0.012 A 
ATOM     22  C   UNL A   1      31.212  24.340  23.839  1.00  0.00     0.012 A 
ATOM     23  C   UNL A   1      30.793  25.866  26.123  1.00  0.00     0.047 A 
ATOM     24  C   UNL A   1      31.005  25.716  23.735  1.00  0.00     0.047 A 
BRANCH  20  25
ATOM     25  C   UNL A   1      31.518  22.288  25.185  1.00  0.00     0.029 C 
ATOM     26  O   UNL A   1      32.110  19.443  25.214  1.00  0.00    -0.268 OA
ATOM     27  C   UNL A   1      32.975  20.290  25.186  1.00  0.00     0.263 C 
ATOM     28  N   UNL A   1      34.322  20.036  25.140  1.00  0.00    -0.307 N 
ATOM     29  C   UNL A   1      32.751  21.763  25.175  1.00  0.00     0.080 C 
ATOM     30  C   UNL A   1      35.176  21.094  25.107  1.00  0.00     0.145 C 
ATOM     31  H   UNL A   1      34.661  19.112  25.131  1.00  0.00     0.171 HD
ATOM     32  S   UNL A   1      34.269  22.588  25.128  1.00  0.00    -0.055 SA
ATOM     33  S   UNL A   1      36.823  20.933  25.057  1.00  0.00    -0.052 S 
ENDBRANCH  20  25
ENDBRANCH  18  19
ENDBRANCH  17  18
ENDBRANCH  13  17
ENDBRANCH   7  12
ENDBRANCH   3   6
ENDBRANCH   1   2
BRANCH   1  34
ATOM     34  C   UNL A   1      39.942  34.934  29.149  1.00  0.00     0.042 C 
BRANCH  34  35
ATOM     35  C   UNL A   1      41.279  34.310  29.478  1.00  0.00     0.118 C 
BRANCH  35  36
ATOM     36  N   UNL A   1      42.406  35.202  29.162  1.00  0.00    -0.352 N 
ATOM     37  C   UNL A   1      43.740  34.890  28.924  1.00  0.00     0.251 C 
ATOM     38  H   UNL A   1      42.182  36.160  29.110  1.00  0.00     0.163 HD
ATOM     39  O   UNL A   1      44.602  35.749  29.045  1.00  0.00    -0.269 OA
BRANCH  37  40
ATOM     40  C   UNL A   1      44.084  33.511  28.530  1.00  0.00     0.039 A 
ATOM     41  C   UNL A   1      44.170  33.059  27.210  1.00  0.00     0.014 A 
ATOM     42  C   UNL A   1      44.402  32.658  29.566  1.00  0.00     0.014 A 
ATOM     43  C   UNL A   1      44.575  31.738  26.995  1.00  0.00     0.010 A 
ATOM     44  C   UNL A   1      45.245  31.634  29.304  1.00  0.00     0.010 A 
ATOM     45  C   UNL A   1      45.087  31.023  28.083  1.00  0.00    -0.014 A 
BRANCH  45  46
ATOM     46  C   UNL A   1      45.544  29.646  28.060  1.00  0.00     0.031 A 
ATOM     47  C   UNL A   1      44.442  28.666  28.109  1.00  0.00     0.074 A 
ATOM     48  C   UNL A   1      46.801  29.324  27.667  1.00  0.00     0.049 A 
ATOM     49  N   UNL A   1      44.098  27.934  29.113  1.00  0.00    -0.248 NA
ATOM     50  C   UNL A   1      43.466  28.654  27.006  1.00  0.00     0.031 C 
ATOM     51  C   UNL A   1      47.895  30.208  27.233  1.00  0.00     0.029 A 
ATOM     52  N   UNL A   1      47.334  28.094  27.453  1.00  0.00    -0.354 N 
ATOM     53  C   UNL A   1      43.023  27.175  28.671  1.00  0.00     0.074 A 
ATOM     54  C   UNL A   1      42.520  27.861  27.513  1.00  0.00     0.031 C 
ATOM     55  C   UNL A   1      48.849  29.481  26.605  1.00  0.00     0.029 A 
ATOM     56  C   UNL A   1      48.512  28.072  26.708  1.00  0.00     0.049 A 
ATOM     57  H   UNL A   1      46.916  27.272  27.801  1.00  0.00     0.167 HD
ATOM     58  C   UNL A   1      42.816  25.911  29.135  1.00  0.00     0.034 A 
ATOM     59  C   UNL A   1      49.120  26.970  26.178  1.00  0.00     0.034 A 
ATOM     60  C   UNL A   1      43.699  25.637  30.252  1.00  0.00     0.049 A 
ATOM     61  C   UNL A   1      48.612  25.808  26.966  1.00  0.00     0.074 A 
ATOM     62  C   UNL A   1      43.885  26.214  31.493  1.00  0.00     0.029 A 
ATOM     63  N   UNL A   1      44.860  24.934  29.991  1.00  0.00    -0.354 N 
ATOM     64  N   UNL A   1      48.839  25.667  28.247  1.00  0.00    -0.248 NA
ATOM     65  C   UNL A   1      47.416  25.128  26.481  1.00  0.00     0.031 C 
ATOM     66  C   UNL A   1      45.302  26.267  31.658  1.00  0.00     0.029 A 
ATOM     67  C   UNL A   1      45.902  25.616  30.577  1.00  0.00     0.049 A 
ATOM     68  H   UNL A   1      44.929  24.097  29.478  1.00  0.00     0.167 HD
ATOM     69  C   UNL A   1      47.621  25.281  28.795  1.00  0.00     0.074 A 
ATOM     70  C   UNL A   1      46.806  24.879  27.646  1.00  0.00     0.031 C 
ATOM     71  C   UNL A   1      47.269  25.622  30.074  1.00  0.00     0.034 A 
BRANCH  58  72
ATOM     72  C   UNL A   1      42.100  24.800  28.401  1.00  0.00     0.023 A 
ATOM     73  C   UNL A   1      42.902  23.925  27.644  1.00  0.00     0.031 A 
ATOM     74  C   UNL A   1      40.708  24.684  28.192  1.00  0.00     0.131 A 
ATOM     75  C   UNL A   1      42.341  23.082  26.672  1.00  0.00     0.055 A 
ATOM     76  C   UNL A   1      40.147  23.793  27.271  1.00  0.00     0.041 A 
ATOM     77  F   UNL A   1      39.810  25.472  28.791  1.00  0.00    -0.206 F 
ATOM     78  C   UNL A   1      40.966  23.009  26.479  1.00  0.00     0.022 A 
BRANCH  75  79
ATOM     79  S   UNL A   1      43.460  22.213  25.546  1.00  0.00     0.124 S 
ATOM     80  O   UNL A   1      42.851  20.889  25.487  1.00  0.00    -0.237 OA
ATOM     81  O   UNL A   1      43.358  23.025  24.337  1.00  0.00    -0.237 OA
ATOM     82  O   UNL A   1      44.748  22.277  26.233  1.00  0.00    -0.744 OA
ENDBRANCH  75  79
ENDBRANCH  58  72
BRANCH  59  83
ATOM     83  C   UNL A   1      49.771  26.863  24.830  1.00  0.00     0.023 A 
ATOM     84  C   UNL A   1      49.065  26.920  23.603  1.00  0.00     0.031 A 
ATOM     85  C   UNL A   1      51.181  26.926  24.734  1.00  0.00     0.131 A 
ATOM     86  C   UNL A   1      49.768  27.026  22.371  1.00  0.00     0.055 A 
ATOM     87  C   UNL A   1      51.867  27.029  23.521  1.00  0.00     0.041 A 
ATOM     88  F   UNL A   1      51.952  26.977  25.832  1.00  0.00    -0.206 F 
ATOM     89  C   UNL A   1      51.162  27.088  22.332  1.00  0.00     0.022 A 
BRANCH  86  90
ATOM     90  S   UNL A   1      48.876  27.174  20.783  1.00  0.00     0.124 S 
ATOM     91  O   UNL A   1      49.788  27.986  19.987  1.00  0.00    -0.237 OA
ATOM     92  O   UNL A   1      48.723  25.782  20.375  1.00  0.00    -0.237 OA
ATOM     93  O   UNL A   1      47.625  27.840  21.150  1.00  0.00    -0.744 OA
ENDBRANCH  86  90
ENDBRANCH  59  83
BRANCH  71  94
ATOM     94  C   UNL A   1      48.321  26.247  30.983  1.00  0.00     0.023 A 
ATOM     95  C   UNL A   1      49.361  25.541  31.636  1.00  0.00     0.031 A 
ATOM     96  C   UNL A   1      48.353  27.650  31.055  1.00  0.00     0.131 A 
ATOM     97  C   UNL A   1      50.373  26.243  32.325  1.00  0.00     0.055 A 
ATOM     98  C   UNL A   1      49.370  28.342  31.712  1.00  0.00     0.041 A 
ATOM     99  F   UNL A   1      47.413  28.385  30.436  1.00  0.00    -0.206 F 
ATOM    100  C   UNL A   1      50.383  27.641  32.355  1.00  0.00     0.022 A 
BRANCH  97 101
ATOM    101  S   UNL A   1      51.695  25.354  33.217  1.00  0.00     0.124 S 
ATOM    102  O   UNL A   1      52.355  24.585  32.168  1.00  0.00    -0.237 OA
ATOM    103  O   UNL A   1      52.475  26.444  33.799  1.00  0.00    -0.237 OA
ATOM    104  O   UNL A   1      50.962  24.546  34.194  1.00  0.00    -0.744 OA
ENDBRANCH  97 101
ENDBRANCH  71  94
ENDBRANCH  45  46
ENDBRANCH  37  40
ENDBRANCH  35  36
ENDBRANCH  34  35
ENDBRANCH   1  34
TORSDOF 18
ENDMDL
MODEL 3
REMARK VINA RESULT:     -11.5      3.887     10.644
REMARK SMILES O=C1NC(=S)S/C1=C\c1ccc(OCc2cn(-c3ccc(C(=O)NCCCNC(=O)c4ccc(-c5c6nc(c(-c7cc(S(=O)(=O)[O-])ccc7F)c7ccc([nH]7)c(-c7cc(S(=O)(=O)[O-])ccc7F)c7nc(c(-c8cc(S(=O)(=O)[O-])ccc8F)c8ccc5[nH]8)C=C7)C=C6)cc4)cc3)nn2)cc1
REMARK SMILES IDX 25 1 24 2 22 3 23 4 21 6 18 7 19 8 95 9 20 10 94 11 17 12
REMARK SMILES IDX 15 13 16 14 97 15 96 16 14 17 13 18 12 19 9 20 10 21 99 22
REMARK SMILES IDX 11 23 98 24 8 25 1 26 2 27 3 28 7 29 4 30 6 32 5 33 26 34
REMARK SMILES IDX 27 35 28 36 29 37 30 39 31 40 32 41 93 42 33 43 92 44 34 45
REMARK SMILES IDX 35 46 36 47 86 48 37 49 91 50 85 51 87 52 38 53 90 54 84 55
REMARK SMILES IDX 83 56 39 58 71 59 51 60 70 61 52 62 55 63 69 64 88 65 53 66
REMARK SMILES IDX 54 67 68 69 89 70 56 71 40 72 41 73 49 74 42 75 48 76 50 77
REMARK SMILES IDX 47 78 43 79 44 80 45 81 46 82 72 83 73 84 81 85 74 86 80 87
REMARK SMILES IDX 82 88 79 89 75 90 76 91 77 92 78 93 57 94 58 95 66 96 59 97
REMARK SMILES IDX 65 98 67 99 64 100 60 101 61 102 62 103 63 104
REMARK H PARENT 24 5 3 31 28 38 87 57 55 68
REMARK Flexibility Score: inf
ROOT
ATOM      1  C   UNL A   1      39.608  33.256  34.990  1.00  0.00     0.118 C 
ENDROOT
BRANCH   1   2
ATOM      2  N   UNL A   1      38.425  33.403  35.827  1.00  0.00    -0.352 N 
ATOM      3  C   UNL A   1      37.084  33.393  35.529  1.00  0.00     0.251 C 
ATOM      4  O   UNL A   1      36.279  33.456  36.457  1.00  0.00    -0.269 OA
ATOM      5  H   UNL A   1      38.623  33.532  36.783  1.00  0.00     0.163 HD
BRANCH   3   6
ATOM      6  C   UNL A   1      36.568  33.247  34.139  1.00  0.00     0.039 A 
ATOM      7  C   UNL A   1      35.393  33.059  31.604  1.00  0.00     0.066 A 
ATOM      8  C   UNL A   1      35.525  34.311  32.215  1.00  0.00     0.029 A 
ATOM      9  C   UNL A   1      35.913  31.921  32.212  1.00  0.00     0.029 A 
ATOM     10  C   UNL A   1      36.085  34.396  33.494  1.00  0.00     0.016 A 
ATOM     11  C   UNL A   1      36.546  32.039  33.442  1.00  0.00     0.016 A 
BRANCH   7  12
ATOM     12  N   UNL A   1      34.745  32.937  30.364  1.00  0.00    -0.220 N 
ATOM     13  C   UNL A   1      34.038  32.281  28.409  1.00  0.00     0.120 A 
ATOM     14  C   UNL A   1      34.782  31.870  29.492  1.00  0.00     0.144 A 
ATOM     15  N   UNL A   1      33.541  33.530  28.677  1.00  0.00    -0.131 NA
ATOM     16  N   UNL A   1      33.945  33.904  29.877  1.00  0.00    -0.062 NA
BRANCH  13  17
ATOM     17  C   UNL A   1      33.648  31.553  27.167  1.00  0.00     0.289 C 
BRANCH  17  18
ATOM     18  O   UNL A   1      32.598  30.579  27.312  1.00  0.00    -0.487 OA
BRANCH  18  19
ATOM     19  C   UNL A   1      32.705  29.398  26.629  1.00  0.00     0.119 A 
ATOM     20  C   UNL A   1      33.290  27.149  25.053  1.00  0.00    -0.024 A 
ATOM     21  C   UNL A   1      34.229  27.625  25.970  1.00  0.00     0.012 A 
ATOM     22  C   UNL A   1      32.026  27.741  25.003  1.00  0.00     0.012 A 
ATOM     23  C   UNL A   1      33.937  28.751  26.749  1.00  0.00     0.047 A 
ATOM     24  C   UNL A   1      31.726  28.835  25.815  1.00  0.00     0.047 A 
BRANCH  20  25
ATOM     25  C   UNL A   1      33.614  26.054  24.136  1.00  0.00     0.029 C 
ATOM     26  O   UNL A   1      34.405  23.880  22.378  1.00  0.00    -0.268 OA
ATOM     27  C   UNL A   1      33.936  23.692  23.478  1.00  0.00     0.263 C 
ATOM     28  N   UNL A   1      33.737  22.461  24.048  1.00  0.00    -0.307 N 
ATOM     29  C   UNL A   1      33.502  24.752  24.431  1.00  0.00     0.080 C 
ATOM     30  C   UNL A   1      33.203  22.408  25.299  1.00  0.00     0.145 C 
ATOM     31  H   UNL A   1      33.976  21.637  23.565  1.00  0.00     0.171 HD
ATOM     32  S   UNL A   1      32.899  24.028  25.880  1.00  0.00    -0.055 SA
ATOM     33  S   UNL A   1      32.906  20.992  26.102  1.00  0.00    -0.052 S 
ENDBRANCH  20  25
ENDBRANCH  18  19
ENDBRANCH  17  18
ENDBRANCH  13  17
ENDBRANCH   7  12
ENDBRANCH   3   6
ENDBRANCH   1   2
BRANCH   1  34
ATOM     34  C   UNL A   1      39.674  34.333  33.894  1.00  0.00     0.042 C 
BRANCH  34  35
ATOM     35  C   UNL A   1      40.171  33.770  32.581  1.00  0.00     0.118 C 
BRANCH  35  36
ATOM     36  N   UNL A   1      39.090  33.611  31.595  1.00  0.00    -0.352 N 
ATOM     37  C   UNL A   1      39.067  32.866  30.422  1.00  0.00     0.251 C 
ATOM     38  H   UNL A   1      38.262  34.104  31.797  1.00  0.00     0.163 HD
ATOM     39  O   UNL A   1      38.258  33.129  29.544  1.00  0.00    -0.269 OA
BRANCH  37  40
ATOM     40  C   UNL A   1      40.037  31.766  30.263  1.00  0.00     0.039 A 
ATOM     41  C   UNL A   1      41.419  31.935  30.142  1.00  0.00     0.014 A 
ATOM     42  C   UNL A   1      39.507  30.494  30.310  1.00  0.00     0.014 A 
ATOM     43  C   UNL A   1      42.216  30.789  30.067  1.00  0.00     0.010 A 
ATOM     44  C   UNL A   1      40.305  29.493  30.746  1.00  0.00     0.010 A 
ATOM     45  C   UNL A   1      41.619  29.555  30.345  1.00  0.00    -0.014 A 
BRANCH  45  46
ATOM     46  C   UNL A   1      42.274  28.261  30.307  1.00  0.00     0.031 A 
ATOM     47  C   UNL A   1      42.706  27.788  31.636  1.00  0.00     0.074 A 
ATOM     48  C   UNL A   1      42.159  27.441  29.234  1.00  0.00     0.049 A 
ATOM     49  N   UNL A   1      43.911  27.745  32.091  1.00  0.00    -0.248 NA
ATOM     50  C   UNL A   1      41.677  27.550  32.664  1.00  0.00     0.031 C 
ATOM     51  C   UNL A   1      41.432  27.656  27.972  1.00  0.00     0.029 A 
ATOM     52  N   UNL A   1      42.580  26.158  29.097  1.00  0.00    -0.354 N 
ATOM     53  C   UNL A   1      43.809  27.220  33.372  1.00  0.00     0.074 A 
ATOM     54  C   UNL A   1      42.435  27.401  33.751  1.00  0.00     0.031 C 
ATOM     55  C   UNL A   1      41.280  26.478  27.323  1.00  0.00     0.029 A 
ATOM     56  C   UNL A   1      42.010  25.447  28.042  1.00  0.00     0.049 A 
ATOM     57  H   UNL A   1      43.246  25.756  29.703  1.00  0.00     0.167 HD
ATOM     58  C   UNL A   1      44.797  26.441  33.895  1.00  0.00     0.034 A 
ATOM     59  C   UNL A   1      42.098  24.103  27.823  1.00  0.00     0.034 A 
ATOM     60  C   UNL A   1      45.966  26.473  33.037  1.00  0.00     0.049 A 
ATOM     61  C   UNL A   1      43.304  23.648  28.577  1.00  0.00     0.074 A 
ATOM     62  C   UNL A   1      46.801  27.479  32.589  1.00  0.00     0.029 A 
ATOM     63  N   UNL A   1      46.140  25.426  32.154  1.00  0.00    -0.354 N 
ATOM     64  N   UNL A   1      44.514  24.060  28.293  1.00  0.00    -0.248 NA
ATOM     65  C   UNL A   1      43.120  23.205  29.954  1.00  0.00     0.031 C 
ATOM     66  C   UNL A   1      47.011  27.185  31.209  1.00  0.00     0.029 A 
ATOM     67  C   UNL A   1      46.403  25.962  30.914  1.00  0.00     0.049 A 
ATOM     68  H   UNL A   1      46.084  24.467  32.372  1.00  0.00     0.167 HD
ATOM     69  C   UNL A   1      45.100  24.349  29.520  1.00  0.00     0.074 A 
ATOM     70  C   UNL A   1      44.224  23.717  30.510  1.00  0.00     0.031 C 
ATOM     71  C   UNL A   1      46.045  25.333  29.650  1.00  0.00     0.034 A 
BRANCH  58  72
ATOM     72  C   UNL A   1      44.625  25.381  34.959  1.00  0.00     0.023 A 
ATOM     73  C   UNL A   1      44.961  25.750  36.276  1.00  0.00     0.031 A 
ATOM     74  C   UNL A   1      44.398  24.004  34.751  1.00  0.00     0.131 A 
ATOM     75  C   UNL A   1      45.163  24.782  37.272  1.00  0.00     0.055 A 
ATOM     76  C   UNL A   1      44.533  23.048  35.764  1.00  0.00     0.041 A 
ATOM     77  F   UNL A   1      44.119  23.479  33.554  1.00  0.00    -0.206 F 
ATOM     78  C   UNL A   1      44.951  23.429  37.025  1.00  0.00     0.022 A 
BRANCH  75  79
ATOM     79  S   UNL A   1      45.878  25.312  38.847  1.00  0.00     0.124 S 
ATOM     80  O   UNL A   1      44.800  26.122  39.403  1.00  0.00    -0.237 OA
ATOM     81  O   UNL A   1      46.133  24.035  39.505  1.00  0.00    -0.237 OA
ATOM     82  O   UNL A   1      47.071  26.055  38.443  1.00  0.00    -0.744 OA
ENDBRANCH  75  79
ENDBRANCH  58  72
BRANCH  59  83
ATOM     83  C   UNL A   1      41.002  23.195  27.347  1.00  0.00     0.023 A 
ATOM     84  C   UNL A   1      39.710  23.641  26.974  1.00  0.00     0.031 A 
ATOM     85  C   UNL A   1      41.304  21.848  27.035  1.00  0.00     0.131 A 
ATOM     86  C   UNL A   1      38.800  22.757  26.333  1.00  0.00     0.055 A 
ATOM     87  C   UNL A   1      40.405  20.983  26.406  1.00  0.00     0.041 A 
ATOM     88  F   UNL A   1      42.528  21.341  27.253  1.00  0.00    -0.206 F 
ATOM     89  C   UNL A   1      39.149  21.436  26.044  1.00  0.00     0.022 A 
BRANCH  86  90
ATOM     90  S   UNL A   1      37.155  23.330  25.778  1.00  0.00     0.124 S 
ATOM     91  O   UNL A   1      37.406  23.702  24.391  1.00  0.00    -0.237 OA
ATOM     92  O   UNL A   1      36.320  22.154  25.995  1.00  0.00    -0.237 OA
ATOM     93  O   UNL A   1      36.864  24.455  26.670  1.00  0.00    -0.744 OA
ENDBRANCH  86  90
ENDBRANCH  59  83
BRANCH  71  94
ATOM     94  C   UNL A   1      46.620  25.970  28.391  1.00  0.00     0.023 A 
ATOM     95  C   UNL A   1      45.923  26.852  27.530  1.00  0.00     0.031 A 
ATOM     96  C   UNL A   1      47.993  25.789  28.152  1.00  0.00     0.131 A 
ATOM     97  C   UNL A   1      46.604  27.507  26.481  1.00  0.00     0.055 A 
ATOM     98  C   UNL A   1      48.669  26.459  27.132  1.00  0.00     0.041 A 
ATOM     99  F   UNL A   1      48.722  24.986  28.946  1.00  0.00    -0.206 F 
ATOM    100  C   UNL A   1      47.976  27.318  26.289  1.00  0.00     0.022 A 
BRANCH  97 101
ATOM    101  S   UNL A   1      45.717  28.609  25.327  1.00  0.00     0.124 S 
ATOM    102  O   UNL A   1      46.670  28.803  24.241  1.00  0.00    -0.237 OA
ATOM    103  O   UNL A   1      44.522  27.835  25.002  1.00  0.00    -0.237 OA
ATOM    104  O   UNL A   1      45.461  29.807  26.131  1.00  0.00    -0.744 OA
ENDBRANCH  97 101
ENDBRANCH  71  94
ENDBRANCH  45  46
ENDBRANCH  37  40
ENDBRANCH  35  36
ENDBRANCH  34  35
ENDBRANCH   1  34
TORSDOF 18
ENDMDL
