MODEL 1
REMARK VINA RESULT:     -12.2      0.000      0.000
REMARK SMILES N#Cc1ccc(C(=O)NCCCNC(=O)c2ccc(-c3c4nc(c(-c5cc(S(=O)(=O)[O-])ccc5F)c5ccc([nH]5)c(-c5cc(S(=O)(=O)[O-])ccc5F)c5nc(c(-c6cc(S(=O)(=O)[O-])ccc6F)c6ccc3[nH]6)C=C5)C=C4)cc2)nc1/C=C/c1ccc(O)c(Cl)c1
REMARK SMILES IDX 11 1 10 2 9 3 7 4 8 5 6 7 3 8 4 9 80 10 5 11 79 12 2 13 1 14
REMARK SMILES IDX 81 15 82 16 83 17 84 18 90 19 85 20 88 21 86 22 89 23 87 24
REMARK SMILES IDX 12 26 13 27 14 28 15 30 16 31 17 32 78 33 18 34 77 35 19 36
REMARK SMILES IDX 20 37 21 38 71 39 22 40 76 41 70 42 72 43 23 44 75 45 69 46
REMARK SMILES IDX 68 47 24 49 56 50 36 51 55 52 37 53 40 54 54 55 73 56 38 57
REMARK SMILES IDX 39 58 53 60 74 61 41 62 25 63 26 64 34 65 27 66 33 67 35 68
REMARK SMILES IDX 32 69 28 70 29 71 30 72 31 73 57 74 58 75 66 76 59 77 65 78
REMARK SMILES IDX 67 79 64 80 60 81 61 82 62 83 63 84 42 85 43 86 51 87 44 88
REMARK SMILES IDX 50 89 52 90 49 91 45 92 46 93 47 94 48 95
REMARK H PARENT 9 6 87 25 13 29 72 48 40 59
REMARK Flexibility Score: inf
ROOT
ATOM      1  C   UNL A   1      32.099  29.633  25.469  1.00  0.00     0.042 C 
ENDROOT
BRANCH   1   2
ATOM      2  C   UNL A   1      30.986  30.128  24.550  1.00  0.00     0.118 C 
BRANCH   2   3
ATOM      3  N   UNL A   1      30.877  29.317  23.352  1.00  0.00    -0.351 N 
ATOM      4  C   UNL A   1      30.796  27.973  23.078  1.00  0.00     0.269 C 
ATOM      5  O   UNL A   1      30.654  27.696  21.882  1.00  0.00    -0.268 OA
ATOM      6  H   UNL A   1      30.854  29.865  22.535  1.00  0.00     0.163 HD
BRANCH   4   7
ATOM      7  C   UNL A   1      30.862  26.851  24.089  1.00  0.00     0.128 A 
ATOM      8  C   UNL A   1      31.289  24.801  25.908  1.00  0.00     0.078 A 
ATOM      9  C   UNL A   1      30.003  25.295  25.703  1.00  0.00     0.024 A 
ATOM     10  C   UNL A   1      32.329  25.354  25.163  1.00  0.00     0.082 A 
ATOM     11  C   UNL A   1      29.790  26.335  24.799  1.00  0.00     0.035 A 
ATOM     12  N   UNL A   1      32.121  26.354  24.270  1.00  0.00    -0.242 NA
BRANCH   8  13
ATOM     13  C   UNL A   1      31.483  23.748  26.853  1.00  0.00     0.101 C 
ATOM     14  N   UNL A   1      31.644  22.894  27.627  1.00  0.00    -0.192 NA
ENDBRANCH   8  13
BRANCH  10  15
ATOM     15  C   UNL A   1      33.706  24.834  25.249  1.00  0.00     0.030 C 
ATOM     16  C   UNL A   1      34.167  23.725  24.646  1.00  0.00     0.010 C 
BRANCH  16  17
ATOM     17  C   UNL A   1      35.523  23.232  24.923  1.00  0.00    -0.024 A 
ATOM     18  C   UNL A   1      35.961  22.017  24.385  1.00  0.00     0.012 A 
ATOM     19  C   UNL A   1      36.388  23.964  25.754  1.00  0.00     0.032 A 
ATOM     20  C   UNL A   1      37.258  21.556  24.640  1.00  0.00     0.048 A 
ATOM     21  C   UNL A   1      37.679  23.507  26.004  1.00  0.00     0.083 A 
ATOM     22  C   UNL A   1      38.112  22.307  25.442  1.00  0.00     0.134 A 
ATOM     23  Cl  UNL A   1      38.730  24.437  27.006  1.00  0.00    -0.080 Cl
BRANCH  22  24
ATOM     24  O   UNL A   1      39.375  21.827  25.651  1.00  0.00    -0.506 OA
ATOM     25  H   UNL A   1      39.660  21.619  26.519  1.00  0.00     0.293 HD
ENDBRANCH  22  24
ENDBRANCH  16  17
ENDBRANCH  10  15
ENDBRANCH   4   7
ENDBRANCH   2   3
ENDBRANCH   1   2
BRANCH   1  26
ATOM     26  C   UNL A   1      32.017  30.253  26.864  1.00  0.00     0.118 C 
BRANCH  26  27
ATOM     27  N   UNL A   1      32.176  31.705  26.821  1.00  0.00    -0.352 N 
ATOM     28  C   UNL A   1      33.085  32.525  27.442  1.00  0.00     0.251 C 
ATOM     29  H   UNL A   1      31.522  32.174  26.253  1.00  0.00     0.163 HD
ATOM     30  O   UNL A   1      32.850  33.726  27.530  1.00  0.00    -0.269 OA
BRANCH  28  31
ATOM     31  C   UNL A   1      34.327  31.959  28.001  1.00  0.00     0.039 A 
ATOM     32  C   UNL A   1      35.430  32.791  28.203  1.00  0.00     0.014 A 
ATOM     33  C   UNL A   1      34.406  30.600  28.313  1.00  0.00     0.014 A 
ATOM     34  C   UNL A   1      36.583  32.273  28.794  1.00  0.00     0.010 A 
ATOM     35  C   UNL A   1      35.512  30.111  28.994  1.00  0.00     0.010 A 
ATOM     36  C   UNL A   1      36.613  30.942  29.242  1.00  0.00    -0.014 A 
BRANCH  36  37
ATOM     37  C   UNL A   1      37.784  30.400  29.976  1.00  0.00     0.031 A 
ATOM     38  C   UNL A   1      38.056  30.838  31.390  1.00  0.00     0.074 A 
ATOM     39  C   UNL A   1      38.635  29.568  29.343  1.00  0.00     0.049 A 
ATOM     40  N   UNL A   1      39.066  30.541  32.165  1.00  0.00    -0.248 NA
ATOM     41  C   UNL A   1      37.078  31.752  32.000  1.00  0.00     0.031 C 
ATOM     42  C   UNL A   1      38.491  29.105  27.961  1.00  0.00     0.029 A 
ATOM     43  N   UNL A   1      39.790  28.967  29.772  1.00  0.00    -0.354 N 
ATOM     44  C   UNL A   1      38.850  31.236  33.349  1.00  0.00     0.074 A 
ATOM     45  C   UNL A   1      37.651  32.023  33.162  1.00  0.00     0.031 C 
ATOM     46  C   UNL A   1      39.494  28.263  27.671  1.00  0.00     0.029 A 
ATOM     47  C   UNL A   1      40.392  28.178  28.818  1.00  0.00     0.049 A 
ATOM     48  H   UNL A   1      40.155  29.087  30.679  1.00  0.00     0.167 HD
ATOM     49  C   UNL A   1      39.572  31.199  34.496  1.00  0.00     0.034 A 
ATOM     50  C   UNL A   1      41.545  27.482  28.855  1.00  0.00     0.034 A 
ATOM     51  C   UNL A   1      40.766  30.407  34.660  1.00  0.00     0.049 A 
ATOM     52  C   UNL A   1      42.364  27.508  30.122  1.00  0.00     0.074 A 
ATOM     53  C   UNL A   1      41.551  30.260  35.791  1.00  0.00     0.029 A 
ATOM     54  N   UNL A   1      41.361  29.642  33.664  1.00  0.00    -0.354 N 
ATOM     55  N   UNL A   1      42.118  28.130  31.252  1.00  0.00    -0.248 NA
ATOM     56  C   UNL A   1      43.611  26.735  30.118  1.00  0.00     0.031 C 
ATOM     57  C   UNL A   1      42.664  29.487  35.453  1.00  0.00     0.029 A 
ATOM     58  C   UNL A   1      42.525  29.061  34.141  1.00  0.00     0.049 A 
ATOM     59  H   UNL A   1      41.007  29.530  32.752  1.00  0.00     0.167 HD
ATOM     60  C   UNL A   1      43.165  27.792  32.105  1.00  0.00     0.074 A 
ATOM     61  C   UNL A   1      44.031  26.900  31.364  1.00  0.00     0.031 C 
ATOM     62  C   UNL A   1      43.388  28.182  33.387  1.00  0.00     0.034 A 
BRANCH  49  63
ATOM     63  C   UNL A   1      39.107  32.063  35.643  1.00  0.00     0.023 A 
ATOM     64  C   UNL A   1      39.524  33.399  35.780  1.00  0.00     0.031 A 
ATOM     65  C   UNL A   1      38.248  31.541  36.627  1.00  0.00     0.131 A 
ATOM     66  C   UNL A   1      39.145  34.140  36.910  1.00  0.00     0.055 A 
ATOM     67  C   UNL A   1      37.800  32.313  37.700  1.00  0.00     0.041 A 
ATOM     68  F   UNL A   1      37.837  30.264  36.568  1.00  0.00    -0.206 F 
ATOM     69  C   UNL A   1      38.261  33.617  37.855  1.00  0.00     0.022 A 
BRANCH  66  70
ATOM     70  S   UNL A   1      39.956  35.735  37.207  1.00  0.00     0.124 S 
ATOM     71  O   UNL A   1      39.655  36.453  35.970  1.00  0.00    -0.237 OA
ATOM     72  O   UNL A   1      39.278  36.216  38.406  1.00  0.00    -0.237 OA
ATOM     73  O   UNL A   1      41.362  35.376  37.385  1.00  0.00    -0.744 OA
ENDBRANCH  66  70
ENDBRANCH  49  63
BRANCH  50  74
ATOM     74  C   UNL A   1      42.011  26.723  27.658  1.00  0.00     0.023 A 
ATOM     75  C   UNL A   1      41.939  25.322  27.616  1.00  0.00     0.031 A 
ATOM     76  C   UNL A   1      42.587  27.384  26.557  1.00  0.00     0.131 A 
ATOM     77  C   UNL A   1      42.483  24.625  26.527  1.00  0.00     0.055 A 
ATOM     78  C   UNL A   1      43.064  26.690  25.444  1.00  0.00     0.041 A 
ATOM     79  F   UNL A   1      42.684  28.723  26.543  1.00  0.00    -0.206 F 
ATOM     80  C   UNL A   1      43.029  25.300  25.433  1.00  0.00     0.022 A 
BRANCH  77  81
ATOM     81  S   UNL A   1      42.575  22.815  26.613  1.00  0.00     0.124 S 
ATOM     82  O   UNL A   1      43.951  22.611  27.052  1.00  0.00    -0.237 OA
ATOM     83  O   UNL A   1      41.536  22.506  27.590  1.00  0.00    -0.237 OA
ATOM     84  O   UNL A   1      42.286  22.395  25.244  1.00  0.00    -0.744 OA
ENDBRANCH  77  81
ENDBRANCH  50  74
BRANCH  62  85
ATOM     85  C   UNL A   1      44.597  27.604  34.084  1.00  0.00     0.023 A 
ATOM     86  C   UNL A   1      44.537  26.394  34.795  1.00  0.00     0.031 A 
ATOM     87  C   UNL A   1      45.829  28.282  34.039  1.00  0.00     0.131 A 
ATOM     88  C   UNL A   1      45.669  25.930  35.482  1.00  0.00     0.055 A 
ATOM     89  C   UNL A   1      46.972  27.775  34.658  1.00  0.00     0.041 A 
ATOM     90  F   UNL A   1      45.946  29.447  33.383  1.00  0.00    -0.206 F 
ATOM     91  C   UNL A   1      46.891  26.600  35.399  1.00  0.00     0.022 A 
BRANCH  88  92
ATOM     92  S   UNL A   1      45.489  24.501  36.584  1.00  0.00     0.124 S 
ATOM     93  O   UNL A   1      46.595  23.650  36.157  1.00  0.00    -0.237 OA
ATOM     94  O   UNL A   1      45.625  25.107  37.905  1.00  0.00    -0.237 OA
ATOM     95  O   UNL A   1      44.157  23.991  36.270  1.00  0.00    -0.744 OA
ENDBRANCH  88  92
ENDBRANCH  62  85
ENDBRANCH  36  37
ENDBRANCH  28  31
ENDBRANCH  26  27
ENDBRANCH   1  26
TORSDOF 17
ENDMDL
MODEL 2
REMARK VINA RESULT:     -11.8      1.954      2.248
REMARK SMILES N#Cc1ccc(C(=O)NCCCNC(=O)c2ccc(-c3c4nc(c(-c5cc(S(=O)(=O)[O-])ccc5F)c5ccc([nH]5)c(-c5cc(S(=O)(=O)[O-])ccc5F)c5nc(c(-c6cc(S(=O)(=O)[O-])ccc6F)c6ccc3[nH]6)C=C5)C=C4)cc2)nc1/C=C/c1ccc(O)c(Cl)c1
REMARK SMILES IDX 11 1 10 2 9 3 7 4 8 5 6 7 3 8 4 9 80 10 5 11 79 12 2 13 1 14
REMARK SMILES IDX 81 15 82 16 83 17 84 18 90 19 85 20 88 21 86 22 89 23 87 24
REMARK SMILES IDX 12 26 13 27 14 28 15 30 16 31 17 32 78 33 18 34 77 35 19 36
REMARK SMILES IDX 20 37 21 38 71 39 22 40 76 41 70 42 72 43 23 44 75 45 69 46
REMARK SMILES IDX 68 47 24 49 56 50 36 51 55 52 37 53 40 54 54 55 73 56 38 57
REMARK SMILES IDX 39 58 53 60 74 61 41 62 25 63 26 64 34 65 27 66 33 67 35 68
REMARK SMILES IDX 32 69 28 70 29 71 30 72 31 73 57 74 58 75 66 76 59 77 65 78
REMARK SMILES IDX 67 79 64 80 60 81 61 82 62 83 63 84 42 85 43 86 51 87 44 88
REMARK SMILES IDX 50 89 52 90 49 91 45 92 46 93 47 94 48 95
REMARK H PARENT 9 6 87 25 13 29 72 48 40 59
REMARK Flexibility Score: inf
ROOT
ATOM      1  C   UNL A   1      32.411  30.052  25.445  1.00  0.00     0.042 C 
ENDROOT
BRANCH   1   2
ATOM      2  C   UNL A   1      31.028  30.282  24.842  1.00  0.00     0.118 C 
BRANCH   2   3
ATOM      3  N   UNL A   1      30.856  29.560  23.596  1.00  0.00    -0.351 N 
ATOM      4  C   UNL A   1      30.701  28.243  23.235  1.00  0.00     0.269 C 
ATOM      5  O   UNL A   1      30.525  28.054  22.027  1.00  0.00    -0.268 OA
ATOM      6  H   UNL A   1      30.849  30.161  22.817  1.00  0.00     0.163 HD
BRANCH   4   7
ATOM      7  C   UNL A   1      30.724  27.054  24.169  1.00  0.00     0.128 A 
ATOM      8  C   UNL A   1      31.074  24.883  25.859  1.00  0.00     0.078 A 
ATOM      9  C   UNL A   1      29.798  25.393  25.635  1.00  0.00     0.024 A 
ATOM     10  C   UNL A   1      32.145  25.483  25.198  1.00  0.00     0.082 A 
ATOM     11  C   UNL A   1      29.623  26.493  24.796  1.00  0.00     0.035 A 
ATOM     12  N   UNL A   1      31.975  26.543  24.367  1.00  0.00    -0.242 NA
BRANCH   8  13
ATOM     13  C   UNL A   1      31.228  23.766  26.737  1.00  0.00     0.101 C 
ATOM     14  N   UNL A   1      31.347  22.856  27.450  1.00  0.00    -0.192 NA
ENDBRANCH   8  13
BRANCH  10  15
ATOM     15  C   UNL A   1      33.517  24.954  25.306  1.00  0.00     0.030 C 
ATOM     16  C   UNL A   1      34.073  24.040  24.493  1.00  0.00     0.010 C 
BRANCH  16  17
ATOM     17  C   UNL A   1      35.402  23.487  24.788  1.00  0.00    -0.024 A 
ATOM     18  C   UNL A   1      35.795  22.256  24.251  1.00  0.00     0.012 A 
ATOM     19  C   UNL A   1      36.285  24.177  25.636  1.00  0.00     0.032 A 
ATOM     20  C   UNL A   1      37.067  21.739  24.523  1.00  0.00     0.048 A 
ATOM     21  C   UNL A   1      37.551  23.664  25.903  1.00  0.00     0.083 A 
ATOM     22  C   UNL A   1      37.941  22.449  25.342  1.00  0.00     0.134 A 
ATOM     23  Cl  UNL A   1      38.626  24.543  26.927  1.00  0.00    -0.080 Cl
BRANCH  22  24
ATOM     24  O   UNL A   1      39.179  21.913  25.568  1.00  0.00    -0.506 OA
ATOM     25  H   UNL A   1      39.723  21.669  24.846  1.00  0.00     0.293 HD
ENDBRANCH  22  24
ENDBRANCH  16  17
ENDBRANCH  10  15
ENDBRANCH   4   7
ENDBRANCH   2   3
ENDBRANCH   1   2
BRANCH   1  26
ATOM     26  C   UNL A   1      32.500  30.533  26.893  1.00  0.00     0.118 C 
BRANCH  26  27
ATOM     27  N   UNL A   1      32.636  31.987  26.972  1.00  0.00    -0.352 N 
ATOM     28  C   UNL A   1      33.541  32.765  27.648  1.00  0.00     0.251 C 
ATOM     29  H   UNL A   1      31.966  32.491  26.455  1.00  0.00     0.163 HD
ATOM     30  O   UNL A   1      33.289  33.950  27.842  1.00  0.00    -0.269 OA
BRANCH  28  31
ATOM     31  C   UNL A   1      34.800  32.175  28.141  1.00  0.00     0.039 A 
ATOM     32  C   UNL A   1      35.955  32.959  28.183  1.00  0.00     0.014 A 
ATOM     33  C   UNL A   1      34.842  30.839  28.547  1.00  0.00     0.014 A 
ATOM     34  C   UNL A   1      37.129  32.422  28.711  1.00  0.00     0.010 A 
ATOM     35  C   UNL A   1      35.980  30.342  29.166  1.00  0.00     0.010 A 
ATOM     36  C   UNL A   1      37.137  31.127  29.255  1.00  0.00    -0.014 A 
BRANCH  36  37
ATOM     37  C   UNL A   1      38.341  30.577  29.925  1.00  0.00     0.031 A 
ATOM     38  C   UNL A   1      38.689  31.007  31.324  1.00  0.00     0.074 A 
ATOM     39  C   UNL A   1      39.154  29.744  29.246  1.00  0.00     0.049 A 
ATOM     40  N   UNL A   1      39.736  30.703  32.045  1.00  0.00    -0.248 NA
ATOM     41  C   UNL A   1      37.748  31.924  31.988  1.00  0.00     0.031 C 
ATOM     42  C   UNL A   1      38.936  29.286  27.871  1.00  0.00     0.029 A 
ATOM     43  N   UNL A   1      40.327  29.135  29.612  1.00  0.00    -0.354 N 
ATOM     44  C   UNL A   1      39.585  31.394  33.242  1.00  0.00     0.074 A 
ATOM     45  C   UNL A   1      38.382  32.187  33.120  1.00  0.00     0.031 C 
ATOM     46  C   UNL A   1      39.919  28.441  27.527  1.00  0.00     0.029 A 
ATOM     47  C   UNL A   1      40.874  28.347  28.625  1.00  0.00     0.049 A 
ATOM     48  H   UNL A   1      40.740  29.250  30.499  1.00  0.00     0.167 HD
ATOM     49  C   UNL A   1      40.366  31.349  34.349  1.00  0.00     0.034 A 
ATOM     50  C   UNL A   1      42.025  27.646  28.599  1.00  0.00     0.034 A 
ATOM     51  C   UNL A   1      41.563  30.551  34.448  1.00  0.00     0.049 A 
ATOM     52  C   UNL A   1      42.909  27.663  29.822  1.00  0.00     0.074 A 
ATOM     53  C   UNL A   1      42.404  30.396  35.536  1.00  0.00     0.029 A 
ATOM     54  N   UNL A   1      42.101  29.787  33.420  1.00  0.00    -0.354 N 
ATOM     55  N   UNL A   1      42.724  28.281  30.966  1.00  0.00    -0.248 NA
ATOM     56  C   UNL A   1      44.150  26.883  29.751  1.00  0.00     0.031 C 
ATOM     57  C   UNL A   1      43.495  29.619  35.138  1.00  0.00     0.029 A 
ATOM     58  C   UNL A   1      43.286  29.199  33.834  1.00  0.00     0.049 A 
ATOM     59  H   UNL A   1      41.700  29.680  32.527  1.00  0.00     0.167 HD
ATOM     60  C   UNL A   1      43.813  27.935  31.762  1.00  0.00     0.074 A 
ATOM     61  C   UNL A   1      44.635  27.042  30.973  1.00  0.00     0.031 C 
ATOM     62  C   UNL A   1      44.104  28.319  33.032  1.00  0.00     0.034 A 
BRANCH  49  63
ATOM     63  C   UNL A   1      39.965  32.211  35.522  1.00  0.00     0.023 A 
ATOM     64  C   UNL A   1      39.088  31.746  36.517  1.00  0.00     0.031 A 
ATOM     65  C   UNL A   1      40.452  33.525  35.640  1.00  0.00     0.131 A 
ATOM     66  C   UNL A   1      38.666  32.609  37.540  1.00  0.00     0.055 A 
ATOM     67  C   UNL A   1      40.101  34.349  36.712  1.00  0.00     0.041 A 
ATOM     68  F   UNL A   1      41.271  34.038  34.707  1.00  0.00    -0.206 F 
ATOM     69  C   UNL A   1      39.190  33.897  37.662  1.00  0.00     0.022 A 
BRANCH  66  70
ATOM     70  S   UNL A   1      37.301  32.077  38.609  1.00  0.00     0.124 S 
ATOM     71  O   UNL A   1      37.832  32.379  39.937  1.00  0.00    -0.237 OA
ATOM     72  O   UNL A   1      36.198  32.918  38.156  1.00  0.00    -0.237 OA
ATOM     73  O   UNL A   1      37.166  30.653  38.308  1.00  0.00    -0.744 OA
ENDBRANCH  66  70
ENDBRANCH  49  63
BRANCH  50  74
ATOM     74  C   UNL A   1      42.425  26.889  27.377  1.00  0.00     0.023 A 
ATOM     75  C   UNL A   1      42.275  25.495  27.307  1.00  0.00     0.031 A 
ATOM     76  C   UNL A   1      43.013  27.542  26.278  1.00  0.00     0.131 A 
ATOM     77  C   UNL A   1      42.757  24.794  26.192  1.00  0.00     0.055 A 
ATOM     78  C   UNL A   1      43.429  26.848  25.141  1.00  0.00     0.041 A 
ATOM     79  F   UNL A   1      43.183  28.874  26.291  1.00  0.00    -0.206 F 
ATOM     80  C   UNL A   1      43.317  25.462  25.101  1.00  0.00     0.022 A 
BRANCH  77  81
ATOM     81  S   UNL A   1      42.752  22.981  26.239  1.00  0.00     0.124 S 
ATOM     82  O   UNL A   1      41.471  22.706  26.880  1.00  0.00    -0.237 OA
ATOM     83  O   UNL A   1      42.848  22.642  24.823  1.00  0.00    -0.237 OA
ATOM     84  O   UNL A   1      43.934  22.658  27.036  1.00  0.00    -0.744 OA
ENDBRANCH  77  81
ENDBRANCH  50  74
BRANCH  62  85
ATOM     85  C   UNL A   1      45.345  27.733  33.663  1.00  0.00     0.023 A 
ATOM     86  C   UNL A   1      46.593  28.373  33.580  1.00  0.00     0.031 A 
ATOM     87  C   UNL A   1      45.276  26.509  34.354  1.00  0.00     0.131 A 
ATOM     88  C   UNL A   1      47.731  27.758  34.124  1.00  0.00     0.055 A 
ATOM     89  C   UNL A   1      46.397  25.941  34.961  1.00  0.00     0.041 A 
ATOM     90  F   UNL A   1      44.113  25.846  34.458  1.00  0.00    -0.206 F 
ATOM     91  C   UNL A   1      47.637  26.559  34.833  1.00  0.00     0.022 A 
BRANCH  88  92
ATOM     92  S   UNL A   1      49.357  28.489  33.787  1.00  0.00     0.124 S 
ATOM     93  O   UNL A   1      49.667  29.133  35.059  1.00  0.00    -0.237 OA
ATOM     94  O   UNL A   1      50.162  27.318  33.453  1.00  0.00    -0.237 OA
ATOM     95  O   UNL A   1      49.098  29.402  32.676  1.00  0.00    -0.744 OA
ENDBRANCH  88  92
ENDBRANCH  62  85
ENDBRANCH  36  37
ENDBRANCH  28  31
ENDBRANCH  26  27
ENDBRANCH   1  26
TORSDOF 17
ENDMDL
MODEL 3
REMARK VINA RESULT:     -11.3      5.997     13.058
REMARK SMILES N#Cc1ccc(C(=O)NCCCNC(=O)c2ccc(-c3c4nc(c(-c5cc(S(=O)(=O)[O-])ccc5F)c5ccc([nH]5)c(-c5cc(S(=O)(=O)[O-])ccc5F)c5nc(c(-c6cc(S(=O)(=O)[O-])ccc6F)c6ccc3[nH]6)C=C5)C=C4)cc2)nc1/C=C/c1ccc(O)c(Cl)c1
REMARK SMILES IDX 11 1 10 2 9 3 7 4 8 5 6 7 3 8 4 9 80 10 5 11 79 12 2 13 1 14
REMARK SMILES IDX 81 15 82 16 83 17 84 18 90 19 85 20 88 21 86 22 89 23 87 24
REMARK SMILES IDX 12 26 13 27 14 28 15 30 16 31 17 32 78 33 18 34 77 35 19 36
REMARK SMILES IDX 20 37 21 38 71 39 22 40 76 41 70 42 72 43 23 44 75 45 69 46
REMARK SMILES IDX 68 47 24 49 56 50 36 51 55 52 37 53 40 54 54 55 73 56 38 57
REMARK SMILES IDX 39 58 53 60 74 61 41 62 25 63 26 64 34 65 27 66 33 67 35 68
REMARK SMILES IDX 32 69 28 70 29 71 30 72 31 73 57 74 58 75 66 76 59 77 65 78
REMARK SMILES IDX 67 79 64 80 60 81 61 82 62 83 63 84 42 85 43 86 51 87 44 88
REMARK SMILES IDX 50 89 52 90 49 91 45 92 46 93 47 94 48 95
REMARK H PARENT 9 6 87 25 13 29 72 48 40 59
REMARK Flexibility Score: inf
ROOT
ATOM      1  C   UNL A   1      46.627  22.853  35.089  1.00  0.00     0.042 C 
ENDROOT
BRANCH   1   2
ATOM      2  C   UNL A   1      47.204  21.511  34.648  1.00  0.00     0.118 C 
BRANCH   2   3
ATOM      3  N   UNL A   1      46.223  20.447  34.737  1.00  0.00    -0.351 N 
ATOM      4  C   UNL A   1      45.857  19.522  35.685  1.00  0.00     0.269 C 
ATOM      5  O   UNL A   1      44.900  18.806  35.370  1.00  0.00    -0.268 OA
ATOM      6  H   UNL A   1      45.686  20.368  33.916  1.00  0.00     0.163 HD
BRANCH   4   7
ATOM      7  C   UNL A   1      46.509  19.323  37.035  1.00  0.00     0.128 A 
ATOM      8  C   UNL A   1      47.454  18.795  39.588  1.00  0.00     0.078 A 
ATOM      9  C   UNL A   1      48.255  19.477  38.676  1.00  0.00     0.024 A 
ATOM     10  C   UNL A   1      46.177  18.413  39.182  1.00  0.00     0.082 A 
ATOM     11  C   UNL A   1      47.785  19.730  37.388  1.00  0.00     0.035 A 
ATOM     12  N   UNL A   1      45.711  18.674  37.934  1.00  0.00    -0.242 NA
BRANCH   8  13
ATOM     13  C   UNL A   1      47.966  18.532  40.896  1.00  0.00     0.101 C 
ATOM     14  N   UNL A   1      48.379  18.311  41.960  1.00  0.00    -0.192 NA
ENDBRANCH   8  13
BRANCH  10  15
ATOM     15  C   UNL A   1      45.229  17.766  40.108  1.00  0.00     0.030 C 
ATOM     16  C   UNL A   1      44.906  16.462  40.119  1.00  0.00     0.010 C 
BRANCH  16  17
ATOM     17  C   UNL A   1      43.841  15.964  41.000  1.00  0.00    -0.024 A 
ATOM     18  C   UNL A   1      42.576  15.660  40.483  1.00  0.00     0.012 A 
ATOM     19  C   UNL A   1      44.072  15.811  42.377  1.00  0.00     0.032 A 
ATOM     20  C   UNL A   1      41.567  15.172  41.322  1.00  0.00     0.048 A 
ATOM     21  C   UNL A   1      43.068  15.323  43.210  1.00  0.00     0.083 A 
ATOM     22  C   UNL A   1      41.821  14.999  42.679  1.00  0.00     0.134 A 
ATOM     23  Cl  UNL A   1      43.386  15.120  44.893  1.00  0.00    -0.080 Cl
BRANCH  22  24
ATOM     24  O   UNL A   1      40.811  14.506  43.458  1.00  0.00    -0.506 OA
ATOM     25  H   UNL A   1      41.010  13.973  44.202  1.00  0.00     0.293 HD
ENDBRANCH  22  24
ENDBRANCH  16  17
ENDBRANCH  10  15
ENDBRANCH   4   7
ENDBRANCH   2   3
ENDBRANCH   1   2
BRANCH   1  26
ATOM     26  C   UNL A   1      47.566  24.018  34.778  1.00  0.00     0.118 C 
BRANCH  26  27
ATOM     27  N   UNL A   1      47.869  24.802  35.974  1.00  0.00    -0.352 N 
ATOM     28  C   UNL A   1      47.469  26.062  36.342  1.00  0.00     0.251 C 
ATOM     29  H   UNL A   1      48.458  24.353  36.623  1.00  0.00     0.163 HD
ATOM     30  O   UNL A   1      48.086  26.656  37.221  1.00  0.00    -0.269 OA
BRANCH  28  31
ATOM     31  C   UNL A   1      46.312  26.694  35.680  1.00  0.00     0.039 A 
ATOM     32  C   UNL A   1      46.510  27.818  34.877  1.00  0.00     0.014 A 
ATOM     33  C   UNL A   1      45.026  26.180  35.865  1.00  0.00     0.014 A 
ATOM     34  C   UNL A   1      45.428  28.376  34.196  1.00  0.00     0.010 A 
ATOM     35  C   UNL A   1      43.972  26.670  35.108  1.00  0.00     0.010 A 
ATOM     36  C   UNL A   1      44.160  27.774  34.265  1.00  0.00    -0.014 A 
BRANCH  36  37
ATOM     37  C   UNL A   1      43.020  28.279  33.460  1.00  0.00     0.031 A 
ATOM     38  C   UNL A   1      41.991  29.177  34.090  1.00  0.00     0.074 A 
ATOM     39  C   UNL A   1      42.880  27.871  32.183  1.00  0.00     0.049 A 
ATOM     40  N   UNL A   1      40.886  29.653  33.578  1.00  0.00    -0.248 NA
ATOM     41  C   UNL A   1      42.220  29.567  35.491  1.00  0.00     0.031 C 
ATOM     42  C   UNL A   1      43.798  26.972  31.479  1.00  0.00     0.029 A 
ATOM     43  N   UNL A   1      41.915  28.153  31.250  1.00  0.00    -0.354 N 
ATOM     44  C   UNL A   1      40.286  30.391  34.591  1.00  0.00     0.074 A 
ATOM     45  C   UNL A   1      41.114  30.240  35.768  1.00  0.00     0.031 C 
ATOM     46  C   UNL A   1      43.373  26.809  30.217  1.00  0.00     0.029 A 
ATOM     47  C   UNL A   1      42.119  27.533  30.038  1.00  0.00     0.049 A 
ATOM     48  H   UNL A   1      41.149  28.744  31.429  1.00  0.00     0.167 HD
ATOM     49  C   UNL A   1      39.161  31.145  34.537  1.00  0.00     0.034 A 
ATOM     50  C   UNL A   1      41.371  27.530  28.917  1.00  0.00     0.034 A 
ATOM     51  C   UNL A   1      38.349  31.281  33.352  1.00  0.00     0.049 A 
ATOM     52  C   UNL A   1      40.090  28.327  28.902  1.00  0.00     0.074 A 
ATOM     53  C   UNL A   1      37.216  32.054  33.172  1.00  0.00     0.029 A 
ATOM     54  N   UNL A   1      38.571  30.617  32.152  1.00  0.00    -0.354 N 
ATOM     55  N   UNL A   1      39.563  29.063  29.855  1.00  0.00    -0.248 NA
ATOM     56  C   UNL A   1      39.308  28.298  27.661  1.00  0.00     0.031 C 
ATOM     57  C   UNL A   1      36.702  31.786  31.900  1.00  0.00     0.029 A 
ATOM     58  C   UNL A   1      37.570  30.927  31.244  1.00  0.00     0.049 A 
ATOM     59  H   UNL A   1      39.329  30.014  31.972  1.00  0.00     0.167 HD
ATOM     60  C   UNL A   1      38.404  29.611  29.311  1.00  0.00     0.074 A 
ATOM     61  C   UNL A   1      38.322  29.135  27.947  1.00  0.00     0.031 C 
ATOM     62  C   UNL A   1      37.492  30.436  29.889  1.00  0.00     0.034 A 
BRANCH  49  63
ATOM     63  C   UNL A   1      38.730  31.850  35.800  1.00  0.00     0.023 A 
ATOM     64  C   UNL A   1      38.120  31.160  36.862  1.00  0.00     0.031 A 
ATOM     65  C   UNL A   1      38.915  33.237  35.941  1.00  0.00     0.131 A 
ATOM     66  C   UNL A   1      37.648  31.866  37.979  1.00  0.00     0.055 A 
ATOM     67  C   UNL A   1      38.528  33.919  37.096  1.00  0.00     0.041 A 
ATOM     68  F   UNL A   1      39.466  33.958  34.951  1.00  0.00    -0.206 F 
ATOM     69  C   UNL A   1      37.876  33.235  38.118  1.00  0.00     0.022 A 
BRANCH  66  70
ATOM     70  S   UNL A   1      36.592  30.994  39.168  1.00  0.00     0.124 S 
ATOM     71  O   UNL A   1      36.358  29.726  38.479  1.00  0.00    -0.237 OA
ATOM     72  O   UNL A   1      37.438  30.929  40.354  1.00  0.00    -0.237 OA
ATOM     73  O   UNL A   1      35.419  31.859  39.282  1.00  0.00    -0.744 OA
ENDBRANCH  66  70
ENDBRANCH  49  63
BRANCH  50  74
ATOM     74  C   UNL A   1      41.791  26.735  27.727  1.00  0.00     0.023 A 
ATOM     75  C   UNL A   1      41.460  25.376  27.610  1.00  0.00     0.031 A 
ATOM     76  C   UNL A   1      42.577  27.308  26.710  1.00  0.00     0.131 A 
ATOM     77  C   UNL A   1      41.958  24.623  26.536  1.00  0.00     0.055 A 
ATOM     78  C   UNL A   1      43.013  26.572  25.608  1.00  0.00     0.041 A 
ATOM     79  F   UNL A   1      42.926  28.604  26.771  1.00  0.00    -0.206 F 
ATOM     80  C   UNL A   1      42.718  25.216  25.525  1.00  0.00     0.022 A 
BRANCH  77  81
ATOM     81  S   UNL A   1      41.699  22.828  26.541  1.00  0.00     0.124 S 
ATOM     82  O   UNL A   1      40.244  22.740  26.552  1.00  0.00    -0.237 OA
ATOM     83  O   UNL A   1      42.358  22.424  25.304  1.00  0.00    -0.237 OA
ATOM     84  O   UNL A   1      42.363  22.393  27.769  1.00  0.00    -0.744 OA
ENDBRANCH  77  81
ENDBRANCH  50  74
BRANCH  62  85
ATOM     85  C   UNL A   1      36.349  30.913  29.025  1.00  0.00     0.023 A 
ATOM     86  C   UNL A   1      35.384  30.029  28.515  1.00  0.00     0.031 A 
ATOM     87  C   UNL A   1      36.230  32.278  28.702  1.00  0.00     0.131 A 
ATOM     88  C   UNL A   1      34.378  30.508  27.662  1.00  0.00     0.055 A 
ATOM     89  C   UNL A   1      35.181  32.760  27.918  1.00  0.00     0.041 A 
ATOM     90  F   UNL A   1      37.127  33.169  29.152  1.00  0.00    -0.206 F 
ATOM     91  C   UNL A   1      34.257  31.870  27.379  1.00  0.00     0.022 A 
BRANCH  88  92
ATOM     92  S   UNL A   1      33.301  29.309  26.830  1.00  0.00     0.124 S 
ATOM     93  O   UNL A   1      32.415  30.179  26.065  1.00  0.00    -0.237 OA
ATOM     94  O   UNL A   1      34.252  28.523  26.050  1.00  0.00    -0.237 OA
ATOM     95  O   UNL A   1      32.666  28.594  27.936  1.00  0.00    -0.744 OA
ENDBRANCH  88  92
ENDBRANCH  62  85
ENDBRANCH  36  37
ENDBRANCH  28  31
ENDBRANCH  26  27
ENDBRANCH   1  26
TORSDOF 17
ENDMDL
