MODEL 1
REMARK VINA RESULT:     -12.4      0.000      0.000
REMARK SMILES N#C/C(=C\c1ccc(Oc2ccccc2Cl)c([N+](=O)[O-])c1)C(=O)NCCCNC(=O)c1ccc(-c2c3nc(c(-c4cc(S(=O)(=O)[O-])ccc4F)c4ccc([nH]4)c(-c4cc(S(=O)(=O)[O-])ccc4F)c4nc(c(-c5cc(S(=O)(=O)[O-])ccc5F)c5ccc2[nH]5)C=C4)C=C3)cc1
REMARK SMILES IDX 26 1 25 2 24 3 22 4 23 5 3 7 4 8 2 9 1 10 5 11 6 12 21 13
REMARK SMILES IDX 7 14 17 15 8 16 18 17 19 18 20 19 9 20 10 21 11 22 15 23
REMARK SMILES IDX 12 24 14 25 16 26 13 27 27 28 28 29 29 30 30 32 31 33 32 34
REMARK SMILES IDX 93 35 33 36 92 37 34 38 35 39 36 40 86 41 37 42 91 43 85 44
REMARK SMILES IDX 87 45 38 46 90 47 84 48 83 49 39 51 71 52 51 53 70 54 52 55
REMARK SMILES IDX 55 56 69 57 88 58 53 59 54 60 68 62 89 63 56 64 40 65 41 66
REMARK SMILES IDX 49 67 42 68 48 69 50 70 47 71 43 72 44 73 45 74 46 75 72 76
REMARK SMILES IDX 73 77 81 78 74 79 80 80 82 81 79 82 75 83 76 84 77 85 78 86
REMARK SMILES IDX 57 87 58 88 66 89 59 90 65 91 67 92 64 93 60 94 61 95 62 96
REMARK SMILES IDX 63 97
REMARK H PARENT 24 6 28 31 87 50 55 61
REMARK Flexibility Score: inf
ROOT
ATOM      1  C   UNL A   1      31.402  31.913  26.642  1.00  0.00     0.042 C 
ENDROOT
BRANCH   1   2
ATOM      2  C   UNL A   1      31.554  30.660  25.777  1.00  0.00     0.118 C 
BRANCH   2   3
ATOM      3  N   UNL A   1      30.666  30.684  24.629  1.00  0.00    -0.351 N 
ATOM      4  C   UNL A   1      30.235  29.715  23.776  1.00  0.00     0.261 C 
ATOM      5  O   UNL A   1      29.396  30.041  22.934  1.00  0.00    -0.268 OA
ATOM      6  H   UNL A   1      30.304  31.577  24.427  1.00  0.00     0.163 HD
BRANCH   4   7
ATOM      7  C   UNL A   1      30.707  28.305  23.833  1.00  0.00     0.117 C 
ATOM      8  C   UNL A   1      29.987  27.214  24.196  1.00  0.00     0.033 C 
BRANCH   7   9
ATOM      9  C   UNL A   1      32.204  28.073  23.708  1.00  0.00     0.105 C 
ATOM     10  N   UNL A   1      33.446  27.881  23.603  1.00  0.00    -0.192 NA
ENDBRANCH   7   9
BRANCH   8  11
ATOM     11  C   UNL A   1      30.515  25.829  24.287  1.00  0.00    -0.017 A 
ATOM     12  C   UNL A   1      30.585  25.043  23.133  1.00  0.00     0.012 A 
ATOM     13  C   UNL A   1      31.001  25.294  25.485  1.00  0.00     0.098 A 
ATOM     14  C   UNL A   1      31.160  23.763  23.175  1.00  0.00     0.055 A 
ATOM     15  C   UNL A   1      31.662  24.053  25.494  1.00  0.00     0.312 A 
ATOM     16  C   UNL A   1      31.714  23.243  24.357  1.00  0.00     0.204 A 
BRANCH  15  17
ATOM     17  N   UNL A   1      32.399  23.758  26.706  1.00  0.00     0.066 N 
ATOM     18  O   UNL A   1      31.784  23.187  27.616  1.00  0.00    -0.258 OA
ATOM     19  O   UNL A   1      33.604  24.043  26.717  1.00  0.00    -0.258 OA
ENDBRANCH  15  17
BRANCH  16  20
ATOM     20  O   UNL A   1      32.249  21.983  24.188  1.00  0.00    -0.449 OA
BRANCH  20  21
ATOM     21  C   UNL A   1      33.603  21.780  24.276  1.00  0.00     0.146 A 
ATOM     22  C   UNL A   1      34.397  22.679  23.553  1.00  0.00     0.049 A 
ATOM     23  C   UNL A   1      34.207  20.740  24.993  1.00  0.00     0.083 A 
ATOM     24  C   UNL A   1      35.787  22.609  23.633  1.00  0.00     0.004 A 
ATOM     25  C   UNL A   1      35.601  20.686  25.086  1.00  0.00     0.024 A 
ATOM     26  Cl  UNL A   1      33.287  19.517  25.789  1.00  0.00    -0.080 Cl
ATOM     27  C   UNL A   1      36.388  21.628  24.419  1.00  0.00     0.002 A 
ENDBRANCH  20  21
ENDBRANCH  16  20
ENDBRANCH   8  11
ENDBRANCH   4   7
ENDBRANCH   2   3
ENDBRANCH   1   2
BRANCH   1  28
ATOM     28  C   UNL A   1      32.719  32.412  27.230  1.00  0.00     0.118 C 
BRANCH  28  29
ATOM     29  N   UNL A   1      32.623  33.799  27.660  1.00  0.00    -0.352 N 
ATOM     30  C   UNL A   1      33.261  34.454  28.684  1.00  0.00     0.251 C 
ATOM     31  H   UNL A   1      32.004  34.355  27.134  1.00  0.00     0.163 HD
ATOM     32  O   UNL A   1      32.838  35.550  29.040  1.00  0.00    -0.269 OA
BRANCH  30  33
ATOM     33  C   UNL A   1      34.433  33.850  29.356  1.00  0.00     0.039 A 
ATOM     34  C   UNL A   1      35.715  34.218  28.936  1.00  0.00     0.014 A 
ATOM     35  C   UNL A   1      34.278  32.885  30.355  1.00  0.00     0.014 A 
ATOM     36  C   UNL A   1      36.838  33.659  29.551  1.00  0.00     0.010 A 
ATOM     37  C   UNL A   1      35.395  32.381  31.015  1.00  0.00     0.010 A 
ATOM     38  C   UNL A   1      36.687  32.757  30.615  1.00  0.00    -0.014 A 
BRANCH  38  39
ATOM     39  C   UNL A   1      37.863  32.185  31.321  1.00  0.00     0.031 A 
ATOM     40  C   UNL A   1      38.669  31.092  30.676  1.00  0.00     0.074 A 
ATOM     41  C   UNL A   1      38.149  32.592  32.573  1.00  0.00     0.049 A 
ATOM     42  N   UNL A   1      39.651  30.383  31.168  1.00  0.00    -0.248 NA
ATOM     43  C   UNL A   1      38.291  30.723  29.302  1.00  0.00     0.031 C 
ATOM     44  C   UNL A   1      37.409  33.614  33.317  1.00  0.00     0.029 A 
ATOM     45  N   UNL A   1      39.121  32.182  33.450  1.00  0.00    -0.354 N 
ATOM     46  C   UNL A   1      39.994  29.468  30.178  1.00  0.00     0.074 A 
ATOM     47  C   UNL A   1      39.075  29.678  29.080  1.00  0.00     0.031 C 
ATOM     48  C   UNL A   1      37.957  33.754  34.534  1.00  0.00     0.029 A 
ATOM     49  C   UNL A   1      39.054  32.802  34.677  1.00  0.00     0.049 A 
ATOM     50  H   UNL A   1      39.802  31.508  33.224  1.00  0.00     0.167 HD
ATOM     51  C   UNL A   1      40.994  28.551  30.181  1.00  0.00     0.034 A 
ATOM     52  C   UNL A   1      39.777  32.609  35.798  1.00  0.00     0.034 A 
ATOM     53  C   UNL A   1      41.909  28.371  31.282  1.00  0.00     0.049 A 
ATOM     54  C   UNL A   1      40.880  31.583  35.782  1.00  0.00     0.074 A 
ATOM     55  C   UNL A   1      43.005  27.529  31.367  1.00  0.00     0.029 A 
ATOM     56  N   UNL A   1      41.827  29.036  32.501  1.00  0.00    -0.354 N 
ATOM     57  N   UNL A   1      41.235  30.769  34.814  1.00  0.00    -0.248 NA
ATOM     58  C   UNL A   1      41.686  31.457  37.003  1.00  0.00     0.031 C 
ATOM     59  C   UNL A   1      43.540  27.633  32.656  1.00  0.00     0.029 A 
ATOM     60  C   UNL A   1      42.829  28.596  33.353  1.00  0.00     0.049 A 
ATOM     61  H   UNL A   1      41.155  29.719  32.726  1.00  0.00     0.167 HD
ATOM     62  C   UNL A   1      42.323  30.052  35.302  1.00  0.00     0.074 A 
ATOM     63  C   UNL A   1      42.573  30.540  36.645  1.00  0.00     0.031 C 
ATOM     64  C   UNL A   1      43.055  29.083  34.695  1.00  0.00     0.034 A 
BRANCH  51  65
ATOM     65  C   UNL A   1      41.121  27.656  28.969  1.00  0.00     0.023 A 
ATOM     66  C   UNL A   1      42.136  27.841  28.013  1.00  0.00     0.031 A 
ATOM     67  C   UNL A   1      40.189  26.627  28.741  1.00  0.00     0.131 A 
ATOM     68  C   UNL A   1      42.142  27.076  26.836  1.00  0.00     0.055 A 
ATOM     69  C   UNL A   1      40.254  25.809  27.611  1.00  0.00     0.041 A 
ATOM     70  F   UNL A   1      39.185  26.411  29.606  1.00  0.00    -0.206 F 
ATOM     71  C   UNL A   1      41.223  26.043  26.640  1.00  0.00     0.022 A 
BRANCH  68  72
ATOM     72  S   UNL A   1      43.261  27.564  25.494  1.00  0.00     0.124 S 
ATOM     73  O   UNL A   1      42.333  28.175  24.545  1.00  0.00    -0.237 OA
ATOM     74  O   UNL A   1      44.180  28.475  26.166  1.00  0.00    -0.237 OA
ATOM     75  O   UNL A   1      43.843  26.297  25.057  1.00  0.00    -0.744 OA
ENDBRANCH  68  72
ENDBRANCH  51  65
BRANCH  52  76
ATOM     76  C   UNL A   1      39.466  33.387  37.030  1.00  0.00     0.023 A 
ATOM     77  C   UNL A   1      40.113  34.603  37.304  1.00  0.00     0.031 A 
ATOM     78  C   UNL A   1      38.523  32.916  37.960  1.00  0.00     0.131 A 
ATOM     79  C   UNL A   1      39.834  35.288  38.497  1.00  0.00     0.055 A 
ATOM     80  C   UNL A   1      38.214  33.626  39.123  1.00  0.00     0.041 A 
ATOM     81  F   UNL A   1      37.869  31.764  37.741  1.00  0.00    -0.206 F 
ATOM     82  C   UNL A   1      38.879  34.814  39.401  1.00  0.00     0.022 A 
BRANCH  79  83
ATOM     83  S   UNL A   1      40.787  36.782  38.883  1.00  0.00     0.124 S 
ATOM     84  O   UNL A   1      41.682  36.869  37.736  1.00  0.00    -0.237 OA
ATOM     85  O   UNL A   1      39.741  37.796  38.961  1.00  0.00    -0.237 OA
ATOM     86  O   UNL A   1      41.430  36.456  40.155  1.00  0.00    -0.744 OA
ENDBRANCH  79  83
ENDBRANCH  52  76
BRANCH  64  87
ATOM     87  C   UNL A   1      44.222  28.518  35.467  1.00  0.00     0.023 A 
ATOM     88  C   UNL A   1      44.066  27.459  36.378  1.00  0.00     0.031 A 
ATOM     89  C   UNL A   1      45.511  29.051  35.285  1.00  0.00     0.131 A 
ATOM     90  C   UNL A   1      45.172  26.998  37.107  1.00  0.00     0.055 A 
ATOM     91  C   UNL A   1      46.618  28.548  35.970  1.00  0.00     0.041 A 
ATOM     92  F   UNL A   1      45.717  30.066  34.429  1.00  0.00    -0.206 F 
ATOM     93  C   UNL A   1      46.450  27.523  36.896  1.00  0.00     0.022 A 
BRANCH  90  94
ATOM     94  S   UNL A   1      44.907  25.751  38.398  1.00  0.00     0.124 S 
ATOM     95  O   UNL A   1      46.269  25.491  38.851  1.00  0.00    -0.237 OA
ATOM     96  O   UNL A   1      44.045  26.456  39.341  1.00  0.00    -0.237 OA
ATOM     97  O   UNL A   1      44.270  24.646  37.682  1.00  0.00    -0.744 OA
ENDBRANCH  90  94
ENDBRANCH  64  87
ENDBRANCH  38  39
ENDBRANCH  30  33
ENDBRANCH  28  29
ENDBRANCH   1  28
TORSDOF 18
ENDMDL
MODEL 2
REMARK VINA RESULT:     -12.2      6.163     11.308
REMARK SMILES N#C/C(=C\c1ccc(Oc2ccccc2Cl)c([N+](=O)[O-])c1)C(=O)NCCCNC(=O)c1ccc(-c2c3nc(c(-c4cc(S(=O)(=O)[O-])ccc4F)c4ccc([nH]4)c(-c4cc(S(=O)(=O)[O-])ccc4F)c4nc(c(-c5cc(S(=O)(=O)[O-])ccc5F)c5ccc2[nH]5)C=C4)C=C3)cc1
REMARK SMILES IDX 26 1 25 2 24 3 22 4 23 5 3 7 4 8 2 9 1 10 5 11 6 12 21 13
REMARK SMILES IDX 7 14 17 15 8 16 18 17 19 18 20 19 9 20 10 21 11 22 15 23
REMARK SMILES IDX 12 24 14 25 16 26 13 27 27 28 28 29 29 30 30 32 31 33 32 34
REMARK SMILES IDX 93 35 33 36 92 37 34 38 35 39 36 40 86 41 37 42 91 43 85 44
REMARK SMILES IDX 87 45 38 46 90 47 84 48 83 49 39 51 71 52 51 53 70 54 52 55
REMARK SMILES IDX 55 56 69 57 88 58 53 59 54 60 68 62 89 63 56 64 40 65 41 66
REMARK SMILES IDX 49 67 42 68 48 69 50 70 47 71 43 72 44 73 45 74 46 75 72 76
REMARK SMILES IDX 73 77 81 78 74 79 80 80 82 81 79 82 75 83 76 84 77 85 78 86
REMARK SMILES IDX 57 87 58 88 66 89 59 90 65 91 67 92 64 93 60 94 61 95 62 96
REMARK SMILES IDX 63 97
REMARK H PARENT 24 6 28 31 87 50 55 61
REMARK Flexibility Score: inf
ROOT
ATOM      1  C   UNL A   1      37.770  19.544  24.908  1.00  0.00     0.042 C 
ENDROOT
BRANCH   1   2
ATOM      2  C   UNL A   1      36.434  20.287  24.948  1.00  0.00     0.118 C 
BRANCH   2   3
ATOM      3  N   UNL A   1      35.306  19.373  25.004  1.00  0.00    -0.351 N 
ATOM      4  C   UNL A   1      33.967  19.549  24.843  1.00  0.00     0.261 C 
ATOM      5  O   UNL A   1      33.261  18.539  24.864  1.00  0.00    -0.268 OA
ATOM      6  H   UNL A   1      35.562  18.442  25.196  1.00  0.00     0.163 HD
BRANCH   4   7
ATOM      7  C   UNL A   1      33.337  20.879  24.623  1.00  0.00     0.117 C 
ATOM      8  C   UNL A   1      32.734  21.324  23.492  1.00  0.00     0.033 C 
BRANCH   7   9
ATOM      9  C   UNL A   1      33.593  21.945  25.676  1.00  0.00     0.105 C 
ATOM     10  N   UNL A   1      33.805  22.830  26.549  1.00  0.00    -0.192 NA
ENDBRANCH   7   9
BRANCH   8  11
ATOM     11  C   UNL A   1      32.162  22.681  23.302  1.00  0.00    -0.017 A 
ATOM     12  C   UNL A   1      31.006  23.043  23.999  1.00  0.00     0.012 A 
ATOM     13  C   UNL A   1      32.772  23.639  22.485  1.00  0.00     0.098 A 
ATOM     14  C   UNL A   1      30.493  24.347  23.903  1.00  0.00     0.055 A 
ATOM     15  C   UNL A   1      32.307  24.966  22.475  1.00  0.00     0.312 A 
ATOM     16  C   UNL A   1      31.136  25.337  23.142  1.00  0.00     0.204 A 
BRANCH  15  17
ATOM     17  N   UNL A   1      33.201  25.926  21.859  1.00  0.00     0.066 N 
ATOM     18  O   UNL A   1      33.274  25.917  20.623  1.00  0.00    -0.258 OA
ATOM     19  O   UNL A   1      33.777  26.723  22.612  1.00  0.00    -0.258 OA
ENDBRANCH  15  17
BRANCH  16  20
ATOM     20  O   UNL A   1      30.492  26.555  23.194  1.00  0.00    -0.449 OA
BRANCH  20  21
ATOM     21  C   UNL A   1      30.845  27.495  24.130  1.00  0.00     0.146 A 
ATOM     22  C   UNL A   1      31.196  26.991  25.388  1.00  0.00     0.049 A 
ATOM     23  C   UNL A   1      30.837  28.877  23.912  1.00  0.00     0.083 A 
ATOM     24  C   UNL A   1      31.642  27.852  26.389  1.00  0.00     0.004 A 
ATOM     25  C   UNL A   1      31.305  29.735  24.911  1.00  0.00     0.024 A 
ATOM     26  Cl  UNL A   1      30.283  29.572  22.433  1.00  0.00    -0.080 Cl
ATOM     27  C   UNL A   1      31.720  29.222  26.142  1.00  0.00     0.002 A 
ENDBRANCH  20  21
ENDBRANCH  16  20
ENDBRANCH   8  11
ENDBRANCH   4   7
ENDBRANCH   2   3
ENDBRANCH   1   2
BRANCH   1  28
ATOM     28  C   UNL A   1      38.860  20.204  25.749  1.00  0.00     0.118 C 
BRANCH  28  29
ATOM     29  N   UNL A   1      40.004  19.323  25.931  1.00  0.00    -0.352 N 
ATOM     30  C   UNL A   1      41.331  19.623  26.109  1.00  0.00     0.251 C 
ATOM     31  H   UNL A   1      39.792  18.361  25.927  1.00  0.00     0.163 HD
ATOM     32  O   UNL A   1      42.162  18.729  25.976  1.00  0.00    -0.269 OA
BRANCH  30  33
ATOM     33  C   UNL A   1      41.759  20.999  26.445  1.00  0.00     0.039 A 
ATOM     34  C   UNL A   1      41.873  21.359  27.791  1.00  0.00     0.014 A 
ATOM     35  C   UNL A   1      41.995  21.948  25.447  1.00  0.00     0.014 A 
ATOM     36  C   UNL A   1      42.271  22.653  28.135  1.00  0.00     0.010 A 
ATOM     37  C   UNL A   1      42.460  23.215  25.788  1.00  0.00     0.010 A 
ATOM     38  C   UNL A   1      42.595  23.584  27.135  1.00  0.00    -0.014 A 
BRANCH  38  39
ATOM     39  C   UNL A   1      43.069  24.952  27.472  1.00  0.00     0.031 A 
ATOM     40  C   UNL A   1      42.126  25.943  28.096  1.00  0.00     0.074 A 
ATOM     41  C   UNL A   1      44.320  25.321  27.138  1.00  0.00     0.049 A 
ATOM     42  N   UNL A   1      42.307  27.211  28.356  1.00  0.00    -0.248 NA
ATOM     43  C   UNL A   1      40.785  25.444  28.439  1.00  0.00     0.031 C 
ATOM     44  C   UNL A   1      45.310  24.459  26.488  1.00  0.00     0.029 A 
ATOM     45  N   UNL A   1      44.968  26.524  27.274  1.00  0.00    -0.354 N 
ATOM     46  C   UNL A   1      41.098  27.671  28.869  1.00  0.00     0.074 A 
ATOM     47  C   UNL A   1      40.177  26.554  28.829  1.00  0.00     0.031 C 
ATOM     48  C   UNL A   1      46.438  25.158  26.288  1.00  0.00     0.029 A 
ATOM     49  C   UNL A   1      46.240  26.528  26.750  1.00  0.00     0.049 A 
ATOM     50  H   UNL A   1      44.561  27.309  27.708  1.00  0.00     0.167 HD
ATOM     51  C   UNL A   1      40.792  28.904  29.344  1.00  0.00     0.034 A 
ATOM     52  C   UNL A   1      47.137  27.527  26.631  1.00  0.00     0.034 A 
ATOM     53  C   UNL A   1      41.734  29.997  29.389  1.00  0.00     0.049 A 
ATOM     54  C   UNL A   1      46.777  28.891  27.161  1.00  0.00     0.074 A 
ATOM     55  C   UNL A   1      41.561  31.265  29.917  1.00  0.00     0.029 A 
ATOM     56  N   UNL A   1      43.024  29.958  28.871  1.00  0.00    -0.354 N 
ATOM     57  N   UNL A   1      45.651  29.294  27.704  1.00  0.00    -0.248 NA
ATOM     58  C   UNL A   1      47.811  29.930  27.073  1.00  0.00     0.031 C 
ATOM     59  C   UNL A   1      42.716  32.011  29.657  1.00  0.00     0.029 A 
ATOM     60  C   UNL A   1      43.642  31.188  29.036  1.00  0.00     0.049 A 
ATOM     61  H   UNL A   1      43.437  29.171  28.449  1.00  0.00     0.167 HD
ATOM     62  C   UNL A   1      45.851  30.628  28.045  1.00  0.00     0.074 A 
ATOM     63  C   UNL A   1      47.211  30.956  27.659  1.00  0.00     0.031 C 
ATOM     64  C   UNL A   1      44.994  31.503  28.631  1.00  0.00     0.034 A 
BRANCH  51  65
ATOM     65  C   UNL A   1      39.376  29.137  29.819  1.00  0.00     0.023 A 
ATOM     66  C   UNL A   1      38.436  29.833  29.037  1.00  0.00     0.031 A 
ATOM     67  C   UNL A   1      38.968  28.694  31.090  1.00  0.00     0.131 A 
ATOM     68  C   UNL A   1      37.175  30.145  29.566  1.00  0.00     0.055 A 
ATOM     69  C   UNL A   1      37.680  28.928  31.575  1.00  0.00     0.041 A 
ATOM     70  F   UNL A   1      39.823  28.041  31.892  1.00  0.00    -0.206 F 
ATOM     71  C   UNL A   1      36.780  29.675  30.820  1.00  0.00     0.022 A 
BRANCH  68  72
ATOM     72  S   UNL A   1      36.123  31.314  28.661  1.00  0.00     0.124 S 
ATOM     73  O   UNL A   1      37.069  32.385  28.356  1.00  0.00    -0.237 OA
ATOM     74  O   UNL A   1      35.671  30.517  27.526  1.00  0.00    -0.237 OA
ATOM     75  O   UNL A   1      35.088  31.664  29.631  1.00  0.00    -0.744 OA
ENDBRANCH  68  72
ENDBRANCH  51  65
BRANCH  52  76
ATOM     76  C   UNL A   1      48.447  27.280  25.967  1.00  0.00     0.023 A 
ATOM     77  C   UNL A   1      48.601  27.440  24.581  1.00  0.00     0.031 A 
ATOM     78  C   UNL A   1      49.565  26.864  26.711  1.00  0.00     0.131 A 
ATOM     79  C   UNL A   1      49.835  27.153  23.977  1.00  0.00     0.055 A 
ATOM     80  C   UNL A   1      50.804  26.625  26.113  1.00  0.00     0.041 A 
ATOM     81  F   UNL A   1      49.474  26.706  28.042  1.00  0.00    -0.206 F 
ATOM     82  C   UNL A   1      50.941  26.760  24.736  1.00  0.00     0.022 A 
BRANCH  79  83
ATOM     83  S   UNL A   1      49.959  27.239  22.170  1.00  0.00     0.124 S 
ATOM     84  O   UNL A   1      49.749  28.660  21.924  1.00  0.00    -0.237 OA
ATOM     85  O   UNL A   1      51.309  26.738  21.935  1.00  0.00    -0.237 OA
ATOM     86  O   UNL A   1      48.883  26.361  21.713  1.00  0.00    -0.744 OA
ENDBRANCH  79  83
ENDBRANCH  52  76
BRANCH  64  87
ATOM     87  C   UNL A   1      45.519  32.886  28.927  1.00  0.00     0.023 A 
ATOM     88  C   UNL A   1      45.546  33.894  27.948  1.00  0.00     0.031 A 
ATOM     89  C   UNL A   1      45.999  33.197  30.211  1.00  0.00     0.131 A 
ATOM     90  C   UNL A   1      46.086  35.152  28.256  1.00  0.00     0.055 A 
ATOM     91  C   UNL A   1      46.481  34.468  30.529  1.00  0.00     0.041 A 
ATOM     92  F   UNL A   1      46.000  32.271  31.184  1.00  0.00    -0.206 F 
ATOM     93  C   UNL A   1      46.537  35.451  29.545  1.00  0.00     0.022 A 
BRANCH  90  94
ATOM     94  S   UNL A   1      46.266  36.373  26.927  1.00  0.00     0.124 S 
ATOM     95  O   UNL A   1      45.173  37.296  27.214  1.00  0.00    -0.237 OA
ATOM     96  O   UNL A   1      47.612  36.888  27.156  1.00  0.00    -0.237 OA
ATOM     97  O   UNL A   1      46.104  35.581  25.709  1.00  0.00    -0.744 OA
ENDBRANCH  90  94
ENDBRANCH  64  87
ENDBRANCH  38  39
ENDBRANCH  30  33
ENDBRANCH  28  29
ENDBRANCH   1  28
TORSDOF 18
ENDMDL
MODEL 3
REMARK VINA RESULT:     -12.1      5.713     11.600
REMARK SMILES N#C/C(=C\c1ccc(Oc2ccccc2Cl)c([N+](=O)[O-])c1)C(=O)NCCCNC(=O)c1ccc(-c2c3nc(c(-c4cc(S(=O)(=O)[O-])ccc4F)c4ccc([nH]4)c(-c4cc(S(=O)(=O)[O-])ccc4F)c4nc(c(-c5cc(S(=O)(=O)[O-])ccc5F)c5ccc2[nH]5)C=C4)C=C3)cc1
REMARK SMILES IDX 26 1 25 2 24 3 22 4 23 5 3 7 4 8 2 9 1 10 5 11 6 12 21 13
REMARK SMILES IDX 7 14 17 15 8 16 18 17 19 18 20 19 9 20 10 21 11 22 15 23
REMARK SMILES IDX 12 24 14 25 16 26 13 27 27 28 28 29 29 30 30 32 31 33 32 34
REMARK SMILES IDX 93 35 33 36 92 37 34 38 35 39 36 40 86 41 37 42 91 43 85 44
REMARK SMILES IDX 87 45 38 46 90 47 84 48 83 49 39 51 71 52 51 53 70 54 52 55
REMARK SMILES IDX 55 56 69 57 88 58 53 59 54 60 68 62 89 63 56 64 40 65 41 66
REMARK SMILES IDX 49 67 42 68 48 69 50 70 47 71 43 72 44 73 45 74 46 75 72 76
REMARK SMILES IDX 73 77 81 78 74 79 80 80 82 81 79 82 75 83 76 84 77 85 78 86
REMARK SMILES IDX 57 87 58 88 66 89 59 90 65 91 67 92 64 93 60 94 61 95 62 96
REMARK SMILES IDX 63 97
REMARK H PARENT 24 6 28 31 87 50 55 61
REMARK Flexibility Score: inf
ROOT
ATOM      1  C   UNL A   1      38.204  19.574  25.077  1.00  0.00     0.042 C 
ENDROOT
BRANCH   1   2
ATOM      2  C   UNL A   1      36.994  20.506  24.984  1.00  0.00     0.118 C 
BRANCH   2   3
ATOM      3  N   UNL A   1      35.741  19.772  25.003  1.00  0.00    -0.351 N 
ATOM      4  C   UNL A   1      34.444  20.156  24.860  1.00  0.00     0.261 C 
ATOM      5  O   UNL A   1      33.594  19.266  24.838  1.00  0.00    -0.268 OA
ATOM      6  H   UNL A   1      35.853  18.805  25.150  1.00  0.00     0.163 HD
BRANCH   4   7
ATOM      7  C   UNL A   1      34.024  21.576  24.707  1.00  0.00     0.117 C 
ATOM      8  C   UNL A   1      34.357  22.620  25.506  1.00  0.00     0.033 C 
BRANCH   7   9
ATOM      9  C   UNL A   1      32.920  21.863  23.702  1.00  0.00     0.105 C 
ATOM     10  N   UNL A   1      32.004  22.102  22.869  1.00  0.00    -0.192 NA
ENDBRANCH   7   9
BRANCH   8  11
ATOM     11  C   UNL A   1      33.872  24.014  25.342  1.00  0.00    -0.017 A 
ATOM     12  C   UNL A   1      34.549  24.881  24.480  1.00  0.00     0.012 A 
ATOM     13  C   UNL A   1      32.719  24.482  25.983  1.00  0.00     0.098 A 
ATOM     14  C   UNL A   1      34.062  26.176  24.242  1.00  0.00     0.055 A 
ATOM     15  C   UNL A   1      32.188  25.744  25.661  1.00  0.00     0.312 A 
ATOM     16  C   UNL A   1      32.869  26.633  24.825  1.00  0.00     0.204 A 
BRANCH  15  17
ATOM     17  N   UNL A   1      30.839  25.980  26.132  1.00  0.00     0.066 N 
ATOM     18  O   UNL A   1      29.932  25.327  25.598  1.00  0.00    -0.258 OA
ATOM     19  O   UNL A   1      30.701  26.770  27.076  1.00  0.00    -0.258 OA
ENDBRANCH  15  17
BRANCH  16  20
ATOM     20  O   UNL A   1      32.548  27.920  24.449  1.00  0.00    -0.449 OA
BRANCH  20  21
ATOM     21  C   UNL A   1      32.579  28.945  25.361  1.00  0.00     0.146 A 
ATOM     22  C   UNL A   1      33.582  28.856  26.334  1.00  0.00     0.049 A 
ATOM     23  C   UNL A   1      31.674  30.013  25.390  1.00  0.00     0.083 A 
ATOM     24  C   UNL A   1      33.750  29.882  27.263  1.00  0.00     0.004 A 
ATOM     25  C   UNL A   1      31.860  31.049  26.310  1.00  0.00     0.024 A 
ATOM     26  Cl  UNL A   1      30.332  30.110  24.309  1.00  0.00    -0.080 Cl
ATOM     27  C   UNL A   1      32.905  30.989  27.235  1.00  0.00     0.002 A 
ENDBRANCH  20  21
ENDBRANCH  16  20
ENDBRANCH   8  11
ENDBRANCH   4   7
ENDBRANCH   2   3
ENDBRANCH   1   2
BRANCH   1  28
ATOM     28  C   UNL A   1      39.400  20.198  25.792  1.00  0.00     0.118 C 
BRANCH  28  29
ATOM     29  N   UNL A   1      40.477  19.236  25.972  1.00  0.00    -0.352 N 
ATOM     30  C   UNL A   1      41.826  19.439  26.132  1.00  0.00     0.251 C 
ATOM     31  H   UNL A   1      40.196  18.293  25.981  1.00  0.00     0.163 HD
ATOM     32  O   UNL A   1      42.587  18.485  26.000  1.00  0.00    -0.269 OA
BRANCH  30  33
ATOM     33  C   UNL A   1      42.358  20.783  26.447  1.00  0.00     0.039 A 
ATOM     34  C   UNL A   1      42.678  21.646  25.394  1.00  0.00     0.014 A 
ATOM     35  C   UNL A   1      42.596  21.177  27.767  1.00  0.00     0.014 A 
ATOM     36  C   UNL A   1      43.186  22.919  25.666  1.00  0.00     0.010 A 
ATOM     37  C   UNL A   1      43.034  22.469  28.039  1.00  0.00     0.010 A 
ATOM     38  C   UNL A   1      43.342  23.352  26.991  1.00  0.00    -0.014 A 
BRANCH  38  39
ATOM     39  C   UNL A   1      43.833  24.718  27.310  1.00  0.00     0.031 A 
ATOM     40  C   UNL A   1      42.880  25.757  27.832  1.00  0.00     0.074 A 
ATOM     41  C   UNL A   1      45.114  25.040  27.048  1.00  0.00     0.049 A 
ATOM     42  N   UNL A   1      43.081  27.029  28.057  1.00  0.00    -0.248 NA
ATOM     43  C   UNL A   1      41.505  25.309  28.100  1.00  0.00     0.031 C 
ATOM     44  C   UNL A   1      46.119  24.126  26.499  1.00  0.00     0.029 A 
ATOM     45  N   UNL A   1      45.787  26.228  27.185  1.00  0.00    -0.354 N 
ATOM     46  C   UNL A   1      41.855  27.541  28.469  1.00  0.00     0.074 A 
ATOM     47  C   UNL A   1      40.906  26.450  28.408  1.00  0.00     0.031 C 
ATOM     48  C   UNL A   1      47.278  24.786  26.351  1.00  0.00     0.029 A 
ATOM     49  C   UNL A   1      47.091  26.177  26.748  1.00  0.00     0.049 A 
ATOM     50  H   UNL A   1      45.376  27.040  27.560  1.00  0.00     0.167 HD
ATOM     51  C   UNL A   1      41.555  28.800  28.877  1.00  0.00     0.034 A 
ATOM     52  C   UNL A   1      48.023  27.147  26.655  1.00  0.00     0.034 A 
ATOM     53  C   UNL A   1      42.524  29.868  28.946  1.00  0.00     0.049 A 
ATOM     54  C   UNL A   1      47.670  28.539  27.109  1.00  0.00     0.074 A 
ATOM     55  C   UNL A   1      42.354  31.159  29.415  1.00  0.00     0.029 A 
ATOM     56  N   UNL A   1      43.844  29.773  28.519  1.00  0.00    -0.354 N 
ATOM     57  N   UNL A   1      46.523  28.993  27.559  1.00  0.00    -0.248 NA
ATOM     58  C   UNL A   1      48.738  29.545  27.054  1.00  0.00     0.031 C 
ATOM     59  C   UNL A   1      43.546  31.863  29.207  1.00  0.00     0.029 A 
ATOM     60  C   UNL A   1      44.486  30.991  28.681  1.00  0.00     0.049 A 
ATOM     61  H   UNL A   1      44.261  28.960  28.155  1.00  0.00     0.167 HD
ATOM     62  C   UNL A   1      46.739  30.334  27.864  1.00  0.00     0.074 A 
ATOM     63  C   UNL A   1      48.130  30.608  27.560  1.00  0.00     0.031 C 
ATOM     64  C   UNL A   1      45.871  31.253  28.358  1.00  0.00     0.034 A 
BRANCH  51  65
ATOM     65  C   UNL A   1      40.118  29.089  29.246  1.00  0.00     0.023 A 
ATOM     66  C   UNL A   1      39.705  29.212  30.585  1.00  0.00     0.031 A 
ATOM     67  C   UNL A   1      39.135  29.204  28.246  1.00  0.00     0.131 A 
ATOM     68  C   UNL A   1      38.342  29.348  30.891  1.00  0.00     0.055 A 
ATOM     69  C   UNL A   1      37.791  29.429  28.554  1.00  0.00     0.041 A 
ATOM     70  F   UNL A   1      39.461  29.077  26.950  1.00  0.00    -0.206 F 
ATOM     71  C   UNL A   1      37.384  29.483  29.883  1.00  0.00     0.022 A 
BRANCH  68  72
ATOM     72  S   UNL A   1      37.824  29.175  32.621  1.00  0.00     0.124 S 
ATOM     73  O   UNL A   1      38.940  29.800  33.326  1.00  0.00    -0.237 OA
ATOM     74  O   UNL A   1      36.563  29.906  32.646  1.00  0.00    -0.237 OA
ATOM     75  O   UNL A   1      37.712  27.729  32.802  1.00  0.00    -0.744 OA
ENDBRANCH  68  72
ENDBRANCH  51  65
BRANCH  52  76
ATOM     76  C   UNL A   1      49.367  26.838  26.090  1.00  0.00     0.023 A 
ATOM     77  C   UNL A   1      49.713  27.223  24.786  1.00  0.00     0.031 A 
ATOM     78  C   UNL A   1      50.323  26.138  26.848  1.00  0.00     0.131 A 
ATOM     79  C   UNL A   1      50.970  26.876  24.265  1.00  0.00     0.055 A 
ATOM     80  C   UNL A   1      51.589  25.836  26.343  1.00  0.00     0.041 A 
ATOM     81  F   UNL A   1      50.045  25.755  28.105  1.00  0.00    -0.206 F 
ATOM     82  C   UNL A   1      51.914  26.196  25.040  1.00  0.00     0.022 A 
BRANCH  79  83
ATOM     83  S   UNL A   1      51.331  27.269  22.532  1.00  0.00     0.124 S 
ATOM     84  O   UNL A   1      50.020  27.115  21.913  1.00  0.00    -0.237 OA
ATOM     85  O   UNL A   1      51.839  28.632  22.631  1.00  0.00    -0.237 OA
ATOM     86  O   UNL A   1      52.322  26.262  22.155  1.00  0.00    -0.744 OA
ENDBRANCH  79  83
ENDBRANCH  52  76
BRANCH  64  87
ATOM     87  C   UNL A   1      46.416  32.632  28.639  1.00  0.00     0.023 A 
ATOM     88  C   UNL A   1      46.297  33.680  27.709  1.00  0.00     0.031 A 
ATOM     89  C   UNL A   1      47.065  32.898  29.857  1.00  0.00     0.131 A 
ATOM     90  C   UNL A   1      46.860  34.932  27.995  1.00  0.00     0.055 A 
ATOM     91  C   UNL A   1      47.571  34.163  30.160  1.00  0.00     0.041 A 
ATOM     92  F   UNL A   1      47.210  31.932  30.780  1.00  0.00    -0.206 F 
ATOM     93  C   UNL A   1      47.480  35.186  29.221  1.00  0.00     0.022 A 
BRANCH  90  94
ATOM     94  S   UNL A   1      46.842  36.210  26.707  1.00  0.00     0.124 S 
ATOM     95  O   UNL A   1      48.175  36.788  26.836  1.00  0.00    -0.237 OA
ATOM     96  O   UNL A   1      46.598  35.432  25.497  1.00  0.00    -0.237 OA
ATOM     97  O   UNL A   1      45.744  37.088  27.111  1.00  0.00    -0.744 OA
ENDBRANCH  90  94
ENDBRANCH  64  87
ENDBRANCH  38  39
ENDBRANCH  30  33
ENDBRANCH  28  29
ENDBRANCH   1  28
TORSDOF 18
ENDMDL
