MODEL 1
REMARK VINA RESULT:     -13.3      0.000      0.000
REMARK SMILES Nc1oc2ccc(F)cc2c(=O)c1[C@@H]1[NH2+][C@H](C(=O)NCCCNC(=O)c2ccc(-c3c4nc(c(-c5cc(S(=O)(=O)[O-])ccc5F)c5ccc([nH]5)c(-c5cc(S(=O)(=O)[O-])ccc5F)c5nc(c(-c6cc(S(=O)(=O)[O-])ccc6F)c6ccc3[nH]6)C=C5)C=C4)cc2)CS1
REMARK SMILES IDX 21 1 20 2 19 3 17 4 18 5 16 7 14 8 15 9 90 10 89 13 13 14
REMARK SMILES IDX 2 15 3 16 4 17 11 18 5 19 10 20 12 21 6 22 9 23 7 24 8 25
REMARK SMILES IDX 1 26 22 29 23 30 24 31 25 33 26 34 27 35 88 36 28 37 87 38
REMARK SMILES IDX 29 39 30 40 31 41 81 42 32 43 86 44 80 45 82 46 33 47 85 48
REMARK SMILES IDX 79 49 78 50 34 52 66 53 46 54 65 55 47 56 50 57 64 58 83 59
REMARK SMILES IDX 48 60 49 61 63 63 84 64 51 65 35 66 36 67 44 68 37 69 43 70
REMARK SMILES IDX 45 71 42 72 38 73 39 74 40 75 41 76 67 77 68 78 76 79 69 80
REMARK SMILES IDX 75 81 77 82 74 83 70 84 71 85 72 86 73 87 52 88 53 89 61 90
REMARK SMILES IDX 54 91 60 92 62 93 59 94 55 95 56 96 57 97 58 98
REMARK H PARENT 19 6 15 11 15 12 1 27 1 28 23 32 82 51 50 62
REMARK Flexibility Score: inf
ROOT
ATOM      1  C   UNL A   1      31.707  28.662  25.732  1.00  0.00     0.042 C 
ENDROOT
BRANCH   1   2
ATOM      2  C   UNL A   1      31.686  27.757  26.956  1.00  0.00     0.118 C 
BRANCH   2   3
ATOM      3  N   UNL A   1      31.018  26.492  26.729  1.00  0.00    -0.351 N 
ATOM      4  C   UNL A   1      31.531  25.263  26.433  1.00  0.00     0.279 C 
ATOM      5  O   UNL A   1      30.743  24.309  26.493  1.00  0.00    -0.268 OA
ATOM      6  H   UNL A   1      30.036  26.524  26.797  1.00  0.00     0.163 HD
BRANCH   4   7
ATOM      7  C   UNL A   1      33.023  24.990  26.140  1.00  0.00     0.283 C 
ATOM      8  C   UNL A   1      34.425  23.099  25.479  1.00  0.00     0.283 C 
ATOM      9  N   UNL A   1      33.449  23.613  26.459  1.00  0.00    -0.320 N 
ATOM     10  S   UNL A   1      34.837  24.442  24.330  1.00  0.00    -0.087 SA
ATOM     11  H   UNL A   1      33.877  23.605  27.384  1.00  0.00     0.348 HD
ATOM     12  H   UNL A   1      32.624  23.013  26.430  1.00  0.00     0.348 HD
ATOM     13  C   UNL A   1      33.331  25.362  24.700  1.00  0.00     0.151 C 
BRANCH   8  14
ATOM     14  C   UNL A   1      33.862  21.840  24.845  1.00  0.00     0.128 A 
ATOM     15  C   UNL A   1      32.639  21.618  24.310  1.00  0.00     0.205 A 
ATOM     16  O   UNL A   1      32.153  20.364  23.989  1.00  0.00    -0.440 OA
ATOM     17  C   UNL A   1      32.921  19.262  24.212  1.00  0.00     0.140 A 
ATOM     18  C   UNL A   1      34.792  20.669  24.935  1.00  0.00     0.205 A 
ATOM     19  C   UNL A   1      32.324  18.025  23.977  1.00  0.00     0.051 A 
ATOM     20  C   UNL A   1      34.246  19.342  24.618  1.00  0.00     0.068 A 
ATOM     21  O   UNL A   1      35.959  20.791  25.290  1.00  0.00    -0.288 OA
ATOM     22  C   UNL A   1      33.086  16.866  24.082  1.00  0.00     0.043 A 
ATOM     23  C   UNL A   1      35.014  18.183  24.741  1.00  0.00     0.055 A 
ATOM     24  C   UNL A   1      34.425  16.958  24.444  1.00  0.00     0.124 A 
ATOM     25  F   UNL A   1      35.153  15.839  24.499  1.00  0.00    -0.207 F 
BRANCH  15  26
ATOM     26  N   UNL A   1      31.683  22.566  24.101  1.00  0.00    -0.369 N 
ATOM     27  H   UNL A   1      31.642  23.360  24.682  1.00  0.00     0.159 HD
ATOM     28  H   UNL A   1      31.034  22.458  23.368  1.00  0.00     0.159 HD
ENDBRANCH  15  26
ENDBRANCH   8  14
ENDBRANCH   4   7
ENDBRANCH   2   3
ENDBRANCH   1   2
BRANCH   1  29
ATOM     29  C   UNL A   1      32.817  29.703  25.721  1.00  0.00     0.118 C 
BRANCH  29  30
ATOM     30  N   UNL A   1      32.522  30.947  26.432  1.00  0.00    -0.352 N 
ATOM     31  C   UNL A   1      33.306  31.737  27.251  1.00  0.00     0.251 C 
ATOM     32  H   UNL A   1      31.604  31.280  26.304  1.00  0.00     0.163 HD
ATOM     33  O   UNL A   1      32.824  32.767  27.718  1.00  0.00    -0.269 OA
BRANCH  31  34
ATOM     34  C   UNL A   1      34.672  31.311  27.644  1.00  0.00     0.039 A 
ATOM     35  C   UNL A   1      34.952  29.994  27.986  1.00  0.00     0.014 A 
ATOM     36  C   UNL A   1      35.683  32.276  27.753  1.00  0.00     0.014 A 
ATOM     37  C   UNL A   1      36.102  29.703  28.703  1.00  0.00     0.010 A 
ATOM     38  C   UNL A   1      36.896  31.958  28.371  1.00  0.00     0.010 A 
ATOM     39  C   UNL A   1      37.085  30.684  28.916  1.00  0.00    -0.014 A 
BRANCH  39  40
ATOM     40  C   UNL A   1      38.320  30.298  29.641  1.00  0.00     0.031 A 
ATOM     41  C   UNL A   1      38.592  30.758  31.045  1.00  0.00     0.074 A 
ATOM     42  C   UNL A   1      39.154  29.437  29.029  1.00  0.00     0.049 A 
ATOM     43  N   UNL A   1      39.575  30.437  31.844  1.00  0.00    -0.248 NA
ATOM     44  C   UNL A   1      37.641  31.711  31.629  1.00  0.00     0.031 C 
ATOM     45  C   UNL A   1      38.968  28.938  27.664  1.00  0.00     0.029 A 
ATOM     46  N   UNL A   1      40.278  28.795  29.471  1.00  0.00    -0.354 N 
ATOM     47  C   UNL A   1      39.373  31.164  33.016  1.00  0.00     0.074 A 
ATOM     48  C   UNL A   1      38.194  31.973  32.806  1.00  0.00     0.031 C 
ATOM     49  C   UNL A   1      39.894  28.009  27.411  1.00  0.00     0.029 A 
ATOM     50  C   UNL A   1      40.793  27.908  28.555  1.00  0.00     0.049 A 
ATOM     51  H   UNL A   1      40.680  28.953  30.356  1.00  0.00     0.167 HD
ATOM     52  C   UNL A   1      40.101  31.135  34.158  1.00  0.00     0.034 A 
ATOM     53  C   UNL A   1      41.872  27.105  28.624  1.00  0.00     0.034 A 
ATOM     54  C   UNL A   1      41.251  30.279  34.337  1.00  0.00     0.049 A 
ATOM     55  C   UNL A   1      42.656  27.078  29.906  1.00  0.00     0.074 A 
ATOM     56  C   UNL A   1      42.046  30.139  35.460  1.00  0.00     0.029 A 
ATOM     57  N   UNL A   1      41.759  29.412  33.379  1.00  0.00    -0.354 N 
ATOM     58  N   UNL A   1      42.435  27.743  31.017  1.00  0.00    -0.248 NA
ATOM     59  C   UNL A   1      43.823  26.191  29.959  1.00  0.00     0.031 C 
ATOM     60  C   UNL A   1      43.073  29.245  35.158  1.00  0.00     0.029 A 
ATOM     61  C   UNL A   1      42.868  28.751  33.879  1.00  0.00     0.049 A 
ATOM     62  H   UNL A   1      41.386  29.285  32.476  1.00  0.00     0.167 HD
ATOM     63  C   UNL A   1      43.420  27.336  31.909  1.00  0.00     0.074 A 
ATOM     64  C   UNL A   1      44.221  26.347  31.216  1.00  0.00     0.031 C 
ATOM     65  C   UNL A   1      43.642  27.748  33.184  1.00  0.00     0.034 A 
BRANCH  52  66
ATOM     66  C   UNL A   1      39.700  32.016  35.321  1.00  0.00     0.023 A 
ATOM     67  C   UNL A   1      38.923  31.484  36.372  1.00  0.00     0.031 A 
ATOM     68  C   UNL A   1      39.940  33.402  35.319  1.00  0.00     0.131 A 
ATOM     69  C   UNL A   1      38.377  32.336  37.342  1.00  0.00     0.055 A 
ATOM     70  C   UNL A   1      39.437  34.239  36.319  1.00  0.00     0.041 A 
ATOM     71  F   UNL A   1      40.665  33.967  34.341  1.00  0.00    -0.206 F 
ATOM     72  C   UNL A   1      38.638  33.708  37.327  1.00  0.00     0.022 A 
BRANCH  69  73
ATOM     73  S   UNL A   1      37.238  31.708  38.610  1.00  0.00     0.124 S 
ATOM     74  O   UNL A   1      37.026  30.330  38.166  1.00  0.00    -0.237 OA
ATOM     75  O   UNL A   1      38.033  31.849  39.830  1.00  0.00    -0.237 OA
ATOM     76  O   UNL A   1      36.079  32.580  38.507  1.00  0.00    -0.744 OA
ENDBRANCH  69  73
ENDBRANCH  52  66
BRANCH  53  77
ATOM     77  C   UNL A   1      42.195  26.239  27.453  1.00  0.00     0.023 A 
ATOM     78  C   UNL A   1      41.682  24.929  27.372  1.00  0.00     0.031 A 
ATOM     79  C   UNL A   1      43.138  26.638  26.493  1.00  0.00     0.131 A 
ATOM     80  C   UNL A   1      42.187  24.039  26.417  1.00  0.00     0.055 A 
ATOM     81  C   UNL A   1      43.573  25.773  25.487  1.00  0.00     0.041 A 
ATOM     82  F   UNL A   1      43.674  27.867  26.541  1.00  0.00    -0.206 F 
ATOM     83  C   UNL A   1      43.116  24.459  25.461  1.00  0.00     0.022 A 
BRANCH  80  84
ATOM     84  S   UNL A   1      41.792  22.270  26.502  1.00  0.00     0.124 S 
ATOM     85  O   UNL A   1      40.343  22.274  26.333  1.00  0.00    -0.237 OA
ATOM     86  O   UNL A   1      42.557  21.738  25.377  1.00  0.00    -0.237 OA
ATOM     87  O   UNL A   1      42.274  21.872  27.819  1.00  0.00    -0.744 OA
ENDBRANCH  80  84
ENDBRANCH  53  77
BRANCH  65  88
ATOM     88  C   UNL A   1      44.783  27.125  33.953  1.00  0.00     0.023 A 
ATOM     89  C   UNL A   1      44.543  25.992  34.753  1.00  0.00     0.031 A 
ATOM     90  C   UNL A   1      46.042  27.742  34.030  1.00  0.00     0.131 A 
ATOM     91  C   UNL A   1      45.531  25.542  35.637  1.00  0.00     0.055 A 
ATOM     92  C   UNL A   1      47.045  27.252  34.869  1.00  0.00     0.041 A 
ATOM     93  F   UNL A   1      46.315  28.834  33.298  1.00  0.00    -0.206 F 
ATOM     94  C   UNL A   1      46.784  26.158  35.691  1.00  0.00     0.022 A 
BRANCH  91  95
ATOM     95  S   UNL A   1      45.186  24.214  36.823  1.00  0.00     0.124 S 
ATOM     96  O   UNL A   1      44.174  24.829  37.679  1.00  0.00    -0.237 OA
ATOM     97  O   UNL A   1      44.700  23.145  35.954  1.00  0.00    -0.237 OA
ATOM     98  O   UNL A   1      46.474  23.967  37.463  1.00  0.00    -0.744 OA
ENDBRANCH  91  95
ENDBRANCH  65  88
ENDBRANCH  39  40
ENDBRANCH  31  34
ENDBRANCH  29  30
ENDBRANCH   1  29
TORSDOF 15
ENDMDL
MODEL 2
REMARK VINA RESULT:     -13.2      1.440      1.634
REMARK SMILES Nc1oc2ccc(F)cc2c(=O)c1[C@@H]1[NH2+][C@H](C(=O)NCCCNC(=O)c2ccc(-c3c4nc(c(-c5cc(S(=O)(=O)[O-])ccc5F)c5ccc([nH]5)c(-c5cc(S(=O)(=O)[O-])ccc5F)c5nc(c(-c6cc(S(=O)(=O)[O-])ccc6F)c6ccc3[nH]6)C=C5)C=C4)cc2)CS1
REMARK SMILES IDX 21 1 20 2 19 3 17 4 18 5 16 7 14 8 15 9 90 10 89 13 13 14
REMARK SMILES IDX 2 15 3 16 4 17 11 18 5 19 10 20 12 21 6 22 9 23 7 24 8 25
REMARK SMILES IDX 1 26 22 29 23 30 24 31 25 33 26 34 27 35 88 36 28 37 87 38
REMARK SMILES IDX 29 39 30 40 31 41 81 42 32 43 86 44 80 45 82 46 33 47 85 48
REMARK SMILES IDX 79 49 78 50 34 52 66 53 46 54 65 55 47 56 50 57 64 58 83 59
REMARK SMILES IDX 48 60 49 61 63 63 84 64 51 65 35 66 36 67 44 68 37 69 43 70
REMARK SMILES IDX 45 71 42 72 38 73 39 74 40 75 41 76 67 77 68 78 76 79 69 80
REMARK SMILES IDX 75 81 77 82 74 83 70 84 71 85 72 86 73 87 52 88 53 89 61 90
REMARK SMILES IDX 54 91 60 92 62 93 59 94 55 95 56 96 57 97 58 98
REMARK H PARENT 19 6 15 11 15 12 1 27 1 28 23 32 82 51 50 62
REMARK Flexibility Score: inf
ROOT
ATOM      1  C   UNL A   1      31.424  28.864  26.089  1.00  0.00     0.042 C 
ENDROOT
BRANCH   1   2
ATOM      2  C   UNL A   1      32.044  27.796  26.980  1.00  0.00     0.118 C 
BRANCH   2   3
ATOM      3  N   UNL A   1      31.341  26.530  26.940  1.00  0.00    -0.351 N 
ATOM      4  C   UNL A   1      31.771  25.293  26.555  1.00  0.00     0.279 C 
ATOM      5  O   UNL A   1      31.019  24.344  26.816  1.00  0.00    -0.268 OA
ATOM      6  H   UNL A   1      30.403  26.567  27.236  1.00  0.00     0.163 HD
BRANCH   4   7
ATOM      7  C   UNL A   1      33.153  25.009  25.925  1.00  0.00     0.283 C 
ATOM      8  C   UNL A   1      34.431  23.071  25.157  1.00  0.00     0.283 C 
ATOM      9  N   UNL A   1      33.710  23.691  26.286  1.00  0.00    -0.320 N 
ATOM     10  S   UNL A   1      34.476  24.263  23.789  1.00  0.00    -0.087 SA
ATOM     11  H   UNL A   1      34.357  23.808  27.065  1.00  0.00     0.348 HD
ATOM     12  H   UNL A   1      32.934  23.079  26.541  1.00  0.00     0.348 HD
ATOM     13  C   UNL A   1      33.069  25.199  24.420  1.00  0.00     0.151 C 
BRANCH   8  14
ATOM     14  C   UNL A   1      33.788  21.733  24.843  1.00  0.00     0.128 A 
ATOM     15  C   UNL A   1      32.478  21.415  24.720  1.00  0.00     0.205 A 
ATOM     16  O   UNL A   1      31.999  20.119  24.680  1.00  0.00    -0.440 OA
ATOM     17  C   UNL A   1      32.866  19.072  24.771  1.00  0.00     0.140 A 
ATOM     18  C   UNL A   1      34.774  20.609  24.767  1.00  0.00     0.205 A 
ATOM     19  C   UNL A   1      32.304  17.799  24.844  1.00  0.00     0.051 A 
ATOM     20  C   UNL A   1      34.244  19.239  24.756  1.00  0.00     0.068 A 
ATOM     21  O   UNL A   1      35.985  20.805  24.746  1.00  0.00    -0.288 OA
ATOM     22  C   UNL A   1      33.135  16.684  24.830  1.00  0.00     0.043 A 
ATOM     23  C   UNL A   1      35.085  18.124  24.758  1.00  0.00     0.055 A 
ATOM     24  C   UNL A   1      34.513  16.857  24.768  1.00  0.00     0.124 A 
ATOM     25  F   UNL A   1      35.293  15.773  24.713  1.00  0.00    -0.207 F 
BRANCH  15  26
ATOM     26  N   UNL A   1      31.446  22.304  24.713  1.00  0.00    -0.369 N 
ATOM     27  H   UNL A   1      30.891  22.421  25.518  1.00  0.00     0.159 HD
ATOM     28  H   UNL A   1      31.254  22.830  23.902  1.00  0.00     0.159 HD
ENDBRANCH  15  26
ENDBRANCH   8  14
ENDBRANCH   4   7
ENDBRANCH   2   3
ENDBRANCH   1   2
BRANCH   1  29
ATOM     29  C   UNL A   1      32.338  30.035  25.757  1.00  0.00     0.118 C 
BRANCH  29  30
ATOM     30  N   UNL A   1      32.021  31.293  26.432  1.00  0.00    -0.352 N 
ATOM     31  C   UNL A   1      32.793  32.122  27.224  1.00  0.00     0.251 C 
ATOM     32  H   UNL A   1      31.097  31.604  26.299  1.00  0.00     0.163 HD
ATOM     33  O   UNL A   1      32.293  33.156  27.663  1.00  0.00    -0.269 OA
BRANCH  31  34
ATOM     34  C   UNL A   1      34.169  31.735  27.623  1.00  0.00     0.039 A 
ATOM     35  C   UNL A   1      34.499  30.415  27.902  1.00  0.00     0.014 A 
ATOM     36  C   UNL A   1      35.134  32.735  27.802  1.00  0.00     0.014 A 
ATOM     37  C   UNL A   1      35.648  30.135  28.627  1.00  0.00     0.010 A 
ATOM     38  C   UNL A   1      36.348  32.437  28.429  1.00  0.00     0.010 A 
ATOM     39  C   UNL A   1      36.582  31.145  28.911  1.00  0.00    -0.014 A 
BRANCH  39  40
ATOM     40  C   UNL A   1      37.820  30.774  29.641  1.00  0.00     0.031 A 
ATOM     41  C   UNL A   1      38.060  31.201  31.060  1.00  0.00     0.074 A 
ATOM     42  C   UNL A   1      38.686  29.957  29.015  1.00  0.00     0.049 A 
ATOM     43  N   UNL A   1      39.043  30.886  31.863  1.00  0.00    -0.248 NA
ATOM     44  C   UNL A   1      37.075  32.109  31.659  1.00  0.00     0.031 C 
ATOM     45  C   UNL A   1      38.531  29.492  27.634  1.00  0.00     0.029 A 
ATOM     46  N   UNL A   1      39.823  29.335  29.453  1.00  0.00    -0.354 N 
ATOM     47  C   UNL A   1      38.805  31.573  33.052  1.00  0.00     0.074 A 
ATOM     48  C   UNL A   1      37.606  32.352  32.851  1.00  0.00     0.031 C 
ATOM     49  C   UNL A   1      39.488  28.598  27.366  1.00  0.00     0.029 A 
ATOM     50  C   UNL A   1      40.375  28.490  28.519  1.00  0.00     0.049 A 
ATOM     51  H   UNL A   1      40.209  29.479  30.347  1.00  0.00     0.167 HD
ATOM     52  C   UNL A   1      39.520  31.532  34.202  1.00  0.00     0.034 A 
ATOM     53  C   UNL A   1      41.477  27.717  28.579  1.00  0.00     0.034 A 
ATOM     54  C   UNL A   1      40.692  30.705  34.372  1.00  0.00     0.049 A 
ATOM     55  C   UNL A   1      42.245  27.676  29.870  1.00  0.00     0.074 A 
ATOM     56  C   UNL A   1      41.477  30.555  35.501  1.00  0.00     0.029 A 
ATOM     57  N   UNL A   1      41.238  29.881  33.396  1.00  0.00    -0.354 N 
ATOM     58  N   UNL A   1      41.991  28.302  30.996  1.00  0.00    -0.248 NA
ATOM     59  C   UNL A   1      43.437  26.822  29.913  1.00  0.00     0.031 C 
ATOM     60  C   UNL A   1      42.534  29.702  35.187  1.00  0.00     0.029 A 
ATOM     61  C   UNL A   1      42.360  29.239  33.892  1.00  0.00     0.049 A 
ATOM     62  H   UNL A   1      40.880  29.770  32.485  1.00  0.00     0.167 HD
ATOM     63  C   UNL A   1      42.977  27.898  31.890  1.00  0.00     0.074 A 
ATOM     64  C   UNL A   1      43.815  26.954  31.178  1.00  0.00     0.031 C 
ATOM     65  C   UNL A   1      43.171  28.279  33.178  1.00  0.00     0.034 A 
BRANCH  52  66
ATOM     66  C   UNL A   1      39.079  32.367  35.385  1.00  0.00     0.023 A 
ATOM     67  C   UNL A   1      39.554  33.688  35.529  1.00  0.00     0.031 A 
ATOM     68  C   UNL A   1      38.330  31.820  36.442  1.00  0.00     0.131 A 
ATOM     69  C   UNL A   1      39.317  34.393  36.718  1.00  0.00     0.055 A 
ATOM     70  C   UNL A   1      38.053  32.546  37.603  1.00  0.00     0.041 A 
ATOM     71  F   UNL A   1      37.860  30.564  36.366  1.00  0.00    -0.206 F 
ATOM     72  C   UNL A   1      38.562  33.833  37.751  1.00  0.00     0.022 A 
BRANCH  69  73
ATOM     73  S   UNL A   1      40.054  36.029  37.001  1.00  0.00     0.124 S 
ATOM     74  O   UNL A   1      39.262  36.523  38.128  1.00  0.00    -0.237 OA
ATOM     75  O   UNL A   1      41.440  35.687  37.321  1.00  0.00    -0.237 OA
ATOM     76  O   UNL A   1      39.851  36.731  35.744  1.00  0.00    -0.744 OA
ENDBRANCH  69  73
ENDBRANCH  52  66
BRANCH  53  77
ATOM     77  C   UNL A   1      41.839  26.895  27.388  1.00  0.00     0.023 A 
ATOM     78  C   UNL A   1      41.464  25.539  27.317  1.00  0.00     0.031 A 
ATOM     79  C   UNL A   1      42.693  27.396  26.393  1.00  0.00     0.131 A 
ATOM     80  C   UNL A   1      42.020  24.711  26.334  1.00  0.00     0.055 A 
ATOM     81  C   UNL A   1      43.174  26.586  25.362  1.00  0.00     0.041 A 
ATOM     82  F   UNL A   1      43.097  28.675  26.429  1.00  0.00    -0.206 F 
ATOM     83  C   UNL A   1      42.858  25.232  25.344  1.00  0.00     0.022 A 
BRANCH  80  84
ATOM     84  S   UNL A   1      41.818  22.910  26.421  1.00  0.00     0.124 S 
ATOM     85  O   UNL A   1      40.366  22.767  26.426  1.00  0.00    -0.237 OA
ATOM     86  O   UNL A   1      42.491  22.474  25.198  1.00  0.00    -0.237 OA
ATOM     87  O   UNL A   1      42.495  22.546  27.660  1.00  0.00    -0.744 OA
ENDBRANCH  80  84
ENDBRANCH  53  77
BRANCH  65  88
ATOM     88  C   UNL A   1      44.320  27.668  33.944  1.00  0.00     0.023 A 
ATOM     89  C   UNL A   1      44.097  26.525  34.735  1.00  0.00     0.031 A 
ATOM     90  C   UNL A   1      45.570  28.303  34.027  1.00  0.00     0.131 A 
ATOM     91  C   UNL A   1      45.090  26.083  35.617  1.00  0.00     0.055 A 
ATOM     92  C   UNL A   1      46.579  27.822  34.864  1.00  0.00     0.041 A 
ATOM     93  F   UNL A   1      45.827  29.404  33.304  1.00  0.00    -0.206 F 
ATOM     94  C   UNL A   1      46.334  26.718  35.677  1.00  0.00     0.022 A 
BRANCH  91  95
ATOM     95  S   UNL A   1      44.764  24.742  36.793  1.00  0.00     0.124 S 
ATOM     96  O   UNL A   1      45.870  24.892  37.736  1.00  0.00    -0.237 OA
ATOM     97  O   UNL A   1      43.448  25.104  37.313  1.00  0.00    -0.237 OA
ATOM     98  O   UNL A   1      44.806  23.535  35.974  1.00  0.00    -0.744 OA
ENDBRANCH  91  95
ENDBRANCH  65  88
ENDBRANCH  39  40
ENDBRANCH  31  34
ENDBRANCH  29  30
ENDBRANCH   1  29
TORSDOF 15
ENDMDL
MODEL 3
REMARK VINA RESULT:     -13.0      5.417     10.733
REMARK SMILES Nc1oc2ccc(F)cc2c(=O)c1[C@@H]1[NH2+][C@H](C(=O)NCCCNC(=O)c2ccc(-c3c4nc(c(-c5cc(S(=O)(=O)[O-])ccc5F)c5ccc([nH]5)c(-c5cc(S(=O)(=O)[O-])ccc5F)c5nc(c(-c6cc(S(=O)(=O)[O-])ccc6F)c6ccc3[nH]6)C=C5)C=C4)cc2)CS1
REMARK SMILES IDX 21 1 20 2 19 3 17 4 18 5 16 7 14 8 15 9 90 10 89 13 13 14
REMARK SMILES IDX 2 15 3 16 4 17 11 18 5 19 10 20 12 21 6 22 9 23 7 24 8 25
REMARK SMILES IDX 1 26 22 29 23 30 24 31 25 33 26 34 27 35 88 36 28 37 87 38
REMARK SMILES IDX 29 39 30 40 31 41 81 42 32 43 86 44 80 45 82 46 33 47 85 48
REMARK SMILES IDX 79 49 78 50 34 52 66 53 46 54 65 55 47 56 50 57 64 58 83 59
REMARK SMILES IDX 48 60 49 61 63 63 84 64 51 65 35 66 36 67 44 68 37 69 43 70
REMARK SMILES IDX 45 71 42 72 38 73 39 74 40 75 41 76 67 77 68 78 76 79 69 80
REMARK SMILES IDX 75 81 77 82 74 83 70 84 71 85 72 86 73 87 52 88 53 89 61 90
REMARK SMILES IDX 54 91 60 92 62 93 59 94 55 95 56 96 57 97 58 98
REMARK H PARENT 19 6 15 11 15 12 1 27 1 28 23 32 82 51 50 62
REMARK Flexibility Score: inf
ROOT
ATOM      1  C   UNL A   1      35.954  21.751  24.419  1.00  0.00     0.042 C 
ENDROOT
BRANCH   1   2
ATOM      2  C   UNL A   1      36.002  23.082  23.683  1.00  0.00     0.118 C 
BRANCH   2   3
ATOM      3  N   UNL A   1      34.786  23.385  22.955  1.00  0.00    -0.351 N 
ATOM      4  C   UNL A   1      33.912  24.424  23.090  1.00  0.00     0.279 C 
ATOM      5  O   UNL A   1      33.063  24.547  22.196  1.00  0.00    -0.268 OA
ATOM      6  H   UNL A   1      34.553  22.738  22.251  1.00  0.00     0.163 HD
BRANCH   4   7
ATOM      7  C   UNL A   1      33.989  25.487  24.208  1.00  0.00     0.283 C 
ATOM      8  C   UNL A   1      32.806  27.527  24.855  1.00  0.00     0.283 C 
ATOM      9  N   UNL A   1      33.543  26.829  23.784  1.00  0.00    -0.320 N 
ATOM     10  S   UNL A   1      32.870  26.500  26.351  1.00  0.00    -0.087 SA
ATOM     11  H   UNL A   1      34.359  27.384  23.530  1.00  0.00     0.348 HD
ATOM     12  H   UNL A   1      32.913  26.715  22.989  1.00  0.00     0.348 HD
ATOM     13  C   UNL A   1      33.229  24.993  25.427  1.00  0.00     0.151 C 
BRANCH   8  14
ATOM     14  C   UNL A   1      31.416  27.867  24.350  1.00  0.00     0.128 A 
ATOM     15  C   UNL A   1      30.519  27.085  23.704  1.00  0.00     0.205 A 
ATOM     16  O   UNL A   1      29.388  27.569  23.072  1.00  0.00    -0.440 OA
ATOM     17  C   UNL A   1      29.130  28.906  23.074  1.00  0.00     0.140 A 
ATOM     18  C   UNL A   1      31.066  29.313  24.519  1.00  0.00     0.205 A 
ATOM     19  C   UNL A   1      28.040  29.333  22.317  1.00  0.00     0.051 A 
ATOM     20  C   UNL A   1      29.878  29.812  23.813  1.00  0.00     0.068 A 
ATOM     21  O   UNL A   1      31.752  30.075  25.191  1.00  0.00    -0.288 OA
ATOM     22  C   UNL A   1      27.659  30.670  22.362  1.00  0.00     0.043 A 
ATOM     23  C   UNL A   1      29.510  31.158  23.851  1.00  0.00     0.055 A 
ATOM     24  C   UNL A   1      28.384  31.563  23.142  1.00  0.00     0.124 A 
ATOM     25  F   UNL A   1      27.978  32.834  23.207  1.00  0.00    -0.207 F 
BRANCH  15  26
ATOM     26  N   UNL A   1      30.640  25.744  23.503  1.00  0.00    -0.369 N 
ATOM     27  H   UNL A   1      31.448  25.271  23.809  1.00  0.00     0.159 HD
ATOM     28  H   UNL A   1      29.920  25.246  23.051  1.00  0.00     0.159 HD
ENDBRANCH  15  26
ENDBRANCH   8  14
ENDBRANCH   4   7
ENDBRANCH   2   3
ENDBRANCH   1   2
BRANCH   1  29
ATOM     29  C   UNL A   1      36.823  21.673  25.666  1.00  0.00     0.118 C 
BRANCH  29  30
ATOM     30  N   UNL A   1      38.021  20.843  25.548  1.00  0.00    -0.352 N 
ATOM     31  C   UNL A   1      39.306  21.024  26.023  1.00  0.00     0.251 C 
ATOM     32  H   UNL A   1      37.889  20.008  25.043  1.00  0.00     0.163 HD
ATOM     33  O   UNL A   1      40.146  20.152  25.808  1.00  0.00    -0.269 OA
BRANCH  31  34
ATOM     34  C   UNL A   1      39.702  22.286  26.696  1.00  0.00     0.039 A 
ATOM     35  C   UNL A   1      39.231  23.519  26.262  1.00  0.00     0.014 A 
ATOM     36  C   UNL A   1      40.636  22.239  27.740  1.00  0.00     0.014 A 
ATOM     37  C   UNL A   1      39.894  24.676  26.640  1.00  0.00     0.010 A 
ATOM     38  C   UNL A   1      41.225  23.417  28.211  1.00  0.00     0.010 A 
ATOM     39  C   UNL A   1      40.908  24.640  27.611  1.00  0.00    -0.014 A 
BRANCH  39  40
ATOM     40  C   UNL A   1      41.542  25.919  28.016  1.00  0.00     0.031 A 
ATOM     41  C   UNL A   1      42.926  26.294  27.568  1.00  0.00     0.074 A 
ATOM     42  C   UNL A   1      40.795  26.782  28.728  1.00  0.00     0.049 A 
ATOM     43  N   UNL A   1      43.583  27.409  27.760  1.00  0.00    -0.248 NA
ATOM     44  C   UNL A   1      43.678  25.286  26.813  1.00  0.00     0.031 C 
ATOM     45  C   UNL A   1      39.439  26.499  29.206  1.00  0.00     0.029 A 
ATOM     46  N   UNL A   1      41.031  28.068  29.129  1.00  0.00    -0.354 N 
ATOM     47  C   UNL A   1      44.831  27.227  27.169  1.00  0.00     0.074 A 
ATOM     48  C   UNL A   1      44.853  25.880  26.646  1.00  0.00     0.031 C 
ATOM     49  C   UNL A   1      38.934  27.604  29.762  1.00  0.00     0.029 A 
ATOM     50  C   UNL A   1      39.956  28.646  29.763  1.00  0.00     0.049 A 
ATOM     51  H   UNL A   1      41.885  28.533  28.981  1.00  0.00     0.167 HD
ATOM     52  C   UNL A   1      45.848  28.116  27.063  1.00  0.00     0.034 A 
ATOM     53  C   UNL A   1      39.808  29.876  30.292  1.00  0.00     0.034 A 
ATOM     54  C   UNL A   1      45.766  29.468  27.566  1.00  0.00     0.049 A 
ATOM     55  C   UNL A   1      40.943  30.850  30.150  1.00  0.00     0.074 A 
ATOM     56  C   UNL A   1      46.718  30.468  27.487  1.00  0.00     0.029 A 
ATOM     57  N   UNL A   1      44.671  30.011  28.225  1.00  0.00    -0.354 N 
ATOM     58  N   UNL A   1      42.103  30.678  29.559  1.00  0.00    -0.248 NA
ATOM     59  C   UNL A   1      40.756  32.186  30.728  1.00  0.00     0.031 C 
ATOM     60  C   UNL A   1      46.229  31.588  28.159  1.00  0.00     0.029 A 
ATOM     61  C   UNL A   1      44.934  31.324  28.576  1.00  0.00     0.049 A 
ATOM     62  H   UNL A   1      43.831  29.533  28.416  1.00  0.00     0.167 HD
ATOM     63  C   UNL A   1      42.774  31.891  29.672  1.00  0.00     0.074 A 
ATOM     64  C   UNL A   1      41.877  32.794  30.365  1.00  0.00     0.031 C 
ATOM     65  C   UNL A   1      44.019  32.222  29.245  1.00  0.00     0.034 A 
BRANCH  52  66
ATOM     66  C   UNL A   1      47.130  27.705  26.373  1.00  0.00     0.023 A 
ATOM     67  C   UNL A   1      47.292  27.938  24.991  1.00  0.00     0.031 A 
ATOM     68  C   UNL A   1      48.116  26.947  27.030  1.00  0.00     0.131 A 
ATOM     69  C   UNL A   1      48.382  27.381  24.307  1.00  0.00     0.055 A 
ATOM     70  C   UNL A   1      49.228  26.438  26.354  1.00  0.00     0.041 A 
ATOM     71  F   UNL A   1      48.012  26.684  28.343  1.00  0.00    -0.206 F 
ATOM     72  C   UNL A   1      49.355  26.640  24.983  1.00  0.00     0.022 A 
BRANCH  69  73
ATOM     73  S   UNL A   1      48.530  27.522  22.503  1.00  0.00     0.124 S 
ATOM     74  O   UNL A   1      47.328  28.282  22.161  1.00  0.00    -0.237 OA
ATOM     75  O   UNL A   1      49.788  28.255  22.358  1.00  0.00    -0.237 OA
ATOM     76  O   UNL A   1      48.546  26.143  22.041  1.00  0.00    -0.744 OA
ENDBRANCH  69  73
ENDBRANCH  52  66
BRANCH  53  77
ATOM     77  C   UNL A   1      38.506  30.227  30.932  1.00  0.00     0.023 A 
ATOM     78  C   UNL A   1      37.491  30.854  30.183  1.00  0.00     0.031 A 
ATOM     79  C   UNL A   1      38.319  30.096  32.316  1.00  0.00     0.131 A 
ATOM     80  C   UNL A   1      36.385  31.411  30.836  1.00  0.00     0.055 A 
ATOM     81  C   UNL A   1      37.172  30.574  32.951  1.00  0.00     0.041 A 
ATOM     82  F   UNL A   1      39.267  29.526  33.076  1.00  0.00    -0.206 F 
ATOM     83  C   UNL A   1      36.210  31.258  32.214  1.00  0.00     0.022 A 
BRANCH  80  84
ATOM     84  S   UNL A   1      35.241  32.504  29.947  1.00  0.00     0.124 S 
ATOM     85  O   UNL A   1      34.793  31.649  28.853  1.00  0.00    -0.237 OA
ATOM     86  O   UNL A   1      34.241  32.789  30.975  1.00  0.00    -0.237 OA
ATOM     87  O   UNL A   1      36.073  33.638  29.565  1.00  0.00    -0.744 OA
ENDBRANCH  80  84
ENDBRANCH  53  77
BRANCH  65  88
ATOM     88  C   UNL A   1      44.510  33.631  29.479  1.00  0.00     0.023 A 
ATOM     89  C   UNL A   1      44.329  34.604  28.477  1.00  0.00     0.031 A 
ATOM     90  C   UNL A   1      45.293  33.962  30.596  1.00  0.00     0.131 A 
ATOM     91  C   UNL A   1      44.969  35.843  28.587  1.00  0.00     0.055 A 
ATOM     92  C   UNL A   1      45.879  35.222  30.730  1.00  0.00     0.041 A 
ATOM     93  F   UNL A   1      45.507  33.064  31.571  1.00  0.00    -0.206 F 
ATOM     94  C   UNL A   1      45.733  36.162  29.713  1.00  0.00     0.022 A 
BRANCH  91  95
ATOM     95  S   UNL A   1      44.923  37.041  27.225  1.00  0.00     0.124 S 
ATOM     96  O   UNL A   1      45.900  36.477  26.295  1.00  0.00    -0.237 OA
ATOM     97  O   UNL A   1      43.531  36.958  26.791  1.00  0.00    -0.237 OA
ATOM     98  O   UNL A   1      45.314  38.301  27.848  1.00  0.00    -0.744 OA
ENDBRANCH  91  95
ENDBRANCH  65  88
ENDBRANCH  39  40
ENDBRANCH  31  34
ENDBRANCH  29  30
ENDBRANCH   1  29
TORSDOF 15
ENDMDL
