MODEL 1
REMARK VINA RESULT:     -11.8      0.000      0.000
REMARK SMILES CC[C@@](O)(C(=O)NCCCNC(=O)c1ccc(-c2c3nc(c(-c4cc(S(=O)(=O)[O-])ccc4F)c4ccc([nH]4)c(-c4cc(S(=O)(=O)[O-])ccc4F)c4nc(c(-c5cc(S(=O)(=O)[O-])ccc5F)c5ccc2[nH]5)C=C4)C=C3)cc1)[C@H]1CCCc2ccccc21
REMARK SMILES IDX 10 1 9 2 8 3 7 4 5 5 6 6 3 8 2 9 1 10 4 11 77 13 78 14 86 15
REMARK SMILES IDX 79 16 81 17 85 18 80 19 82 20 84 21 83 22 11 23 12 24 13 26
REMARK SMILES IDX 14 27 15 28 76 29 16 30 75 31 17 32 18 33 19 34 69 35 20 36
REMARK SMILES IDX 74 37 68 38 70 39 21 40 73 41 67 42 66 43 22 45 54 46 34 47
REMARK SMILES IDX 53 48 35 49 38 50 52 51 71 52 36 53 37 54 51 56 72 57 39 58
REMARK SMILES IDX 23 59 24 60 32 61 25 62 31 63 33 64 30 65 26 66 27 67 28 68
REMARK SMILES IDX 29 69 55 70 56 71 64 72 57 73 63 74 65 75 62 76 58 77 59 78
REMARK SMILES IDX 60 79 61 80 40 81 41 82 49 83 42 84 48 85 50 86 47 87 43 88
REMARK SMILES IDX 44 89 45 90 46 91
REMARK H PARENT 7 7 4 12 11 25 70 44 38 55
REMARK Flexibility Score: inf
ROOT
ATOM      1  C   UNL A   1      32.733  32.752  27.299  1.00  0.00     0.118 C 
ENDROOT
BRANCH   1   2
ATOM      2  C   UNL A   1      31.395  32.148  26.894  1.00  0.00     0.042 C 
BRANCH   2   3
ATOM      3  C   UNL A   1      31.548  30.897  26.028  1.00  0.00     0.117 C 
BRANCH   3   4
ATOM      4  N   UNL A   1      32.868  30.331  26.211  1.00  0.00    -0.354 N 
ATOM      5  C   UNL A   1      33.421  29.179  25.724  1.00  0.00     0.252 C 
ATOM      6  O   UNL A   1      34.489  28.847  26.251  1.00  0.00    -0.272 OA
ATOM      7  H   UNL A   1      33.468  30.865  26.780  1.00  0.00     0.163 HD
BRANCH   5   8
ATOM      8  C   UNL A   1      32.770  28.364  24.543  1.00  0.00     0.149 C 
BRANCH   8   9
ATOM      9  C   UNL A   1      31.247  28.138  24.776  1.00  0.00     0.043 C 
ATOM     10  C   UNL A   1      30.342  28.317  23.561  1.00  0.00     0.007 C 
ENDBRANCH   8   9
BRANCH   8  11
ATOM     11  O   UNL A   1      32.947  29.239  23.416  1.00  0.00    -0.379 OA
ATOM     12  H   UNL A   1      32.112  29.309  22.928  1.00  0.00     0.212 HD
ENDBRANCH   8  11
BRANCH   8  13
ATOM     13  C   UNL A   1      33.610  27.004  24.397  1.00  0.00     0.061 C 
ATOM     14  C   UNL A   1      33.359  26.127  25.667  1.00  0.00     0.012 C 
ATOM     15  C   UNL A   1      33.424  26.096  23.174  1.00  0.00    -0.038 A 
ATOM     16  C   UNL A   1      34.210  24.870  25.786  1.00  0.00     0.006 C 
ATOM     17  C   UNL A   1      33.810  24.741  23.298  1.00  0.00    -0.044 A 
ATOM     18  C   UNL A   1      32.966  26.518  21.923  1.00  0.00     0.004 A 
ATOM     19  C   UNL A   1      34.690  24.334  24.451  1.00  0.00     0.036 C 
ATOM     20  C   UNL A   1      33.494  23.817  22.293  1.00  0.00     0.004 A 
ATOM     21  C   UNL A   1      32.668  25.600  20.915  1.00  0.00     0.000 A 
ATOM     22  C   UNL A   1      32.879  24.242  21.121  1.00  0.00     0.000 A 
ENDBRANCH   8  13
ENDBRANCH   5   8
ENDBRANCH   3   4
ENDBRANCH   2   3
ENDBRANCH   1   2
BRANCH   1  23
ATOM     23  N   UNL A   1      32.591  34.150  27.670  1.00  0.00    -0.352 N 
ATOM     24  C   UNL A   1      33.172  34.843  28.704  1.00  0.00     0.251 C 
ATOM     25  H   UNL A   1      31.991  34.679  27.096  1.00  0.00     0.163 HD
ATOM     26  O   UNL A   1      32.712  35.933  29.027  1.00  0.00    -0.269 OA
BRANCH  24  27
ATOM     27  C   UNL A   1      34.331  34.273  29.432  1.00  0.00     0.039 A 
ATOM     28  C   UNL A   1      34.097  33.448  30.536  1.00  0.00     0.014 A 
ATOM     29  C   UNL A   1      35.642  34.579  29.058  1.00  0.00     0.014 A 
ATOM     30  C   UNL A   1      35.175  32.895  31.231  1.00  0.00     0.010 A 
ATOM     31  C   UNL A   1      36.712  33.957  29.695  1.00  0.00     0.010 A 
ATOM     32  C   UNL A   1      36.492  33.121  30.798  1.00  0.00    -0.014 A 
BRANCH  32  33
ATOM     33  C   UNL A   1      37.655  32.523  31.507  1.00  0.00     0.031 A 
ATOM     34  C   UNL A   1      38.401  31.372  30.884  1.00  0.00     0.074 A 
ATOM     35  C   UNL A   1      37.998  32.968  32.731  1.00  0.00     0.049 A 
ATOM     36  N   UNL A   1      39.371  30.647  31.378  1.00  0.00    -0.248 NA
ATOM     37  C   UNL A   1      37.972  30.964  29.538  1.00  0.00     0.031 C 
ATOM     38  C   UNL A   1      37.332  34.055  33.451  1.00  0.00     0.029 A 
ATOM     39  N   UNL A   1      38.983  32.556  33.592  1.00  0.00    -0.354 N 
ATOM     40  C   UNL A   1      39.656  29.687  30.412  1.00  0.00     0.074 A 
ATOM     41  C   UNL A   1      38.709  29.884  29.336  1.00  0.00     0.031 C 
ATOM     42  C   UNL A   1      37.941  34.238  34.632  1.00  0.00     0.029 A 
ATOM     43  C   UNL A   1      39.004  33.249  34.781  1.00  0.00     0.049 A 
ATOM     44  H   UNL A   1      39.615  31.832  33.380  1.00  0.00     0.167 HD
ATOM     45  C   UNL A   1      40.633  28.745  30.411  1.00  0.00     0.034 A 
ATOM     46  C   UNL A   1      39.780  33.094  35.872  1.00  0.00     0.034 A 
ATOM     47  C   UNL A   1      41.574  28.571  31.493  1.00  0.00     0.049 A 
ATOM     48  C   UNL A   1      40.836  32.019  35.868  1.00  0.00     0.074 A 
ATOM     49  C   UNL A   1      42.633  27.685  31.579  1.00  0.00     0.029 A 
ATOM     50  N   UNL A   1      41.562  29.291  32.682  1.00  0.00    -0.354 N 
ATOM     51  N   UNL A   1      41.122  31.144  34.930  1.00  0.00    -0.248 NA
ATOM     52  C   UNL A   1      41.679  31.914  37.066  1.00  0.00     0.031 C 
ATOM     53  C   UNL A   1      43.213  27.816  32.846  1.00  0.00     0.029 A 
ATOM     54  C   UNL A   1      42.574  28.845  33.520  1.00  0.00     0.049 A 
ATOM     55  H   UNL A   1      40.930  30.013  32.898  1.00  0.00     0.167 HD
ATOM     56  C   UNL A   1      42.202  30.410  35.412  1.00  0.00     0.074 A 
ATOM     57  C   UNL A   1      42.521  30.951  36.718  1.00  0.00     0.031 C 
ATOM     58  C   UNL A   1      42.874  29.386  34.826  1.00  0.00     0.034 A 
BRANCH  45  59
ATOM     59  C   UNL A   1      40.703  27.818  29.220  1.00  0.00     0.023 A 
ATOM     60  C   UNL A   1      41.639  28.010  28.186  1.00  0.00     0.031 A 
ATOM     61  C   UNL A   1      39.796  26.752  29.089  1.00  0.00     0.131 A 
ATOM     62  C   UNL A   1      41.584  27.214  27.032  1.00  0.00     0.055 A 
ATOM     63  C   UNL A   1      39.809  25.903  27.980  1.00  0.00     0.041 A 
ATOM     64  F   UNL A   1      38.864  26.527  30.030  1.00  0.00    -0.206 F 
ATOM     65  C   UNL A   1      40.694  26.144  26.934  1.00  0.00     0.022 A 
BRANCH  62  66
ATOM     66  S   UNL A   1      42.575  27.709  25.595  1.00  0.00     0.124 S 
ATOM     67  O   UNL A   1      42.403  26.559  24.709  1.00  0.00    -0.237 OA
ATOM     68  O   UNL A   1      41.925  28.944  25.174  1.00  0.00    -0.237 OA
ATOM     69  O   UNL A   1      43.920  27.864  26.145  1.00  0.00    -0.744 OA
ENDBRANCH  62  66
ENDBRANCH  45  59
BRANCH  46  70
ATOM     70  C   UNL A   1      39.580  33.967  37.065  1.00  0.00     0.023 A 
ATOM     71  C   UNL A   1      38.963  33.476  38.227  1.00  0.00     0.031 A 
ATOM     72  C   UNL A   1      39.981  35.316  37.051  1.00  0.00     0.131 A 
ATOM     73  C   UNL A   1      38.726  34.337  39.310  1.00  0.00     0.055 A 
ATOM     74  C   UNL A   1      39.793  36.153  38.151  1.00  0.00     0.041 A 
ATOM     75  F   UNL A   1      40.581  35.834  35.967  1.00  0.00    -0.206 F 
ATOM     76  C   UNL A   1      39.151  35.668  39.286  1.00  0.00     0.022 A 
BRANCH  73  77
ATOM     77  S   UNL A   1      37.784  33.711  40.727  1.00  0.00     0.124 S 
ATOM     78  O   UNL A   1      37.512  34.937  41.467  1.00  0.00    -0.237 OA
ATOM     79  O   UNL A   1      36.638  33.085  40.077  1.00  0.00    -0.237 OA
ATOM     80  O   UNL A   1      38.714  32.786  41.372  1.00  0.00    -0.744 OA
ENDBRANCH  73  77
ENDBRANCH  46  70
BRANCH  58  81
ATOM     81  C   UNL A   1      44.057  28.820  35.575  1.00  0.00     0.023 A 
ATOM     82  C   UNL A   1      43.930  27.734  36.459  1.00  0.00     0.031 A 
ATOM     83  C   UNL A   1      45.335  29.383  35.401  1.00  0.00     0.131 A 
ATOM     84  C   UNL A   1      45.048  27.283  37.177  1.00  0.00     0.055 A 
ATOM     85  C   UNL A   1      46.456  28.887  36.068  1.00  0.00     0.041 A 
ATOM     86  F   UNL A   1      45.517  30.425  34.574  1.00  0.00    -0.206 F 
ATOM     87  C   UNL A   1      46.314  27.839  36.973  1.00  0.00     0.022 A 
BRANCH  84  88
ATOM     88  S   UNL A   1      44.810  26.020  38.458  1.00  0.00     0.124 S 
ATOM     89  O   UNL A   1      44.008  25.023  37.754  1.00  0.00    -0.237 OA
ATOM     90  O   UNL A   1      46.181  25.631  38.771  1.00  0.00    -0.237 OA
ATOM     91  O   UNL A   1      44.111  26.738  39.522  1.00  0.00    -0.744 OA
ENDBRANCH  84  88
ENDBRANCH  58  81
ENDBRANCH  32  33
ENDBRANCH  24  27
ENDBRANCH   1  23
TORSDOF 16
ENDMDL
MODEL 2
REMARK VINA RESULT:     -11.8      2.403      3.383
REMARK SMILES CC[C@@](O)(C(=O)NCCCNC(=O)c1ccc(-c2c3nc(c(-c4cc(S(=O)(=O)[O-])ccc4F)c4ccc([nH]4)c(-c4cc(S(=O)(=O)[O-])ccc4F)c4nc(c(-c5cc(S(=O)(=O)[O-])ccc5F)c5ccc2[nH]5)C=C4)C=C3)cc1)[C@H]1CCCc2ccccc21
REMARK SMILES IDX 10 1 9 2 8 3 7 4 5 5 6 6 3 8 2 9 1 10 4 11 77 13 78 14 86 15
REMARK SMILES IDX 79 16 81 17 85 18 80 19 82 20 84 21 83 22 11 23 12 24 13 26
REMARK SMILES IDX 14 27 15 28 76 29 16 30 75 31 17 32 18 33 19 34 69 35 20 36
REMARK SMILES IDX 74 37 68 38 70 39 21 40 73 41 67 42 66 43 22 45 54 46 34 47
REMARK SMILES IDX 53 48 35 49 38 50 52 51 71 52 36 53 37 54 51 56 72 57 39 58
REMARK SMILES IDX 23 59 24 60 32 61 25 62 31 63 33 64 30 65 26 66 27 67 28 68
REMARK SMILES IDX 29 69 55 70 56 71 64 72 57 73 63 74 65 75 62 76 58 77 59 78
REMARK SMILES IDX 60 79 61 80 40 81 41 82 49 83 42 84 48 85 50 86 47 87 43 88
REMARK SMILES IDX 44 89 45 90 46 91
REMARK H PARENT 7 7 4 12 11 25 70 44 38 55
REMARK Flexibility Score: inf
ROOT
ATOM      1  C   UNL A   1      32.377  29.349  25.918  1.00  0.00     0.118 C 
ENDROOT
BRANCH   1   2
ATOM      2  C   UNL A   1      33.246  29.052  24.704  1.00  0.00     0.042 C 
BRANCH   2   3
ATOM      3  C   UNL A   1      33.544  27.560  24.540  1.00  0.00     0.117 C 
BRANCH   3   4
ATOM      4  N   UNL A   1      33.529  27.207  23.136  1.00  0.00    -0.354 N 
ATOM      5  C   UNL A   1      33.375  25.996  22.522  1.00  0.00     0.252 C 
ATOM      6  O   UNL A   1      33.648  25.981  21.315  1.00  0.00    -0.272 OA
ATOM      7  H   UNL A   1      33.649  27.966  22.521  1.00  0.00     0.163 HD
BRANCH   5   8
ATOM      8  C   UNL A   1      32.839  24.725  23.283  1.00  0.00     0.149 C 
BRANCH   8   9
ATOM      9  C   UNL A   1      32.125  25.115  24.612  1.00  0.00     0.043 C 
ATOM     10  C   UNL A   1      30.678  24.656  24.763  1.00  0.00     0.007 C 
ENDBRANCH   8   9
BRANCH   8  11
ATOM     11  O   UNL A   1      31.866  24.191  22.369  1.00  0.00    -0.379 OA
ATOM     12  H   UNL A   1      31.850  24.730  21.563  1.00  0.00     0.212 HD
ENDBRANCH   8  11
BRANCH   8  13
ATOM     13  C   UNL A   1      34.090  23.740  23.486  1.00  0.00     0.061 C 
ATOM     14  C   UNL A   1      35.038  24.360  24.565  1.00  0.00     0.012 C 
ATOM     15  C   UNL A   1      33.875  22.268  23.862  1.00  0.00    -0.038 A 
ATOM     16  C   UNL A   1      36.369  23.648  24.767  1.00  0.00     0.006 C 
ATOM     17  C   UNL A   1      34.954  21.580  24.466  1.00  0.00    -0.044 A 
ATOM     18  C   UNL A   1      32.719  21.531  23.592  1.00  0.00     0.004 A 
ATOM     19  C   UNL A   1      36.335  22.178  24.392  1.00  0.00     0.036 C 
ATOM     20  C   UNL A   1      34.769  20.301  25.004  1.00  0.00     0.004 A 
ATOM     21  C   UNL A   1      32.541  20.249  24.113  1.00  0.00     0.000 A 
ATOM     22  C   UNL A   1      33.545  19.656  24.868  1.00  0.00     0.000 A 
ENDBRANCH   8  13
ENDBRANCH   5   8
ENDBRANCH   3   4
ENDBRANCH   2   3
ENDBRANCH   1   2
BRANCH   1  23
ATOM     23  N   UNL A   1      32.139  30.775  26.062  1.00  0.00    -0.352 N 
ATOM     24  C   UNL A   1      32.717  31.675  26.925  1.00  0.00     0.251 C 
ATOM     25  H   UNL A   1      31.466  31.153  25.451  1.00  0.00     0.163 HD
ATOM     26  O   UNL A   1      32.186  32.767  27.093  1.00  0.00    -0.269 OA
BRANCH  24  27
ATOM     27  C   UNL A   1      33.957  31.324  27.655  1.00  0.00     0.039 A 
ATOM     28  C   UNL A   1      34.866  32.338  27.972  1.00  0.00     0.014 A 
ATOM     29  C   UNL A   1      34.248  30.000  27.994  1.00  0.00     0.014 A 
ATOM     30  C   UNL A   1      36.038  32.030  28.667  1.00  0.00     0.010 A 
ATOM     31  C   UNL A   1      35.370  29.707  28.763  1.00  0.00     0.010 A 
ATOM     32  C   UNL A   1      36.287  30.715  29.095  1.00  0.00    -0.014 A 
BRANCH  32  33
ATOM     33  C   UNL A   1      37.514  30.366  29.858  1.00  0.00     0.031 A 
ATOM     34  C   UNL A   1      38.541  29.450  29.246  1.00  0.00     0.074 A 
ATOM     35  C   UNL A   1      37.675  30.817  31.117  1.00  0.00     0.049 A 
ATOM     36  N   UNL A   1      39.624  28.944  29.778  1.00  0.00    -0.248 NA
ATOM     37  C   UNL A   1      38.295  29.021  27.861  1.00  0.00     0.031 C 
ATOM     38  C   UNL A   1      36.735  31.686  31.828  1.00  0.00     0.029 A 
ATOM     39  N   UNL A   1      38.678  30.601  32.027  1.00  0.00    -0.354 N 
ATOM     40  C   UNL A   1      40.178  28.123  28.801  1.00  0.00     0.074 A 
ATOM     41  C   UNL A   1      39.273  28.150  27.671  1.00  0.00     0.031 C 
ATOM     42  C   UNL A   1      37.217  31.946  33.053  1.00  0.00     0.029 A 
ATOM     43  C   UNL A   1      38.471  31.222  33.237  1.00  0.00     0.049 A 
ATOM     44  H   UNL A   1      39.473  30.053  31.832  1.00  0.00     0.167 HD
ATOM     45  C   UNL A   1      41.346  27.433  28.832  1.00  0.00     0.034 A 
ATOM     46  C   UNL A   1      39.198  31.196  34.371  1.00  0.00     0.034 A 
ATOM     47  C   UNL A   1      42.239  27.427  29.967  1.00  0.00     0.049 A 
ATOM     48  C   UNL A   1      40.474  30.393  34.400  1.00  0.00     0.074 A 
ATOM     49  C   UNL A   1      43.469  26.805  30.092  1.00  0.00     0.029 A 
ATOM     50  N   UNL A   1      41.993  28.066  31.176  1.00  0.00    -0.354 N 
ATOM     51  N   UNL A   1      41.008  29.655  33.454  1.00  0.00    -0.248 NA
ATOM     52  C   UNL A   1      41.249  30.427  35.647  1.00  0.00     0.031 C 
ATOM     53  C   UNL A   1      43.929  27.003  31.398  1.00  0.00     0.029 A 
ATOM     54  C   UNL A   1      43.032  27.823  32.064  1.00  0.00     0.049 A 
ATOM     55  H   UNL A   1      41.199  28.611  31.375  1.00  0.00     0.167 HD
ATOM     56  C   UNL A   1      42.200  29.166  33.980  1.00  0.00     0.074 A 
ATOM     57  C   UNL A   1      42.310  29.701  35.322  1.00  0.00     0.031 C 
ATOM     58  C   UNL A   1      43.124  28.354  33.405  1.00  0.00     0.034 A 
BRANCH  45  59
ATOM     59  C   UNL A   1      41.697  26.606  27.616  1.00  0.00     0.023 A 
ATOM     60  C   UNL A   1      41.363  25.242  27.527  1.00  0.00     0.031 A 
ATOM     61  C   UNL A   1      42.412  27.175  26.546  1.00  0.00     0.131 A 
ATOM     62  C   UNL A   1      41.825  24.475  26.447  1.00  0.00     0.055 A 
ATOM     63  C   UNL A   1      42.786  26.427  25.428  1.00  0.00     0.041 A 
ATOM     64  F   UNL A   1      42.779  28.466  26.579  1.00  0.00    -0.206 F 
ATOM     65  C   UNL A   1      42.509  25.064  25.382  1.00  0.00     0.022 A 
BRANCH  62  66
ATOM     66  S   UNL A   1      41.666  22.670  26.539  1.00  0.00     0.124 S 
ATOM     67  O   UNL A   1      42.360  22.378  27.791  1.00  0.00    -0.237 OA
ATOM     68  O   UNL A   1      40.220  22.481  26.550  1.00  0.00    -0.237 OA
ATOM     69  O   UNL A   1      42.349  22.205  25.334  1.00  0.00    -0.744 OA
ENDBRANCH  62  66
ENDBRANCH  45  59
BRANCH  46  70
ATOM     70  C   UNL A   1      38.735  31.939  35.578  1.00  0.00     0.023 A 
ATOM     71  C   UNL A   1      38.165  31.266  36.670  1.00  0.00     0.031 A 
ATOM     72  C   UNL A   1      38.829  33.342  35.645  1.00  0.00     0.131 A 
ATOM     73  C   UNL A   1      37.675  31.996  37.764  1.00  0.00     0.055 A 
ATOM     74  C   UNL A   1      38.391  34.059  36.759  1.00  0.00     0.041 A 
ATOM     75  F   UNL A   1      39.371  34.035  34.631  1.00  0.00    -0.206 F 
ATOM     76  C   UNL A   1      37.798  33.387  37.823  1.00  0.00     0.022 A 
BRANCH  73  77
ATOM     77  S   UNL A   1      36.802  31.106  39.082  1.00  0.00     0.124 S 
ATOM     78  O   UNL A   1      35.587  31.900  39.221  1.00  0.00    -0.237 OA
ATOM     79  O   UNL A   1      36.640  29.780  38.496  1.00  0.00    -0.237 OA
ATOM     80  O   UNL A   1      37.727  31.177  40.210  1.00  0.00    -0.744 OA
ENDBRANCH  73  77
ENDBRANCH  46  70
BRANCH  58  81
ATOM     81  C   UNL A   1      44.362  28.039  34.211  1.00  0.00     0.023 A 
ATOM     82  C   UNL A   1      44.441  26.910  35.045  1.00  0.00     0.031 A 
ATOM     83  C   UNL A   1      45.482  28.889  34.143  1.00  0.00     0.131 A 
ATOM     84  C   UNL A   1      45.591  26.694  35.819  1.00  0.00     0.055 A 
ATOM     85  C   UNL A   1      46.647  28.632  34.865  1.00  0.00     0.041 A 
ATOM     86  F   UNL A   1      45.461  29.985  33.366  1.00  0.00    -0.206 F 
ATOM     87  C   UNL A   1      46.702  27.535  35.720  1.00  0.00     0.022 A 
BRANCH  84  88
ATOM     88  S   UNL A   1      45.582  25.347  37.036  1.00  0.00     0.124 S 
ATOM     89  O   UNL A   1      44.159  25.032  37.128  1.00  0.00    -0.237 OA
ATOM     90  O   UNL A   1      46.418  24.339  36.391  1.00  0.00    -0.237 OA
ATOM     91  O   UNL A   1      46.160  25.960  38.230  1.00  0.00    -0.744 OA
ENDBRANCH  84  88
ENDBRANCH  58  81
ENDBRANCH  32  33
ENDBRANCH  24  27
ENDBRANCH   1  23
TORSDOF 16
ENDMDL
MODEL 3
REMARK VINA RESULT:     -11.8      3.862      9.115
REMARK SMILES CC[C@@](O)(C(=O)NCCCNC(=O)c1ccc(-c2c3nc(c(-c4cc(S(=O)(=O)[O-])ccc4F)c4ccc([nH]4)c(-c4cc(S(=O)(=O)[O-])ccc4F)c4nc(c(-c5cc(S(=O)(=O)[O-])ccc5F)c5ccc2[nH]5)C=C4)C=C3)cc1)[C@H]1CCCc2ccccc21
REMARK SMILES IDX 10 1 9 2 8 3 7 4 5 5 6 6 3 8 2 9 1 10 4 11 77 13 78 14 86 15
REMARK SMILES IDX 79 16 81 17 85 18 80 19 82 20 84 21 83 22 11 23 12 24 13 26
REMARK SMILES IDX 14 27 15 28 76 29 16 30 75 31 17 32 18 33 19 34 69 35 20 36
REMARK SMILES IDX 74 37 68 38 70 39 21 40 73 41 67 42 66 43 22 45 54 46 34 47
REMARK SMILES IDX 53 48 35 49 38 50 52 51 71 52 36 53 37 54 51 56 72 57 39 58
REMARK SMILES IDX 23 59 24 60 32 61 25 62 31 63 33 64 30 65 26 66 27 67 28 68
REMARK SMILES IDX 29 69 55 70 56 71 64 72 57 73 63 74 65 75 62 76 58 77 59 78
REMARK SMILES IDX 60 79 61 80 40 81 41 82 49 83 42 84 48 85 50 86 47 87 43 88
REMARK SMILES IDX 44 89 45 90 46 91
REMARK H PARENT 7 7 4 12 11 25 70 44 38 55
REMARK Flexibility Score: inf
ROOT
ATOM      1  C   UNL A   1      33.506  28.704  26.721  1.00  0.00     0.118 C 
ENDROOT
BRANCH   1   2
ATOM      2  C   UNL A   1      32.193  28.154  27.262  1.00  0.00     0.042 C 
BRANCH   2   3
ATOM      3  C   UNL A   1      31.530  27.160  26.307  1.00  0.00     0.117 C 
BRANCH   3   4
ATOM      4  N   UNL A   1      31.436  25.860  26.938  1.00  0.00    -0.354 N 
ATOM      5  C   UNL A   1      31.955  24.650  26.571  1.00  0.00     0.252 C 
ATOM      6  O   UNL A   1      31.501  23.677  27.184  1.00  0.00    -0.272 OA
ATOM      7  H   UNL A   1      30.911  25.845  27.771  1.00  0.00     0.163 HD
BRANCH   5   8
ATOM      8  C   UNL A   1      33.086  24.512  25.483  1.00  0.00     0.149 C 
BRANCH   8   9
ATOM      9  C   UNL A   1      32.593  24.987  24.083  1.00  0.00     0.043 C 
ATOM     10  C   UNL A   1      33.585  25.796  23.254  1.00  0.00     0.007 C 
ENDBRANCH   8   9
BRANCH   8  11
ATOM     11  O   UNL A   1      34.097  25.418  25.955  1.00  0.00    -0.379 OA
ATOM     12  H   UNL A   1      34.419  25.957  25.216  1.00  0.00     0.212 HD
ENDBRANCH   8  11
BRANCH   8  13
ATOM     13  C   UNL A   1      33.576  22.984  25.510  1.00  0.00     0.061 C 
ATOM     14  C   UNL A   1      32.919  22.230  24.307  1.00  0.00     0.012 C 
ATOM     15  C   UNL A   1      35.072  22.640  25.500  1.00  0.00    -0.038 A 
ATOM     16  C   UNL A   1      33.133  20.723  24.270  1.00  0.00     0.006 C 
ATOM     17  C   UNL A   1      35.445  21.346  25.069  1.00  0.00    -0.044 A 
ATOM     18  C   UNL A   1      36.092  23.483  25.948  1.00  0.00     0.004 A 
ATOM     19  C   UNL A   1      34.392  20.271  24.986  1.00  0.00     0.036 C 
ATOM     20  C   UNL A   1      36.792  21.029  24.853  1.00  0.00     0.004 A 
ATOM     21  C   UNL A   1      37.435  23.160  25.750  1.00  0.00     0.000 A 
ATOM     22  C   UNL A   1      37.784  21.957  25.150  1.00  0.00     0.000 A 
ENDBRANCH   8  13
ENDBRANCH   5   8
ENDBRANCH   3   4
ENDBRANCH   2   3
ENDBRANCH   1   2
BRANCH   1  23
ATOM     23  N   UNL A   1      33.548  30.154  26.810  1.00  0.00    -0.352 N 
ATOM     24  C   UNL A   1      34.402  30.961  27.523  1.00  0.00     0.251 C 
ATOM     25  H   UNL A   1      32.865  30.628  26.284  1.00  0.00     0.163 HD
ATOM     26  O   UNL A   1      34.103  32.137  27.701  1.00  0.00    -0.269 OA
BRANCH  24  27
ATOM     27  C   UNL A   1      35.659  30.414  28.083  1.00  0.00     0.039 A 
ATOM     28  C   UNL A   1      35.632  29.810  29.343  1.00  0.00     0.014 A 
ATOM     29  C   UNL A   1      36.869  30.529  27.393  1.00  0.00     0.014 A 
ATOM     30  C   UNL A   1      36.806  29.281  29.887  1.00  0.00     0.010 A 
ATOM     31  C   UNL A   1      38.018  29.923  27.894  1.00  0.00     0.010 A 
ATOM     32  C   UNL A   1      38.004  29.307  29.154  1.00  0.00    -0.014 A 
BRANCH  32  33
ATOM     33  C   UNL A   1      39.260  28.728  29.700  1.00  0.00     0.031 A 
ATOM     34  C   UNL A   1      39.943  29.389  30.867  1.00  0.00     0.074 A 
ATOM     35  C   UNL A   1      39.818  27.654  29.109  1.00  0.00     0.049 A 
ATOM     36  N   UNL A   1      41.092  29.106  31.426  1.00  0.00    -0.248 NA
ATOM     37  C   UNL A   1      39.255  30.544  31.463  1.00  0.00     0.031 C 
ATOM     38  C   UNL A   1      39.267  26.945  27.952  1.00  0.00     0.029 A 
ATOM     39  N   UNL A   1      40.977  26.976  29.390  1.00  0.00    -0.354 N 
ATOM     40  C   UNL A   1      41.272  30.058  32.425  1.00  0.00     0.074 A 
ATOM     41  C   UNL A   1      40.145  30.963  32.347  1.00  0.00     0.031 C 
ATOM     42  C   UNL A   1      40.074  25.921  27.639  1.00  0.00     0.029 A 
ATOM     43  C   UNL A   1      41.227  25.929  28.533  1.00  0.00     0.049 A 
ATOM     44  H   UNL A   1      41.574  27.215  30.136  1.00  0.00     0.167 HD
ATOM     45  C   UNL A   1      42.270  30.152  33.340  1.00  0.00     0.034 A 
ATOM     46  C   UNL A   1      42.275  25.084  28.464  1.00  0.00     0.034 A 
ATOM     47  C   UNL A   1      43.382  29.233  33.406  1.00  0.00     0.049 A 
ATOM     48  C   UNL A   1      43.394  25.227  29.465  1.00  0.00     0.074 A 
ATOM     49  C   UNL A   1      44.422  29.203  34.317  1.00  0.00     0.029 A 
ATOM     50  N   UNL A   1      43.603  28.186  32.518  1.00  0.00    -0.354 N 
ATOM     51  N   UNL A   1      43.530  26.106  30.432  1.00  0.00    -0.248 NA
ATOM     52  C   UNL A   1      44.494  24.260  29.371  1.00  0.00     0.031 C 
ATOM     53  C   UNL A   1      45.309  28.190  33.937  1.00  0.00     0.029 A 
ATOM     54  C   UNL A   1      44.780  27.527  32.840  1.00  0.00     0.049 A 
ATOM     55  H   UNL A   1      43.010  27.946  31.770  1.00  0.00     0.167 HD
ATOM     56  C   UNL A   1      44.715  25.775  31.082  1.00  0.00     0.074 A 
ATOM     57  C   UNL A   1      45.247  24.610  30.405  1.00  0.00     0.031 C 
ATOM     58  C   UNL A   1      45.306  26.373  32.148  1.00  0.00     0.034 A 
BRANCH  45  59
ATOM     59  C   UNL A   1      42.214  31.308  34.312  1.00  0.00     0.023 A 
ATOM     60  C   UNL A   1      41.299  31.333  35.381  1.00  0.00     0.031 A 
ATOM     61  C   UNL A   1      43.056  32.423  34.146  1.00  0.00     0.131 A 
ATOM     62  C   UNL A   1      41.181  32.481  36.178  1.00  0.00     0.055 A 
ATOM     63  C   UNL A   1      42.998  33.524  35.003  1.00  0.00     0.041 A 
ATOM     64  F   UNL A   1      43.936  32.471  33.134  1.00  0.00    -0.206 F 
ATOM     65  C   UNL A   1      42.044  33.566  36.015  1.00  0.00     0.022 A 
BRANCH  62  66
ATOM     66  S   UNL A   1      39.773  32.602  37.315  1.00  0.00     0.124 S 
ATOM     67  O   UNL A   1      39.149  33.850  36.880  1.00  0.00    -0.237 OA
ATOM     68  O   UNL A   1      39.030  31.381  37.027  1.00  0.00    -0.237 OA
ATOM     69  O   UNL A   1      40.401  32.656  38.633  1.00  0.00    -0.744 OA
ENDBRANCH  62  66
ENDBRANCH  45  59
BRANCH  46  70
ATOM     70  C   UNL A   1      42.327  24.037  27.403  1.00  0.00     0.023 A 
ATOM     71  C   UNL A   1      41.775  22.764  27.614  1.00  0.00     0.031 A 
ATOM     72  C   UNL A   1      42.956  24.286  26.169  1.00  0.00     0.131 A 
ATOM     73  C   UNL A   1      41.897  21.775  26.625  1.00  0.00     0.055 A 
ATOM     74  C   UNL A   1      43.026  23.318  25.167  1.00  0.00     0.041 A 
ATOM     75  F   UNL A   1      43.495  25.489  25.914  1.00  0.00    -0.206 F 
ATOM     76  C   UNL A   1      42.506  22.049  25.397  1.00  0.00     0.022 A 
BRANCH  73  77
ATOM     77  S   UNL A   1      41.315  20.098  26.996  1.00  0.00     0.124 S 
ATOM     78  O   UNL A   1      40.716  20.276  28.313  1.00  0.00    -0.237 OA
ATOM     79  O   UNL A   1      40.388  19.849  25.897  1.00  0.00    -0.237 OA
ATOM     80  O   UNL A   1      42.539  19.300  26.969  1.00  0.00    -0.744 OA
ENDBRANCH  73  77
ENDBRANCH  46  70
BRANCH  58  81
ATOM     81  C   UNL A   1      46.572  25.742  32.678  1.00  0.00     0.023 A 
ATOM     82  C   UNL A   1      47.821  25.950  32.067  1.00  0.00     0.031 A 
ATOM     83  C   UNL A   1      46.523  24.914  33.815  1.00  0.00     0.131 A 
ATOM     84  C   UNL A   1      48.958  25.294  32.562  1.00  0.00     0.055 A 
ATOM     85  C   UNL A   1      47.669  24.317  34.342  1.00  0.00     0.041 A 
ATOM     86  F   UNL A   1      45.357  24.675  34.437  1.00  0.00    -0.206 F 
ATOM     87  C   UNL A   1      48.895  24.495  33.707  1.00  0.00     0.022 A 
BRANCH  84  88
ATOM     88  S   UNL A   1      50.511  25.420  31.632  1.00  0.00     0.124 S 
ATOM     89  O   UNL A   1      50.067  26.033  30.383  1.00  0.00    -0.237 OA
ATOM     90  O   UNL A   1      51.328  26.261  32.500  1.00  0.00    -0.237 OA
ATOM     91  O   UNL A   1      50.956  24.032  31.517  1.00  0.00    -0.744 OA
ENDBRANCH  84  88
ENDBRANCH  58  81
ENDBRANCH  32  33
ENDBRANCH  24  27
ENDBRANCH   1  23
TORSDOF 16
ENDMDL
