MODEL 1
REMARK VINA RESULT:     -10.4      0.000      0.000
REMARK SMILES O=C(CC[C@H]1CC[C@@H](O)CC1)NCCCNC(=O)c1ccc(-c2c3nc(c(-c4cc(S(=O)(=O)[O-])ccc4F)c4ccc([nH]4)c(-c4cc(S(=O)(=O)[O-])ccc4F)c4nc(c(-c5cc(S(=O)(=O)[O-])ccc5F)c5ccc2[nH]5)C=C4)C=C3)cc1
REMARK SMILES IDX 14 1 13 2 12 3 1 4 2 5 3 7 4 8 5 9 6 10 11 11 7 12 10 13
REMARK SMILES IDX 8 14 9 15 15 17 16 18 17 19 18 21 19 22 20 23 81 24 21 25
REMARK SMILES IDX 80 26 22 27 23 28 24 29 74 30 25 31 79 32 73 33 75 34 26 35
REMARK SMILES IDX 78 36 72 37 71 38 27 40 59 41 39 42 58 43 40 44 43 45 57 46
REMARK SMILES IDX 76 47 41 48 42 49 56 51 77 52 44 53 28 54 29 55 37 56 30 57
REMARK SMILES IDX 36 58 38 59 35 60 31 61 32 62 33 63 34 64 60 65 61 66 69 67
REMARK SMILES IDX 62 68 68 69 70 70 67 71 63 72 64 73 65 74 66 75 45 76 46 77
REMARK SMILES IDX 54 78 47 79 53 80 55 81 52 82 48 83 49 84 50 85 51 86
REMARK H PARENT 12 6 9 16 16 20 75 39 43 50
REMARK Flexibility Score: inf
ROOT
ATOM      1  C   UNL A   1      41.254  19.817  27.200  1.00  0.00     0.042 C 
ENDROOT
BRANCH   1   2
ATOM      2  C   UNL A   1      41.913  18.995  26.097  1.00  0.00     0.117 C 
BRANCH   2   3
ATOM      3  N   UNL A   1      42.888  19.775  25.364  1.00  0.00    -0.356 N 
ATOM      4  O   UNL A   1      44.531  18.179  25.334  1.00  0.00    -0.275 OA
ATOM      5  C   UNL A   1      44.143  19.312  25.064  1.00  0.00     0.220 C 
ATOM      6  H   UNL A   1      42.638  20.680  25.066  1.00  0.00     0.163 HD
BRANCH   5   7
ATOM      7  C   UNL A   1      45.071  20.341  24.457  1.00  0.00     0.100 C 
BRANCH   7   8
ATOM      8  C   UNL A   1      44.590  21.793  24.508  1.00  0.00     0.013 C 
BRANCH   8   9
ATOM      9  C   UNL A   1      44.504  22.497  25.888  1.00  0.00    -0.010 C 
ATOM     10  C   UNL A   1      43.578  23.730  25.809  1.00  0.00     0.006 C 
ATOM     11  C   UNL A   1      45.843  22.938  26.497  1.00  0.00     0.006 C 
ATOM     12  C   UNL A   1      44.196  24.886  25.019  1.00  0.00     0.032 C 
ATOM     13  C   UNL A   1      46.514  24.030  25.674  1.00  0.00     0.032 C 
ATOM     14  C   UNL A   1      45.606  25.246  25.490  1.00  0.00     0.114 C 
BRANCH  14  15
ATOM     15  O   UNL A   1      46.199  26.133  24.545  1.00  0.00    -0.393 OA
ATOM     16  H   UNL A   1      46.792  25.634  23.961  1.00  0.00     0.210 HD
ENDBRANCH  14  15
ENDBRANCH   8   9
ENDBRANCH   7   8
ENDBRANCH   5   7
ENDBRANCH   2   3
ENDBRANCH   1   2
BRANCH   1  17
ATOM     17  C   UNL A   1      41.011  21.281  26.839  1.00  0.00     0.118 C 
BRANCH  17  18
ATOM     18  N   UNL A   1      39.712  21.502  26.225  1.00  0.00    -0.352 N 
ATOM     19  C   UNL A   1      38.903  22.611  26.216  1.00  0.00     0.251 C 
ATOM     20  H   UNL A   1      39.353  20.728  25.733  1.00  0.00     0.163 HD
ATOM     21  O   UNL A   1      37.755  22.495  25.794  1.00  0.00    -0.269 OA
BRANCH  19  22
ATOM     22  C   UNL A   1      39.381  23.922  26.715  1.00  0.00     0.039 A 
ATOM     23  C   UNL A   1      39.194  24.226  28.067  1.00  0.00     0.014 A 
ATOM     24  C   UNL A   1      39.952  24.876  25.868  1.00  0.00     0.014 A 
ATOM     25  C   UNL A   1      39.609  25.461  28.572  1.00  0.00     0.010 A 
ATOM     26  C   UNL A   1      40.443  26.074  26.389  1.00  0.00     0.010 A 
ATOM     27  C   UNL A   1      40.259  26.391  27.744  1.00  0.00    -0.014 A 
BRANCH  27  28
ATOM     28  C   UNL A   1      40.712  27.703  28.284  1.00  0.00     0.031 A 
ATOM     29  C   UNL A   1      42.183  28.021  28.376  1.00  0.00     0.074 A 
ATOM     30  C   UNL A   1      39.803  28.606  28.702  1.00  0.00     0.049 A 
ATOM     31  N   UNL A   1      42.771  29.108  28.812  1.00  0.00    -0.248 NA
ATOM     32  C   UNL A   1      43.116  26.967  27.951  1.00  0.00     0.031 C 
ATOM     33  C   UNL A   1      38.352  28.402  28.704  1.00  0.00     0.029 A 
ATOM     34  N   UNL A   1      39.959  29.875  29.200  1.00  0.00    -0.354 N 
ATOM     35  C   UNL A   1      44.138  28.866  28.718  1.00  0.00     0.074 A 
ATOM     36  C   UNL A   1      44.288  27.503  28.255  1.00  0.00     0.031 C 
ATOM     37  C   UNL A   1      37.752  29.520  29.143  1.00  0.00     0.029 A 
ATOM     38  C   UNL A   1      38.770  30.505  29.493  1.00  0.00     0.049 A 
ATOM     39  H   UNL A   1      40.838  30.296  29.335  1.00  0.00     0.167 HD
ATOM     40  C   UNL A   1      45.173  29.709  28.966  1.00  0.00     0.034 A 
ATOM     41  C   UNL A   1      38.527  31.736  29.986  1.00  0.00     0.034 A 
ATOM     42  C   UNL A   1      45.008  31.070  29.421  1.00  0.00     0.049 A 
ATOM     43  C   UNL A   1      39.693  32.652  30.263  1.00  0.00     0.074 A 
ATOM     44  C   UNL A   1      45.983  32.022  29.669  1.00  0.00     0.029 A 
ATOM     45  N   UNL A   1      43.788  31.674  29.704  1.00  0.00    -0.354 N 
ATOM     46  N   UNL A   1      40.979  32.426  30.121  1.00  0.00    -0.248 NA
ATOM     47  C   UNL A   1      39.370  34.000  30.746  1.00  0.00     0.031 C 
ATOM     48  C   UNL A   1      45.361  33.171  30.167  1.00  0.00     0.029 A 
ATOM     49  C   UNL A   1      43.989  32.974  30.146  1.00  0.00     0.049 A 
ATOM     50  H   UNL A   1      42.910  31.242  29.605  1.00  0.00     0.167 HD
ATOM     51  C   UNL A   1      41.614  33.619  30.457  1.00  0.00     0.074 A 
ATOM     52  C   UNL A   1      40.567  34.563  30.789  1.00  0.00     0.031 C 
ATOM     53  C   UNL A   1      42.941  33.909  30.483  1.00  0.00     0.034 A 
BRANCH  40  54
ATOM     54  C   UNL A   1      46.572  29.168  28.772  1.00  0.00     0.023 A 
ATOM     55  C   UNL A   1      47.146  29.038  27.495  1.00  0.00     0.031 A 
ATOM     56  C   UNL A   1      47.335  28.748  29.877  1.00  0.00     0.131 A 
ATOM     57  C   UNL A   1      48.400  28.427  27.346  1.00  0.00     0.055 A 
ATOM     58  C   UNL A   1      48.622  28.225  29.730  1.00  0.00     0.041 A 
ATOM     59  F   UNL A   1      46.838  28.825  31.121  1.00  0.00    -0.206 F 
ATOM     60  C   UNL A   1      49.155  28.045  28.457  1.00  0.00     0.022 A 
BRANCH  57  61
ATOM     61  S   UNL A   1      48.960  27.994  25.675  1.00  0.00     0.124 S 
ATOM     62  O   UNL A   1      49.049  26.538  25.763  1.00  0.00    -0.237 OA
ATOM     63  O   UNL A   1      47.890  28.521  24.837  1.00  0.00    -0.237 OA
ATOM     64  O   UNL A   1      50.245  28.683  25.556  1.00  0.00    -0.744 OA
ENDBRANCH  57  61
ENDBRANCH  40  54
BRANCH  41  65
ATOM     65  C   UNL A   1      37.128  32.186  30.245  1.00  0.00     0.023 A 
ATOM     66  C   UNL A   1      36.377  32.836  29.252  1.00  0.00     0.031 A 
ATOM     67  C   UNL A   1      36.538  32.018  31.511  1.00  0.00     0.131 A 
ATOM     68  C   UNL A   1      35.105  33.344  29.555  1.00  0.00     0.055 A 
ATOM     69  C   UNL A   1      35.248  32.472  31.791  1.00  0.00     0.041 A 
ATOM     70  F   UNL A   1      37.209  31.399  32.497  1.00  0.00    -0.206 F 
ATOM     71  C   UNL A   1      34.529  33.154  30.815  1.00  0.00     0.022 A 
BRANCH  68  72
ATOM     72  S   UNL A   1      34.248  34.345  28.309  1.00  0.00     0.124 S 
ATOM     73  O   UNL A   1      34.081  35.613  29.009  1.00  0.00    -0.237 OA
ATOM     74  O   UNL A   1      35.205  34.340  27.208  1.00  0.00    -0.237 OA
ATOM     75  O   UNL A   1      33.015  33.600  28.062  1.00  0.00    -0.744 OA
ENDBRANCH  68  72
ENDBRANCH  41  65
BRANCH  53  76
ATOM     76  C   UNL A   1      43.324  35.331  30.826  1.00  0.00     0.023 A 
ATOM     77  C   UNL A   1      43.354  35.797  32.153  1.00  0.00     0.031 A 
ATOM     78  C   UNL A   1      43.622  36.248  29.801  1.00  0.00     0.131 A 
ATOM     79  C   UNL A   1      43.589  37.157  32.413  1.00  0.00     0.055 A 
ATOM     80  C   UNL A   1      43.930  37.582  30.071  1.00  0.00     0.041 A 
ATOM     81  F   UNL A   1      43.608  35.864  28.514  1.00  0.00    -0.206 F 
ATOM     82  C   UNL A   1      43.895  38.047  31.382  1.00  0.00     0.022 A 
BRANCH  79  83
ATOM     83  S   UNL A   1      43.348  37.772  34.102  1.00  0.00     0.124 S 
ATOM     84  O   UNL A   1      42.288  36.900  34.595  1.00  0.00    -0.237 OA
ATOM     85  O   UNL A   1      44.665  37.573  34.696  1.00  0.00    -0.237 OA
ATOM     86  O   UNL A   1      42.960  39.168  33.906  1.00  0.00    -0.744 OA
ENDBRANCH  79  83
ENDBRANCH  53  76
ENDBRANCH  27  28
ENDBRANCH  19  22
ENDBRANCH  17  18
ENDBRANCH   1  17
TORSDOF 16
ENDMDL
MODEL 2
REMARK VINA RESULT:     -10.1      4.229     12.080
REMARK SMILES O=C(CC[C@H]1CC[C@@H](O)CC1)NCCCNC(=O)c1ccc(-c2c3nc(c(-c4cc(S(=O)(=O)[O-])ccc4F)c4ccc([nH]4)c(-c4cc(S(=O)(=O)[O-])ccc4F)c4nc(c(-c5cc(S(=O)(=O)[O-])ccc5F)c5ccc2[nH]5)C=C4)C=C3)cc1
REMARK SMILES IDX 14 1 13 2 12 3 1 4 2 5 3 7 4 8 5 9 6 10 11 11 7 12 10 13
REMARK SMILES IDX 8 14 9 15 15 17 16 18 17 19 18 21 19 22 20 23 81 24 21 25
REMARK SMILES IDX 80 26 22 27 23 28 24 29 74 30 25 31 79 32 73 33 75 34 26 35
REMARK SMILES IDX 78 36 72 37 71 38 27 40 59 41 39 42 58 43 40 44 43 45 57 46
REMARK SMILES IDX 76 47 41 48 42 49 56 51 77 52 44 53 28 54 29 55 37 56 30 57
REMARK SMILES IDX 36 58 38 59 35 60 31 61 32 62 33 63 34 64 60 65 61 66 69 67
REMARK SMILES IDX 62 68 68 69 70 70 67 71 63 72 64 73 65 74 66 75 45 76 46 77
REMARK SMILES IDX 54 78 47 79 53 80 55 81 52 82 48 83 49 84 50 85 51 86
REMARK H PARENT 12 6 9 16 16 20 75 39 43 50
REMARK Flexibility Score: inf
ROOT
ATOM      1  C   UNL A   1      34.411  34.849  28.150  1.00  0.00     0.042 C 
ENDROOT
BRANCH   1   2
ATOM      2  C   UNL A   1      33.609  35.943  28.848  1.00  0.00     0.117 C 
BRANCH   2   3
ATOM      3  N   UNL A   1      33.954  36.040  30.251  1.00  0.00    -0.356 N 
ATOM      4  O   UNL A   1      31.825  36.395  31.019  1.00  0.00    -0.275 OA
ATOM      5  C   UNL A   1      33.029  36.291  31.232  1.00  0.00     0.220 C 
ATOM      6  H   UNL A   1      34.895  35.919  30.514  1.00  0.00     0.163 HD
BRANCH   5   7
ATOM      7  C   UNL A   1      33.612  36.537  32.606  1.00  0.00     0.100 C 
BRANCH   7   8
ATOM      8  C   UNL A   1      34.962  35.875  32.891  1.00  0.00     0.013 C 
BRANCH   8   9
ATOM      9  C   UNL A   1      35.028  34.326  32.961  1.00  0.00    -0.010 C 
ATOM     10  C   UNL A   1      35.306  33.861  34.407  1.00  0.00     0.006 C 
ATOM     11  C   UNL A   1      36.055  33.659  32.035  1.00  0.00     0.006 C 
ATOM     12  C   UNL A   1      36.738  34.155  34.859  1.00  0.00     0.032 C 
ATOM     13  C   UNL A   1      37.486  34.011  32.419  1.00  0.00     0.032 C 
ATOM     14  C   UNL A   1      37.793  33.651  33.872  1.00  0.00     0.114 C 
BRANCH  14  15
ATOM     15  O   UNL A   1      39.061  34.193  34.230  1.00  0.00    -0.393 OA
ATOM     16  H   UNL A   1      38.974  34.707  35.048  1.00  0.00     0.210 HD
ENDBRANCH  14  15
ENDBRANCH   8   9
ENDBRANCH   7   8
ENDBRANCH   5   7
ENDBRANCH   2   3
ENDBRANCH   1   2
BRANCH   1  17
ATOM     17  C   UNL A   1      34.448  33.517  28.897  1.00  0.00     0.118 C 
BRANCH  17  18
ATOM     18  N   UNL A   1      33.793  32.444  28.167  1.00  0.00    -0.352 N 
ATOM     19  C   UNL A   1      34.265  31.220  27.759  1.00  0.00     0.251 C 
ATOM     20  H   UNL A   1      32.855  32.623  27.926  1.00  0.00     0.163 HD
ATOM     21  O   UNL A   1      33.582  30.559  26.980  1.00  0.00    -0.269 OA
BRANCH  19  22
ATOM     22  C   UNL A   1      35.573  30.701  28.224  1.00  0.00     0.039 A 
ATOM     23  C   UNL A   1      35.590  29.823  29.312  1.00  0.00     0.014 A 
ATOM     24  C   UNL A   1      36.779  31.109  27.650  1.00  0.00     0.014 A 
ATOM     25  C   UNL A   1      36.804  29.330  29.796  1.00  0.00     0.010 A 
ATOM     26  C   UNL A   1      37.986  30.551  28.079  1.00  0.00     0.010 A 
ATOM     27  C   UNL A   1      38.015  29.671  29.171  1.00  0.00    -0.014 A 
BRANCH  27  28
ATOM     28  C   UNL A   1      39.309  29.136  29.678  1.00  0.00     0.031 A 
ATOM     29  C   UNL A   1      39.968  29.754  30.886  1.00  0.00     0.074 A 
ATOM     30  C   UNL A   1      39.900  28.101  29.048  1.00  0.00     0.049 A 
ATOM     31  N   UNL A   1      41.088  29.426  31.478  1.00  0.00    -0.248 NA
ATOM     32  C   UNL A   1      39.291  30.913  31.487  1.00  0.00     0.031 C 
ATOM     33  C   UNL A   1      39.386  27.442  27.845  1.00  0.00     0.029 A 
ATOM     34  N   UNL A   1      41.055  27.417  29.332  1.00  0.00    -0.354 N 
ATOM     35  C   UNL A   1      41.253  30.338  32.517  1.00  0.00     0.074 A 
ATOM     36  C   UNL A   1      40.155  31.277  32.423  1.00  0.00     0.031 C 
ATOM     37  C   UNL A   1      40.201  26.426  27.518  1.00  0.00     0.029 A 
ATOM     38  C   UNL A   1      41.316  26.384  28.458  1.00  0.00     0.049 A 
ATOM     39  H   UNL A   1      41.643  27.642  30.088  1.00  0.00     0.167 HD
ATOM     40  C   UNL A   1      42.213  30.376  33.476  1.00  0.00     0.034 A 
ATOM     41  C   UNL A   1      42.336  25.504  28.419  1.00  0.00     0.034 A 
ATOM     42  C   UNL A   1      43.299  29.428  33.561  1.00  0.00     0.049 A 
ATOM     43  C   UNL A   1      43.397  25.570  29.490  1.00  0.00     0.074 A 
ATOM     44  C   UNL A   1      44.305  29.350  34.510  1.00  0.00     0.029 A 
ATOM     45  N   UNL A   1      43.529  28.395  32.660  1.00  0.00    -0.354 N 
ATOM     46  N   UNL A   1      43.510  26.408  30.495  1.00  0.00    -0.248 NA
ATOM     47  C   UNL A   1      44.454  24.554  29.433  1.00  0.00     0.031 C 
ATOM     48  C   UNL A   1      45.178  28.320  34.145  1.00  0.00     0.029 A 
ATOM     49  C   UNL A   1      44.672  27.692  33.018  1.00  0.00     0.049 A 
ATOM     50  H   UNL A   1      42.964  28.191  31.881  1.00  0.00     0.167 HD
ATOM     51  C   UNL A   1      44.628  25.992  31.213  1.00  0.00     0.074 A 
ATOM     52  C   UNL A   1      45.139  24.818  30.534  1.00  0.00     0.031 C 
ATOM     53  C   UNL A   1      45.180  26.526  32.333  1.00  0.00     0.034 A 
BRANCH  40  54
ATOM     54  C   UNL A   1      42.138  31.494  34.491  1.00  0.00     0.023 A 
ATOM     55  C   UNL A   1      41.209  31.475  35.547  1.00  0.00     0.031 A 
ATOM     56  C   UNL A   1      42.986  32.612  34.387  1.00  0.00     0.131 A 
ATOM     57  C   UNL A   1      41.092  32.582  36.401  1.00  0.00     0.055 A 
ATOM     58  C   UNL A   1      42.927  33.671  35.296  1.00  0.00     0.041 A 
ATOM     59  F   UNL A   1      43.879  32.702  33.389  1.00  0.00    -0.206 F 
ATOM     60  C   UNL A   1      41.963  33.668  36.300  1.00  0.00     0.022 A 
BRANCH  57  61
ATOM     61  S   UNL A   1      39.683  32.651  37.542  1.00  0.00     0.124 S 
ATOM     62  O   UNL A   1      40.336  32.421  38.829  1.00  0.00    -0.237 OA
ATOM     63  O   UNL A   1      39.162  33.995  37.320  1.00  0.00    -0.237 OA
ATOM     64  O   UNL A   1      38.819  31.563  37.086  1.00  0.00    -0.744 OA
ENDBRANCH  57  61
ENDBRANCH  40  54
BRANCH  41  65
ATOM     65  C   UNL A   1      42.410  24.477  27.339  1.00  0.00     0.023 A 
ATOM     66  C   UNL A   1      41.597  23.332  27.368  1.00  0.00     0.031 A 
ATOM     67  C   UNL A   1      43.334  24.601  26.286  1.00  0.00     0.131 A 
ATOM     68  C   UNL A   1      41.762  22.330  26.399  1.00  0.00     0.055 A 
ATOM     69  C   UNL A   1      43.453  23.630  25.290  1.00  0.00     0.041 A 
ATOM     70  F   UNL A   1      44.133  25.677  26.207  1.00  0.00    -0.206 F 
ATOM     71  C   UNL A   1      42.676  22.479  25.351  1.00  0.00     0.022 A 
BRANCH  68  72
ATOM     72  S   UNL A   1      40.833  20.783  26.579  1.00  0.00     0.124 S 
ATOM     73  O   UNL A   1      39.529  21.156  26.044  1.00  0.00    -0.237 OA
ATOM     74  O   UNL A   1      41.621  19.862  25.766  1.00  0.00    -0.237 OA
ATOM     75  O   UNL A   1      40.870  20.529  28.017  1.00  0.00    -0.744 OA
ENDBRANCH  68  72
ENDBRANCH  41  65
BRANCH  53  76
ATOM     76  C   UNL A   1      46.366  25.800  32.927  1.00  0.00     0.023 A 
ATOM     77  C   UNL A   1      47.683  26.048  32.501  1.00  0.00     0.031 A 
ATOM     78  C   UNL A   1      46.168  24.808  33.905  1.00  0.00     0.131 A 
ATOM     79  C   UNL A   1      48.737  25.259  32.987  1.00  0.00     0.055 A 
ATOM     80  C   UNL A   1      47.230  24.079  34.442  1.00  0.00     0.041 A 
ATOM     81  F   UNL A   1      44.934  24.524  34.351  1.00  0.00    -0.206 F 
ATOM     82  C   UNL A   1      48.521  24.289  33.968  1.00  0.00     0.022 A 
BRANCH  79  83
ATOM     83  S   UNL A   1      50.371  25.421  32.216  1.00  0.00     0.124 S 
ATOM     84  O   UNL A   1      50.576  24.091  31.654  1.00  0.00    -0.237 OA
ATOM     85  O   UNL A   1      50.154  26.494  31.251  1.00  0.00    -0.237 OA
ATOM     86  O   UNL A   1      51.246  25.762  33.336  1.00  0.00    -0.744 OA
ENDBRANCH  79  83
ENDBRANCH  53  76
ENDBRANCH  27  28
ENDBRANCH  19  22
ENDBRANCH  17  18
ENDBRANCH   1  17
TORSDOF 16
ENDMDL
MODEL 3
REMARK VINA RESULT:      -9.9      6.138     11.971
REMARK SMILES O=C(CC[C@H]1CC[C@@H](O)CC1)NCCCNC(=O)c1ccc(-c2c3nc(c(-c4cc(S(=O)(=O)[O-])ccc4F)c4ccc([nH]4)c(-c4cc(S(=O)(=O)[O-])ccc4F)c4nc(c(-c5cc(S(=O)(=O)[O-])ccc5F)c5ccc2[nH]5)C=C4)C=C3)cc1
REMARK SMILES IDX 14 1 13 2 12 3 1 4 2 5 3 7 4 8 5 9 6 10 11 11 7 12 10 13
REMARK SMILES IDX 8 14 9 15 15 17 16 18 17 19 18 21 19 22 20 23 81 24 21 25
REMARK SMILES IDX 80 26 22 27 23 28 24 29 74 30 25 31 79 32 73 33 75 34 26 35
REMARK SMILES IDX 78 36 72 37 71 38 27 40 59 41 39 42 58 43 40 44 43 45 57 46
REMARK SMILES IDX 76 47 41 48 42 49 56 51 77 52 44 53 28 54 29 55 37 56 30 57
REMARK SMILES IDX 36 58 38 59 35 60 31 61 32 62 33 63 34 64 60 65 61 66 69 67
REMARK SMILES IDX 62 68 68 69 70 70 67 71 63 72 64 73 65 74 66 75 45 76 46 77
REMARK SMILES IDX 54 78 47 79 53 80 55 81 52 82 48 83 49 84 50 85 51 86
REMARK H PARENT 12 6 9 16 16 20 75 39 43 50
REMARK Flexibility Score: inf
ROOT
ATOM      1  C   UNL A   1      32.661  28.363  26.649  1.00  0.00     0.042 C 
ENDROOT
BRANCH   1   2
ATOM      2  C   UNL A   1      32.360  27.134  25.797  1.00  0.00     0.117 C 
BRANCH   2   3
ATOM      3  N   UNL A   1      31.101  27.270  25.096  1.00  0.00    -0.356 N 
ATOM      4  O   UNL A   1      31.996  27.646  23.022  1.00  0.00    -0.275 OA
ATOM      5  C   UNL A   1      31.018  27.548  23.756  1.00  0.00     0.220 C 
ATOM      6  H   UNL A   1      30.265  27.156  25.605  1.00  0.00     0.163 HD
BRANCH   5   7
ATOM      7  C   UNL A   1      29.619  27.832  23.252  1.00  0.00     0.100 C 
BRANCH   7   8
ATOM      8  C   UNL A   1      29.462  29.073  22.371  1.00  0.00     0.013 C 
BRANCH   8   9
ATOM      9  C   UNL A   1      28.051  29.705  22.227  1.00  0.00    -0.010 C 
ATOM     10  C   UNL A   1      28.033  30.728  21.071  1.00  0.00     0.006 C 
ATOM     11  C   UNL A   1      27.494  30.389  23.485  1.00  0.00     0.006 C 
ATOM     12  C   UNL A   1      28.807  32.007  21.399  1.00  0.00     0.032 C 
ATOM     13  C   UNL A   1      28.306  31.617  23.876  1.00  0.00     0.032 C 
ATOM     14  C   UNL A   1      28.394  32.630  22.735  1.00  0.00     0.114 C 
BRANCH  14  15
ATOM     15  O   UNL A   1      29.333  33.645  23.083  1.00  0.00    -0.393 OA
ATOM     16  H   UNL A   1      29.053  34.490  22.697  1.00  0.00     0.210 HD
ENDBRANCH  14  15
ENDBRANCH   8   9
ENDBRANCH   7   8
ENDBRANCH   5   7
ENDBRANCH   2   3
ENDBRANCH   1   2
BRANCH   1  17
ATOM     17  C   UNL A   1      33.630  29.356  26.010  1.00  0.00     0.118 C 
BRANCH  17  18
ATOM     18  N   UNL A   1      33.409  30.723  26.450  1.00  0.00    -0.352 N 
ATOM     19  C   UNL A   1      34.054  31.473  27.402  1.00  0.00     0.251 C 
ATOM     20  H   UNL A   1      32.675  31.189  25.988  1.00  0.00     0.163 HD
ATOM     21  O   UNL A   1      33.558  32.546  27.739  1.00  0.00    -0.269 OA
BRANCH  19  22
ATOM     22  C   UNL A   1      35.313  31.007  28.032  1.00  0.00     0.039 A 
ATOM     23  C   UNL A   1      35.301  29.785  28.711  1.00  0.00     0.014 A 
ATOM     24  C   UNL A   1      36.479  31.776  28.018  1.00  0.00     0.014 A 
ATOM     25  C   UNL A   1      36.460  29.321  29.340  1.00  0.00     0.010 A 
ATOM     26  C   UNL A   1      37.658  31.274  28.573  1.00  0.00     0.010 A 
ATOM     27  C   UNL A   1      37.658  30.050  29.259  1.00  0.00    -0.014 A 
BRANCH  27  28
ATOM     28  C   UNL A   1      38.897  29.550  29.918  1.00  0.00     0.031 A 
ATOM     29  C   UNL A   1      39.305  30.076  31.271  1.00  0.00     0.074 A 
ATOM     30  C   UNL A   1      39.663  28.631  29.296  1.00  0.00     0.049 A 
ATOM     31  N   UNL A   1      40.342  29.761  32.005  1.00  0.00    -0.248 NA
ATOM     32  C   UNL A   1      38.448  31.115  31.862  1.00  0.00     0.031 C 
ATOM     33  C   UNL A   1      39.401  28.074  27.967  1.00  0.00     0.029 A 
ATOM     34  N   UNL A   1      40.813  27.999  29.698  1.00  0.00    -0.354 N 
ATOM     35  C   UNL A   1      40.266  30.564  33.139  1.00  0.00     0.074 A 
ATOM     36  C   UNL A   1      39.122  31.431  32.957  1.00  0.00     0.031 C 
ATOM     37  C   UNL A   1      40.339  27.157  27.681  1.00  0.00     0.029 A 
ATOM     38  C   UNL A   1      41.292  27.088  28.784  1.00  0.00     0.049 A 
ATOM     39  H   UNL A   1      41.254  28.180  30.559  1.00  0.00     0.167 HD
ATOM     40  C   UNL A   1      41.057  30.561  34.242  1.00  0.00     0.034 A 
ATOM     41  C   UNL A   1      42.376  26.287  28.828  1.00  0.00     0.034 A 
ATOM     42  C   UNL A   1      42.192  29.684  34.413  1.00  0.00     0.049 A 
ATOM     43  C   UNL A   1      43.246  26.307  30.060  1.00  0.00     0.074 A 
ATOM     44  C   UNL A   1      43.040  29.570  35.502  1.00  0.00     0.029 A 
ATOM     45  N   UNL A   1      42.645  28.772  33.466  1.00  0.00    -0.354 N 
ATOM     46  N   UNL A   1      43.130  27.036  31.145  1.00  0.00    -0.248 NA
ATOM     47  C   UNL A   1      44.380  25.375  30.079  1.00  0.00     0.031 C 
ATOM     48  C   UNL A   1      44.042  28.647  35.187  1.00  0.00     0.029 A 
ATOM     49  C   UNL A   1      43.772  28.113  33.938  1.00  0.00     0.049 A 
ATOM     50  H   UNL A   1      42.228  28.617  32.589  1.00  0.00     0.167 HD
ATOM     51  C   UNL A   1      44.154  26.620  31.993  1.00  0.00     0.074 A 
ATOM     52  C   UNL A   1      44.860  25.563  31.298  1.00  0.00     0.031 C 
ATOM     53  C   UNL A   1      44.477  27.065  33.236  1.00  0.00     0.034 A 
BRANCH  40  54
ATOM     54  C   UNL A   1      40.732  31.554  35.334  1.00  0.00     0.023 A 
ATOM     55  C   UNL A   1      39.588  31.419  36.142  1.00  0.00     0.031 A 
ATOM     56  C   UNL A   1      41.559  32.671  35.555  1.00  0.00     0.131 A 
ATOM     57  C   UNL A   1      39.258  32.421  37.068  1.00  0.00     0.055 A 
ATOM     58  C   UNL A   1      41.274  33.618  36.542  1.00  0.00     0.041 A 
ATOM     59  F   UNL A   1      42.653  32.870  34.804  1.00  0.00    -0.206 F 
ATOM     60  C   UNL A   1      40.108  33.505  37.293  1.00  0.00     0.022 A 
BRANCH  57  61
ATOM     61  S   UNL A   1      37.625  32.367  37.857  1.00  0.00     0.124 S 
ATOM     62  O   UNL A   1      36.793  33.033  36.857  1.00  0.00    -0.237 OA
ATOM     63  O   UNL A   1      37.402  30.936  38.025  1.00  0.00    -0.237 OA
ATOM     64  O   UNL A   1      37.819  33.119  39.096  1.00  0.00    -0.744 OA
ENDBRANCH  57  61
ENDBRANCH  40  54
BRANCH  41  65
ATOM     65  C   UNL A   1      42.702  25.391  27.680  1.00  0.00     0.023 A 
ATOM     66  C   UNL A   1      42.122  24.117  27.563  1.00  0.00     0.031 A 
ATOM     67  C   UNL A   1      43.643  25.776  26.708  1.00  0.00     0.131 A 
ATOM     68  C   UNL A   1      42.528  23.253  26.535  1.00  0.00     0.055 A 
ATOM     69  C   UNL A   1      44.000  24.935  25.652  1.00  0.00     0.041 A 
ATOM     70  F   UNL A   1      44.226  26.984  26.768  1.00  0.00    -0.206 F 
ATOM     71  C   UNL A   1      43.453  23.660  25.569  1.00  0.00     0.022 A 
BRANCH  68  72
ATOM     72  S   UNL A   1      41.901  21.551  26.530  1.00  0.00     0.124 S 
ATOM     73  O   UNL A   1      42.370  21.059  27.820  1.00  0.00    -0.237 OA
ATOM     74  O   UNL A   1      40.462  21.759  26.407  1.00  0.00    -0.237 OA
ATOM     75  O   UNL A   1      42.544  20.954  25.362  1.00  0.00    -0.744 OA
ENDBRANCH  68  72
ENDBRANCH  41  65
BRANCH  53  76
ATOM     76  C   UNL A   1      45.612  26.359  33.943  1.00  0.00     0.023 A 
ATOM     77  C   UNL A   1      45.409  25.190  34.699  1.00  0.00     0.031 A 
ATOM     78  C   UNL A   1      46.913  26.893  33.895  1.00  0.00     0.131 A 
ATOM     79  C   UNL A   1      46.467  24.644  35.443  1.00  0.00     0.055 A 
ATOM     80  C   UNL A   1      47.978  26.301  34.575  1.00  0.00     0.041 A 
ATOM     81  F   UNL A   1      47.170  28.007  33.192  1.00  0.00    -0.206 F 
ATOM     82  C   UNL A   1      47.754  25.182  35.371  1.00  0.00     0.022 A 
BRANCH  79  83
ATOM     83  S   UNL A   1      46.105  23.308  36.616  1.00  0.00     0.124 S 
ATOM     84  O   UNL A   1      45.730  24.050  37.814  1.00  0.00    -0.237 OA
ATOM     85  O   UNL A   1      45.027  22.590  35.945  1.00  0.00    -0.237 OA
ATOM     86  O   UNL A   1      47.371  22.582  36.708  1.00  0.00    -0.744 OA
ENDBRANCH  79  83
ENDBRANCH  53  76
ENDBRANCH  27  28
ENDBRANCH  19  22
ENDBRANCH  17  18
ENDBRANCH   1  17
TORSDOF 16
ENDMDL
