MODEL 1
REMARK VINA RESULT:     -12.6      0.000      0.000
REMARK SMILES Cc1cc(=O)n(Cc2cc(C(=O)NCCCNC(=O)c3ccc(-c4c5nc(c(-c6cc(S(=O)(=O)[O-])ccc6F)c6ccc([nH]6)c(-c6cc(S(=O)(=O)[O-])ccc6F)c6nc(c(-c7cc(S(=O)(=O)[O-])ccc7F)c7ccc4[nH]7)C=C6)C=C5)cc3)oc2C)cc1[N+](=O)[O-]
REMARK SMILES IDX 15 1 14 2 13 3 11 4 12 5 10 7 8 8 9 9 84 10 83 11 85 12 7 13
REMARK SMILES IDX 6 14 1 15 2 16 3 17 87 18 4 19 86 20 5 21 88 22 89 23 90 24
REMARK SMILES IDX 16 25 17 26 18 27 19 29 20 30 21 31 82 32 22 33 81 34 23 35
REMARK SMILES IDX 24 36 25 37 75 38 26 39 80 40 74 41 76 42 27 43 79 44 73 45
REMARK SMILES IDX 72 46 28 48 60 49 40 50 59 51 41 52 44 53 58 54 77 55 42 56
REMARK SMILES IDX 43 57 57 59 78 60 45 61 29 62 30 63 38 64 31 65 37 66 39 67
REMARK SMILES IDX 36 68 32 69 33 70 34 71 35 72 61 73 62 74 70 75 63 76 69 77
REMARK SMILES IDX 71 78 68 79 64 80 65 81 66 82 67 83 46 84 47 85 55 86 48 87
REMARK SMILES IDX 54 88 56 89 53 90 49 91 50 92 51 93 52 94
REMARK H PARENT 13 6 17 28 76 47 44 58
REMARK Flexibility Score: inf
ROOT
ATOM      1  C   UNL A   1      36.732  20.240  24.811  1.00  0.00     0.042 C 
ENDROOT
BRANCH   1   2
ATOM      2  C   UNL A   1      35.401  20.872  25.204  1.00  0.00     0.118 C 
BRANCH   2   3
ATOM      3  N   UNL A   1      34.346  19.881  25.328  1.00  0.00    -0.349 N 
ATOM      4  C   UNL A   1      32.982  19.973  25.154  1.00  0.00     0.287 C 
ATOM      5  O   UNL A   1      32.363  18.910  25.210  1.00  0.00    -0.266 OA
ATOM      6  H   UNL A   1      34.663  18.984  25.581  1.00  0.00     0.163 HD
BRANCH   4   7
ATOM      7  C   UNL A   1      32.347  21.248  24.879  1.00  0.00     0.191 A 
ATOM      8  C   UNL A   1      31.330  23.118  24.084  1.00  0.00     0.014 A 
ATOM      9  C   UNL A   1      32.226  22.052  23.767  1.00  0.00     0.062 A 
ATOM     10  C   UNL A   1      31.115  23.002  25.444  1.00  0.00     0.106 A 
ATOM     11  O   UNL A   1      31.705  21.872  25.921  1.00  0.00    -0.456 OA
ATOM     12  C   UNL A   1      30.407  23.813  26.456  1.00  0.00     0.088 C 
BRANCH   8  13
ATOM     13  C   UNL A   1      30.799  24.126  23.114  1.00  0.00     0.164 C 
BRANCH  13  14
ATOM     14  N   UNL A   1      31.691  25.296  23.100  1.00  0.00    -0.304 N 
ATOM     15  C   UNL A   1      34.113  28.859  22.846  1.00  0.00     0.052 C 
ATOM     16  C   UNL A   1      33.306  27.598  22.982  1.00  0.00     0.034 A 
ATOM     17  C   UNL A   1      33.526  26.580  22.128  1.00  0.00     0.082 A 
ATOM     18  C   UNL A   1      32.265  27.439  23.997  1.00  0.00     0.288 A 
ATOM     19  C   UNL A   1      32.735  25.322  22.177  1.00  0.00     0.251 A 
ATOM     20  C   UNL A   1      31.490  26.335  24.005  1.00  0.00     0.175 A 
ATOM     21  O   UNL A   1      33.023  24.414  21.404  1.00  0.00    -0.269 OA
BRANCH  18  22
ATOM     22  N   UNL A   1      32.004  28.413  25.070  1.00  0.00     0.064 N 
ATOM     23  O   UNL A   1      32.484  28.187  26.192  1.00  0.00    -0.258 OA
ATOM     24  O   UNL A   1      31.324  29.411  24.804  1.00  0.00    -0.258 OA
ENDBRANCH  18  22
ENDBRANCH  13  14
ENDBRANCH   8  13
ENDBRANCH   4   7
ENDBRANCH   2   3
ENDBRANCH   1   2
BRANCH   1  25
ATOM     25  C   UNL A   1      37.940  20.996  25.358  1.00  0.00     0.118 C 
BRANCH  25  26
ATOM     26  N   UNL A   1      39.048  20.112  25.713  1.00  0.00    -0.352 N 
ATOM     27  C   UNL A   1      40.253  20.402  26.312  1.00  0.00     0.251 C 
ATOM     28  H   UNL A   1      38.911  19.163  25.490  1.00  0.00     0.163 HD
ATOM     29  O   UNL A   1      41.123  19.538  26.372  1.00  0.00    -0.269 OA
BRANCH  27  30
ATOM     30  C   UNL A   1      40.505  21.759  26.842  1.00  0.00     0.039 A 
ATOM     31  C   UNL A   1      40.012  22.882  26.176  1.00  0.00     0.014 A 
ATOM     32  C   UNL A   1      41.277  21.910  27.997  1.00  0.00     0.014 A 
ATOM     33  C   UNL A   1      40.457  24.146  26.542  1.00  0.00     0.010 A 
ATOM     34  C   UNL A   1      41.643  23.192  28.421  1.00  0.00     0.010 A 
ATOM     35  C   UNL A   1      41.292  24.317  27.659  1.00  0.00    -0.014 A 
BRANCH  35  36
ATOM     36  C   UNL A   1      41.804  25.673  27.991  1.00  0.00     0.031 A 
ATOM     37  C   UNL A   1      43.173  26.108  27.539  1.00  0.00     0.074 A 
ATOM     38  C   UNL A   1      41.005  26.538  28.644  1.00  0.00     0.049 A 
ATOM     39  N   UNL A   1      43.770  27.260  27.711  1.00  0.00    -0.248 NA
ATOM     40  C   UNL A   1      43.982  25.123  26.802  1.00  0.00     0.031 C 
ATOM     41  C   UNL A   1      39.652  26.232  29.110  1.00  0.00     0.029 A 
ATOM     42  N   UNL A   1      41.192  27.849  29.004  1.00  0.00    -0.354 N 
ATOM     43  C   UNL A   1      45.020  27.138  27.111  1.00  0.00     0.074 A 
ATOM     44  C   UNL A   1      45.117  25.782  26.618  1.00  0.00     0.031 C 
ATOM     45  C   UNL A   1      39.109  27.337  29.635  1.00  0.00     0.029 A 
ATOM     46  C   UNL A   1      40.098  28.412  29.620  1.00  0.00     0.049 A 
ATOM     47  H   UNL A   1      42.029  28.340  28.837  1.00  0.00     0.167 HD
ATOM     48  C   UNL A   1      45.986  28.077  26.964  1.00  0.00     0.034 A 
ATOM     49  C   UNL A   1      39.911  29.647  30.129  1.00  0.00     0.034 A 
ATOM     50  C   UNL A   1      45.867  29.427  27.454  1.00  0.00     0.049 A 
ATOM     51  C   UNL A   1      41.022  30.656  30.012  1.00  0.00     0.074 A 
ATOM     52  C   UNL A   1      46.787  30.456  27.355  1.00  0.00     0.029 A 
ATOM     53  N   UNL A   1      44.766  29.943  28.125  1.00  0.00    -0.354 N 
ATOM     54  N   UNL A   1      42.189  30.530  29.425  1.00  0.00    -0.248 NA
ATOM     55  C   UNL A   1      40.798  31.973  30.622  1.00  0.00     0.031 C 
ATOM     56  C   UNL A   1      46.275  31.568  28.024  1.00  0.00     0.029 A 
ATOM     57  C   UNL A   1      44.997  31.266  28.468  1.00  0.00     0.049 A 
ATOM     58  H   UNL A   1      43.943  29.442  28.327  1.00  0.00     0.167 HD
ATOM     59  C   UNL A   1      42.831  31.757  29.577  1.00  0.00     0.074 A 
ATOM     60  C   UNL A   1      41.910  32.618  30.290  1.00  0.00     0.031 C 
ATOM     61  C   UNL A   1      44.070  32.128  29.167  1.00  0.00     0.034 A 
BRANCH  48  62
ATOM     62  C   UNL A   1      47.256  27.701  26.235  1.00  0.00     0.023 A 
ATOM     63  C   UNL A   1      47.375  27.936  24.852  1.00  0.00     0.031 A 
ATOM     64  C   UNL A   1      48.294  27.004  26.879  1.00  0.00     0.131 A 
ATOM     65  C   UNL A   1      48.490  27.452  24.155  1.00  0.00     0.055 A 
ATOM     66  C   UNL A   1      49.425  26.566  26.190  1.00  0.00     0.041 A 
ATOM     67  F   UNL A   1      48.230  26.750  28.197  1.00  0.00    -0.206 F 
ATOM     68  C   UNL A   1      49.520  26.777  24.818  1.00  0.00     0.022 A 
BRANCH  65  69
ATOM     69  S   UNL A   1      48.618  27.613  22.352  1.00  0.00     0.124 S 
ATOM     70  O   UNL A   1      48.681  26.215  21.931  1.00  0.00    -0.237 OA
ATOM     71  O   UNL A   1      47.378  28.309  22.020  1.00  0.00    -0.237 OA
ATOM     72  O   UNL A   1      49.844  28.379  22.154  1.00  0.00    -0.744 OA
ENDBRANCH  65  69
ENDBRANCH  48  62
BRANCH  49  73
ATOM     73  C   UNL A   1      38.590  29.983  30.739  1.00  0.00     0.023 A 
ATOM     74  C   UNL A   1      37.603  30.662  30.000  1.00  0.00     0.031 A 
ATOM     75  C   UNL A   1      38.351  29.754  32.104  1.00  0.00     0.131 A 
ATOM     76  C   UNL A   1      36.472  31.172  30.649  1.00  0.00     0.055 A 
ATOM     77  C   UNL A   1      37.182  30.191  32.730  1.00  0.00     0.041 A 
ATOM     78  F   UNL A   1      39.265  29.120  32.854  1.00  0.00    -0.206 F 
ATOM     79  C   UNL A   1      36.246  30.924  32.006  1.00  0.00     0.022 A 
BRANCH  76  80
ATOM     80  S   UNL A   1      35.338  32.298  29.790  1.00  0.00     0.124 S 
ATOM     81  O   UNL A   1      36.217  33.408  29.438  1.00  0.00    -0.237 OA
ATOM     82  O   UNL A   1      34.888  31.469  28.674  1.00  0.00    -0.237 OA
ATOM     83  O   UNL A   1      34.320  32.593  30.793  1.00  0.00    -0.744 OA
ENDBRANCH  76  80
ENDBRANCH  49  73
BRANCH  61  84
ATOM     84  C   UNL A   1      44.540  33.534  29.457  1.00  0.00     0.023 A 
ATOM     85  C   UNL A   1      44.427  34.530  28.466  1.00  0.00     0.031 A 
ATOM     86  C   UNL A   1      45.248  33.844  30.630  1.00  0.00     0.131 A 
ATOM     87  C   UNL A   1      45.060  35.767  28.644  1.00  0.00     0.055 A 
ATOM     88  C   UNL A   1      45.830  35.097  30.828  1.00  0.00     0.041 A 
ATOM     89  F   UNL A   1      45.394  32.926  31.600  1.00  0.00    -0.206 F 
ATOM     90  C   UNL A   1      45.753  36.059  29.824  1.00  0.00     0.022 A 
BRANCH  87  91
ATOM     91  S   UNL A   1      45.098  36.999  27.314  1.00  0.00     0.124 S 
ATOM     92  O   UNL A   1      45.979  36.364  26.337  1.00  0.00    -0.237 OA
ATOM     93  O   UNL A   1      43.692  37.077  26.929  1.00  0.00    -0.237 OA
ATOM     94  O   UNL A   1      45.641  38.193  27.955  1.00  0.00    -0.744 OA
ENDBRANCH  87  91
ENDBRANCH  61  84
ENDBRANCH  35  36
ENDBRANCH  27  30
ENDBRANCH  25  26
ENDBRANCH   1  25
TORSDOF 16
ENDMDL
MODEL 2
REMARK VINA RESULT:     -12.5      5.030     10.561
REMARK SMILES Cc1cc(=O)n(Cc2cc(C(=O)NCCCNC(=O)c3ccc(-c4c5nc(c(-c6cc(S(=O)(=O)[O-])ccc6F)c6ccc([nH]6)c(-c6cc(S(=O)(=O)[O-])ccc6F)c6nc(c(-c7cc(S(=O)(=O)[O-])ccc7F)c7ccc4[nH]7)C=C6)C=C5)cc3)oc2C)cc1[N+](=O)[O-]
REMARK SMILES IDX 15 1 14 2 13 3 11 4 12 5 10 7 8 8 9 9 84 10 83 11 85 12 7 13
REMARK SMILES IDX 6 14 1 15 2 16 3 17 87 18 4 19 86 20 5 21 88 22 89 23 90 24
REMARK SMILES IDX 16 25 17 26 18 27 19 29 20 30 21 31 82 32 22 33 81 34 23 35
REMARK SMILES IDX 24 36 25 37 75 38 26 39 80 40 74 41 76 42 27 43 79 44 73 45
REMARK SMILES IDX 72 46 28 48 60 49 40 50 59 51 41 52 44 53 58 54 77 55 42 56
REMARK SMILES IDX 43 57 57 59 78 60 45 61 29 62 30 63 38 64 31 65 37 66 39 67
REMARK SMILES IDX 36 68 32 69 33 70 34 71 35 72 61 73 62 74 70 75 63 76 69 77
REMARK SMILES IDX 71 78 68 79 64 80 65 81 66 82 67 83 46 84 47 85 55 86 48 87
REMARK SMILES IDX 54 88 56 89 53 90 49 91 50 92 51 93 52 94
REMARK H PARENT 13 6 17 28 76 47 44 58
REMARK Flexibility Score: inf
ROOT
ATOM      1  C   UNL A   1      32.274  30.172  25.415  1.00  0.00     0.042 C 
ENDROOT
BRANCH   1   2
ATOM      2  C   UNL A   1      33.465  29.227  25.289  1.00  0.00     0.118 C 
BRANCH   2   3
ATOM      3  N   UNL A   1      33.759  28.910  23.902  1.00  0.00    -0.349 N 
ATOM      4  C   UNL A   1      33.716  27.720  23.209  1.00  0.00     0.287 C 
ATOM      5  O   UNL A   1      33.905  27.801  21.994  1.00  0.00    -0.266 OA
ATOM      6  H   UNL A   1      34.040  29.684  23.362  1.00  0.00     0.163 HD
BRANCH   4   7
ATOM      7  C   UNL A   1      33.422  26.471  23.885  1.00  0.00     0.191 A 
ATOM      8  C   UNL A   1      33.171  24.660  25.234  1.00  0.00     0.014 A 
ATOM      9  C   UNL A   1      34.045  25.725  24.862  1.00  0.00     0.062 A 
ATOM     10  C   UNL A   1      32.144  24.710  24.312  1.00  0.00     0.106 A 
ATOM     11  O   UNL A   1      32.278  25.805  23.514  1.00  0.00    -0.456 OA
ATOM     12  C   UNL A   1      30.972  23.861  24.015  1.00  0.00     0.088 C 
BRANCH   8  13
ATOM     13  C   UNL A   1      33.391  23.710  26.370  1.00  0.00     0.164 C 
BRANCH  13  14
ATOM     14  N   UNL A   1      33.980  22.466  25.849  1.00  0.00    -0.304 N 
ATOM     15  C   UNL A   1      35.722  18.714  24.622  1.00  0.00     0.052 C 
ATOM     16  C   UNL A   1      35.106  20.035  24.988  1.00  0.00     0.034 A 
ATOM     17  C   UNL A   1      35.908  21.066  25.320  1.00  0.00     0.082 A 
ATOM     18  C   UNL A   1      33.659  20.244  25.024  1.00  0.00     0.288 A 
ATOM     19  C   UNL A   1      35.366  22.387  25.735  1.00  0.00     0.251 A 
ATOM     20  C   UNL A   1      33.154  21.412  25.471  1.00  0.00     0.175 A 
ATOM     21  O   UNL A   1      36.152  23.298  25.972  1.00  0.00    -0.269 OA
BRANCH  18  22
ATOM     22  N   UNL A   1      32.672  19.251  24.568  1.00  0.00     0.064 N 
ATOM     23  O   UNL A   1      32.361  19.248  23.366  1.00  0.00    -0.258 OA
ATOM     24  O   UNL A   1      32.202  18.465  25.399  1.00  0.00    -0.258 OA
ENDBRANCH  18  22
ENDBRANCH  13  14
ENDBRANCH   8  13
ENDBRANCH   4   7
ENDBRANCH   2   3
ENDBRANCH   1   2
BRANCH   1  25
ATOM     25  C   UNL A   1      32.008  30.613  26.852  1.00  0.00     0.118 C 
BRANCH  25  26
ATOM     26  N   UNL A   1      32.051  32.064  27.016  1.00  0.00    -0.352 N 
ATOM     27  C   UNL A   1      33.022  32.861  27.578  1.00  0.00     0.251 C 
ATOM     28  H   UNL A   1      31.265  32.546  26.671  1.00  0.00     0.163 HD
ATOM     29  O   UNL A   1      32.793  34.051  27.771  1.00  0.00    -0.269 OA
BRANCH  27  30
ATOM     30  C   UNL A   1      34.318  32.273  27.979  1.00  0.00     0.039 A 
ATOM     31  C   UNL A   1      34.399  30.932  28.359  1.00  0.00     0.014 A 
ATOM     32  C   UNL A   1      35.457  33.082  28.013  1.00  0.00     0.014 A 
ATOM     33  C   UNL A   1      35.558  30.459  28.962  1.00  0.00     0.010 A 
ATOM     34  C   UNL A   1      36.652  32.572  28.531  1.00  0.00     0.010 A 
ATOM     35  C   UNL A   1      36.695  31.278  29.071  1.00  0.00    -0.014 A 
BRANCH  35  36
ATOM     36  C   UNL A   1      37.901  30.768  29.776  1.00  0.00     0.031 A 
ATOM     37  C   UNL A   1      38.174  31.155  31.206  1.00  0.00     0.074 A 
ATOM     38  C   UNL A   1      38.715  29.900  29.147  1.00  0.00     0.049 A 
ATOM     39  N   UNL A   1      39.157  30.783  31.986  1.00  0.00    -0.248 NA
ATOM     40  C   UNL A   1      37.227  32.083  31.844  1.00  0.00     0.031 C 
ATOM     41  C   UNL A   1      38.534  29.437  27.770  1.00  0.00     0.029 A 
ATOM     42  N   UNL A   1      39.832  29.229  29.579  1.00  0.00    -0.354 N 
ATOM     43  C   UNL A   1      38.950  31.432  33.200  1.00  0.00     0.074 A 
ATOM     44  C   UNL A   1      37.779  32.263  33.035  1.00  0.00     0.031 C 
ATOM     45  C   UNL A   1      39.464  28.515  27.492  1.00  0.00     0.029 A 
ATOM     46  C   UNL A   1      40.359  28.375  28.638  1.00  0.00     0.049 A 
ATOM     47  H   UNL A   1      40.218  29.348  30.477  1.00  0.00     0.167 HD
ATOM     48  C   UNL A   1      39.658  31.325  34.351  1.00  0.00     0.034 A 
ATOM     49  C   UNL A   1      41.446  27.577  28.681  1.00  0.00     0.034 A 
ATOM     50  C   UNL A   1      40.818  30.484  34.498  1.00  0.00     0.049 A 
ATOM     51  C   UNL A   1      42.256  27.522  29.949  1.00  0.00     0.074 A 
ATOM     52  C   UNL A   1      41.605  30.303  35.622  1.00  0.00     0.029 A 
ATOM     53  N   UNL A   1      41.356  29.678  33.504  1.00  0.00    -0.354 N 
ATOM     54  N   UNL A   1      42.035  28.127  31.093  1.00  0.00    -0.248 NA
ATOM     55  C   UNL A   1      43.459  26.681  29.940  1.00  0.00     0.031 C 
ATOM     56  C   UNL A   1      42.654  29.446  35.290  1.00  0.00     0.029 A 
ATOM     57  C   UNL A   1      42.479  29.020  33.982  1.00  0.00     0.049 A 
ATOM     58  H   UNL A   1      40.994  29.587  32.593  1.00  0.00     0.167 HD
ATOM     59  C   UNL A   1      43.060  27.724  31.946  1.00  0.00     0.074 A 
ATOM     60  C   UNL A   1      43.885  26.804  31.191  1.00  0.00     0.031 C 
ATOM     61  C   UNL A   1      43.293  28.090  33.232  1.00  0.00     0.034 A 
BRANCH  48  62
ATOM     62  C   UNL A   1      39.204  32.118  35.555  1.00  0.00     0.023 A 
ATOM     63  C   UNL A   1      38.525  31.479  36.610  1.00  0.00     0.031 A 
ATOM     64  C   UNL A   1      39.335  33.518  35.606  1.00  0.00     0.131 A 
ATOM     65  C   UNL A   1      37.977  32.240  37.651  1.00  0.00     0.055 A 
ATOM     66  C   UNL A   1      38.829  34.267  36.669  1.00  0.00     0.041 A 
ATOM     67  F   UNL A   1      39.971  34.179  34.624  1.00  0.00    -0.206 F 
ATOM     68  C   UNL A   1      38.134  33.629  37.691  1.00  0.00     0.022 A 
BRANCH  65  69
ATOM     69  S   UNL A   1      36.977  31.471  38.956  1.00  0.00     0.124 S 
ATOM     70  O   UNL A   1      36.817  30.111  38.447  1.00  0.00    -0.237 OA
ATOM     71  O   UNL A   1      37.847  31.602  40.122  1.00  0.00    -0.237 OA
ATOM     72  O   UNL A   1      35.759  32.273  38.984  1.00  0.00    -0.744 OA
ENDBRANCH  65  69
ENDBRANCH  48  62
BRANCH  49  73
ATOM     73  C   UNL A   1      41.773  26.739  27.490  1.00  0.00     0.023 A 
ATOM     74  C   UNL A   1      41.415  25.378  27.443  1.00  0.00     0.031 A 
ATOM     75  C   UNL A   1      42.566  27.249  26.448  1.00  0.00     0.131 A 
ATOM     76  C   UNL A   1      41.929  24.556  26.432  1.00  0.00     0.055 A 
ATOM     77  C   UNL A   1      43.007  26.443  25.397  1.00  0.00     0.041 A 
ATOM     78  F   UNL A   1      42.942  28.536  26.453  1.00  0.00    -0.206 F 
ATOM     79  C   UNL A   1      42.707  25.084  25.398  1.00  0.00     0.022 A 
BRANCH  76  80
ATOM     80  S   UNL A   1      41.730  22.754  26.511  1.00  0.00     0.124 S 
ATOM     81  O   UNL A   1      40.286  22.611  26.661  1.00  0.00    -0.237 OA
ATOM     82  O   UNL A   1      42.275  22.341  25.219  1.00  0.00    -0.237 OA
ATOM     83  O   UNL A   1      42.526  22.370  27.671  1.00  0.00    -0.744 OA
ENDBRANCH  76  80
ENDBRANCH  49  73
BRANCH  61  84
ATOM     84  C   UNL A   1      44.487  27.505  33.948  1.00  0.00     0.023 A 
ATOM     85  C   UNL A   1      44.313  26.420  34.830  1.00  0.00     0.031 A 
ATOM     86  C   UNL A   1      45.749  28.119  33.894  1.00  0.00     0.131 A 
ATOM     87  C   UNL A   1      45.366  26.021  35.663  1.00  0.00     0.055 A 
ATOM     88  C   UNL A   1      46.813  27.681  34.684  1.00  0.00     0.041 A 
ATOM     89  F   UNL A   1      45.964  29.164  33.078  1.00  0.00    -0.206 F 
ATOM     90  C   UNL A   1      46.619  26.639  35.587  1.00  0.00     0.022 A 
BRANCH  87  91
ATOM     91  S   UNL A   1      45.123  24.758  36.943  1.00  0.00     0.124 S 
ATOM     92  O   UNL A   1      45.576  23.547  36.264  1.00  0.00    -0.237 OA
ATOM     93  O   UNL A   1      45.992  25.237  38.014  1.00  0.00    -0.237 OA
ATOM     94  O   UNL A   1      43.691  24.813  37.224  1.00  0.00    -0.744 OA
ENDBRANCH  87  91
ENDBRANCH  61  84
ENDBRANCH  35  36
ENDBRANCH  27  30
ENDBRANCH  25  26
ENDBRANCH   1  25
TORSDOF 16
ENDMDL
MODEL 3
REMARK VINA RESULT:     -12.3      5.066     10.485
REMARK SMILES Cc1cc(=O)n(Cc2cc(C(=O)NCCCNC(=O)c3ccc(-c4c5nc(c(-c6cc(S(=O)(=O)[O-])ccc6F)c6ccc([nH]6)c(-c6cc(S(=O)(=O)[O-])ccc6F)c6nc(c(-c7cc(S(=O)(=O)[O-])ccc7F)c7ccc4[nH]7)C=C6)C=C5)cc3)oc2C)cc1[N+](=O)[O-]
REMARK SMILES IDX 15 1 14 2 13 3 11 4 12 5 10 7 8 8 9 9 84 10 83 11 85 12 7 13
REMARK SMILES IDX 6 14 1 15 2 16 3 17 87 18 4 19 86 20 5 21 88 22 89 23 90 24
REMARK SMILES IDX 16 25 17 26 18 27 19 29 20 30 21 31 82 32 22 33 81 34 23 35
REMARK SMILES IDX 24 36 25 37 75 38 26 39 80 40 74 41 76 42 27 43 79 44 73 45
REMARK SMILES IDX 72 46 28 48 60 49 40 50 59 51 41 52 44 53 58 54 77 55 42 56
REMARK SMILES IDX 43 57 57 59 78 60 45 61 29 62 30 63 38 64 31 65 37 66 39 67
REMARK SMILES IDX 36 68 32 69 33 70 34 71 35 72 61 73 62 74 70 75 63 76 69 77
REMARK SMILES IDX 71 78 68 79 64 80 65 81 66 82 67 83 46 84 47 85 55 86 48 87
REMARK SMILES IDX 54 88 56 89 53 90 49 91 50 92 51 93 52 94
REMARK H PARENT 13 6 17 28 76 47 44 58
REMARK Flexibility Score: inf
ROOT
ATOM      1  C   UNL A   1      31.112  31.130  25.796  1.00  0.00     0.042 C 
ENDROOT
BRANCH   1   2
ATOM      2  C   UNL A   1      31.393  29.871  24.982  1.00  0.00     0.118 C 
BRANCH   2   3
ATOM      3  N   UNL A   1      30.825  29.952  23.647  1.00  0.00    -0.349 N 
ATOM      4  C   UNL A   1      30.350  28.978  22.796  1.00  0.00     0.287 C 
ATOM      5  O   UNL A   1      29.809  29.383  21.767  1.00  0.00    -0.266 OA
ATOM      6  H   UNL A   1      30.771  30.867  23.286  1.00  0.00     0.163 HD
BRANCH   4   7
ATOM      7  C   UNL A   1      30.455  27.572  23.137  1.00  0.00     0.191 A 
ATOM      8  C   UNL A   1      30.890  25.356  23.394  1.00  0.00     0.014 A 
ATOM      9  C   UNL A   1      30.843  26.435  22.461  1.00  0.00     0.062 A 
ATOM     10  C   UNL A   1      30.334  25.868  24.550  1.00  0.00     0.106 A 
ATOM     11  O   UNL A   1      30.091  27.200  24.409  1.00  0.00    -0.456 OA
ATOM     12  C   UNL A   1      29.959  25.301  25.862  1.00  0.00     0.088 C 
BRANCH   8  13
ATOM     13  C   UNL A   1      31.414  23.983  23.111  1.00  0.00     0.164 C 
BRANCH  13  14
ATOM     14  N   UNL A   1      32.673  23.788  23.847  1.00  0.00    -0.304 N 
ATOM     15  C   UNL A   1      36.307  23.490  26.156  1.00  0.00     0.052 C 
ATOM     16  C   UNL A   1      35.053  23.535  25.330  1.00  0.00     0.034 A 
ATOM     17  C   UNL A   1      35.060  24.197  24.157  1.00  0.00     0.082 A 
ATOM     18  C   UNL A   1      33.805  22.906  25.762  1.00  0.00     0.288 A 
ATOM     19  C   UNL A   1      33.844  24.320  23.310  1.00  0.00     0.251 A 
ATOM     20  C   UNL A   1      32.677  23.073  25.042  1.00  0.00     0.175 A 
ATOM     21  O   UNL A   1      33.934  24.892  22.229  1.00  0.00    -0.269 OA
BRANCH  18  22
ATOM     22  N   UNL A   1      33.684  22.047  26.952  1.00  0.00     0.064 N 
ATOM     23  O   UNL A   1      33.482  22.594  28.048  1.00  0.00    -0.258 OA
ATOM     24  O   UNL A   1      33.785  20.823  26.806  1.00  0.00    -0.258 OA
ENDBRANCH  18  22
ENDBRANCH  13  14
ENDBRANCH   8  13
ENDBRANCH   4   7
ENDBRANCH   2   3
ENDBRANCH   1   2
BRANCH   1  25
ATOM     25  C   UNL A   1      32.180  31.414  26.850  1.00  0.00     0.118 C 
BRANCH  25  26
ATOM     26  N   UNL A   1      32.270  32.830  27.198  1.00  0.00    -0.352 N 
ATOM     27  C   UNL A   1      33.249  33.510  27.884  1.00  0.00     0.251 C 
ATOM     28  H   UNL A   1      31.514  33.382  26.894  1.00  0.00     0.163 HD
ATOM     29  O   UNL A   1      33.056  34.675  28.221  1.00  0.00    -0.269 OA
BRANCH  27  30
ATOM     30  C   UNL A   1      34.509  32.825  28.245  1.00  0.00     0.039 A 
ATOM     31  C   UNL A   1      34.495  31.497  28.671  1.00  0.00     0.014 A 
ATOM     32  C   UNL A   1      35.713  33.533  28.193  1.00  0.00     0.014 A 
ATOM     33  C   UNL A   1      35.639  30.945  29.235  1.00  0.00     0.010 A 
ATOM     34  C   UNL A   1      36.885  32.939  28.672  1.00  0.00     0.010 A 
ATOM     35  C   UNL A   1      36.845  31.665  29.258  1.00  0.00    -0.014 A 
BRANCH  35  36
ATOM     36  C   UNL A   1      38.037  31.076  29.924  1.00  0.00     0.031 A 
ATOM     37  C   UNL A   1      38.376  31.433  31.347  1.00  0.00     0.074 A 
ATOM     38  C   UNL A   1      38.778  30.165  29.264  1.00  0.00     0.049 A 
ATOM     39  N   UNL A   1      39.356  30.994  32.095  1.00  0.00    -0.248 NA
ATOM     40  C   UNL A   1      37.506  32.411  32.019  1.00  0.00     0.031 C 
ATOM     41  C   UNL A   1      38.529  29.727  27.890  1.00  0.00     0.029 A 
ATOM     42  N   UNL A   1      39.864  29.424  29.658  1.00  0.00    -0.354 N 
ATOM     43  C   UNL A   1      39.226  31.644  33.319  1.00  0.00     0.074 A 
ATOM     44  C   UNL A   1      38.103  32.547  33.195  1.00  0.00     0.031 C 
ATOM     45  C   UNL A   1      39.392  28.752  27.578  1.00  0.00     0.029 A 
ATOM     46  C   UNL A   1      40.310  28.547  28.696  1.00  0.00     0.049 A 
ATOM     47  H   UNL A   1      40.283  29.510  30.545  1.00  0.00     0.167 HD
ATOM     48  C   UNL A   1      39.958  31.484  34.448  1.00  0.00     0.034 A 
ATOM     49  C   UNL A   1      41.347  27.684  28.701  1.00  0.00     0.034 A 
ATOM     50  C   UNL A   1      41.069  30.572  34.555  1.00  0.00     0.049 A 
ATOM     51  C   UNL A   1      42.189  27.569  29.944  1.00  0.00     0.074 A 
ATOM     52  C   UNL A   1      41.875  30.333  35.654  1.00  0.00     0.029 A 
ATOM     53  N   UNL A   1      41.527  29.743  33.539  1.00  0.00    -0.354 N 
ATOM     54  N   UNL A   1      42.039  28.176  31.098  1.00  0.00    -0.248 NA
ATOM     55  C   UNL A   1      43.337  26.656  29.893  1.00  0.00     0.031 C 
ATOM     56  C   UNL A   1      42.860  29.417  35.284  1.00  0.00     0.029 A 
ATOM     57  C   UNL A   1      42.620  29.014  33.979  1.00  0.00     0.049 A 
ATOM     58  H   UNL A   1      41.133  29.683  32.638  1.00  0.00     0.167 HD
ATOM     59  C   UNL A   1      43.061  27.703  31.917  1.00  0.00     0.074 A 
ATOM     60  C   UNL A   1      43.806  26.741  31.132  1.00  0.00     0.031 C 
ATOM     61  C   UNL A   1      43.353  28.043  33.198  1.00  0.00     0.034 A 
BRANCH  48  62
ATOM     62  C   UNL A   1      39.590  32.292  35.671  1.00  0.00     0.023 A 
ATOM     63  C   UNL A   1      38.728  31.751  36.645  1.00  0.00     0.031 A 
ATOM     64  C   UNL A   1      39.990  33.633  35.814  1.00  0.00     0.131 A 
ATOM     65  C   UNL A   1      38.272  32.556  37.697  1.00  0.00     0.055 A 
ATOM     66  C   UNL A   1      39.571  34.416  36.890  1.00  0.00     0.041 A 
ATOM     67  F   UNL A   1      40.809  34.200  34.912  1.00  0.00    -0.206 F 
ATOM     68  C   UNL A   1      38.697  33.882  37.831  1.00  0.00     0.022 A 
BRANCH  65  69
ATOM     69  S   UNL A   1      37.055  31.941  38.894  1.00  0.00     0.124 S 
ATOM     70  O   UNL A   1      37.694  32.271  40.166  1.00  0.00    -0.237 OA
ATOM     71  O   UNL A   1      35.875  32.736  38.565  1.00  0.00    -0.237 OA
ATOM     72  O   UNL A   1      36.959  30.516  38.597  1.00  0.00    -0.744 OA
ENDBRANCH  65  69
ENDBRANCH  48  62
BRANCH  49  73
ATOM     73  C   UNL A   1      41.586  26.838  27.495  1.00  0.00     0.023 A 
ATOM     74  C   UNL A   1      41.195  25.486  27.470  1.00  0.00     0.031 A 
ATOM     75  C   UNL A   1      42.332  27.329  26.409  1.00  0.00     0.131 A 
ATOM     76  C   UNL A   1      41.631  24.652  26.433  1.00  0.00     0.055 A 
ATOM     77  C   UNL A   1      42.694  26.514  25.336  1.00  0.00     0.041 A 
ATOM     78  F   UNL A   1      42.737  28.608  26.391  1.00  0.00    -0.206 F 
ATOM     79  C   UNL A   1      42.363  25.161  25.356  1.00  0.00     0.022 A 
BRANCH  76  80
ATOM     80  S   UNL A   1      41.395  22.855  26.525  1.00  0.00     0.124 S 
ATOM     81  O   UNL A   1      41.888  22.550  27.864  1.00  0.00    -0.237 OA
ATOM     82  O   UNL A   1      39.950  22.738  26.342  1.00  0.00    -0.237 OA
ATOM     83  O   UNL A   1      42.203  22.344  25.424  1.00  0.00    -0.744 OA
ENDBRANCH  76  80
ENDBRANCH  49  73
BRANCH  61  84
ATOM     84  C   UNL A   1      44.530  27.379  33.874  1.00  0.00     0.023 A 
ATOM     85  C   UNL A   1      44.348  26.165  34.567  1.00  0.00     0.031 A 
ATOM     86  C   UNL A   1      45.774  28.022  33.981  1.00  0.00     0.131 A 
ATOM     87  C   UNL A   1      45.373  25.664  35.379  1.00  0.00     0.055 A 
ATOM     88  C   UNL A   1      46.813  27.490  34.747  1.00  0.00     0.041 A 
ATOM     89  F   UNL A   1      45.996  29.187  33.350  1.00  0.00    -0.206 F 
ATOM     90  C   UNL A   1      46.608  26.315  35.465  1.00  0.00     0.022 A 
BRANCH  87  91
ATOM     91  S   UNL A   1      45.107  24.211  36.433  1.00  0.00     0.124 S 
ATOM     92  O   UNL A   1      43.930  23.602  35.819  1.00  0.00    -0.237 OA
ATOM     93  O   UNL A   1      46.355  23.474  36.257  1.00  0.00    -0.237 OA
ATOM     94  O   UNL A   1      44.892  24.774  37.763  1.00  0.00    -0.744 OA
ENDBRANCH  87  91
ENDBRANCH  61  84
ENDBRANCH  35  36
ENDBRANCH  27  30
ENDBRANCH  25  26
ENDBRANCH   1  25
TORSDOF 16
ENDMDL
