MODEL 1
REMARK VINA RESULT:     -11.2      0.000      0.000
REMARK SMILES CC[NH2+][C@]1(C(=O)NCCCNC(=O)c2ccc(-c3c4nc(c(-c5cc(S(=O)(=O)[O-])ccc5F)c5ccc([nH]5)c(-c5cc(S(=O)(=O)[O-])ccc5F)c5nc(c(-c6cc(S(=O)(=O)[O-])ccc6F)c6ccc3[nH]6)C=C5)C=C4)cc2)CCC[C@H]1CCSc1ccc(Cl)cc1
REMARK SMILES IDX 8 1 7 2 5 3 6 4 4 6 77 7 80 8 78 9 79 10 3 11 2 14 1 15
REMARK SMILES IDX 81 16 82 17 83 18 84 19 85 20 90 21 86 22 89 23 87 24 88 25
REMARK SMILES IDX 9 26 10 27 11 28 12 29 13 31 14 32 15 33 76 34 16 35 75 36
REMARK SMILES IDX 17 37 18 38 19 39 69 40 20 41 74 42 68 43 70 44 21 45 73 46
REMARK SMILES IDX 67 47 66 48 22 50 54 51 34 52 53 53 35 54 38 55 52 56 71 57
REMARK SMILES IDX 36 58 37 59 51 61 72 62 39 63 23 64 24 65 32 66 25 67 31 68
REMARK SMILES IDX 33 69 30 70 26 71 27 72 28 73 29 74 55 75 56 76 64 77 57 78
REMARK SMILES IDX 63 79 65 80 62 81 58 82 59 83 60 84 61 85 40 86 41 87 49 88
REMARK SMILES IDX 42 89 48 90 50 91 47 92 43 93 44 94 45 95 46 96
REMARK H PARENT 7 5 3 12 3 13 11 30 70 49 38 60
REMARK Flexibility Score: inf
ROOT
ATOM      1  C   UNL A   1      36.427  22.990  23.814  1.00  0.00     0.118 C 
ENDROOT
BRANCH   1   2
ATOM      2  N   UNL A   1      35.709  23.601  24.909  1.00  0.00    -0.351 N 
ATOM      3  C   UNL A   1      34.389  23.577  25.238  1.00  0.00     0.281 C 
ATOM      4  O   UNL A   1      34.159  23.903  26.412  1.00  0.00    -0.268 OA
ATOM      5  H   UNL A   1      36.272  24.127  25.523  1.00  0.00     0.163 HD
BRANCH   3   6
ATOM      6  C   UNL A   1      33.207  23.306  24.254  1.00  0.00     0.178 C 
ATOM      7  C   UNL A   1      31.865  23.584  24.969  1.00  0.00     0.079 C 
ATOM      8  C   UNL A   1      33.132  24.348  23.082  1.00  0.00     0.061 C 
ATOM      9  C   UNL A   1      30.854  23.742  23.845  1.00  0.00     0.008 C 
ATOM     10  C   UNL A   1      31.625  24.405  22.710  1.00  0.00     0.011 C 
BRANCH   6  11
ATOM     11  N   UNL A   1      33.204  21.983  23.586  1.00  0.00    -0.334 N 
ATOM     12  H   UNL A   1      32.627  22.071  22.750  1.00  0.00     0.347 HD
ATOM     13  H   UNL A   1      34.193  21.780  23.438  1.00  0.00     0.347 HD
BRANCH  11  14
ATOM     14  C   UNL A   1      32.718  20.829  24.321  1.00  0.00     0.257 C 
ATOM     15  C   UNL A   1      33.891  19.946  24.740  1.00  0.00     0.071 C 
ENDBRANCH  11  14
ENDBRANCH   6  11
BRANCH   8  16
ATOM     16  C   UNL A   1      33.675  25.779  23.310  1.00  0.00     0.022 C 
BRANCH  16  17
ATOM     17  C   UNL A   1      33.441  26.776  22.162  1.00  0.00     0.075 C 
BRANCH  17  18
ATOM     18  S   UNL A   1      33.072  28.490  22.730  1.00  0.00    -0.126 SA
BRANCH  18  19
ATOM     19  C   UNL A   1      31.292  28.446  22.775  1.00  0.00     0.007 A 
ATOM     20  C   UNL A   1      30.563  29.441  22.112  1.00  0.00     0.016 A 
ATOM     21  C   UNL A   1      30.612  27.465  23.503  1.00  0.00     0.016 A 
ATOM     22  C   UNL A   1      29.179  29.523  22.269  1.00  0.00     0.021 A 
ATOM     23  C   UNL A   1      29.222  27.524  23.628  1.00  0.00     0.021 A 
ATOM     24  C   UNL A   1      28.516  28.571  23.038  1.00  0.00     0.041 A 
ATOM     25  Cl  UNL A   1      26.822  28.712  23.292  1.00  0.00    -0.084 Cl
ENDBRANCH  18  19
ENDBRANCH  17  18
ENDBRANCH  16  17
ENDBRANCH   8  16
ENDBRANCH   3   6
ENDBRANCH   1   2
BRANCH   1  26
ATOM     26  C   UNL A   1      37.126  21.689  24.164  1.00  0.00     0.042 C 
BRANCH  26  27
ATOM     27  C   UNL A   1      37.471  21.514  25.637  1.00  0.00     0.118 C 
BRANCH  27  28
ATOM     28  N   UNL A   1      38.635  20.674  25.886  1.00  0.00    -0.352 N 
ATOM     29  C   UNL A   1      39.874  20.986  26.399  1.00  0.00     0.251 C 
ATOM     30  H   UNL A   1      38.518  19.726  25.646  1.00  0.00     0.163 HD
ATOM     31  O   UNL A   1      40.750  20.125  26.426  1.00  0.00    -0.269 OA
BRANCH  29  32
ATOM     32  C   UNL A   1      40.169  22.360  26.870  1.00  0.00     0.039 A 
ATOM     33  C   UNL A   1      41.066  22.541  27.926  1.00  0.00     0.014 A 
ATOM     34  C   UNL A   1      39.587  23.471  26.258  1.00  0.00     0.014 A 
ATOM     35  C   UNL A   1      41.459  23.832  28.289  1.00  0.00     0.010 A 
ATOM     36  C   UNL A   1      40.069  24.744  26.538  1.00  0.00     0.010 A 
ATOM     37  C   UNL A   1      41.010  24.943  27.558  1.00  0.00    -0.014 A 
BRANCH  37  38
ATOM     38  C   UNL A   1      41.497  26.321  27.841  1.00  0.00     0.031 A 
ATOM     39  C   UNL A   1      42.891  26.724  27.434  1.00  0.00     0.074 A 
ATOM     40  C   UNL A   1      40.728  27.175  28.546  1.00  0.00     0.049 A 
ATOM     41  N   UNL A   1      43.551  27.822  27.700  1.00  0.00    -0.248 NA
ATOM     42  C   UNL A   1      43.661  25.734  26.666  1.00  0.00     0.031 C 
ATOM     43  C   UNL A   1      39.384  26.886  29.051  1.00  0.00     0.029 A 
ATOM     44  N   UNL A   1      40.970  28.458  28.974  1.00  0.00    -0.354 N 
ATOM     45  C   UNL A   1      44.820  27.641  27.160  1.00  0.00     0.074 A 
ATOM     46  C   UNL A   1      44.857  26.298  26.622  1.00  0.00     0.031 C 
ATOM     47  C   UNL A   1      38.910  27.967  29.691  1.00  0.00     0.029 A 
ATOM     48  C   UNL A   1      39.931  29.009  29.688  1.00  0.00     0.049 A 
ATOM     49  H   UNL A   1      41.808  28.939  28.786  1.00  0.00     0.167 HD
ATOM     50  C   UNL A   1      45.849  28.522  27.091  1.00  0.00     0.034 A 
ATOM     51  C   UNL A   1      39.818  30.212  30.286  1.00  0.00     0.034 A 
ATOM     52  C   UNL A   1      45.782  29.868  27.607  1.00  0.00     0.049 A 
ATOM     53  C   UNL A   1      40.968  31.180  30.194  1.00  0.00     0.074 A 
ATOM     54  C   UNL A   1      46.733  30.871  27.529  1.00  0.00     0.029 A 
ATOM     55  N   UNL A   1      44.703  30.398  28.303  1.00  0.00    -0.354 N 
ATOM     56  N   UNL A   1      42.143  31.015  29.630  1.00  0.00    -0.248 NA
ATOM     57  C   UNL A   1      40.774  32.499  30.810  1.00  0.00     0.031 C 
ATOM     58  C   UNL A   1      46.257  31.981  28.234  1.00  0.00     0.029 A 
ATOM     59  C   UNL A   1      44.977  31.703  28.686  1.00  0.00     0.049 A 
ATOM     60  H   UNL A   1      43.866  29.919  28.496  1.00  0.00     0.167 HD
ATOM     61  C   UNL A   1      42.818  32.222  29.800  1.00  0.00     0.074 A 
ATOM     62  C   UNL A   1      41.912  33.106  30.505  1.00  0.00     0.031 C 
ATOM     63  C   UNL A   1      44.069  32.568  29.404  1.00  0.00     0.034 A 
BRANCH  50  64
ATOM     64  C   UNL A   1      47.133  28.040  26.451  1.00  0.00     0.023 A 
ATOM     65  C   UNL A   1      47.378  28.198  25.075  1.00  0.00     0.031 A 
ATOM     66  C   UNL A   1      48.100  27.361  27.213  1.00  0.00     0.131 A 
ATOM     67  C   UNL A   1      48.502  27.598  24.487  1.00  0.00     0.055 A 
ATOM     68  C   UNL A   1      49.266  26.850  26.638  1.00  0.00     0.041 A 
ATOM     69  F   UNL A   1      47.918  27.160  28.527  1.00  0.00    -0.206 F 
ATOM     70  C   UNL A   1      49.463  26.948  25.264  1.00  0.00     0.022 A 
BRANCH  67  71
ATOM     71  S   UNL A   1      48.591  27.524  22.677  1.00  0.00     0.124 S 
ATOM     72  O   UNL A   1      48.577  26.082  22.440  1.00  0.00    -0.237 OA
ATOM     73  O   UNL A   1      47.393  28.250  22.272  1.00  0.00    -0.237 OA
ATOM     74  O   UNL A   1      49.858  28.185  22.369  1.00  0.00    -0.744 OA
ENDBRANCH  67  71
ENDBRANCH  50  64
BRANCH  51  75
ATOM     75  C   UNL A   1      38.571  30.570  31.023  1.00  0.00     0.023 A 
ATOM     76  C   UNL A   1      37.538  31.282  30.394  1.00  0.00     0.031 A 
ATOM     77  C   UNL A   1      38.403  30.218  32.374  1.00  0.00     0.131 A 
ATOM     78  C   UNL A   1      36.398  31.653  31.125  1.00  0.00     0.055 A 
ATOM     79  C   UNL A   1      37.247  30.546  33.083  1.00  0.00     0.041 A 
ATOM     80  F   UNL A   1      39.357  29.528  33.020  1.00  0.00    -0.206 F 
ATOM     81  C   UNL A   1      36.239  31.278  32.461  1.00  0.00     0.022 A 
BRANCH  78  82
ATOM     82  S   UNL A   1      35.146  32.687  30.318  1.00  0.00     0.124 S 
ATOM     83  O   UNL A   1      34.691  31.816  29.240  1.00  0.00    -0.237 OA
ATOM     84  O   UNL A   1      34.197  32.916  31.402  1.00  0.00    -0.237 OA
ATOM     85  O   UNL A   1      35.900  33.865  29.894  1.00  0.00    -0.744 OA
ENDBRANCH  78  82
ENDBRANCH  51  75
BRANCH  63  86
ATOM     86  C   UNL A   1      44.512  33.982  29.693  1.00  0.00     0.023 A 
ATOM     87  C   UNL A   1      44.397  35.004  28.735  1.00  0.00     0.031 A 
ATOM     88  C   UNL A   1      45.062  34.306  30.946  1.00  0.00     0.131 A 
ATOM     89  C   UNL A   1      44.878  36.290  29.026  1.00  0.00     0.055 A 
ATOM     90  C   UNL A   1      45.482  35.601  31.251  1.00  0.00     0.041 A 
ATOM     91  F   UNL A   1      45.198  33.368  31.896  1.00  0.00    -0.206 F 
ATOM     92  C   UNL A   1      45.403  36.599  30.283  1.00  0.00     0.022 A 
BRANCH  89  93
ATOM     93  S   UNL A   1      44.891  37.534  27.706  1.00  0.00     0.124 S 
ATOM     94  O   UNL A   1      45.641  36.853  26.656  1.00  0.00    -0.237 OA
ATOM     95  O   UNL A   1      43.469  37.732  27.447  1.00  0.00    -0.237 OA
ATOM     96  O   UNL A   1      45.574  38.674  28.316  1.00  0.00    -0.744 OA
ENDBRANCH  89  93
ENDBRANCH  63  86
ENDBRANCH  37  38
ENDBRANCH  29  32
ENDBRANCH  27  28
ENDBRANCH  26  27
ENDBRANCH   1  26
TORSDOF 19
ENDMDL
MODEL 2
REMARK VINA RESULT:     -11.2      5.436      8.676
REMARK SMILES CC[NH2+][C@]1(C(=O)NCCCNC(=O)c2ccc(-c3c4nc(c(-c5cc(S(=O)(=O)[O-])ccc5F)c5ccc([nH]5)c(-c5cc(S(=O)(=O)[O-])ccc5F)c5nc(c(-c6cc(S(=O)(=O)[O-])ccc6F)c6ccc3[nH]6)C=C5)C=C4)cc2)CCC[C@H]1CCSc1ccc(Cl)cc1
REMARK SMILES IDX 8 1 7 2 5 3 6 4 4 6 77 7 80 8 78 9 79 10 3 11 2 14 1 15
REMARK SMILES IDX 81 16 82 17 83 18 84 19 85 20 90 21 86 22 89 23 87 24 88 25
REMARK SMILES IDX 9 26 10 27 11 28 12 29 13 31 14 32 15 33 76 34 16 35 75 36
REMARK SMILES IDX 17 37 18 38 19 39 69 40 20 41 74 42 68 43 70 44 21 45 73 46
REMARK SMILES IDX 67 47 66 48 22 50 54 51 34 52 53 53 35 54 38 55 52 56 71 57
REMARK SMILES IDX 36 58 37 59 51 61 72 62 39 63 23 64 24 65 32 66 25 67 31 68
REMARK SMILES IDX 33 69 30 70 26 71 27 72 28 73 29 74 55 75 56 76 64 77 57 78
REMARK SMILES IDX 63 79 65 80 62 81 58 82 59 83 60 84 61 85 40 86 41 87 49 88
REMARK SMILES IDX 42 89 48 90 50 91 47 92 43 93 44 94 45 95 46 96
REMARK H PARENT 7 5 3 12 3 13 11 30 70 49 38 60
REMARK Flexibility Score: inf
ROOT
ATOM      1  C   UNL A   1      30.899  30.505  25.337  1.00  0.00     0.118 C 
ENDROOT
BRANCH   1   2
ATOM      2  N   UNL A   1      32.156  29.791  25.316  1.00  0.00    -0.351 N 
ATOM      3  C   UNL A   1      32.706  28.976  24.376  1.00  0.00     0.281 C 
ATOM      4  O   UNL A   1      33.928  28.811  24.509  1.00  0.00    -0.268 OA
ATOM      5  H   UNL A   1      32.709  29.916  26.121  1.00  0.00     0.163 HD
BRANCH   3   6
ATOM      6  C   UNL A   1      31.922  28.179  23.285  1.00  0.00     0.178 C 
ATOM      7  C   UNL A   1      32.852  27.122  22.648  1.00  0.00     0.079 C 
ATOM      8  C   UNL A   1      30.802  27.257  23.884  1.00  0.00     0.061 C 
ATOM      9  C   UNL A   1      31.912  26.137  21.973  1.00  0.00     0.008 C 
ATOM     10  C   UNL A   1      30.682  26.086  22.871  1.00  0.00     0.011 C 
BRANCH   6  11
ATOM     11  N   UNL A   1      31.234  28.991  22.254  1.00  0.00    -0.334 N 
ATOM     12  H   UNL A   1      31.641  29.925  22.287  1.00  0.00     0.347 HD
ATOM     13  H   UNL A   1      31.374  28.463  21.392  1.00  0.00     0.347 HD
BRANCH  11  14
ATOM     14  C   UNL A   1      29.793  29.150  22.335  1.00  0.00     0.257 C 
ATOM     15  C   UNL A   1      29.371  30.439  21.633  1.00  0.00     0.071 C 
ENDBRANCH  11  14
ENDBRANCH   6  11
BRANCH   8  16
ATOM     16  C   UNL A   1      30.971  26.700  25.318  1.00  0.00     0.022 C 
BRANCH  16  17
ATOM     17  C   UNL A   1      30.628  25.211  25.504  1.00  0.00     0.075 C 
BRANCH  17  18
ATOM     18  S   UNL A   1      31.806  24.309  26.596  1.00  0.00    -0.126 SA
BRANCH  18  19
ATOM     19  C   UNL A   1      33.168  24.057  25.476  1.00  0.00     0.007 A 
ATOM     20  C   UNL A   1      32.943  23.403  24.259  1.00  0.00     0.016 A 
ATOM     21  C   UNL A   1      34.464  24.458  25.813  1.00  0.00     0.016 A 
ATOM     22  C   UNL A   1      34.018  23.048  23.441  1.00  0.00     0.021 A 
ATOM     23  C   UNL A   1      35.536  24.138  24.976  1.00  0.00     0.021 A 
ATOM     24  C   UNL A   1      35.311  23.407  23.810  1.00  0.00     0.041 A 
ATOM     25  Cl  UNL A   1      36.641  22.910  22.842  1.00  0.00    -0.084 Cl
ENDBRANCH  18  19
ENDBRANCH  17  18
ENDBRANCH  16  17
ENDBRANCH   8  16
ENDBRANCH   3   6
ENDBRANCH   1   2
BRANCH   1  26
ATOM     26  C   UNL A   1      30.994  31.938  25.825  1.00  0.00     0.042 C 
BRANCH  26  27
ATOM     27  C   UNL A   1      32.121  32.215  26.810  1.00  0.00     0.118 C 
BRANCH  27  28
ATOM     28  N   UNL A   1      32.153  33.579  27.321  1.00  0.00    -0.352 N 
ATOM     29  C   UNL A   1      33.053  34.206  28.153  1.00  0.00     0.251 C 
ATOM     30  H   UNL A   1      31.407  34.148  27.022  1.00  0.00     0.163 HD
ATOM     31  O   UNL A   1      32.822  35.350  28.538  1.00  0.00    -0.269 OA
BRANCH  29  32
ATOM     32  C   UNL A   1      34.265  33.494  28.623  1.00  0.00     0.039 A 
ATOM     33  C   UNL A   1      35.509  34.119  28.510  1.00  0.00     0.014 A 
ATOM     34  C   UNL A   1      34.177  32.227  29.200  1.00  0.00     0.014 A 
ATOM     35  C   UNL A   1      36.641  33.521  29.072  1.00  0.00     0.010 A 
ATOM     36  C   UNL A   1      35.275  31.693  29.863  1.00  0.00     0.010 A 
ATOM     37  C   UNL A   1      36.523  32.331  29.807  1.00  0.00    -0.014 A 
BRANCH  37  38
ATOM     38  C   UNL A   1      37.683  31.726  30.518  1.00  0.00     0.031 A 
ATOM     39  C   UNL A   1      38.536  30.697  29.824  1.00  0.00     0.074 A 
ATOM     40  C   UNL A   1      37.910  32.028  31.813  1.00  0.00     0.049 A 
ATOM     41  N   UNL A   1      39.504  29.959  30.303  1.00  0.00    -0.248 NA
ATOM     42  C   UNL A   1      38.222  30.429  28.412  1.00  0.00     0.031 C 
ATOM     43  C   UNL A   1      37.119  32.963  32.616  1.00  0.00     0.029 A 
ATOM     44  N   UNL A   1      38.864  31.570  32.687  1.00  0.00    -0.354 N 
ATOM     45  C   UNL A   1      39.891  29.120  29.263  1.00  0.00     0.074 A 
ATOM     46  C   UNL A   1      39.000  29.391  28.155  1.00  0.00     0.031 C 
ATOM     47  C   UNL A   1      37.638  33.032  33.852  1.00  0.00     0.029 A 
ATOM     48  C   UNL A   1      38.766  32.111  33.948  1.00  0.00     0.049 A 
ATOM     49  H   UNL A   1      39.556  30.916  32.435  1.00  0.00     0.167 HD
ATOM     50  C   UNL A   1      40.914  28.229  29.223  1.00  0.00     0.034 A 
ATOM     51  C   UNL A   1      39.492  31.883  35.061  1.00  0.00     0.034 A 
ATOM     52  C   UNL A   1      41.811  27.996  30.329  1.00  0.00     0.049 A 
ATOM     53  C   UNL A   1      40.628  30.894  34.997  1.00  0.00     0.074 A 
ATOM     54  C   UNL A   1      42.924  27.174  30.380  1.00  0.00     0.029 A 
ATOM     55  N   UNL A   1      41.694  28.581  31.584  1.00  0.00    -0.354 N 
ATOM     56  N   UNL A   1      41.018  30.150  33.988  1.00  0.00    -0.248 NA
ATOM     57  C   UNL A   1      41.426  30.724  36.218  1.00  0.00     0.031 C 
ATOM     58  C   UNL A   1      43.437  27.212  31.680  1.00  0.00     0.029 A 
ATOM     59  C   UNL A   1      42.696  28.117  32.423  1.00  0.00     0.049 A 
ATOM     60  H   UNL A   1      41.002  29.232  31.840  1.00  0.00     0.167 HD
ATOM     61  C   UNL A   1      42.127  29.442  34.446  1.00  0.00     0.074 A 
ATOM     62  C   UNL A   1      42.348  29.861  35.816  1.00  0.00     0.031 C 
ATOM     63  C   UNL A   1      42.894  28.533  33.792  1.00  0.00     0.034 A 
BRANCH  50  64
ATOM     64  C   UNL A   1      41.093  27.436  27.948  1.00  0.00     0.023 A 
ATOM     65  C   UNL A   1      40.762  26.071  27.874  1.00  0.00     0.031 A 
ATOM     66  C   UNL A   1      41.655  28.034  26.806  1.00  0.00     0.131 A 
ATOM     67  C   UNL A   1      41.089  25.328  26.730  1.00  0.00     0.055 A 
ATOM     68  C   UNL A   1      41.888  27.311  25.634  1.00  0.00     0.041 A 
ATOM     69  F   UNL A   1      42.010  29.328  26.816  1.00  0.00    -0.206 F 
ATOM     70  C   UNL A   1      41.626  25.944  25.597  1.00  0.00     0.022 A 
BRANCH  67  71
ATOM     71  S   UNL A   1      40.973  23.520  26.814  1.00  0.00     0.124 S 
ATOM     72  O   UNL A   1      39.545  23.306  26.586  1.00  0.00    -0.237 OA
ATOM     73  O   UNL A   1      41.862  23.096  25.740  1.00  0.00    -0.237 OA
ATOM     74  O   UNL A   1      41.432  23.209  28.167  1.00  0.00    -0.744 OA
ENDBRANCH  67  71
ENDBRANCH  50  64
BRANCH  51  75
ATOM     75  C   UNL A   1      39.170  32.600  36.329  1.00  0.00     0.023 A 
ATOM     76  C   UNL A   1      39.761  33.836  36.630  1.00  0.00     0.031 A 
ATOM     77  C   UNL A   1      38.278  32.049  37.266  1.00  0.00     0.131 A 
ATOM     78  C   UNL A   1      39.481  34.466  37.854  1.00  0.00     0.055 A 
ATOM     79  C   UNL A   1      37.965  32.701  38.459  1.00  0.00     0.041 A 
ATOM     80  F   UNL A   1      37.678  30.872  37.021  1.00  0.00    -0.206 F 
ATOM     81  C   UNL A   1      38.578  33.913  38.764  1.00  0.00     0.022 A 
BRANCH  78  82
ATOM     82  S   UNL A   1      40.365  35.995  38.267  1.00  0.00     0.124 S 
ATOM     83  O   UNL A   1      39.871  36.268  39.612  1.00  0.00    -0.237 OA
ATOM     84  O   UNL A   1      41.759  35.576  38.169  1.00  0.00    -0.237 OA
ATOM     85  O   UNL A   1      39.925  36.932  37.237  1.00  0.00    -0.744 OA
ENDBRANCH  78  82
ENDBRANCH  51  75
BRANCH  63  86
ATOM     86  C   UNL A   1      44.071  27.963  34.546  1.00  0.00     0.023 A 
ATOM     87  C   UNL A   1      43.968  26.777  35.293  1.00  0.00     0.031 A 
ATOM     88  C   UNL A   1      45.313  28.623  34.519  1.00  0.00     0.131 A 
ATOM     89  C   UNL A   1      45.073  26.317  36.027  1.00  0.00     0.055 A 
ATOM     90  C   UNL A   1      46.424  28.128  35.201  1.00  0.00     0.041 A 
ATOM     91  F   UNL A   1      45.467  29.761  33.823  1.00  0.00    -0.206 F 
ATOM     92  C   UNL A   1      46.304  26.974  35.972  1.00  0.00     0.022 A 
BRANCH  89  93
ATOM     93  S   UNL A   1      44.852  24.894  37.131  1.00  0.00     0.124 S 
ATOM     94  O   UNL A   1      43.824  25.377  38.046  1.00  0.00    -0.237 OA
ATOM     95  O   UNL A   1      44.441  23.842  36.207  1.00  0.00    -0.237 OA
ATOM     96  O   UNL A   1      46.176  24.714  37.726  1.00  0.00    -0.744 OA
ENDBRANCH  89  93
ENDBRANCH  63  86
ENDBRANCH  37  38
ENDBRANCH  29  32
ENDBRANCH  27  28
ENDBRANCH  26  27
ENDBRANCH   1  26
TORSDOF 19
ENDMDL
MODEL 3
REMARK VINA RESULT:     -11.1      1.624      7.690
REMARK SMILES CC[NH2+][C@]1(C(=O)NCCCNC(=O)c2ccc(-c3c4nc(c(-c5cc(S(=O)(=O)[O-])ccc5F)c5ccc([nH]5)c(-c5cc(S(=O)(=O)[O-])ccc5F)c5nc(c(-c6cc(S(=O)(=O)[O-])ccc6F)c6ccc3[nH]6)C=C5)C=C4)cc2)CCC[C@H]1CCSc1ccc(Cl)cc1
REMARK SMILES IDX 8 1 7 2 5 3 6 4 4 6 77 7 80 8 78 9 79 10 3 11 2 14 1 15
REMARK SMILES IDX 81 16 82 17 83 18 84 19 85 20 90 21 86 22 89 23 87 24 88 25
REMARK SMILES IDX 9 26 10 27 11 28 12 29 13 31 14 32 15 33 76 34 16 35 75 36
REMARK SMILES IDX 17 37 18 38 19 39 69 40 20 41 74 42 68 43 70 44 21 45 73 46
REMARK SMILES IDX 67 47 66 48 22 50 54 51 34 52 53 53 35 54 38 55 52 56 71 57
REMARK SMILES IDX 36 58 37 59 51 61 72 62 39 63 23 64 24 65 32 66 25 67 31 68
REMARK SMILES IDX 33 69 30 70 26 71 27 72 28 73 29 74 55 75 56 76 64 77 57 78
REMARK SMILES IDX 63 79 65 80 62 81 58 82 59 83 60 84 61 85 40 86 41 87 49 88
REMARK SMILES IDX 42 89 48 90 50 91 47 92 43 93 44 94 45 95 46 96
REMARK H PARENT 7 5 3 12 3 13 11 30 70 49 38 60
REMARK Flexibility Score: inf
ROOT
ATOM      1  C   UNL A   1      36.410  21.445  24.895  1.00  0.00     0.118 C 
ENDROOT
BRANCH   1   2
ATOM      2  N   UNL A   1      35.722  21.693  26.142  1.00  0.00    -0.351 N 
ATOM      3  C   UNL A   1      34.395  21.717  26.442  1.00  0.00     0.281 C 
ATOM      4  O   UNL A   1      34.154  21.611  27.655  1.00  0.00    -0.268 OA
ATOM      5  H   UNL A   1      36.316  21.877  26.905  1.00  0.00     0.163 HD
BRANCH   3   6
ATOM      6  C   UNL A   1      33.234  21.984  25.433  1.00  0.00     0.178 C 
ATOM      7  C   UNL A   1      31.897  22.095  26.201  1.00  0.00     0.079 C 
ATOM      8  C   UNL A   1      33.309  23.406  24.773  1.00  0.00     0.061 C 
ATOM      9  C   UNL A   1      30.953  22.790  25.234  1.00  0.00     0.008 C 
ATOM     10  C   UNL A   1      31.831  23.764  24.456  1.00  0.00     0.011 C 
BRANCH   6  11
ATOM     11  N   UNL A   1      33.131  21.042  24.294  1.00  0.00    -0.334 N 
ATOM     12  H   UNL A   1      32.589  21.509  23.567  1.00  0.00     0.347 HD
ATOM     13  H   UNL A   1      34.101  20.821  24.069  1.00  0.00     0.347 HD
BRANCH  11  14
ATOM     14  C   UNL A   1      32.519  19.743  24.513  1.00  0.00     0.257 C 
ATOM     15  C   UNL A   1      33.601  18.672  24.635  1.00  0.00     0.071 C 
ENDBRANCH  11  14
ENDBRANCH   6  11
BRANCH   8  16
ATOM     16  C   UNL A   1      33.977  24.565  25.551  1.00  0.00     0.022 C 
BRANCH  16  17
ATOM     17  C   UNL A   1      33.779  25.972  24.961  1.00  0.00     0.075 C 
BRANCH  17  18
ATOM     18  S   UNL A   1      33.060  27.182  26.150  1.00  0.00    -0.126 SA
BRANCH  18  19
ATOM     19  C   UNL A   1      31.726  27.848  25.176  1.00  0.00     0.007 A 
ATOM     20  C   UNL A   1      30.788  26.976  24.609  1.00  0.00     0.016 A 
ATOM     21  C   UNL A   1      31.629  29.220  24.927  1.00  0.00     0.016 A 
ATOM     22  C   UNL A   1      29.834  27.457  23.710  1.00  0.00     0.021 A 
ATOM     23  C   UNL A   1      30.649  29.706  24.058  1.00  0.00     0.021 A 
ATOM     24  C   UNL A   1      29.777  28.818  23.429  1.00  0.00     0.041 A 
ATOM     25  Cl  UNL A   1      28.652  29.401  22.269  1.00  0.00    -0.084 Cl
ENDBRANCH  18  19
ENDBRANCH  17  18
ENDBRANCH  16  17
ENDBRANCH   8  16
ENDBRANCH   3   6
ENDBRANCH   1   2
BRANCH   1  26
ATOM     26  C   UNL A   1      37.460  20.352  24.959  1.00  0.00     0.042 C 
BRANCH  26  27
ATOM     27  C   UNL A   1      38.702  20.692  25.772  1.00  0.00     0.118 C 
BRANCH  27  28
ATOM     28  N   UNL A   1      39.672  19.610  25.869  1.00  0.00    -0.352 N 
ATOM     29  C   UNL A   1      41.024  19.637  26.125  1.00  0.00     0.251 C 
ATOM     30  H   UNL A   1      39.300  18.710  25.727  1.00  0.00     0.163 HD
ATOM     31  O   UNL A   1      41.671  18.594  26.058  1.00  0.00    -0.269 OA
BRANCH  29  32
ATOM     32  C   UNL A   1      41.707  20.916  26.430  1.00  0.00     0.039 A 
ATOM     33  C   UNL A   1      42.111  21.741  25.378  1.00  0.00     0.014 A 
ATOM     34  C   UNL A   1      41.925  21.319  27.748  1.00  0.00     0.014 A 
ATOM     35  C   UNL A   1      42.630  23.010  25.650  1.00  0.00     0.010 A 
ATOM     36  C   UNL A   1      42.326  22.623  28.014  1.00  0.00     0.010 A 
ATOM     37  C   UNL A   1      42.685  23.486  26.969  1.00  0.00    -0.014 A 
BRANCH  37  38
ATOM     38  C   UNL A   1      43.122  24.873  27.288  1.00  0.00     0.031 A 
ATOM     39  C   UNL A   1      42.170  25.823  27.968  1.00  0.00     0.074 A 
ATOM     40  C   UNL A   1      44.332  25.308  26.882  1.00  0.00     0.049 A 
ATOM     41  N   UNL A   1      42.304  27.101  28.214  1.00  0.00    -0.248 NA
ATOM     42  C   UNL A   1      40.872  25.267  28.380  1.00  0.00     0.031 C 
ATOM     43  C   UNL A   1      45.323  24.505  26.161  1.00  0.00     0.029 A 
ATOM     44  N   UNL A   1      44.932  26.537  27.004  1.00  0.00    -0.354 N 
ATOM     45  C   UNL A   1      41.100  27.506  28.780  1.00  0.00     0.074 A 
ATOM     46  C   UNL A   1      40.224  26.354  28.767  1.00  0.00     0.031 C 
ATOM     47  C   UNL A   1      46.415  25.252  25.933  1.00  0.00     0.029 A 
ATOM     48  C   UNL A   1      46.187  26.599  26.444  1.00  0.00     0.049 A 
ATOM     49  H   UNL A   1      44.505  27.303  27.452  1.00  0.00     0.167 HD
ATOM     50  C   UNL A   1      40.764  28.717  29.293  1.00  0.00     0.034 A 
ATOM     51  C   UNL A   1      47.053  27.627  26.342  1.00  0.00     0.034 A 
ATOM     52  C   UNL A   1      41.662  29.845  29.324  1.00  0.00     0.049 A 
ATOM     53  C   UNL A   1      46.667  28.964  26.921  1.00  0.00     0.074 A 
ATOM     54  C   UNL A   1      41.459  31.096  29.882  1.00  0.00     0.029 A 
ATOM     55  N   UNL A   1      42.936  29.862  28.768  1.00  0.00    -0.354 N 
ATOM     56  N   UNL A   1      45.544  29.316  27.505  1.00  0.00    -0.248 NA
ATOM     57  C   UNL A   1      47.666  30.036  26.837  1.00  0.00     0.031 C 
ATOM     58  C   UNL A   1      42.579  31.887  29.605  1.00  0.00     0.029 A 
ATOM     59  C   UNL A   1      43.517  31.110  28.944  1.00  0.00     0.049 A 
ATOM     60  H   UNL A   1      43.364  29.100  28.317  1.00  0.00     0.167 HD
ATOM     61  C   UNL A   1      45.715  30.646  27.883  1.00  0.00     0.074 A 
ATOM     62  C   UNL A   1      47.053  31.024  27.473  1.00  0.00     0.031 C 
ATOM     63  C   UNL A   1      44.848  31.476  28.515  1.00  0.00     0.034 A 
BRANCH  50  64
ATOM     64  C   UNL A   1      39.362  28.875  29.836  1.00  0.00     0.023 A 
ATOM     65  C   UNL A   1      38.310  29.362  29.039  1.00  0.00     0.031 A 
ATOM     66  C   UNL A   1      39.081  28.590  31.185  1.00  0.00     0.131 A 
ATOM     67  C   UNL A   1      37.063  29.647  29.615  1.00  0.00     0.055 A 
ATOM     68  C   UNL A   1      37.809  28.785  31.730  1.00  0.00     0.041 A 
ATOM     69  F   UNL A   1      40.044  28.141  32.004  1.00  0.00    -0.206 F 
ATOM     70  C   UNL A   1      36.797  29.336  30.950  1.00  0.00     0.022 A 
BRANCH  67  71
ATOM     71  S   UNL A   1      35.862  30.597  28.643  1.00  0.00     0.124 S 
ATOM     72  O   UNL A   1      36.721  31.211  27.633  1.00  0.00    -0.237 OA
ATOM     73  O   UNL A   1      34.953  29.562  28.166  1.00  0.00    -0.237 OA
ATOM     74  O   UNL A   1      35.294  31.529  29.616  1.00  0.00    -0.744 OA
ENDBRANCH  67  71
ENDBRANCH  50  64
BRANCH  51  75
ATOM     75  C   UNL A   1      48.369  27.437  25.665  1.00  0.00     0.023 A 
ATOM     76  C   UNL A   1      48.483  27.517  24.269  1.00  0.00     0.031 A 
ATOM     77  C   UNL A   1      49.530  27.156  26.407  1.00  0.00     0.131 A 
ATOM     78  C   UNL A   1      49.722  27.282  23.653  1.00  0.00     0.055 A 
ATOM     79  C   UNL A   1      50.770  26.971  25.794  1.00  0.00     0.041 A 
ATOM     80  F   UNL A   1      49.478  27.078  27.746  1.00  0.00    -0.206 F 
ATOM     81  C   UNL A   1      50.869  27.023  24.406  1.00  0.00     0.022 A 
BRANCH  78  82
ATOM     82  S   UNL A   1      49.803  27.261  21.841  1.00  0.00     0.124 S 
ATOM     83  O   UNL A   1      51.170  26.805  21.610  1.00  0.00    -0.237 OA
ATOM     84  O   UNL A   1      48.745  26.315  21.501  1.00  0.00    -0.237 OA
ATOM     85  O   UNL A   1      49.536  28.649  21.472  1.00  0.00    -0.744 OA
ENDBRANCH  78  82
ENDBRANCH  51  75
BRANCH  63  86
ATOM     86  C   UNL A   1      45.341  32.866  28.837  1.00  0.00     0.023 A 
ATOM     87  C   UNL A   1      45.179  33.935  27.940  1.00  0.00     0.031 A 
ATOM     88  C   UNL A   1      45.989  33.119  30.059  1.00  0.00     0.131 A 
ATOM     89  C   UNL A   1      45.708  35.197  28.255  1.00  0.00     0.055 A 
ATOM     90  C   UNL A   1      46.459  34.390  30.393  1.00  0.00     0.041 A 
ATOM     91  F   UNL A   1      46.173  32.134  30.952  1.00  0.00    -0.206 F 
ATOM     92  C   UNL A   1      46.331  35.435  29.482  1.00  0.00     0.022 A 
BRANCH  89  93
ATOM     93  S   UNL A   1      45.651  36.503  26.997  1.00  0.00     0.124 S 
ATOM     94  O   UNL A   1      46.297  35.856  25.860  1.00  0.00    -0.237 OA
ATOM     95  O   UNL A   1      44.219  36.747  26.863  1.00  0.00    -0.237 OA
ATOM     96  O   UNL A   1      46.412  37.595  27.603  1.00  0.00    -0.744 OA
ENDBRANCH  89  93
ENDBRANCH  63  86
ENDBRANCH  37  38
ENDBRANCH  29  32
ENDBRANCH  27  28
ENDBRANCH  26  27
ENDBRANCH   1  26
TORSDOF 19
ENDMDL
