MODEL 1
REMARK VINA RESULT:     -14.4      0.000      0.000
REMARK SMILES O=C(NCCCNC(=O)[C@@H](Cc1c[nH]c2ccccc12)Nc1ncnc2ccccc12)c1ccc(-c2c3nc(c(-c4cc(S(=O)(=O)[O-])ccc4F)c4ccc([nH]4)c(-c4cc(S(=O)(=O)[O-])ccc4F)c4nc(c(-c5cc(S(=O)(=O)[O-])ccc5F)c5ccc2[nH]5)C=C4)C=C3)cc1
REMARK SMILES IDX 4 1 3 2 1 3 2 4 32 6 33 7 94 8 34 9 93 10 35 11 36 12 37 13
REMARK SMILES IDX 87 14 38 15 92 16 86 17 88 18 39 19 91 20 85 21 84 22 40 24
REMARK SMILES IDX 72 25 52 26 71 27 53 28 56 29 70 30 89 31 54 32 55 33 69 35
REMARK SMILES IDX 90 36 57 37 41 38 42 39 50 40 43 41 49 42 51 43 48 44 44 45
REMARK SMILES IDX 45 46 46 47 47 48 73 49 74 50 82 51 75 52 81 53 83 54 80 55
REMARK SMILES IDX 76 56 77 57 78 58 79 59 58 60 59 61 67 62 60 63 66 64 68 65
REMARK SMILES IDX 65 66 61 67 62 68 63 69 64 70 5 71 6 72 7 73 8 74 9 76 10 77
REMARK SMILES IDX 11 78 12 79 13 80 20 81 14 82 15 83 19 84 16 86 18 87 17 88
REMARK SMILES IDX 21 89 22 91 23 92 31 93 24 94 26 95 30 96 25 97 27 98 29 99
REMARK SMILES IDX 28 100
REMARK H PARENT 3 5 88 23 56 34 7 75 14 85 21 90
REMARK Flexibility Score: inf
ROOT
ATOM      1  C   UNL A   1      36.608  22.334  25.727  1.00  0.00     0.118 C 
ENDROOT
BRANCH   1   2
ATOM      2  N   UNL A   1      37.689  21.338  25.548  1.00  0.00    -0.352 N 
ATOM      3  O   UNL A   1      39.673  20.321  25.887  1.00  0.00    -0.269 OA
ATOM      4  C   UNL A   1      38.969  21.314  26.032  1.00  0.00     0.251 C 
ATOM      5  H   UNL A   1      37.447  20.565  24.988  1.00  0.00     0.163 HD
BRANCH   4   6
ATOM      6  C   UNL A   1      39.505  22.550  26.602  1.00  0.00     0.039 A 
ATOM      7  C   UNL A   1      39.132  23.775  26.060  1.00  0.00     0.014 A 
ATOM      8  C   UNL A   1      40.540  22.443  27.532  1.00  0.00     0.014 A 
ATOM      9  C   UNL A   1      39.961  24.858  26.253  1.00  0.00     0.010 A 
ATOM     10  C   UNL A   1      41.247  23.585  27.880  1.00  0.00     0.010 A 
ATOM     11  C   UNL A   1      40.972  24.792  27.223  1.00  0.00    -0.014 A 
BRANCH  11  12
ATOM     12  C   UNL A   1      41.601  26.050  27.658  1.00  0.00     0.031 A 
ATOM     13  C   UNL A   1      40.859  27.042  28.495  1.00  0.00     0.074 A 
ATOM     14  C   UNL A   1      42.866  26.259  27.239  1.00  0.00     0.049 A 
ATOM     15  N   UNL A   1      41.214  28.252  28.827  1.00  0.00    -0.248 NA
ATOM     16  C   UNL A   1      39.537  26.639  28.998  1.00  0.00     0.031 C 
ATOM     17  C   UNL A   1      43.638  25.326  26.404  1.00  0.00     0.029 A 
ATOM     18  N   UNL A   1      43.731  27.289  27.458  1.00  0.00    -0.354 N 
ATOM     19  C   UNL A   1      40.150  28.776  29.551  1.00  0.00     0.074 A 
ATOM     20  C   UNL A   1      39.125  27.755  29.589  1.00  0.00     0.031 C 
ATOM     21  C   UNL A   1      44.882  25.787  26.254  1.00  0.00     0.029 A 
ATOM     22  C   UNL A   1      44.947  27.112  26.841  1.00  0.00     0.049 A 
ATOM     23  H   UNL A   1      43.509  28.078  28.001  1.00  0.00     0.167 HD
ATOM     24  C   UNL A   1      40.058  30.004  30.120  1.00  0.00     0.034 A 
ATOM     25  C   UNL A   1      45.981  27.956  26.699  1.00  0.00     0.034 A 
ATOM     26  C   UNL A   1      41.121  30.983  30.037  1.00  0.00     0.049 A 
ATOM     27  C   UNL A   1      45.833  29.316  27.308  1.00  0.00     0.074 A 
ATOM     28  C   UNL A   1      41.160  32.266  30.551  1.00  0.00     0.029 A 
ATOM     29  N   UNL A   1      42.340  30.779  29.394  1.00  0.00    -0.354 N 
ATOM     30  N   UNL A   1      44.808  29.815  27.962  1.00  0.00    -0.248 NA
ATOM     31  C   UNL A   1      46.969  30.223  27.161  1.00  0.00     0.031 C 
ATOM     32  C   UNL A   1      42.372  32.854  30.169  1.00  0.00     0.029 A 
ATOM     33  C   UNL A   1      43.128  31.915  29.486  1.00  0.00     0.049 A 
ATOM     34  H   UNL A   1      42.603  29.947  28.938  1.00  0.00     0.167 HD
ATOM     35  C   UNL A   1      45.182  31.101  28.319  1.00  0.00     0.074 A 
ATOM     36  C   UNL A   1      46.542  31.278  27.837  1.00  0.00     0.031 C 
ATOM     37  C   UNL A   1      44.473  32.055  28.975  1.00  0.00     0.034 A 
BRANCH  24  38
ATOM     38  C   UNL A   1      38.768  30.361  30.820  1.00  0.00     0.023 A 
ATOM     39  C   UNL A   1      37.703  30.982  30.143  1.00  0.00     0.031 A 
ATOM     40  C   UNL A   1      38.604  30.103  32.193  1.00  0.00     0.131 A 
ATOM     41  C   UNL A   1      36.557  31.384  30.849  1.00  0.00     0.055 A 
ATOM     42  C   UNL A   1      37.428  30.431  32.874  1.00  0.00     0.041 A 
ATOM     43  F   UNL A   1      39.592  29.538  32.905  1.00  0.00    -0.206 F 
ATOM     44  C   UNL A   1      36.401  31.088  32.205  1.00  0.00     0.022 A 
BRANCH  41  45
ATOM     45  S   UNL A   1      35.332  32.420  30.002  1.00  0.00     0.124 S 
ATOM     46  O   UNL A   1      34.948  31.564  28.880  1.00  0.00    -0.237 OA
ATOM     47  O   UNL A   1      34.317  32.617  31.029  1.00  0.00    -0.237 OA
ATOM     48  O   UNL A   1      36.088  33.614  29.632  1.00  0.00    -0.744 OA
ENDBRANCH  41  45
ENDBRANCH  24  38
BRANCH  25  49
ATOM     49  C   UNL A   1      47.178  27.552  25.915  1.00  0.00     0.023 A 
ATOM     50  C   UNL A   1      47.281  27.862  24.553  1.00  0.00     0.031 A 
ATOM     51  C   UNL A   1      48.246  26.854  26.515  1.00  0.00     0.131 A 
ATOM     52  C   UNL A   1      48.401  27.437  23.825  1.00  0.00     0.055 A 
ATOM     53  C   UNL A   1      49.390  26.499  25.803  1.00  0.00     0.041 A 
ATOM     54  F   UNL A   1      48.207  26.540  27.820  1.00  0.00    -0.206 F 
ATOM     55  C   UNL A   1      49.465  26.775  24.443  1.00  0.00     0.022 A 
BRANCH  52  56
ATOM     56  S   UNL A   1      48.394  27.668  22.027  1.00  0.00     0.124 S 
ATOM     57  O   UNL A   1      48.590  26.303  21.551  1.00  0.00    -0.237 OA
ATOM     58  O   UNL A   1      47.072  28.242  21.803  1.00  0.00    -0.237 OA
ATOM     59  O   UNL A   1      49.516  28.576  21.798  1.00  0.00    -0.744 OA
ENDBRANCH  52  56
ENDBRANCH  25  49
BRANCH  37  60
ATOM     60  C   UNL A   1      45.201  33.348  29.230  1.00  0.00     0.023 A 
ATOM     61  C   UNL A   1      45.145  34.412  28.314  1.00  0.00     0.031 A 
ATOM     62  C   UNL A   1      46.008  33.488  30.371  1.00  0.00     0.131 A 
ATOM     63  C   UNL A   1      45.950  35.541  28.515  1.00  0.00     0.055 A 
ATOM     64  C   UNL A   1      46.748  34.646  30.603  1.00  0.00     0.041 A 
ATOM     65  F   UNL A   1      46.100  32.495  31.271  1.00  0.00    -0.206 F 
ATOM     66  C   UNL A   1      46.736  35.673  29.663  1.00  0.00     0.022 A 
BRANCH  63  67
ATOM     67  S   UNL A   1      46.054  36.772  27.190  1.00  0.00     0.124 S 
ATOM     68  O   UNL A   1      44.656  37.158  27.026  1.00  0.00    -0.237 OA
ATOM     69  O   UNL A   1      46.931  37.783  27.772  1.00  0.00    -0.237 OA
ATOM     70  O   UNL A   1      46.627  36.025  26.073  1.00  0.00    -0.744 OA
ENDBRANCH  63  67
ENDBRANCH  37  60
ENDBRANCH  11  12
ENDBRANCH   4   6
ENDBRANCH   1   2
BRANCH   1  71
ATOM     71  C   UNL A   1      35.721  22.887  24.389  1.00  0.00     0.042 C 
BRANCH  71  72
ATOM     72  C   UNL A   1      34.571  24.694  23.915  1.00  0.00     0.117 C 
BRANCH  72  73
ATOM     73  N   UNL A   1      33.207  24.923  23.120  1.00  0.00    -0.354 N 
ATOM     74  C   UNL A   1      31.918  25.121  23.526  1.00  0.00     0.242 C 
ATOM     75  H   UNL A   1      33.317  24.924  22.141  1.00  0.00     0.163 HD
ATOM     76  O   UNL A   1      31.063  25.174  22.630  1.00  0.00    -0.273 OA
BRANCH  74  77
ATOM     77  C   UNL A   1      31.498  25.298  25.014  1.00  0.00     0.174 C 
BRANCH  77  78
ATOM     78  C   UNL A   1      30.598  26.534  25.335  1.00  0.00     0.072 C 
BRANCH  78  79
ATOM     79  C   UNL A   1      31.077  27.782  24.670  1.00  0.00    -0.020 A 
ATOM     80  C   UNL A   1      32.127  28.606  25.065  1.00  0.00     0.087 A 
ATOM     81  C   UNL A   1      30.259  28.509  23.776  1.00  0.00     0.003 A 
ATOM     82  N   UNL A   1      31.897  29.956  24.791  1.00  0.00    -0.361 N 
ATOM     83  C   UNL A   1      30.606  30.126  24.360  1.00  0.00     0.046 A 
ATOM     84  C   UNL A   1      28.673  28.136  22.986  1.00  0.00     0.010 A 
ATOM     85  H   UNL A   1      32.562  30.676  24.893  1.00  0.00     0.166 HD
ATOM     86  C   UNL A   1      29.334  31.409  24.253  1.00  0.00     0.026 A 
ATOM     87  C   UNL A   1      27.402  29.396  22.878  1.00  0.00     0.001 A 
ATOM     88  C   UNL A   1      27.712  31.018  23.536  1.00  0.00     0.002 A 
ENDBRANCH  78  79
ENDBRANCH  77  78
BRANCH  77  89
ATOM     89  N   UNL A   1      30.958  24.022  25.559  1.00  0.00    -0.358 N 
ATOM     90  H   UNL A   1      29.991  23.837  25.544  1.00  0.00     0.162 HD
BRANCH  89  91
ATOM     91  C   UNL A   1      31.849  23.099  26.087  1.00  0.00     0.137 A 
ATOM     92  N   UNL A   1      32.288  23.393  27.322  1.00  0.00    -0.219 NA
ATOM     93  C   UNL A   1      32.260  21.960  25.391  1.00  0.00     0.043 A 
ATOM     94  C   UNL A   1      33.087  22.485  27.894  1.00  0.00     0.224 A 
ATOM     95  C   UNL A   1      33.077  21.078  26.105  1.00  0.00     0.076 A 
ATOM     96  C   UNL A   1      31.927  21.684  24.043  1.00  0.00     0.014 A 
ATOM     97  N   UNL A   1      33.492  21.328  27.353  1.00  0.00    -0.236 NA
ATOM     98  C   UNL A   1      33.474  19.905  25.474  1.00  0.00     0.029 A 
ATOM     99  C   UNL A   1      32.333  20.505  23.435  1.00  0.00     0.001 A 
ATOM    100  C   UNL A   1      33.099  19.604  24.159  1.00  0.00     0.002 A 
ENDBRANCH  89  91
ENDBRANCH  77  89
ENDBRANCH  74  77
ENDBRANCH  72  73
ENDBRANCH  71  72
ENDBRANCH   1  71
TORSDOF 17
ENDMDL
MODEL 2
REMARK VINA RESULT:     -14.3      4.880     10.347
REMARK SMILES O=C(NCCCNC(=O)[C@@H](Cc1c[nH]c2ccccc12)Nc1ncnc2ccccc12)c1ccc(-c2c3nc(c(-c4cc(S(=O)(=O)[O-])ccc4F)c4ccc([nH]4)c(-c4cc(S(=O)(=O)[O-])ccc4F)c4nc(c(-c5cc(S(=O)(=O)[O-])ccc5F)c5ccc2[nH]5)C=C4)C=C3)cc1
REMARK SMILES IDX 4 1 3 2 1 3 2 4 32 6 33 7 94 8 34 9 93 10 35 11 36 12 37 13
REMARK SMILES IDX 87 14 38 15 92 16 86 17 88 18 39 19 91 20 85 21 84 22 40 24
REMARK SMILES IDX 72 25 52 26 71 27 53 28 56 29 70 30 89 31 54 32 55 33 69 35
REMARK SMILES IDX 90 36 57 37 41 38 42 39 50 40 43 41 49 42 51 43 48 44 44 45
REMARK SMILES IDX 45 46 46 47 47 48 73 49 74 50 82 51 75 52 81 53 83 54 80 55
REMARK SMILES IDX 76 56 77 57 78 58 79 59 58 60 59 61 67 62 60 63 66 64 68 65
REMARK SMILES IDX 65 66 61 67 62 68 63 69 64 70 5 71 6 72 7 73 8 74 9 76 10 77
REMARK SMILES IDX 11 78 12 79 13 80 20 81 14 82 15 83 19 84 16 86 18 87 17 88
REMARK SMILES IDX 21 89 22 91 23 92 31 93 24 94 26 95 30 96 25 97 27 98 29 99
REMARK SMILES IDX 28 100
REMARK H PARENT 3 5 88 23 56 34 7 75 14 85 21 90
REMARK Flexibility Score: inf
ROOT
ATOM      1  C   UNL A   1      33.049  29.431  26.022  1.00  0.00     0.118 C 
ENDROOT
BRANCH   1   2
ATOM      2  N   UNL A   1      32.646  30.740  26.585  1.00  0.00    -0.352 N 
ATOM      3  O   UNL A   1      32.887  32.781  27.513  1.00  0.00    -0.269 OA
ATOM      4  C   UNL A   1      33.376  31.689  27.247  1.00  0.00     0.251 C 
ATOM      5  H   UNL A   1      31.695  30.964  26.463  1.00  0.00     0.163 HD
BRANCH   4   6
ATOM      6  C   UNL A   1      34.700  31.309  27.740  1.00  0.00     0.039 A 
ATOM      7  C   UNL A   1      34.901  30.035  28.259  1.00  0.00     0.014 A 
ATOM      8  C   UNL A   1      35.660  32.314  27.870  1.00  0.00     0.014 A 
ATOM      9  C   UNL A   1      35.949  29.837  29.129  1.00  0.00     0.010 A 
ATOM     10  C   UNL A   1      36.819  32.043  28.582  1.00  0.00     0.010 A 
ATOM     11  C   UNL A   1      36.955  30.809  29.233  1.00  0.00    -0.014 A 
BRANCH  11  12
ATOM     12  C   UNL A   1      38.223  30.432  29.882  1.00  0.00     0.031 A 
ATOM     13  C   UNL A   1      39.197  29.518  29.211  1.00  0.00     0.074 A 
ATOM     14  C   UNL A   1      38.434  30.938  31.113  1.00  0.00     0.049 A 
ATOM     15  N   UNL A   1      40.274  28.973  29.707  1.00  0.00    -0.248 NA
ATOM     16  C   UNL A   1      38.915  29.142  27.817  1.00  0.00     0.031 C 
ATOM     17  C   UNL A   1      37.505  31.828  31.826  1.00  0.00     0.029 A 
ATOM     18  N   UNL A   1      39.480  30.804  31.977  1.00  0.00    -0.354 N 
ATOM     19  C   UNL A   1      40.785  28.161  28.703  1.00  0.00     0.074 A 
ATOM     20  C   UNL A   1      39.884  28.269  27.574  1.00  0.00     0.031 C 
ATOM     21  C   UNL A   1      38.059  32.224  32.975  1.00  0.00     0.029 A 
ATOM     22  C   UNL A   1      39.301  31.495  33.152  1.00  0.00     0.049 A 
ATOM     23  H   UNL A   1      40.281  30.268  31.780  1.00  0.00     0.167 HD
ATOM     24  C   UNL A   1      41.907  27.398  28.743  1.00  0.00     0.034 A 
ATOM     25  C   UNL A   1      40.022  31.488  34.284  1.00  0.00     0.034 A 
ATOM     26  C   UNL A   1      42.761  27.330  29.909  1.00  0.00     0.049 A 
ATOM     27  C   UNL A   1      41.234  30.608  34.308  1.00  0.00     0.074 A 
ATOM     28  C   UNL A   1      43.915  26.592  30.097  1.00  0.00     0.029 A 
ATOM     29  N   UNL A   1      42.547  28.034  31.092  1.00  0.00    -0.354 N 
ATOM     30  N   UNL A   1      41.691  29.816  33.365  1.00  0.00    -0.248 NA
ATOM     31  C   UNL A   1      42.021  30.617  35.539  1.00  0.00     0.031 C 
ATOM     32  C   UNL A   1      44.363  26.804  31.406  1.00  0.00     0.029 A 
ATOM     33  C   UNL A   1      43.538  27.736  32.015  1.00  0.00     0.049 A 
ATOM     34  H   UNL A   1      41.799  28.654  31.251  1.00  0.00     0.167 HD
ATOM     35  C   UNL A   1      42.837  29.236  33.887  1.00  0.00     0.074 A 
ATOM     36  C   UNL A   1      43.013  29.804  35.213  1.00  0.00     0.031 C 
ATOM     37  C   UNL A   1      43.665  28.313  33.334  1.00  0.00     0.034 A 
BRANCH  24  38
ATOM     38  C   UNL A   1      42.231  26.557  27.531  1.00  0.00     0.023 A 
ATOM     39  C   UNL A   1      41.810  25.220  27.420  1.00  0.00     0.031 A 
ATOM     40  C   UNL A   1      42.996  27.088  26.476  1.00  0.00     0.131 A 
ATOM     41  C   UNL A   1      42.212  24.442  26.321  1.00  0.00     0.055 A 
ATOM     42  C   UNL A   1      43.324  26.334  25.346  1.00  0.00     0.041 A 
ATOM     43  F   UNL A   1      43.454  28.349  26.530  1.00  0.00    -0.206 F 
ATOM     44  C   UNL A   1      42.943  24.998  25.269  1.00  0.00     0.022 A 
BRANCH  41  45
ATOM     45  S   UNL A   1      41.881  22.659  26.351  1.00  0.00     0.124 S 
ATOM     46  O   UNL A   1      42.536  22.259  27.595  1.00  0.00    -0.237 OA
ATOM     47  O   UNL A   1      40.424  22.605  26.351  1.00  0.00    -0.237 OA
ATOM     48  O   UNL A   1      42.524  22.169  25.134  1.00  0.00    -0.744 OA
ENDBRANCH  41  45
ENDBRANCH  24  38
BRANCH  25  49
ATOM     49  C   UNL A   1      39.578  32.278  35.463  1.00  0.00     0.023 A 
ATOM     50  C   UNL A   1      38.822  31.684  36.480  1.00  0.00     0.031 A 
ATOM     51  C   UNL A   1      39.909  33.642  35.597  1.00  0.00     0.131 A 
ATOM     52  C   UNL A   1      38.381  32.459  37.563  1.00  0.00     0.055 A 
ATOM     53  C   UNL A   1      39.531  34.388  36.712  1.00  0.00     0.041 A 
ATOM     54  F   UNL A   1      40.642  34.261  34.657  1.00  0.00    -0.206 F 
ATOM     55  C   UNL A   1      38.746  33.800  37.697  1.00  0.00     0.022 A 
BRANCH  52  56
ATOM     56  S   UNL A   1      37.228  31.707  38.742  1.00  0.00     0.124 S 
ATOM     57  O   UNL A   1      37.998  31.750  39.980  1.00  0.00    -0.237 OA
ATOM     58  O   UNL A   1      36.087  32.613  38.666  1.00  0.00    -0.237 OA
ATOM     59  O   UNL A   1      37.003  30.372  38.192  1.00  0.00    -0.744 OA
ENDBRANCH  52  56
ENDBRANCH  25  49
BRANCH  37  60
ATOM     60  C   UNL A   1      44.851  27.917  34.173  1.00  0.00     0.023 A 
ATOM     61  C   UNL A   1      44.791  26.824  35.054  1.00  0.00     0.031 A 
ATOM     62  C   UNL A   1      46.029  28.680  34.133  1.00  0.00     0.131 A 
ATOM     63  C   UNL A   1      45.862  26.575  35.922  1.00  0.00     0.055 A 
ATOM     64  C   UNL A   1      47.121  28.380  34.946  1.00  0.00     0.041 A 
ATOM     65  F   UNL A   1      46.131  29.739  33.313  1.00  0.00    -0.206 F 
ATOM     66  C   UNL A   1      47.034  27.334  35.860  1.00  0.00     0.022 A 
BRANCH  63  67
ATOM     67  S   UNL A   1      45.648  25.330  37.221  1.00  0.00     0.124 S 
ATOM     68  O   UNL A   1      45.700  24.087  36.458  1.00  0.00    -0.237 OA
ATOM     69  O   UNL A   1      46.788  25.590  38.094  1.00  0.00    -0.237 OA
ATOM     70  O   UNL A   1      44.343  25.654  37.793  1.00  0.00    -0.744 OA
ENDBRANCH  63  67
ENDBRANCH  37  60
ENDBRANCH  11  12
ENDBRANCH   4   6
ENDBRANCH   1   2
BRANCH   1  71
ATOM     71  C   UNL A   1      32.279  28.005  26.529  1.00  0.00     0.042 C 
BRANCH  71  72
ATOM     72  C   UNL A   1      32.673  25.857  26.320  1.00  0.00     0.117 C 
BRANCH  72  73
ATOM     73  N   UNL A   1      31.788  24.650  25.769  1.00  0.00    -0.354 N 
ATOM     74  C   UNL A   1      31.829  23.919  24.615  1.00  0.00     0.242 C 
ATOM     75  H   UNL A   1      31.070  24.375  26.385  1.00  0.00     0.163 HD
ATOM     76  O   UNL A   1      30.917  23.095  24.456  1.00  0.00    -0.273 OA
BRANCH  74  77
ATOM     77  C   UNL A   1      32.947  24.061  23.541  1.00  0.00     0.174 C 
BRANCH  77  78
ATOM     78  C   UNL A   1      33.660  22.740  23.111  1.00  0.00     0.072 C 
BRANCH  78  79
ATOM     79  C   UNL A   1      33.866  21.799  24.251  1.00  0.00    -0.020 A 
ATOM     80  C   UNL A   1      34.843  21.865  25.242  1.00  0.00     0.087 A 
ATOM     81  C   UNL A   1      33.342  20.487  24.237  1.00  0.00     0.003 A 
ATOM     82  N   UNL A   1      35.279  20.608  25.666  1.00  0.00    -0.361 N 
ATOM     83  C   UNL A   1      34.746  19.637  24.857  1.00  0.00     0.046 A 
ATOM     84  C   UNL A   1      32.166  19.648  23.145  1.00  0.00     0.010 A 
ATOM     85  H   UNL A   1      35.879  20.445  26.430  1.00  0.00     0.166 HD
ATOM     86  C   UNL A   1      35.069  17.937  24.328  1.00  0.00     0.026 A 
ATOM     87  C   UNL A   1      32.476  17.966  22.609  1.00  0.00     0.001 A 
ATOM     88  C   UNL A   1      33.936  17.118  23.168  1.00  0.00     0.002 A 
ENDBRANCH  78  79
ENDBRANCH  77  78
BRANCH  77  89
ATOM     89  N   UNL A   1      32.463  24.870  22.389  1.00  0.00    -0.358 N 
ATOM     90  H   UNL A   1      32.080  24.435  21.593  1.00  0.00     0.162 HD
BRANCH  89  91
ATOM     91  C   UNL A   1      32.566  26.252  22.462  1.00  0.00     0.137 A 
ATOM     92  N   UNL A   1      33.796  26.732  22.218  1.00  0.00    -0.219 NA
ATOM     93  C   UNL A   1      31.480  27.075  22.768  1.00  0.00     0.043 A 
ATOM     94  C   UNL A   1      33.914  28.065  22.202  1.00  0.00     0.224 A 
ATOM     95  C   UNL A   1      31.726  28.449  22.697  1.00  0.00     0.076 A 
ATOM     96  C   UNL A   1      30.205  26.603  23.161  1.00  0.00     0.014 A 
ATOM     97  N   UNL A   1      32.934  28.953  22.412  1.00  0.00    -0.236 NA
ATOM     98  C   UNL A   1      30.666  29.313  22.945  1.00  0.00     0.029 A 
ATOM     99  C   UNL A   1      29.160  27.484  23.403  1.00  0.00     0.001 A 
ATOM    100  C   UNL A   1      29.389  28.847  23.280  1.00  0.00     0.002 A 
ENDBRANCH  89  91
ENDBRANCH  77  89
ENDBRANCH  74  77
ENDBRANCH  72  73
ENDBRANCH  71  72
ENDBRANCH   1  71
TORSDOF 17
ENDMDL
MODEL 3
REMARK VINA RESULT:     -14.3      4.830     10.288
REMARK SMILES O=C(NCCCNC(=O)[C@@H](Cc1c[nH]c2ccccc12)Nc1ncnc2ccccc12)c1ccc(-c2c3nc(c(-c4cc(S(=O)(=O)[O-])ccc4F)c4ccc([nH]4)c(-c4cc(S(=O)(=O)[O-])ccc4F)c4nc(c(-c5cc(S(=O)(=O)[O-])ccc5F)c5ccc2[nH]5)C=C4)C=C3)cc1
REMARK SMILES IDX 4 1 3 2 1 3 2 4 32 6 33 7 94 8 34 9 93 10 35 11 36 12 37 13
REMARK SMILES IDX 87 14 38 15 92 16 86 17 88 18 39 19 91 20 85 21 84 22 40 24
REMARK SMILES IDX 72 25 52 26 71 27 53 28 56 29 70 30 89 31 54 32 55 33 69 35
REMARK SMILES IDX 90 36 57 37 41 38 42 39 50 40 43 41 49 42 51 43 48 44 44 45
REMARK SMILES IDX 45 46 46 47 47 48 73 49 74 50 82 51 75 52 81 53 83 54 80 55
REMARK SMILES IDX 76 56 77 57 78 58 79 59 58 60 59 61 67 62 60 63 66 64 68 65
REMARK SMILES IDX 65 66 61 67 62 68 63 69 64 70 5 71 6 72 7 73 8 74 9 76 10 77
REMARK SMILES IDX 11 78 12 79 13 80 20 81 14 82 15 83 19 84 16 86 18 87 17 88
REMARK SMILES IDX 21 89 22 91 23 92 31 93 24 94 26 95 30 96 25 97 27 98 29 99
REMARK SMILES IDX 28 100
REMARK H PARENT 3 5 88 23 56 34 7 75 14 85 21 90
REMARK Flexibility Score: inf
ROOT
ATOM      1  C   UNL A   1      33.042  29.697  25.867  1.00  0.00     0.118 C 
ENDROOT
BRANCH   1   2
ATOM      2  N   UNL A   1      32.611  30.967  26.495  1.00  0.00    -0.352 N 
ATOM      3  O   UNL A   1      32.806  32.951  27.549  1.00  0.00    -0.269 OA
ATOM      4  C   UNL A   1      33.313  31.880  27.233  1.00  0.00     0.251 C 
ATOM      5  H   UNL A   1      31.662  31.191  26.360  1.00  0.00     0.163 HD
BRANCH   4   6
ATOM      6  C   UNL A   1      34.627  31.483  27.740  1.00  0.00     0.039 A 
ATOM      7  C   UNL A   1      34.817  30.190  28.217  1.00  0.00     0.014 A 
ATOM      8  C   UNL A   1      35.584  32.481  27.925  1.00  0.00     0.014 A 
ATOM      9  C   UNL A   1      35.846  29.962  29.102  1.00  0.00     0.010 A 
ATOM     10  C   UNL A   1      36.728  32.184  28.651  1.00  0.00     0.010 A 
ATOM     11  C   UNL A   1      36.850  30.929  29.260  1.00  0.00    -0.014 A 
BRANCH  11  12
ATOM     12  C   UNL A   1      38.104  30.528  29.922  1.00  0.00     0.031 A 
ATOM     13  C   UNL A   1      39.076  29.610  29.254  1.00  0.00     0.074 A 
ATOM     14  C   UNL A   1      38.305  31.017  31.162  1.00  0.00     0.049 A 
ATOM     15  N   UNL A   1      40.138  29.045  29.757  1.00  0.00    -0.248 NA
ATOM     16  C   UNL A   1      38.808  29.253  27.852  1.00  0.00     0.031 C 
ATOM     17  C   UNL A   1      37.378  31.911  31.873  1.00  0.00     0.029 A 
ATOM     18  N   UNL A   1      39.337  30.860  32.038  1.00  0.00    -0.354 N 
ATOM     19  C   UNL A   1      40.653  28.237  28.751  1.00  0.00     0.074 A 
ATOM     20  C   UNL A   1      39.769  28.370  27.612  1.00  0.00     0.031 C 
ATOM     21  C   UNL A   1      37.921  32.287  33.033  1.00  0.00     0.029 A 
ATOM     22  C   UNL A   1      39.151  31.540  33.218  1.00  0.00     0.049 A 
ATOM     23  H   UNL A   1      40.134  30.316  31.846  1.00  0.00     0.167 HD
ATOM     24  C   UNL A   1      41.765  27.460  28.798  1.00  0.00     0.034 A 
ATOM     25  C   UNL A   1      39.856  31.510  34.360  1.00  0.00     0.034 A 
ATOM     26  C   UNL A   1      42.602  27.368  29.974  1.00  0.00     0.049 A 
ATOM     27  C   UNL A   1      41.057  30.615  34.390  1.00  0.00     0.074 A 
ATOM     28  C   UNL A   1      43.744  26.613  30.169  1.00  0.00     0.029 A 
ATOM     29  N   UNL A   1      42.381  28.061  31.163  1.00  0.00    -0.354 N 
ATOM     30  N   UNL A   1      41.517  29.828  33.444  1.00  0.00    -0.248 NA
ATOM     31  C   UNL A   1      41.827  30.600  35.632  1.00  0.00     0.031 C 
ATOM     32  C   UNL A   1      44.177  26.805  31.486  1.00  0.00     0.029 A 
ATOM     33  C   UNL A   1      43.355  27.740  32.095  1.00  0.00     0.049 A 
ATOM     34  H   UNL A   1      41.638  28.689  31.318  1.00  0.00     0.167 HD
ATOM     35  C   UNL A   1      42.648  29.227  33.975  1.00  0.00     0.074 A 
ATOM     36  C   UNL A   1      42.813  29.778  35.310  1.00  0.00     0.031 C 
ATOM     37  C   UNL A   1      43.472  28.301  33.422  1.00  0.00     0.034 A 
BRANCH  24  38
ATOM     38  C   UNL A   1      42.094  26.629  27.580  1.00  0.00     0.023 A 
ATOM     39  C   UNL A   1      41.703  25.282  27.472  1.00  0.00     0.031 A 
ATOM     40  C   UNL A   1      42.835  27.179  26.518  1.00  0.00     0.131 A 
ATOM     41  C   UNL A   1      42.111  24.516  26.367  1.00  0.00     0.055 A 
ATOM     42  C   UNL A   1      43.168  26.435  25.383  1.00  0.00     0.041 A 
ATOM     43  F   UNL A   1      43.264  28.450  26.570  1.00  0.00    -0.206 F 
ATOM     44  C   UNL A   1      42.817  25.091  25.308  1.00  0.00     0.022 A 
BRANCH  41  45
ATOM     45  S   UNL A   1      41.822  22.725  26.397  1.00  0.00     0.124 S 
ATOM     46  O   UNL A   1      42.535  22.292  25.197  1.00  0.00    -0.237 OA
ATOM     47  O   UNL A   1      42.415  22.329  27.669  1.00  0.00    -0.237 OA
ATOM     48  O   UNL A   1      40.367  22.610  26.322  1.00  0.00    -0.744 OA
ENDBRANCH  41  45
ENDBRANCH  24  38
BRANCH  25  49
ATOM     49  C   UNL A   1      39.406  32.293  35.541  1.00  0.00     0.023 A 
ATOM     50  C   UNL A   1      39.800  33.626  35.710  1.00  0.00     0.031 A 
ATOM     51  C   UNL A   1      38.566  31.725  36.520  1.00  0.00     0.131 A 
ATOM     52  C   UNL A   1      39.396  34.333  36.851  1.00  0.00     0.055 A 
ATOM     53  C   UNL A   1      38.107  32.455  37.615  1.00  0.00     0.041 A 
ATOM     54  F   UNL A   1      38.148  30.454  36.404  1.00  0.00    -0.206 F 
ATOM     55  C   UNL A   1      38.537  33.765  37.795  1.00  0.00     0.022 A 
BRANCH  52  56
ATOM     56  S   UNL A   1      40.103  35.977  37.137  1.00  0.00     0.124 S 
ATOM     57  O   UNL A   1      39.769  36.664  35.895  1.00  0.00    -0.237 OA
ATOM     58  O   UNL A   1      39.378  36.413  38.326  1.00  0.00    -0.237 OA
ATOM     59  O   UNL A   1      41.524  35.704  37.338  1.00  0.00    -0.744 OA
ENDBRANCH  52  56
ENDBRANCH  25  49
BRANCH  37  60
ATOM     60  C   UNL A   1      44.641  27.879  34.272  1.00  0.00     0.023 A 
ATOM     61  C   UNL A   1      44.551  26.785  35.150  1.00  0.00     0.031 A 
ATOM     62  C   UNL A   1      45.834  28.620  34.247  1.00  0.00     0.131 A 
ATOM     63  C   UNL A   1      45.608  26.514  36.028  1.00  0.00     0.055 A 
ATOM     64  C   UNL A   1      46.911  28.297  35.070  1.00  0.00     0.041 A 
ATOM     65  F   UNL A   1      45.965  29.679  33.430  1.00  0.00    -0.206 F 
ATOM     66  C   UNL A   1      46.795  27.251  35.980  1.00  0.00     0.022 A 
BRANCH  63  67
ATOM     67  S   UNL A   1      45.356  25.270  37.322  1.00  0.00     0.124 S 
ATOM     68  O   UNL A   1      44.543  26.002  38.288  1.00  0.00    -0.237 OA
ATOM     69  O   UNL A   1      44.678  24.200  36.599  1.00  0.00    -0.237 OA
ATOM     70  O   UNL A   1      46.713  24.957  37.763  1.00  0.00    -0.744 OA
ENDBRANCH  63  67
ENDBRANCH  37  60
ENDBRANCH  11  12
ENDBRANCH   4   6
ENDBRANCH   1   2
BRANCH   1  71
ATOM     71  C   UNL A   1      32.203  28.255  26.182  1.00  0.00     0.042 C 
BRANCH  71  72
ATOM     72  C   UNL A   1      32.704  26.120  26.163  1.00  0.00     0.117 C 
BRANCH  72  73
ATOM     73  N   UNL A   1      31.855  24.819  25.796  1.00  0.00    -0.354 N 
ATOM     74  C   UNL A   1      31.864  23.978  24.720  1.00  0.00     0.242 C 
ATOM     75  H   UNL A   1      31.195  24.573  26.484  1.00  0.00     0.163 HD
ATOM     76  O   UNL A   1      30.992  23.097  24.705  1.00  0.00    -0.273 OA
BRANCH  74  77
ATOM     77  C   UNL A   1      32.901  24.066  23.562  1.00  0.00     0.174 C 
BRANCH  77  78
ATOM     78  C   UNL A   1      33.556  22.718  23.120  1.00  0.00     0.072 C 
BRANCH  78  79
ATOM     79  C   UNL A   1      33.797  21.792  24.266  1.00  0.00    -0.020 A 
ATOM     80  C   UNL A   1      34.782  21.890  25.245  1.00  0.00     0.087 A 
ATOM     81  C   UNL A   1      33.305  20.468  24.267  1.00  0.00     0.003 A 
ATOM     82  N   UNL A   1      35.253  20.648  25.675  1.00  0.00    -0.361 N 
ATOM     83  C   UNL A   1      34.736  19.658  24.879  1.00  0.00     0.046 A 
ATOM     84  C   UNL A   1      32.139  19.591  23.195  1.00  0.00     0.010 A 
ATOM     85  H   UNL A   1      35.865  20.506  26.434  1.00  0.00     0.166 HD
ATOM     86  C   UNL A   1      35.096  17.961  24.361  1.00  0.00     0.026 A 
ATOM     87  C   UNL A   1      32.485  17.913  22.668  1.00  0.00     0.001 A 
ATOM     88  C   UNL A   1      33.971  17.106  23.218  1.00  0.00     0.002 A 
ENDBRANCH  78  79
ENDBRANCH  77  78
BRANCH  77  89
ATOM     89  N   UNL A   1      32.348  24.851  22.425  1.00  0.00    -0.358 N 
ATOM     90  H   UNL A   1      31.910  24.400  21.667  1.00  0.00     0.162 HD
BRANCH  89  91
ATOM     91  C   UNL A   1      32.465  26.233  22.457  1.00  0.00     0.137 A 
ATOM     92  N   UNL A   1      33.701  26.694  22.204  1.00  0.00    -0.219 NA
ATOM     93  C   UNL A   1      31.387  27.077  22.735  1.00  0.00     0.043 A 
ATOM     94  C   UNL A   1      33.833  28.024  22.149  1.00  0.00     0.224 A 
ATOM     95  C   UNL A   1      31.648  28.446  22.625  1.00  0.00     0.076 A 
ATOM     96  C   UNL A   1      30.106  26.630  23.137  1.00  0.00     0.014 A 
ATOM     97  N   UNL A   1      32.861  28.928  22.329  1.00  0.00    -0.236 NA
ATOM     98  C   UNL A   1      30.595  29.327  22.842  1.00  0.00     0.029 A 
ATOM     99  C   UNL A   1      29.070  27.529  23.348  1.00  0.00     0.001 A 
ATOM    100  C   UNL A   1      29.313  28.884  23.186  1.00  0.00     0.002 A 
ENDBRANCH  89  91
ENDBRANCH  77  89
ENDBRANCH  74  77
ENDBRANCH  72  73
ENDBRANCH  71  72
ENDBRANCH   1  71
TORSDOF 17
ENDMDL
