MODEL 1
REMARK VINA RESULT:     -13.6      0.000      0.000
REMARK SMILES Cc1cccc(-c2c(C(=O)NCCCNC(=O)c3ccc(-c4c5nc(c(-c6cc(S(=O)(=O)[O-])ccc6F)c6ccc([nH]6)c(-c6cc(S(=O)(=O)[O-])ccc6F)c6nc(c(-c7cc(S(=O)(=O)[O-])ccc7F)c7ccc4[nH]7)C=C6)C=C5)cc3)nnn2Cc2cc(F)cc(F)c2)c1
REMARK SMILES IDX 13 1 12 2 11 3 9 4 10 5 8 7 7 8 83 9 81 10 82 11 6 12 1 13
REMARK SMILES IDX 2 14 3 15 93 16 4 17 5 18 84 19 85 20 86 21 92 22 87 23
REMARK SMILES IDX 90 24 88 25 89 26 91 27 14 28 15 29 16 30 17 32 18 33 19 34
REMARK SMILES IDX 80 35 20 36 79 37 21 38 22 39 23 40 73 41 24 42 78 43 72 44
REMARK SMILES IDX 74 45 25 46 77 47 71 48 70 49 26 51 58 52 38 53 57 54 39 55
REMARK SMILES IDX 42 56 56 57 75 58 40 59 41 60 55 62 76 63 43 64 27 65 28 66
REMARK SMILES IDX 36 67 29 68 35 69 37 70 34 71 30 72 31 73 32 74 33 75 59 76
REMARK SMILES IDX 60 77 68 78 61 79 67 80 69 81 66 82 62 83 63 84 64 85 65 86
REMARK SMILES IDX 44 87 45 88 53 89 46 90 52 91 54 92 51 93 47 94 48 95 49 96
REMARK SMILES IDX 50 97
REMARK H PARENT 11 6 15 31 74 50 42 61
REMARK Flexibility Score: inf
ROOT
ATOM      1  C   UNL A   1      32.996  31.094  27.248  1.00  0.00     0.042 C 
ENDROOT
BRANCH   1   2
ATOM      2  C   UNL A   1      32.225  30.282  26.219  1.00  0.00     0.118 C 
BRANCH   2   3
ATOM      3  N   UNL A   1      33.128  29.758  25.214  1.00  0.00    -0.351 N 
ATOM      4  C   UNL A   1      33.289  28.563  24.572  1.00  0.00     0.274 C 
ATOM      5  O   UNL A   1      34.242  28.554  23.780  1.00  0.00    -0.267 OA
ATOM      6  H   UNL A   1      33.788  30.428  24.922  1.00  0.00     0.163 HD
BRANCH   4   7
ATOM      7  C   UNL A   1      32.459  27.356  24.708  1.00  0.00     0.178 A 
ATOM      8  C   UNL A   1      32.605  25.967  24.604  1.00  0.00     0.102 A 
ATOM      9  N   UNL A   1      31.330  25.493  24.874  1.00  0.00    -0.239 N 
ATOM     10  N   UNL A   1      31.111  27.610  24.971  1.00  0.00    -0.124 NA
ATOM     11  N   UNL A   1      30.449  26.478  25.062  1.00  0.00    -0.066 NA
BRANCH   8  12
ATOM     12  C   UNL A   1      33.678  25.024  24.311  1.00  0.00     0.003 A 
ATOM     13  C   UNL A   1      36.850  23.659  25.951  1.00  0.00     0.044 C 
ATOM     14  C   UNL A   1      35.780  23.949  24.940  1.00  0.00    -0.050 A 
ATOM     15  C   UNL A   1      35.798  23.284  23.707  1.00  0.00     0.003 A 
ATOM     16  C   UNL A   1      34.714  24.815  25.237  1.00  0.00     0.013 A 
ATOM     17  C   UNL A   1      34.790  23.506  22.771  1.00  0.00     0.001 A 
ATOM     18  C   UNL A   1      33.747  24.386  23.064  1.00  0.00     0.010 A 
ENDBRANCH   8  12
BRANCH   9  19
ATOM     19  C   UNL A   1      30.841  24.121  24.934  1.00  0.00     0.182 C 
BRANCH  19  20
ATOM     20  C   UNL A   1      31.745  23.164  25.677  1.00  0.00    -0.021 A 
ATOM     21  C   UNL A   1      32.248  22.041  24.999  1.00  0.00     0.045 A 
ATOM     22  C   UNL A   1      32.102  23.340  27.024  1.00  0.00     0.045 A 
ATOM     23  C   UNL A   1      33.137  21.175  25.635  1.00  0.00     0.126 A 
ATOM     24  C   UNL A   1      33.016  22.478  27.627  1.00  0.00     0.126 A 
ATOM     25  F   UNL A   1      33.606  20.114  24.966  1.00  0.00    -0.207 F 
ATOM     26  C   UNL A   1      33.544  21.397  26.940  1.00  0.00     0.078 A 
ATOM     27  F   UNL A   1      33.402  22.711  28.888  1.00  0.00    -0.207 F 
ENDBRANCH  19  20
ENDBRANCH   9  19
ENDBRANCH   4   7
ENDBRANCH   2   3
ENDBRANCH   1   2
BRANCH   1  28
ATOM     28  C   UNL A   1      34.353  30.532  27.617  1.00  0.00     0.118 C 
BRANCH  28  29
ATOM     29  N   UNL A   1      35.232  31.488  28.297  1.00  0.00    -0.352 N 
ATOM     30  C   UNL A   1      36.451  31.234  28.911  1.00  0.00     0.251 C 
ATOM     31  H   UNL A   1      34.920  32.422  28.322  1.00  0.00     0.163 HD
ATOM     32  O   UNL A   1      37.085  32.098  29.493  1.00  0.00    -0.269 OA
BRANCH  30  33
ATOM     33  C   UNL A   1      37.002  29.869  28.759  1.00  0.00     0.039 A 
ATOM     34  C   UNL A   1      37.180  29.120  29.926  1.00  0.00     0.014 A 
ATOM     35  C   UNL A   1      37.682  29.557  27.587  1.00  0.00     0.014 A 
ATOM     36  C   UNL A   1      38.243  28.226  29.990  1.00  0.00     0.010 A 
ATOM     37  C   UNL A   1      38.817  28.781  27.701  1.00  0.00     0.010 A 
ATOM     38  C   UNL A   1      39.137  28.168  28.922  1.00  0.00    -0.014 A 
BRANCH  38  39
ATOM     39  C   UNL A   1      40.495  27.638  29.042  1.00  0.00     0.031 A 
ATOM     40  C   UNL A   1      40.782  26.232  28.685  1.00  0.00     0.074 A 
ATOM     41  C   UNL A   1      41.517  28.454  29.390  1.00  0.00     0.049 A 
ATOM     42  N   UNL A   1      41.845  25.591  29.033  1.00  0.00    -0.248 NA
ATOM     43  C   UNL A   1      39.831  25.395  27.964  1.00  0.00     0.031 C 
ATOM     44  C   UNL A   1      42.948  28.192  29.248  1.00  0.00     0.029 A 
ATOM     45  N   UNL A   1      41.453  29.593  30.192  1.00  0.00    -0.354 N 
ATOM     46  C   UNL A   1      41.876  24.409  28.330  1.00  0.00     0.074 A 
ATOM     47  C   UNL A   1      40.550  24.285  27.784  1.00  0.00     0.031 C 
ATOM     48  C   UNL A   1      43.619  28.950  30.127  1.00  0.00     0.029 A 
ATOM     49  C   UNL A   1      42.636  29.621  30.957  1.00  0.00     0.049 A 
ATOM     50  H   UNL A   1      40.722  30.251  30.220  1.00  0.00     0.167 HD
ATOM     51  C   UNL A   1      43.070  23.768  28.181  1.00  0.00     0.034 A 
ATOM     52  C   UNL A   1      42.599  29.579  32.320  1.00  0.00     0.034 A 
ATOM     53  C   UNL A   1      44.083  24.323  29.092  1.00  0.00     0.049 A 
ATOM     54  C   UNL A   1      43.314  28.384  32.913  1.00  0.00     0.074 A 
ATOM     55  C   UNL A   1      45.202  25.119  28.915  1.00  0.00     0.029 A 
ATOM     56  N   UNL A   1      43.851  24.281  30.466  1.00  0.00    -0.354 N 
ATOM     57  N   UNL A   1      43.689  27.338  32.228  1.00  0.00    -0.248 NA
ATOM     58  C   UNL A   1      43.647  28.266  34.328  1.00  0.00     0.031 C 
ATOM     59  C   UNL A   1      45.603  25.606  30.191  1.00  0.00     0.029 A 
ATOM     60  C   UNL A   1      44.749  25.081  31.146  1.00  0.00     0.049 A 
ATOM     61  H   UNL A   1      43.142  23.750  30.895  1.00  0.00     0.167 HD
ATOM     62  C   UNL A   1      44.263  26.413  33.064  1.00  0.00     0.074 A 
ATOM     63  C   UNL A   1      44.239  27.060  34.365  1.00  0.00     0.031 C 
ATOM     64  C   UNL A   1      44.688  25.194  32.603  1.00  0.00     0.034 A 
BRANCH  51  65
ATOM     65  C   UNL A   1      43.414  22.830  27.026  1.00  0.00     0.023 A 
ATOM     66  C   UNL A   1      42.842  21.537  27.007  1.00  0.00     0.031 A 
ATOM     67  C   UNL A   1      44.346  23.068  25.993  1.00  0.00     0.131 A 
ATOM     68  C   UNL A   1      43.251  20.554  26.079  1.00  0.00     0.055 A 
ATOM     69  C   UNL A   1      44.764  22.091  25.081  1.00  0.00     0.041 A 
ATOM     70  F   UNL A   1      44.896  24.263  25.775  1.00  0.00    -0.206 F 
ATOM     71  C   UNL A   1      44.228  20.820  25.127  1.00  0.00     0.022 A 
BRANCH  68  72
ATOM     72  S   UNL A   1      42.507  18.902  26.142  1.00  0.00     0.124 S 
ATOM     73  O   UNL A   1      42.658  18.550  27.550  1.00  0.00    -0.237 OA
ATOM     74  O   UNL A   1      41.147  19.156  25.678  1.00  0.00    -0.237 OA
ATOM     75  O   UNL A   1      43.334  18.123  25.220  1.00  0.00    -0.744 OA
ENDBRANCH  68  72
ENDBRANCH  51  65
BRANCH  52  76
ATOM     76  C   UNL A   1      41.403  30.265  32.886  1.00  0.00     0.023 A 
ATOM     77  C   UNL A   1      41.436  31.677  32.908  1.00  0.00     0.031 A 
ATOM     78  C   UNL A   1      40.154  29.638  32.982  1.00  0.00     0.131 A 
ATOM     79  C   UNL A   1      40.248  32.413  32.823  1.00  0.00     0.055 A 
ATOM     80  C   UNL A   1      38.967  30.384  32.988  1.00  0.00     0.041 A 
ATOM     81  F   UNL A   1      40.054  28.302  32.930  1.00  0.00    -0.206 F 
ATOM     82  C   UNL A   1      39.008  31.775  32.861  1.00  0.00     0.022 A 
BRANCH  79  83
ATOM     83  S   UNL A   1      40.374  34.169  32.371  1.00  0.00     0.124 S 
ATOM     84  O   UNL A   1      39.041  34.447  31.849  1.00  0.00    -0.237 OA
ATOM     85  O   UNL A   1      40.705  34.796  33.651  1.00  0.00    -0.237 OA
ATOM     86  O   UNL A   1      41.454  34.198  31.388  1.00  0.00    -0.744 OA
ENDBRANCH  79  83
ENDBRANCH  52  76
BRANCH  64  87
ATOM     87  C   UNL A   1      45.149  24.015  33.449  1.00  0.00     0.023 A 
ATOM     88  C   UNL A   1      46.455  23.858  33.938  1.00  0.00     0.031 A 
ATOM     89  C   UNL A   1      44.234  23.009  33.857  1.00  0.00     0.131 A 
ATOM     90  C   UNL A   1      46.827  22.736  34.707  1.00  0.00     0.055 A 
ATOM     91  C   UNL A   1      44.586  21.934  34.682  1.00  0.00     0.041 A 
ATOM     92  F   UNL A   1      42.946  23.027  33.484  1.00  0.00    -0.206 F 
ATOM     93  C   UNL A   1      45.895  21.782  35.101  1.00  0.00     0.022 A 
BRANCH  90  94
ATOM     94  S   UNL A   1      48.577  22.526  35.134  1.00  0.00     0.124 S 
ATOM     95  O   UNL A   1      48.597  22.935  36.535  1.00  0.00    -0.237 OA
ATOM     96  O   UNL A   1      48.791  21.103  34.886  1.00  0.00    -0.237 OA
ATOM     97  O   UNL A   1      49.268  23.428  34.214  1.00  0.00    -0.744 OA
ENDBRANCH  90  94
ENDBRANCH  64  87
ENDBRANCH  38  39
ENDBRANCH  30  33
ENDBRANCH  28  29
ENDBRANCH   1  28
TORSDOF 16
ENDMDL
MODEL 2
REMARK VINA RESULT:     -13.2      1.364      1.831
REMARK SMILES Cc1cccc(-c2c(C(=O)NCCCNC(=O)c3ccc(-c4c5nc(c(-c6cc(S(=O)(=O)[O-])ccc6F)c6ccc([nH]6)c(-c6cc(S(=O)(=O)[O-])ccc6F)c6nc(c(-c7cc(S(=O)(=O)[O-])ccc7F)c7ccc4[nH]7)C=C6)C=C5)cc3)nnn2Cc2cc(F)cc(F)c2)c1
REMARK SMILES IDX 13 1 12 2 11 3 9 4 10 5 8 7 7 8 83 9 81 10 82 11 6 12 1 13
REMARK SMILES IDX 2 14 3 15 93 16 4 17 5 18 84 19 85 20 86 21 92 22 87 23
REMARK SMILES IDX 90 24 88 25 89 26 91 27 14 28 15 29 16 30 17 32 18 33 19 34
REMARK SMILES IDX 80 35 20 36 79 37 21 38 22 39 23 40 73 41 24 42 78 43 72 44
REMARK SMILES IDX 74 45 25 46 77 47 71 48 70 49 26 51 58 52 38 53 57 54 39 55
REMARK SMILES IDX 42 56 56 57 75 58 40 59 41 60 55 62 76 63 43 64 27 65 28 66
REMARK SMILES IDX 36 67 29 68 35 69 37 70 34 71 30 72 31 73 32 74 33 75 59 76
REMARK SMILES IDX 60 77 68 78 61 79 67 80 69 81 66 82 62 83 63 84 64 85 65 86
REMARK SMILES IDX 44 87 45 88 53 89 46 90 52 91 54 92 51 93 47 94 48 95 49 96
REMARK SMILES IDX 50 97
REMARK H PARENT 11 6 15 31 74 50 42 61
REMARK Flexibility Score: inf
ROOT
ATOM      1  C   UNL A   1      33.359  29.559  27.571  1.00  0.00     0.042 C 
ENDROOT
BRANCH   1   2
ATOM      2  C   UNL A   1      32.268  29.183  26.581  1.00  0.00     0.118 C 
BRANCH   2   3
ATOM      3  N   UNL A   1      32.853  28.666  25.360  1.00  0.00    -0.351 N 
ATOM      4  C   UNL A   1      33.159  27.429  24.871  1.00  0.00     0.274 C 
ATOM      5  O   UNL A   1      33.692  27.460  23.753  1.00  0.00    -0.267 OA
ATOM      6  H   UNL A   1      33.088  29.384  24.728  1.00  0.00     0.163 HD
BRANCH   4   7
ATOM      7  C   UNL A   1      32.900  26.127  25.506  1.00  0.00     0.178 A 
ATOM      8  C   UNL A   1      33.504  24.867  25.596  1.00  0.00     0.102 A 
ATOM      9  N   UNL A   1      32.624  24.149  26.390  1.00  0.00    -0.239 N 
ATOM     10  N   UNL A   1      31.688  26.052  26.196  1.00  0.00    -0.124 NA
ATOM     11  N   UNL A   1      31.539  24.855  26.715  1.00  0.00    -0.066 NA
BRANCH   8  12
ATOM     12  C   UNL A   1      34.715  24.224  25.098  1.00  0.00     0.003 A 
ATOM     13  C   UNL A   1      38.263  23.437  26.284  1.00  0.00     0.044 C 
ATOM     14  C   UNL A   1      37.053  23.585  25.410  1.00  0.00    -0.050 A 
ATOM     15  C   UNL A   1      37.078  23.076  24.105  1.00  0.00     0.003 A 
ATOM     16  C   UNL A   1      35.866  24.155  25.901  1.00  0.00     0.013 A 
ATOM     17  C   UNL A   1      35.950  23.165  23.291  1.00  0.00     0.001 A 
ATOM     18  C   UNL A   1      34.783  23.754  23.779  1.00  0.00     0.010 A 
ENDBRANCH   8  12
BRANCH   9  19
ATOM     19  C   UNL A   1      32.706  22.771  26.860  1.00  0.00     0.182 C 
BRANCH  19  20
ATOM     20  C   UNL A   1      32.834  21.740  25.762  1.00  0.00    -0.021 A 
ATOM     21  C   UNL A   1      32.009  21.848  24.630  1.00  0.00     0.045 A 
ATOM     22  C   UNL A   1      33.739  20.667  25.823  1.00  0.00     0.045 A 
ATOM     23  C   UNL A   1      32.148  20.953  23.570  1.00  0.00     0.126 A 
ATOM     24  C   UNL A   1      33.880  19.805  24.738  1.00  0.00     0.126 A 
ATOM     25  F   UNL A   1      31.353  21.080  22.500  1.00  0.00    -0.207 F 
ATOM     26  C   UNL A   1      33.094  19.942  23.604  1.00  0.00     0.078 A 
ATOM     27  F   UNL A   1      34.803  18.836  24.786  1.00  0.00    -0.207 F 
ENDBRANCH  19  20
ENDBRANCH   9  19
ENDBRANCH   4   7
ENDBRANCH   2   3
ENDBRANCH   1   2
BRANCH   1  28
ATOM     28  C   UNL A   1      34.538  30.296  26.970  1.00  0.00     0.118 C 
BRANCH  28  29
ATOM     29  N   UNL A   1      35.159  31.270  27.873  1.00  0.00    -0.352 N 
ATOM     30  C   UNL A   1      36.300  31.106  28.647  1.00  0.00     0.251 C 
ATOM     31  H   UNL A   1      34.713  32.146  27.938  1.00  0.00     0.163 HD
ATOM     32  O   UNL A   1      36.707  31.969  29.405  1.00  0.00    -0.269 OA
BRANCH  30  33
ATOM     33  C   UNL A   1      37.061  29.852  28.454  1.00  0.00     0.039 A 
ATOM     34  C   UNL A   1      37.147  28.983  29.546  1.00  0.00     0.014 A 
ATOM     35  C   UNL A   1      37.967  29.783  27.401  1.00  0.00     0.014 A 
ATOM     36  C   UNL A   1      38.302  28.227  29.709  1.00  0.00     0.010 A 
ATOM     37  C   UNL A   1      39.167  29.146  27.639  1.00  0.00     0.010 A 
ATOM     38  C   UNL A   1      39.362  28.422  28.825  1.00  0.00    -0.014 A 
BRANCH  38  39
ATOM     39  C   UNL A   1      40.743  28.054  29.136  1.00  0.00     0.031 A 
ATOM     40  C   UNL A   1      41.331  26.817  28.576  1.00  0.00     0.074 A 
ATOM     41  C   UNL A   1      41.524  28.887  29.862  1.00  0.00     0.049 A 
ATOM     42  N   UNL A   1      42.402  26.252  29.016  1.00  0.00    -0.248 NA
ATOM     43  C   UNL A   1      40.693  26.060  27.506  1.00  0.00     0.031 C 
ATOM     44  C   UNL A   1      42.979  28.847  29.994  1.00  0.00     0.029 A 
ATOM     45  N   UNL A   1      41.114  29.789  30.843  1.00  0.00    -0.354 N 
ATOM     46  C   UNL A   1      42.769  25.281  28.113  1.00  0.00     0.074 A 
ATOM     47  C   UNL A   1      41.613  25.122  27.271  1.00  0.00     0.031 C 
ATOM     48  C   UNL A   1      43.330  29.457  31.136  1.00  0.00     0.029 A 
ATOM     49  C   UNL A   1      42.107  29.786  31.842  1.00  0.00     0.049 A 
ATOM     50  H   UNL A   1      40.288  30.326  30.838  1.00  0.00     0.167 HD
ATOM     51  C   UNL A   1      44.062  24.847  28.109  1.00  0.00     0.034 A 
ATOM     52  C   UNL A   1      41.818  29.422  33.125  1.00  0.00     0.034 A 
ATOM     53  C   UNL A   1      44.772  25.297  29.316  1.00  0.00     0.049 A 
ATOM     54  C   UNL A   1      42.602  28.221  33.609  1.00  0.00     0.074 A 
ATOM     55  C   UNL A   1      45.750  26.246  29.559  1.00  0.00     0.029 A 
ATOM     56  N   UNL A   1      44.293  24.905  30.566  1.00  0.00    -0.354 N 
ATOM     57  N   UNL A   1      43.275  27.420  32.828  1.00  0.00    -0.248 NA
ATOM     58  C   UNL A   1      42.674  27.818  35.009  1.00  0.00     0.031 C 
ATOM     59  C   UNL A   1      45.810  26.467  30.964  1.00  0.00     0.029 A 
ATOM     60  C   UNL A   1      44.894  25.631  31.578  1.00  0.00     0.049 A 
ATOM     61  H   UNL A   1      43.618  24.204  30.709  1.00  0.00     0.167 HD
ATOM     62  C   UNL A   1      43.830  26.404  33.567  1.00  0.00     0.074 A 
ATOM     63  C   UNL A   1      43.448  26.720  34.933  1.00  0.00     0.031 C 
ATOM     64  C   UNL A   1      44.538  25.390  32.976  1.00  0.00     0.034 A 
BRANCH  51  65
ATOM     65  C   UNL A   1      44.776  24.257  26.895  1.00  0.00     0.023 A 
ATOM     66  C   UNL A   1      44.438  22.948  26.478  1.00  0.00     0.031 A 
ATOM     67  C   UNL A   1      45.842  24.839  26.176  1.00  0.00     0.131 A 
ATOM     68  C   UNL A   1      45.177  22.268  25.485  1.00  0.00     0.055 A 
ATOM     69  C   UNL A   1      46.586  24.161  25.202  1.00  0.00     0.041 A 
ATOM     70  F   UNL A   1      46.221  26.106  26.342  1.00  0.00    -0.206 F 
ATOM     71  C   UNL A   1      46.266  22.863  24.859  1.00  0.00     0.022 A 
BRANCH  68  72
ATOM     72  S   UNL A   1      44.715  20.574  25.032  1.00  0.00     0.124 S 
ATOM     73  O   UNL A   1      43.517  20.356  25.836  1.00  0.00    -0.237 OA
ATOM     74  O   UNL A   1      44.520  20.682  23.591  1.00  0.00    -0.237 OA
ATOM     75  O   UNL A   1      45.880  19.787  25.437  1.00  0.00    -0.744 OA
ENDBRANCH  68  72
ENDBRANCH  51  65
BRANCH  52  76
ATOM     76  C   UNL A   1      40.436  29.800  33.536  1.00  0.00     0.023 A 
ATOM     77  C   UNL A   1      40.228  31.155  33.877  1.00  0.00     0.031 A 
ATOM     78  C   UNL A   1      39.316  29.030  33.198  1.00  0.00     0.131 A 
ATOM     79  C   UNL A   1      38.973  31.747  33.684  1.00  0.00     0.055 A 
ATOM     80  C   UNL A   1      38.043  29.609  33.094  1.00  0.00     0.041 A 
ATOM     81  F   UNL A   1      39.454  27.748  32.831  1.00  0.00    -0.206 F 
ATOM     82  C   UNL A   1      37.875  30.982  33.291  1.00  0.00     0.022 A 
BRANCH  79  83
ATOM     83  S   UNL A   1      38.891  33.563  33.673  1.00  0.00     0.124 S 
ATOM     84  O   UNL A   1      38.133  33.828  32.455  1.00  0.00    -0.237 OA
ATOM     85  O   UNL A   1      38.201  33.850  34.931  1.00  0.00    -0.237 OA
ATOM     86  O   UNL A   1      40.291  33.975  33.645  1.00  0.00    -0.744 OA
ENDBRANCH  79  83
ENDBRANCH  52  76
BRANCH  64  87
ATOM     87  C   UNL A   1      45.026  24.113  33.647  1.00  0.00     0.023 A 
ATOM     88  C   UNL A   1      46.363  23.865  33.992  1.00  0.00     0.031 A 
ATOM     89  C   UNL A   1      44.111  23.098  34.032  1.00  0.00     0.131 A 
ATOM     90  C   UNL A   1      46.757  22.656  34.602  1.00  0.00     0.055 A 
ATOM     91  C   UNL A   1      44.492  21.930  34.704  1.00  0.00     0.041 A 
ATOM     92  F   UNL A   1      42.796  23.196  33.786  1.00  0.00    -0.206 F 
ATOM     93  C   UNL A   1      45.827  21.695  34.980  1.00  0.00     0.022 A 
BRANCH  90  94
ATOM     94  S   UNL A   1      48.528  22.348  34.838  1.00  0.00     0.124 S 
ATOM     95  O   UNL A   1      49.128  23.481  34.139  1.00  0.00    -0.237 OA
ATOM     96  O   UNL A   1      48.657  22.360  36.292  1.00  0.00    -0.237 OA
ATOM     97  O   UNL A   1      48.741  21.047  34.206  1.00  0.00    -0.744 OA
ENDBRANCH  90  94
ENDBRANCH  64  87
ENDBRANCH  38  39
ENDBRANCH  30  33
ENDBRANCH  28  29
ENDBRANCH   1  28
TORSDOF 16
ENDMDL
MODEL 3
REMARK VINA RESULT:     -13.1      2.617      3.731
REMARK SMILES Cc1cccc(-c2c(C(=O)NCCCNC(=O)c3ccc(-c4c5nc(c(-c6cc(S(=O)(=O)[O-])ccc6F)c6ccc([nH]6)c(-c6cc(S(=O)(=O)[O-])ccc6F)c6nc(c(-c7cc(S(=O)(=O)[O-])ccc7F)c7ccc4[nH]7)C=C6)C=C5)cc3)nnn2Cc2cc(F)cc(F)c2)c1
REMARK SMILES IDX 13 1 12 2 11 3 9 4 10 5 8 7 7 8 83 9 81 10 82 11 6 12 1 13
REMARK SMILES IDX 2 14 3 15 93 16 4 17 5 18 84 19 85 20 86 21 92 22 87 23
REMARK SMILES IDX 90 24 88 25 89 26 91 27 14 28 15 29 16 30 17 32 18 33 19 34
REMARK SMILES IDX 80 35 20 36 79 37 21 38 22 39 23 40 73 41 24 42 78 43 72 44
REMARK SMILES IDX 74 45 25 46 77 47 71 48 70 49 26 51 58 52 38 53 57 54 39 55
REMARK SMILES IDX 42 56 56 57 75 58 40 59 41 60 55 62 76 63 43 64 27 65 28 66
REMARK SMILES IDX 36 67 29 68 35 69 37 70 34 71 30 72 31 73 32 74 33 75 59 76
REMARK SMILES IDX 60 77 68 78 61 79 67 80 69 81 66 82 62 83 63 84 64 85 65 86
REMARK SMILES IDX 44 87 45 88 53 89 46 90 52 91 54 92 51 93 47 94 48 95 49 96
REMARK SMILES IDX 50 97
REMARK H PARENT 11 6 15 31 74 50 42 61
REMARK Flexibility Score: inf
ROOT
ATOM      1  C   UNL A   1      34.676  29.026  27.018  1.00  0.00     0.042 C 
ENDROOT
BRANCH   1   2
ATOM      2  C   UNL A   1      33.180  28.756  26.988  1.00  0.00     0.118 C 
BRANCH   2   3
ATOM      3  N   UNL A   1      32.782  28.274  25.681  1.00  0.00    -0.351 N 
ATOM      4  C   UNL A   1      32.517  27.053  25.129  1.00  0.00     0.274 C 
ATOM      5  O   UNL A   1      32.228  27.110  23.925  1.00  0.00    -0.267 OA
ATOM      6  H   UNL A   1      32.676  29.006  25.031  1.00  0.00     0.163 HD
BRANCH   4   7
ATOM      7  C   UNL A   1      32.516  25.747  25.805  1.00  0.00     0.178 A 
ATOM      8  C   UNL A   1      33.307  24.593  25.855  1.00  0.00     0.102 A 
ATOM      9  N   UNL A   1      32.622  23.777  26.742  1.00  0.00    -0.239 N 
ATOM     10  N   UNL A   1      31.398  25.515  26.609  1.00  0.00    -0.124 NA
ATOM     11  N   UNL A   1      31.478  24.324  27.159  1.00  0.00    -0.066 NA
BRANCH   8  12
ATOM     12  C   UNL A   1      34.549  24.121  25.253  1.00  0.00     0.003 A 
ATOM     13  C   UNL A   1      38.245  23.762  26.162  1.00  0.00     0.044 C 
ATOM     14  C   UNL A   1      36.965  23.777  25.379  1.00  0.00    -0.050 A 
ATOM     15  C   UNL A   1      36.958  23.307  24.060  1.00  0.00     0.003 A 
ATOM     16  C   UNL A   1      35.756  24.179  25.971  1.00  0.00     0.013 A 
ATOM     17  C   UNL A   1      35.771  23.271  23.330  1.00  0.00     0.001 A 
ATOM     18  C   UNL A   1      34.578  23.695  23.918  1.00  0.00     0.010 A 
ENDBRANCH   8  12
BRANCH   9  19
ATOM     19  C   UNL A   1      32.952  22.440  27.222  1.00  0.00     0.182 C 
BRANCH  19  20
ATOM     20  C   UNL A   1      33.278  21.444  26.132  1.00  0.00    -0.021 A 
ATOM     21  C   UNL A   1      34.591  20.954  26.030  1.00  0.00     0.045 A 
ATOM     22  C   UNL A   1      32.326  20.987  25.206  1.00  0.00     0.045 A 
ATOM     23  C   UNL A   1      34.908  19.986  25.080  1.00  0.00     0.126 A 
ATOM     24  C   UNL A   1      32.661  19.996  24.286  1.00  0.00     0.126 A 
ATOM     25  F   UNL A   1      36.166  19.531  25.005  1.00  0.00    -0.207 F 
ATOM     26  C   UNL A   1      33.947  19.483  24.218  1.00  0.00     0.078 A 
ATOM     27  F   UNL A   1      31.717  19.519  23.464  1.00  0.00    -0.207 F 
ENDBRANCH  19  20
ENDBRANCH   9  19
ENDBRANCH   4   7
ENDBRANCH   2   3
ENDBRANCH   1   2
BRANCH   1  28
ATOM     28  C   UNL A   1      35.091  30.230  27.837  1.00  0.00     0.118 C 
BRANCH  28  29
ATOM     29  N   UNL A   1      34.137  31.342  27.794  1.00  0.00    -0.352 N 
ATOM     30  C   UNL A   1      34.210  32.552  28.469  1.00  0.00     0.251 C 
ATOM     31  H   UNL A   1      33.350  31.215  27.216  1.00  0.00     0.163 HD
ATOM     32  O   UNL A   1      33.334  33.396  28.400  1.00  0.00    -0.269 OA
BRANCH  30  33
ATOM     33  C   UNL A   1      35.454  32.818  29.228  1.00  0.00     0.039 A 
ATOM     34  C   UNL A   1      36.496  33.448  28.542  1.00  0.00     0.014 A 
ATOM     35  C   UNL A   1      35.686  32.094  30.392  1.00  0.00     0.014 A 
ATOM     36  C   UNL A   1      37.807  33.125  28.875  1.00  0.00     0.010 A 
ATOM     37  C   UNL A   1      36.976  31.665  30.624  1.00  0.00     0.010 A 
ATOM     38  C   UNL A   1      38.031  32.127  29.824  1.00  0.00    -0.014 A 
BRANCH  38  39
ATOM     39  C   UNL A   1      39.292  31.393  29.930  1.00  0.00     0.031 A 
ATOM     40  C   UNL A   1      39.391  30.004  29.430  1.00  0.00     0.074 A 
ATOM     41  C   UNL A   1      40.402  32.007  30.401  1.00  0.00     0.049 A 
ATOM     42  N   UNL A   1      40.332  29.180  29.741  1.00  0.00    -0.248 NA
ATOM     43  C   UNL A   1      38.366  29.398  28.589  1.00  0.00     0.031 C 
ATOM     44  C   UNL A   1      41.785  31.551  30.281  1.00  0.00     0.029 A 
ATOM     45  N   UNL A   1      40.462  33.052  31.323  1.00  0.00    -0.354 N 
ATOM     46  C   UNL A   1      40.227  28.087  28.912  1.00  0.00     0.074 A 
ATOM     47  C   UNL A   1      38.926  28.218  28.311  1.00  0.00     0.031 C 
ATOM     48  C   UNL A   1      42.513  32.105  31.261  1.00  0.00     0.029 A 
ATOM     49  C   UNL A   1      41.598  32.823  32.125  1.00  0.00     0.049 A 
ATOM     50  H   UNL A   1      39.833  33.805  31.398  1.00  0.00     0.167 HD
ATOM     51  C   UNL A   1      41.323  27.294  28.734  1.00  0.00     0.034 A 
ATOM     52  C   UNL A   1      41.486  32.646  33.474  1.00  0.00     0.034 A 
ATOM     53  C   UNL A   1      42.358  27.595  29.735  1.00  0.00     0.049 A 
ATOM     54  C   UNL A   1      41.991  31.302  33.954  1.00  0.00     0.074 A 
ATOM     55  C   UNL A   1      43.588  28.230  29.685  1.00  0.00     0.029 A 
ATOM     56  N   UNL A   1      42.054  27.444  31.087  1.00  0.00    -0.354 N 
ATOM     57  N   UNL A   1      42.246  30.290  33.171  1.00  0.00    -0.248 NA
ATOM     58  C   UNL A   1      42.232  30.988  35.358  1.00  0.00     0.031 C 
ATOM     59  C   UNL A   1      43.990  28.515  31.021  1.00  0.00     0.029 A 
ATOM     60  C   UNL A   1      43.023  28.026  31.882  1.00  0.00     0.049 A 
ATOM     61  H   UNL A   1      41.256  26.982  31.430  1.00  0.00     0.167 HD
ATOM     62  C   UNL A   1      42.638  29.206  33.919  1.00  0.00     0.074 A 
ATOM     63  C   UNL A   1      42.643  29.710  35.282  1.00  0.00     0.031 C 
ATOM     64  C   UNL A   1      42.906  27.993  33.340  1.00  0.00     0.034 A 
BRANCH  51  65
ATOM     65  C   UNL A   1      41.586  26.442  27.494  1.00  0.00     0.023 A 
ATOM     66  C   UNL A   1      41.634  25.035  27.635  1.00  0.00     0.031 A 
ATOM     67  C   UNL A   1      41.898  26.908  26.199  1.00  0.00     0.131 A 
ATOM     68  C   UNL A   1      42.051  24.195  26.579  1.00  0.00     0.055 A 
ATOM     69  C   UNL A   1      42.326  26.078  25.155  1.00  0.00     0.041 A 
ATOM     70  F   UNL A   1      41.786  28.188  25.843  1.00  0.00    -0.206 F 
ATOM     71  C   UNL A   1      42.419  24.714  25.343  1.00  0.00     0.022 A 
BRANCH  68  72
ATOM     72  S   UNL A   1      42.134  22.403  26.844  1.00  0.00     0.124 S 
ATOM     73  O   UNL A   1      41.030  22.177  27.771  1.00  0.00    -0.237 OA
ATOM     74  O   UNL A   1      41.965  21.882  25.492  1.00  0.00    -0.237 OA
ATOM     75  O   UNL A   1      43.467  22.207  27.415  1.00  0.00    -0.744 OA
ENDBRANCH  68  72
ENDBRANCH  51  65
BRANCH  52  76
ATOM     76  C   UNL A   1      40.375  33.438  34.071  1.00  0.00     0.023 A 
ATOM     77  C   UNL A   1      39.414  32.716  34.815  1.00  0.00     0.031 A 
ATOM     78  C   UNL A   1      40.470  34.818  34.290  1.00  0.00     0.131 A 
ATOM     79  C   UNL A   1      38.733  33.332  35.873  1.00  0.00     0.055 A 
ATOM     80  C   UNL A   1      39.717  35.447  35.292  1.00  0.00     0.041 A 
ATOM     81  F   UNL A   1      41.387  35.551  33.642  1.00  0.00    -0.206 F 
ATOM     82  C   UNL A   1      38.878  34.697  36.120  1.00  0.00     0.022 A 
BRANCH  79  83
ATOM     83  S   UNL A   1      37.896  32.255  37.076  1.00  0.00     0.124 S 
ATOM     84  O   UNL A   1      37.755  31.012  36.328  1.00  0.00    -0.237 OA
ATOM     85  O   UNL A   1      38.850  32.231  38.186  1.00  0.00    -0.237 OA
ATOM     86  O   UNL A   1      36.651  32.960  37.366  1.00  0.00    -0.744 OA
ENDBRANCH  79  83
ENDBRANCH  52  76
BRANCH  64  87
ATOM     87  C   UNL A   1      43.150  26.676  34.065  1.00  0.00     0.023 A 
ATOM     88  C   UNL A   1      44.380  26.002  34.082  1.00  0.00     0.031 A 
ATOM     89  C   UNL A   1      42.126  26.073  34.843  1.00  0.00     0.131 A 
ATOM     90  C   UNL A   1      44.542  24.777  34.762  1.00  0.00     0.055 A 
ATOM     91  C   UNL A   1      42.309  24.896  35.578  1.00  0.00     0.041 A 
ATOM     92  F   UNL A   1      40.900  26.606  34.938  1.00  0.00    -0.206 F 
ATOM     93  C   UNL A   1      43.520  24.230  35.529  1.00  0.00     0.022 A 
BRANCH  90  94
ATOM     94  S   UNL A   1      46.111  23.888  34.573  1.00  0.00     0.124 S 
ATOM     95  O   UNL A   1      46.575  23.795  35.954  1.00  0.00    -0.237 OA
ATOM     96  O   UNL A   1      45.688  22.633  33.961  1.00  0.00    -0.237 OA
ATOM     97  O   UNL A   1      46.903  24.764  33.710  1.00  0.00    -0.744 OA
ENDBRANCH  90  94
ENDBRANCH  64  87
ENDBRANCH  38  39
ENDBRANCH  30  33
ENDBRANCH  28  29
ENDBRANCH   1  28
TORSDOF 16
ENDMDL
