MODEL 1
REMARK VINA RESULT:     -12.2      0.000      0.000
REMARK SMILES C[C@H]1[C@H](C(=O)NCCCNC(=O)c2ccc(-c3c4nc(c(-c5cc(S(=O)(=O)[O-])ccc5F)c5ccc([nH]5)c(-c5cc(S(=O)(=O)[O-])ccc5F)c5nc(c(-c6cc(S(=O)(=O)[O-])ccc6F)c6ccc3[nH]6)C=C5)C=C4)cc2)CCN1C(=O)Nc1ccc(F)c(Cl)c1
REMARK SMILES IDX 8 1 7 2 6 3 4 4 5 5 3 7 1 8 2 9 78 10 76 11 77 12 79 13
REMARK SMILES IDX 80 14 81 15 82 17 83 18 89 19 84 20 87 21 85 22 88 23 86 24
REMARK SMILES IDX 9 25 10 26 11 27 12 29 13 30 14 31 75 32 15 33 74 34 16 35
REMARK SMILES IDX 17 36 18 37 68 38 19 39 73 40 67 41 69 42 20 43 72 44 66 45
REMARK SMILES IDX 65 46 21 48 53 49 33 50 52 51 34 52 37 53 51 54 70 55 35 56
REMARK SMILES IDX 36 57 50 59 71 60 38 61 22 62 23 63 31 64 24 65 30 66 32 67
REMARK SMILES IDX 29 68 25 69 26 70 27 71 28 72 54 73 55 74 63 75 56 76 62 77
REMARK SMILES IDX 64 78 61 79 57 80 58 81 59 82 60 83 39 84 40 85 48 86 41 87
REMARK SMILES IDX 47 88 49 89 46 90 42 91 43 92 44 93 45 94
REMARK H PARENT 6 6 81 16 10 28 69 47 37 58
REMARK Flexibility Score: inf
ROOT
ATOM      1  C   UNL A   1      32.929  27.821  26.824  1.00  0.00     0.042 C 
ENDROOT
BRANCH   1   2
ATOM      2  C   UNL A   1      31.778  27.189  26.047  1.00  0.00     0.117 C 
BRANCH   2   3
ATOM      3  N   UNL A   1      31.291  25.951  26.642  1.00  0.00    -0.356 N 
ATOM      4  C   UNL A   1      31.633  24.648  26.475  1.00  0.00     0.225 C 
ATOM      5  O   UNL A   1      31.086  23.832  27.226  1.00  0.00    -0.275 OA
ATOM      6  H   UNL A   1      30.567  26.086  27.296  1.00  0.00     0.163 HD
BRANCH   4   7
ATOM      7  C   UNL A   1      32.594  24.138  25.407  1.00  0.00     0.102 C 
ATOM      8  C   UNL A   1      31.942  22.838  23.337  1.00  0.00     0.032 C 
ATOM      9  C   UNL A   1      31.980  24.216  24.001  1.00  0.00     0.096 C 
ATOM     10  N   UNL A   1      32.820  25.158  23.256  1.00  0.00    -0.321 N 
ATOM     11  C   UNL A   1      33.949  24.827  25.345  1.00  0.00     0.037 C 
ATOM     12  C   UNL A   1      34.116  25.281  23.905  1.00  0.00     0.122 C 
BRANCH  10  13
ATOM     13  C   UNL A   1      32.699  25.685  21.994  1.00  0.00     0.322 C 
ATOM     14  O   UNL A   1      33.359  25.219  21.057  1.00  0.00    -0.248 OA
ATOM     15  N   UNL A   1      31.768  26.615  21.662  1.00  0.00    -0.308 N 
ATOM     16  H   UNL A   1      31.502  26.561  20.717  1.00  0.00     0.171 HD
BRANCH  15  17
ATOM     17  C   UNL A   1      31.099  27.631  22.352  1.00  0.00     0.044 A 
ATOM     18  C   UNL A   1      31.856  28.665  22.911  1.00  0.00     0.029 A 
ATOM     19  C   UNL A   1      29.724  27.627  22.541  1.00  0.00     0.049 A 
ATOM     20  C   UNL A   1      31.218  29.755  23.512  1.00  0.00     0.043 A 
ATOM     21  C   UNL A   1      29.077  28.719  23.119  1.00  0.00     0.078 A 
ATOM     22  C   UNL A   1      29.828  29.791  23.584  1.00  0.00     0.141 A 
ATOM     23  Cl  UNL A   1      27.357  28.740  23.196  1.00  0.00    -0.081 Cl
ATOM     24  F   UNL A   1      29.234  30.878  24.097  1.00  0.00    -0.205 F 
ENDBRANCH  15  17
ENDBRANCH  10  13
ENDBRANCH   4   7
ENDBRANCH   2   3
ENDBRANCH   1   2
BRANCH   1  25
ATOM     25  C   UNL A   1      33.765  28.837  26.060  1.00  0.00     0.118 C 
BRANCH  25  26
ATOM     26  N   UNL A   1      33.648  30.176  26.603  1.00  0.00    -0.352 N 
ATOM     27  C   UNL A   1      34.419  30.849  27.522  1.00  0.00     0.251 C 
ATOM     28  H   UNL A   1      32.886  30.691  26.256  1.00  0.00     0.163 HD
ATOM     29  O   UNL A   1      33.983  31.907  27.972  1.00  0.00    -0.269 OA
BRANCH  27  30
ATOM     30  C   UNL A   1      35.729  30.331  28.003  1.00  0.00     0.039 A 
ATOM     31  C   UNL A   1      35.775  29.717  29.260  1.00  0.00     0.014 A 
ATOM     32  C   UNL A   1      36.921  30.497  27.293  1.00  0.00     0.014 A 
ATOM     33  C   UNL A   1      36.986  29.239  29.775  1.00  0.00     0.010 A 
ATOM     34  C   UNL A   1      38.112  29.934  27.762  1.00  0.00     0.010 A 
ATOM     35  C   UNL A   1      38.166  29.313  29.019  1.00  0.00    -0.014 A 
BRANCH  35  36
ATOM     36  C   UNL A   1      39.454  28.779  29.548  1.00  0.00     0.031 A 
ATOM     37  C   UNL A   1      40.150  29.458  30.702  1.00  0.00     0.074 A 
ATOM     38  C   UNL A   1      40.019  27.697  28.975  1.00  0.00     0.049 A 
ATOM     39  N   UNL A   1      41.288  29.161  31.278  1.00  0.00    -0.248 NA
ATOM     40  C   UNL A   1      39.491  30.648  31.262  1.00  0.00     0.031 C 
ATOM     41  C   UNL A   1      39.478  26.972  27.823  1.00  0.00     0.029 A 
ATOM     42  N   UNL A   1      41.174  27.017  29.279  1.00  0.00    -0.354 N 
ATOM     43  C   UNL A   1      41.486  30.129  32.259  1.00  0.00     0.074 A 
ATOM     44  C   UNL A   1      40.384  31.061  32.149  1.00  0.00     0.031 C 
ATOM     45  C   UNL A   1      40.282  25.936  27.538  1.00  0.00     0.029 A 
ATOM     46  C   UNL A   1      41.417  25.942  28.455  1.00  0.00     0.049 A 
ATOM     47  H   UNL A   1      41.771  27.274  30.018  1.00  0.00     0.167 HD
ATOM     48  C   UNL A   1      42.476  30.220  33.184  1.00  0.00     0.034 A 
ATOM     49  C   UNL A   1      42.441  25.065  28.432  1.00  0.00     0.034 A 
ATOM     50  C   UNL A   1      43.566  29.278  33.293  1.00  0.00     0.049 A 
ATOM     51  C   UNL A   1      43.533  25.186  29.463  1.00  0.00     0.074 A 
ATOM     52  C   UNL A   1      44.593  29.250  34.221  1.00  0.00     0.029 A 
ATOM     53  N   UNL A   1      43.774  28.199  32.443  1.00  0.00    -0.354 N 
ATOM     54  N   UNL A   1      43.678  26.081  30.414  1.00  0.00    -0.248 NA
ATOM     55  C   UNL A   1      44.593  24.170  29.426  1.00  0.00     0.031 C 
ATOM     56  C   UNL A   1      45.454  28.196  33.895  1.00  0.00     0.029 A 
ATOM     57  C   UNL A   1      44.926  27.517  32.808  1.00  0.00     0.049 A 
ATOM     58  H   UNL A   1      43.190  27.953  31.691  1.00  0.00     0.167 HD
ATOM     59  C   UNL A   1      44.832  25.719  31.102  1.00  0.00     0.074 A 
ATOM     60  C   UNL A   1      45.330  24.513  30.472  1.00  0.00     0.031 C 
ATOM     61  C   UNL A   1      45.428  26.327  32.160  1.00  0.00     0.034 A 
BRANCH  48  62
ATOM     62  C   UNL A   1      42.429  31.394  34.136  1.00  0.00     0.023 A 
ATOM     63  C   UNL A   1      41.581  31.401  35.258  1.00  0.00     0.031 A 
ATOM     64  C   UNL A   1      43.216  32.536  33.904  1.00  0.00     0.131 A 
ATOM     65  C   UNL A   1      41.476  32.552  36.052  1.00  0.00     0.055 A 
ATOM     66  C   UNL A   1      43.170  33.648  34.748  1.00  0.00     0.041 A 
ATOM     67  F   UNL A   1      44.034  32.600  32.840  1.00  0.00    -0.206 F 
ATOM     68  C   UNL A   1      42.283  33.667  35.821  1.00  0.00     0.022 A 
BRANCH  65  69
ATOM     69  S   UNL A   1      40.158  32.627  37.297  1.00  0.00     0.124 S 
ATOM     70  O   UNL A   1      39.653  33.986  37.110  1.00  0.00    -0.237 OA
ATOM     71  O   UNL A   1      39.267  31.551  36.880  1.00  0.00    -0.237 OA
ATOM     72  O   UNL A   1      40.864  32.402  38.557  1.00  0.00    -0.744 OA
ENDBRANCH  65  69
ENDBRANCH  48  62
BRANCH  49  73
ATOM     73  C   UNL A   1      42.492  23.997  27.392  1.00  0.00     0.023 A 
ATOM     74  C   UNL A   1      41.872  22.754  27.594  1.00  0.00     0.031 A 
ATOM     75  C   UNL A   1      43.196  24.195  26.191  1.00  0.00     0.131 A 
ATOM     76  C   UNL A   1      42.004  21.741  26.630  1.00  0.00     0.055 A 
ATOM     77  C   UNL A   1      43.280  23.203  25.212  1.00  0.00     0.041 A 
ATOM     78  F   UNL A   1      43.801  25.368  25.945  1.00  0.00    -0.206 F 
ATOM     79  C   UNL A   1      42.693  21.962  25.436  1.00  0.00     0.022 A 
BRANCH  76  80
ATOM     80  S   UNL A   1      41.324  20.099  26.995  1.00  0.00     0.124 S 
ATOM     81  O   UNL A   1      42.504  19.252  26.868  1.00  0.00    -0.237 OA
ATOM     82  O   UNL A   1      40.807  20.280  28.348  1.00  0.00    -0.237 OA
ATOM     83  O   UNL A   1      40.307  19.916  25.961  1.00  0.00    -0.744 OA
ENDBRANCH  76  80
ENDBRANCH  49  73
BRANCH  61  84
ATOM     84  C   UNL A   1      46.669  25.671  32.715  1.00  0.00     0.023 A 
ATOM     85  C   UNL A   1      46.601  24.696  33.725  1.00  0.00     0.031 A 
ATOM     86  C   UNL A   1      47.941  26.050  32.249  1.00  0.00     0.131 A 
ATOM     87  C   UNL A   1      47.781  24.181  34.283  1.00  0.00     0.055 A 
ATOM     88  C   UNL A   1      49.110  25.487  32.762  1.00  0.00     0.041 A 
ATOM     89  F   UNL A   1      48.068  26.979  31.287  1.00  0.00    -0.206 F 
ATOM     90  C   UNL A   1      49.036  24.559  33.797  1.00  0.00     0.022 A 
BRANCH  87  91
ATOM     91  S   UNL A   1      47.660  23.088  35.726  1.00  0.00     0.124 S 
ATOM     92  O   UNL A   1      47.336  21.805  35.108  1.00  0.00    -0.237 OA
ATOM     93  O   UNL A   1      48.992  23.195  36.312  1.00  0.00    -0.237 OA
ATOM     94  O   UNL A   1      46.584  23.683  36.517  1.00  0.00    -0.744 OA
ENDBRANCH  87  91
ENDBRANCH  61  84
ENDBRANCH  35  36
ENDBRANCH  27  30
ENDBRANCH  25  26
ENDBRANCH   1  25
TORSDOF 15
ENDMDL
MODEL 2
REMARK VINA RESULT:     -12.1      2.168      3.551
REMARK SMILES C[C@H]1[C@H](C(=O)NCCCNC(=O)c2ccc(-c3c4nc(c(-c5cc(S(=O)(=O)[O-])ccc5F)c5ccc([nH]5)c(-c5cc(S(=O)(=O)[O-])ccc5F)c5nc(c(-c6cc(S(=O)(=O)[O-])ccc6F)c6ccc3[nH]6)C=C5)C=C4)cc2)CCN1C(=O)Nc1ccc(F)c(Cl)c1
REMARK SMILES IDX 8 1 7 2 6 3 4 4 5 5 3 7 1 8 2 9 78 10 76 11 77 12 79 13
REMARK SMILES IDX 80 14 81 15 82 17 83 18 89 19 84 20 87 21 85 22 88 23 86 24
REMARK SMILES IDX 9 25 10 26 11 27 12 29 13 30 14 31 75 32 15 33 74 34 16 35
REMARK SMILES IDX 17 36 18 37 68 38 19 39 73 40 67 41 69 42 20 43 72 44 66 45
REMARK SMILES IDX 65 46 21 48 53 49 33 50 52 51 34 52 37 53 51 54 70 55 35 56
REMARK SMILES IDX 36 57 50 59 71 60 38 61 22 62 23 63 31 64 24 65 30 66 32 67
REMARK SMILES IDX 29 68 25 69 26 70 27 71 28 72 54 73 55 74 63 75 56 76 62 77
REMARK SMILES IDX 64 78 61 79 57 80 58 81 59 82 60 83 39 84 40 85 48 86 41 87
REMARK SMILES IDX 47 88 49 89 46 90 42 91 43 92 44 93 45 94
REMARK H PARENT 6 6 81 16 10 28 69 47 37 58
REMARK Flexibility Score: inf
ROOT
ATOM      1  C   UNL A   1      32.046  29.087  26.131  1.00  0.00     0.042 C 
ENDROOT
BRANCH   1   2
ATOM      2  C   UNL A   1      31.847  29.122  24.619  1.00  0.00     0.117 C 
BRANCH   2   3
ATOM      3  N   UNL A   1      30.622  28.463  24.182  1.00  0.00    -0.356 N 
ATOM      4  C   UNL A   1      30.298  27.163  23.967  1.00  0.00     0.225 C 
ATOM      5  O   UNL A   1      29.115  26.926  23.694  1.00  0.00    -0.275 OA
ATOM      6  H   UNL A   1      29.881  29.088  24.007  1.00  0.00     0.163 HD
BRANCH   4   7
ATOM      7  C   UNL A   1      31.294  26.010  23.992  1.00  0.00     0.102 C 
ATOM      8  C   UNL A   1      33.087  25.647  25.741  1.00  0.00     0.032 C 
ATOM      9  C   UNL A   1      31.593  25.542  25.425  1.00  0.00     0.096 C 
ATOM     10  N   UNL A   1      31.116  24.159  25.496  1.00  0.00    -0.321 N 
ATOM     11  C   UNL A   1      30.908  24.777  23.188  1.00  0.00     0.037 C 
ATOM     12  C   UNL A   1      31.003  23.609  24.154  1.00  0.00     0.122 C 
BRANCH  10  13
ATOM     13  C   UNL A   1      31.033  23.276  26.544  1.00  0.00     0.322 C 
ATOM     14  O   UNL A   1      30.138  23.395  27.390  1.00  0.00    -0.248 OA
ATOM     15  N   UNL A   1      31.799  22.160  26.639  1.00  0.00    -0.308 N 
ATOM     16  H   UNL A   1      31.353  21.438  27.138  1.00  0.00     0.171 HD
BRANCH  15  17
ATOM     17  C   UNL A   1      33.074  21.797  26.191  1.00  0.00     0.044 A 
ATOM     18  C   UNL A   1      33.221  20.579  25.522  1.00  0.00     0.029 A 
ATOM     19  C   UNL A   1      34.199  22.576  26.425  1.00  0.00     0.049 A 
ATOM     20  C   UNL A   1      34.454  20.231  24.963  1.00  0.00     0.043 A 
ATOM     21  C   UNL A   1      35.427  22.248  25.853  1.00  0.00     0.078 A 
ATOM     22  C   UNL A   1      35.545  21.084  25.104  1.00  0.00     0.141 A 
ATOM     23  Cl  UNL A   1      36.761  23.321  26.042  1.00  0.00    -0.081 Cl
ATOM     24  F   UNL A   1      36.698  20.768  24.499  1.00  0.00    -0.205 F 
ENDBRANCH  15  17
ENDBRANCH  10  13
ENDBRANCH   4   7
ENDBRANCH   2   3
ENDBRANCH   1   2
BRANCH   1  25
ATOM     25  C   UNL A   1      33.418  29.515  26.630  1.00  0.00     0.118 C 
BRANCH  25  26
ATOM     26  N   UNL A   1      33.456  30.906  27.035  1.00  0.00    -0.352 N 
ATOM     27  C   UNL A   1      34.307  31.579  27.881  1.00  0.00     0.251 C 
ATOM     28  H   UNL A   1      32.750  31.465  26.637  1.00  0.00     0.163 HD
ATOM     29  O   UNL A   1      33.995  32.718  28.222  1.00  0.00    -0.269 OA
BRANCH  27  30
ATOM     30  C   UNL A   1      35.557  30.969  28.411  1.00  0.00     0.039 A 
ATOM     31  C   UNL A   1      36.781  31.500  27.988  1.00  0.00     0.014 A 
ATOM     32  C   UNL A   1      35.563  29.849  29.247  1.00  0.00     0.014 A 
ATOM     33  C   UNL A   1      37.988  30.947  28.432  1.00  0.00     0.010 A 
ATOM     34  C   UNL A   1      36.765  29.358  29.767  1.00  0.00     0.010 A 
ATOM     35  C   UNL A   1      37.995  29.887  29.353  1.00  0.00    -0.014 A 
BRANCH  35  36
ATOM     36  C   UNL A   1      39.277  29.310  29.853  1.00  0.00     0.031 A 
ATOM     37  C   UNL A   1      39.974  29.911  31.049  1.00  0.00     0.074 A 
ATOM     38  C   UNL A   1      39.835  28.261  29.216  1.00  0.00     0.049 A 
ATOM     39  N   UNL A   1      41.107  29.568  31.610  1.00  0.00    -0.248 NA
ATOM     40  C   UNL A   1      39.323  31.069  31.679  1.00  0.00     0.031 C 
ATOM     41  C   UNL A   1      39.292  27.613  28.020  1.00  0.00     0.029 A 
ATOM     42  N   UNL A   1      40.983  27.553  29.482  1.00  0.00    -0.354 N 
ATOM     43  C   UNL A   1      41.309  30.472  32.649  1.00  0.00     0.074 A 
ATOM     44  C   UNL A   1      40.216  31.420  32.592  1.00  0.00     0.031 C 
ATOM     45  C   UNL A   1      40.089  26.589  27.675  1.00  0.00     0.029 A 
ATOM     46  C   UNL A   1      41.220  26.528  28.595  1.00  0.00     0.049 A 
ATOM     47  H   UNL A   1      41.579  27.759  30.238  1.00  0.00     0.167 HD
ATOM     48  C   UNL A   1      42.296  30.497  33.581  1.00  0.00     0.034 A 
ATOM     49  C   UNL A   1      42.236  25.645  28.521  1.00  0.00     0.034 A 
ATOM     50  C   UNL A   1      43.377  29.541  33.636  1.00  0.00     0.049 A 
ATOM     51  C   UNL A   1      43.325  25.693  29.561  1.00  0.00     0.074 A 
ATOM     52  C   UNL A   1      44.400  29.447  34.564  1.00  0.00     0.029 A 
ATOM     53  N   UNL A   1      43.580  28.515  32.722  1.00  0.00    -0.354 N 
ATOM     54  N   UNL A   1      43.474  26.526  30.566  1.00  0.00    -0.248 NA
ATOM     55  C   UNL A   1      44.376  24.672  29.466  1.00  0.00     0.031 C 
ATOM     56  C   UNL A   1      45.254  28.407  34.177  1.00  0.00     0.029 A 
ATOM     57  C   UNL A   1      44.724  27.801  33.049  1.00  0.00     0.049 A 
ATOM     58  H   UNL A   1      42.996  28.321  31.954  1.00  0.00     0.167 HD
ATOM     59  C   UNL A   1      44.622  26.112  31.234  1.00  0.00     0.074 A 
ATOM     60  C   UNL A   1      45.112  24.944  30.533  1.00  0.00     0.031 C 
ATOM     61  C   UNL A   1      45.218  26.650  32.330  1.00  0.00     0.034 A 
BRANCH  48  62
ATOM     62  C   UNL A   1      42.255  31.612  34.603  1.00  0.00     0.023 A 
ATOM     63  C   UNL A   1      41.354  31.589  35.683  1.00  0.00     0.031 A 
ATOM     64  C   UNL A   1      43.104  32.727  34.482  1.00  0.00     0.131 A 
ATOM     65  C   UNL A   1      41.262  32.693  36.544  1.00  0.00     0.055 A 
ATOM     66  C   UNL A   1      43.066  33.784  35.393  1.00  0.00     0.041 A 
ATOM     67  F   UNL A   1      43.974  32.816  33.464  1.00  0.00    -0.206 F 
ATOM     68  C   UNL A   1      42.129  33.779  36.423  1.00  0.00     0.022 A 
BRANCH  65  69
ATOM     69  S   UNL A   1      39.888  32.754  37.728  1.00  0.00     0.124 S 
ATOM     70  O   UNL A   1      40.565  32.421  38.981  1.00  0.00    -0.237 OA
ATOM     71  O   UNL A   1      39.420  34.128  37.600  1.00  0.00    -0.237 OA
ATOM     72  O   UNL A   1      38.967  31.731  37.237  1.00  0.00    -0.744 OA
ENDBRANCH  65  69
ENDBRANCH  48  62
BRANCH  49  73
ATOM     73  C   UNL A   1      42.282  24.643  27.418  1.00  0.00     0.023 A 
ATOM     74  C   UNL A   1      41.544  23.451  27.486  1.00  0.00     0.031 A 
ATOM     75  C   UNL A   1      43.098  24.850  26.290  1.00  0.00     0.131 A 
ATOM     76  C   UNL A   1      41.670  22.491  26.468  1.00  0.00     0.055 A 
ATOM     77  C   UNL A   1      43.178  23.916  25.256  1.00  0.00     0.041 A 
ATOM     78  F   UNL A   1      43.819  25.977  26.173  1.00  0.00    -0.206 F 
ATOM     79  C   UNL A   1      42.471  22.722  25.348  1.00  0.00     0.022 A 
BRANCH  76  80
ATOM     80  S   UNL A   1      40.825  20.898  26.666  1.00  0.00     0.124 S 
ATOM     81  O   UNL A   1      39.534  21.165  26.043  1.00  0.00    -0.237 OA
ATOM     82  O   UNL A   1      41.712  19.993  25.943  1.00  0.00    -0.237 OA
ATOM     83  O   UNL A   1      40.794  20.709  28.116  1.00  0.00    -0.744 OA
ENDBRANCH  76  80
ENDBRANCH  49  73
BRANCH  61  84
ATOM     84  C   UNL A   1      46.452  25.950  32.849  1.00  0.00     0.023 A 
ATOM     85  C   UNL A   1      46.373  24.932  33.816  1.00  0.00     0.031 A 
ATOM     86  C   UNL A   1      47.727  26.328  32.391  1.00  0.00     0.131 A 
ATOM     87  C   UNL A   1      47.548  24.374  34.343  1.00  0.00     0.055 A 
ATOM     88  C   UNL A   1      48.890  25.724  32.872  1.00  0.00     0.041 A 
ATOM     89  F   UNL A   1      47.864  27.295  31.470  1.00  0.00    -0.206 F 
ATOM     90  C   UNL A   1      48.805  24.752  33.865  1.00  0.00     0.022 A 
BRANCH  87  91
ATOM     91  S   UNL A   1      47.416  23.221  35.738  1.00  0.00     0.124 S 
ATOM     92  O   UNL A   1      46.007  22.843  35.686  1.00  0.00    -0.237 OA
ATOM     93  O   UNL A   1      48.370  22.180  35.373  1.00  0.00    -0.237 OA
ATOM     94  O   UNL A   1      47.796  24.034  36.892  1.00  0.00    -0.744 OA
ENDBRANCH  87  91
ENDBRANCH  61  84
ENDBRANCH  35  36
ENDBRANCH  27  30
ENDBRANCH  25  26
ENDBRANCH   1  25
TORSDOF 15
ENDMDL
MODEL 3
REMARK VINA RESULT:     -12.1      2.192      2.909
REMARK SMILES C[C@H]1[C@H](C(=O)NCCCNC(=O)c2ccc(-c3c4nc(c(-c5cc(S(=O)(=O)[O-])ccc5F)c5ccc([nH]5)c(-c5cc(S(=O)(=O)[O-])ccc5F)c5nc(c(-c6cc(S(=O)(=O)[O-])ccc6F)c6ccc3[nH]6)C=C5)C=C4)cc2)CCN1C(=O)Nc1ccc(F)c(Cl)c1
REMARK SMILES IDX 8 1 7 2 6 3 4 4 5 5 3 7 1 8 2 9 78 10 76 11 77 12 79 13
REMARK SMILES IDX 80 14 81 15 82 17 83 18 89 19 84 20 87 21 85 22 88 23 86 24
REMARK SMILES IDX 9 25 10 26 11 27 12 29 13 30 14 31 75 32 15 33 74 34 16 35
REMARK SMILES IDX 17 36 18 37 68 38 19 39 73 40 67 41 69 42 20 43 72 44 66 45
REMARK SMILES IDX 65 46 21 48 53 49 33 50 52 51 34 52 37 53 51 54 70 55 35 56
REMARK SMILES IDX 36 57 50 59 71 60 38 61 22 62 23 63 31 64 24 65 30 66 32 67
REMARK SMILES IDX 29 68 25 69 26 70 27 71 28 72 54 73 55 74 63 75 56 76 62 77
REMARK SMILES IDX 64 78 61 79 57 80 58 81 59 82 60 83 39 84 40 85 48 86 41 87
REMARK SMILES IDX 47 88 49 89 46 90 42 91 43 92 44 93 45 94
REMARK H PARENT 6 6 81 16 10 28 69 47 37 58
REMARK Flexibility Score: inf
ROOT
ATOM      1  C   UNL A   1      31.542  28.486  25.756  1.00  0.00     0.042 C 
ENDROOT
BRANCH   1   2
ATOM      2  C   UNL A   1      31.870  27.516  26.887  1.00  0.00     0.117 C 
BRANCH   2   3
ATOM      3  N   UNL A   1      31.017  26.335  26.901  1.00  0.00    -0.356 N 
ATOM      4  C   UNL A   1      31.144  25.096  26.361  1.00  0.00     0.225 C 
ATOM      5  O   UNL A   1      30.268  24.273  26.654  1.00  0.00    -0.275 OA
ATOM      6  H   UNL A   1      30.178  26.461  27.403  1.00  0.00     0.163 HD
BRANCH   4   7
ATOM      7  C   UNL A   1      32.250  24.684  25.397  1.00  0.00     0.102 C 
ATOM      8  C   UNL A   1      31.915  23.494  23.189  1.00  0.00     0.032 C 
ATOM      9  C   UNL A   1      31.815  24.830  23.930  1.00  0.00     0.096 C 
ATOM     10  N   UNL A   1      32.704  25.842  23.354  1.00  0.00    -0.321 N 
ATOM     11  C   UNL A   1      33.574  25.418  25.548  1.00  0.00     0.037 C 
ATOM     12  C   UNL A   1      33.902  25.965  24.170  1.00  0.00     0.122 C 
BRANCH  10  13
ATOM     13  C   UNL A   1      32.722  26.442  22.120  1.00  0.00     0.322 C 
ATOM     14  O   UNL A   1      33.653  26.225  21.334  1.00  0.00    -0.248 OA
ATOM     15  N   UNL A   1      31.684  27.165  21.629  1.00  0.00    -0.308 N 
ATOM     16  H   UNL A   1      31.638  27.139  20.646  1.00  0.00     0.171 HD
BRANCH  15  17
ATOM     17  C   UNL A   1      30.663  27.935  22.195  1.00  0.00     0.044 A 
ATOM     18  C   UNL A   1      30.790  29.327  22.171  1.00  0.00     0.029 A 
ATOM     19  C   UNL A   1      29.556  27.372  22.815  1.00  0.00     0.049 A 
ATOM     20  C   UNL A   1      29.743  30.135  22.626  1.00  0.00     0.043 A 
ATOM     21  C   UNL A   1      28.497  28.168  23.251  1.00  0.00     0.078 A 
ATOM     22  C   UNL A   1      28.587  29.549  23.134  1.00  0.00     0.141 A 
ATOM     23  Cl  UNL A   1      27.078  27.419  23.876  1.00  0.00    -0.081 Cl
ATOM     24  F   UNL A   1      27.566  30.339  23.496  1.00  0.00    -0.205 F 
ENDBRANCH  15  17
ENDBRANCH  10  13
ENDBRANCH   4   7
ENDBRANCH   2   3
ENDBRANCH   1   2
BRANCH   1  25
ATOM     25  C   UNL A   1      32.635  29.481  25.397  1.00  0.00     0.118 C 
BRANCH  25  26
ATOM     26  N   UNL A   1      32.350  30.819  25.877  1.00  0.00    -0.352 N 
ATOM     27  C   UNL A   1      32.891  31.540  26.916  1.00  0.00     0.251 C 
ATOM     28  H   UNL A   1      31.649  31.291  25.375  1.00  0.00     0.163 HD
ATOM     29  O   UNL A   1      32.325  32.581  27.249  1.00  0.00    -0.269 OA
BRANCH  27  30
ATOM     30  C   UNL A   1      34.102  31.094  27.658  1.00  0.00     0.039 A 
ATOM     31  C   UNL A   1      35.060  32.056  27.997  1.00  0.00     0.014 A 
ATOM     32  C   UNL A   1      34.358  29.754  27.961  1.00  0.00     0.014 A 
ATOM     33  C   UNL A   1      36.232  31.687  28.669  1.00  0.00     0.010 A 
ATOM     34  C   UNL A   1      35.481  29.399  28.716  1.00  0.00     0.010 A 
ATOM     35  C   UNL A   1      36.443  30.357  29.065  1.00  0.00    -0.014 A 
BRANCH  35  36
ATOM     36  C   UNL A   1      37.676  29.961  29.805  1.00  0.00     0.031 A 
ATOM     37  C   UNL A   1      37.893  30.409  31.230  1.00  0.00     0.074 A 
ATOM     38  C   UNL A   1      38.619  29.217  29.192  1.00  0.00     0.049 A 
ATOM     39  N   UNL A   1      38.912  30.192  32.024  1.00  0.00    -0.248 NA
ATOM     40  C   UNL A   1      36.837  31.239  31.829  1.00  0.00     0.031 C 
ATOM     41  C   UNL A   1      38.558  28.755  27.804  1.00  0.00     0.029 A 
ATOM     42  N   UNL A   1      39.815  28.721  29.653  1.00  0.00    -0.354 N 
ATOM     43  C   UNL A   1      38.624  30.863  33.209  1.00  0.00     0.074 A 
ATOM     44  C   UNL A   1      37.369  31.553  33.000  1.00  0.00     0.031 C 
ATOM     45  C   UNL A   1      39.650  28.021  27.536  1.00  0.00     0.029 A 
ATOM     46  C   UNL A   1      40.510  27.992  28.715  1.00  0.00     0.049 A 
ATOM     47  H   UNL A   1      40.143  28.871  30.568  1.00  0.00     0.167 HD
ATOM     48  C   UNL A   1      39.324  30.883  34.372  1.00  0.00     0.034 A 
ATOM     49  C   UNL A   1      41.707  27.376  28.789  1.00  0.00     0.034 A 
ATOM     50  C   UNL A   1      40.571  30.183  34.575  1.00  0.00     0.049 A 
ATOM     51  C   UNL A   1      42.471  27.415  30.087  1.00  0.00     0.074 A 
ATOM     52  C   UNL A   1      41.336  30.098  35.726  1.00  0.00     0.029 A 
ATOM     53  N   UNL A   1      41.240  29.451  33.603  1.00  0.00    -0.354 N 
ATOM     54  N   UNL A   1      42.160  28.015  31.214  1.00  0.00    -0.248 NA
ATOM     55  C   UNL A   1      43.742  26.680  30.129  1.00  0.00     0.031 C 
ATOM     56  C   UNL A   1      42.495  29.370  35.433  1.00  0.00     0.029 A 
ATOM     57  C   UNL A   1      42.420  28.934  34.119  1.00  0.00     0.049 A 
ATOM     58  H   UNL A   1      40.924  29.317  32.680  1.00  0.00     0.167 HD
ATOM     59  C   UNL A   1      43.186  27.709  32.102  1.00  0.00     0.074 A 
ATOM     60  C   UNL A   1      44.111  26.853  31.389  1.00  0.00     0.031 C 
ATOM     61  C   UNL A   1      43.349  28.099  33.393  1.00  0.00     0.034 A 
BRANCH  48  62
ATOM     62  C   UNL A   1      38.758  31.709  35.507  1.00  0.00     0.023 A 
ATOM     63  C   UNL A   1      38.282  31.111  36.688  1.00  0.00     0.031 A 
ATOM     64  C   UNL A   1      38.663  33.107  35.397  1.00  0.00     0.131 A 
ATOM     65  C   UNL A   1      37.657  31.894  37.669  1.00  0.00     0.055 A 
ATOM     66  C   UNL A   1      38.116  33.891  36.416  1.00  0.00     0.041 A 
ATOM     67  F   UNL A   1      39.084  33.737  34.289  1.00  0.00    -0.206 F 
ATOM     68  C   UNL A   1      37.594  33.283  37.554  1.00  0.00     0.022 A 
BRANCH  65  69
ATOM     69  S   UNL A   1      36.791  31.054  39.025  1.00  0.00     0.124 S 
ATOM     70  O   UNL A   1      36.644  29.703  38.488  1.00  0.00    -0.237 OA
ATOM     71  O   UNL A   1      37.724  31.203  40.135  1.00  0.00    -0.237 OA
ATOM     72  O   UNL A   1      35.543  31.805  39.151  1.00  0.00    -0.744 OA
ENDBRANCH  65  69
ENDBRANCH  48  62
BRANCH  49  73
ATOM     73  C   UNL A   1      42.268  26.677  27.598  1.00  0.00     0.023 A 
ATOM     74  C   UNL A   1      42.053  25.305  27.390  1.00  0.00     0.031 A 
ATOM     75  C   UNL A   1      43.061  27.369  26.664  1.00  0.00     0.131 A 
ATOM     76  C   UNL A   1      42.659  24.659  26.301  1.00  0.00     0.055 A 
ATOM     77  C   UNL A   1      43.618  26.732  25.553  1.00  0.00     0.041 A 
ATOM     78  F   UNL A   1      43.292  28.683  26.812  1.00  0.00    -0.206 F 
ATOM     79  C   UNL A   1      43.429  25.365  25.375  1.00  0.00     0.022 A 
BRANCH  76  80
ATOM     80  S   UNL A   1      42.488  22.858  26.153  1.00  0.00     0.124 S 
ATOM     81  O   UNL A   1      43.307  22.389  27.264  1.00  0.00    -0.237 OA
ATOM     82  O   UNL A   1      41.047  22.679  26.296  1.00  0.00    -0.237 OA
ATOM     83  O   UNL A   1      43.020  22.575  24.821  1.00  0.00    -0.744 OA
ENDBRANCH  76  80
ENDBRANCH  49  73
BRANCH  61  84
ATOM     84  C   UNL A   1      44.564  27.571  34.118  1.00  0.00     0.023 A 
ATOM     85  C   UNL A   1      44.524  26.372  34.850  1.00  0.00     0.031 A 
ATOM     86  C   UNL A   1      45.769  28.295  34.102  1.00  0.00     0.131 A 
ATOM     87  C   UNL A   1      45.646  25.965  35.589  1.00  0.00     0.055 A 
ATOM     88  C   UNL A   1      46.903  27.852  34.786  1.00  0.00     0.041 A 
ATOM     89  F   UNL A   1      45.866  29.449  33.421  1.00  0.00    -0.206 F 
ATOM     90  C   UNL A   1      46.840  26.690  35.549  1.00  0.00     0.022 A 
BRANCH  87  91
ATOM     91  S   UNL A   1      45.491  24.532  36.690  1.00  0.00     0.124 S 
ATOM     92  O   UNL A   1      44.669  25.067  37.771  1.00  0.00    -0.237 OA
ATOM     93  O   UNL A   1      44.849  23.544  35.829  1.00  0.00    -0.237 OA
ATOM     94  O   UNL A   1      46.874  24.229  37.057  1.00  0.00    -0.744 OA
ENDBRANCH  87  91
ENDBRANCH  61  84
ENDBRANCH  35  36
ENDBRANCH  27  30
ENDBRANCH  25  26
ENDBRANCH   1  25
TORSDOF 15
ENDMDL
