MODEL 1
REMARK VINA RESULT:     -11.9      0.000      0.000
REMARK SMILES CC[C@H](C(=O)NCc1ccc(C(=O)NCCCNC(=O)c2ccc(-c3c4nc(c(-c5cc(S(=O)(=O)[O-])ccc5F)c5ccc([nH]5)c(-c5cc(S(=O)(=O)[O-])ccc5F)c5nc(c(-c6cc(S(=O)(=O)[O-])ccc6F)c6ccc3[nH]6)C=C5)C=C4)cc2)o1)c1ccccc1
REMARK SMILES IDX 15 1 14 2 12 3 13 4 11 6 8 7 9 8 84 9 10 10 7 11 6 12 4 13
REMARK SMILES IDX 5 14 3 16 2 17 1 18 85 19 86 20 90 21 87 22 89 23 88 24
REMARK SMILES IDX 16 25 17 26 18 27 19 28 20 30 21 31 22 32 83 33 23 34 82 35
REMARK SMILES IDX 24 36 25 37 26 38 76 39 27 40 81 41 75 42 77 43 28 44 80 45
REMARK SMILES IDX 74 46 73 47 29 49 61 50 41 51 60 52 42 53 45 54 59 55 78 56
REMARK SMILES IDX 43 57 44 58 58 60 79 61 46 62 30 63 31 64 39 65 32 66 38 67
REMARK SMILES IDX 40 68 37 69 33 70 34 71 35 72 36 73 62 74 63 75 71 76 64 77
REMARK SMILES IDX 70 78 72 79 69 80 65 81 66 82 67 83 68 84 47 85 48 86 56 87
REMARK SMILES IDX 49 88 55 89 57 90 54 91 50 92 51 93 52 94 53 95
REMARK H PARENT 14 5 6 15 18 29 77 48 45 59
REMARK Flexibility Score: inf
ROOT
ATOM      1  C   UNL A   1      31.441  30.907  26.006  1.00  0.00     0.118 C 
ENDROOT
BRANCH   1   2
ATOM      2  N   UNL A   1      32.754  30.322  26.196  1.00  0.00    -0.349 N 
ATOM      3  C   UNL A   1      33.185  29.024  26.068  1.00  0.00     0.286 C 
ATOM      4  O   UNL A   1      34.411  28.855  26.142  1.00  0.00    -0.266 OA
ATOM      5  H   UNL A   1      33.454  30.962  26.462  1.00  0.00     0.163 HD
BRANCH   3   6
ATOM      6  C   UNL A   1      32.257  27.930  25.854  1.00  0.00     0.191 A 
ATOM      7  C   UNL A   1      31.083  26.565  24.554  1.00  0.00     0.124 A 
ATOM      8  C   UNL A   1      30.852  26.166  25.853  1.00  0.00     0.048 A 
ATOM      9  O   UNL A   1      31.930  27.630  24.548  1.00  0.00    -0.454 OA
ATOM     10  C   UNL A   1      31.602  27.031  26.679  1.00  0.00     0.056 A 
BRANCH   7  11
ATOM     11  C   UNL A   1      30.637  26.057  23.229  1.00  0.00     0.191 C 
BRANCH  11  12
ATOM     12  N   UNL A   1      31.775  26.036  22.335  1.00  0.00    -0.348 N 
ATOM     13  C   UNL A   1      32.891  25.271  22.257  1.00  0.00     0.227 C 
ATOM     14  O   UNL A   1      33.765  25.696  21.489  1.00  0.00    -0.274 OA
ATOM     15  H   UNL A   1      31.729  26.724  21.632  1.00  0.00     0.163 HD
BRANCH  13  16
ATOM     16  C   UNL A   1      33.096  23.908  22.947  1.00  0.00     0.108 C 
BRANCH  16  17
ATOM     17  C   UNL A   1      32.863  22.603  22.170  1.00  0.00     0.015 C 
ATOM     18  C   UNL A   1      32.122  21.540  22.967  1.00  0.00     0.005 C 
ENDBRANCH  16  17
BRANCH  16  19
ATOM     19  C   UNL A   1      34.414  23.841  23.720  1.00  0.00    -0.036 A 
ATOM     20  C   UNL A   1      34.608  24.489  24.948  1.00  0.00     0.004 A 
ATOM     21  C   UNL A   1      35.486  23.113  23.172  1.00  0.00     0.004 A 
ATOM     22  C   UNL A   1      35.833  24.399  25.614  1.00  0.00     0.000 A 
ATOM     23  C   UNL A   1      36.711  23.033  23.833  1.00  0.00     0.000 A 
ATOM     24  C   UNL A   1      36.884  23.676  25.056  1.00  0.00     0.000 A 
ENDBRANCH  16  19
ENDBRANCH  13  16
ENDBRANCH  11  12
ENDBRANCH   7  11
ENDBRANCH   3   6
ENDBRANCH   1   2
BRANCH   1  25
ATOM     25  C   UNL A   1      31.367  32.348  26.506  1.00  0.00     0.042 C 
BRANCH  25  26
ATOM     26  C   UNL A   1      32.610  32.798  27.274  1.00  0.00     0.118 C 
BRANCH  26  27
ATOM     27  N   UNL A   1      32.521  34.190  27.689  1.00  0.00    -0.352 N 
ATOM     28  C   UNL A   1      33.142  34.858  28.713  1.00  0.00     0.251 C 
ATOM     29  H   UNL A   1      31.914  34.743  27.146  1.00  0.00     0.163 HD
ATOM     30  O   UNL A   1      32.719  35.967  29.036  1.00  0.00    -0.269 OA
BRANCH  28  31
ATOM     31  C   UNL A   1      34.295  34.266  29.428  1.00  0.00     0.039 A 
ATOM     32  C   UNL A   1      34.055  33.508  30.579  1.00  0.00     0.014 A 
ATOM     33  C   UNL A   1      35.609  34.499  29.013  1.00  0.00     0.014 A 
ATOM     34  C   UNL A   1      35.126  32.945  31.279  1.00  0.00     0.010 A 
ATOM     35  C   UNL A   1      36.670  33.874  29.666  1.00  0.00     0.010 A 
ATOM     36  C   UNL A   1      36.441  33.097  30.811  1.00  0.00    -0.014 A 
BRANCH  36  37
ATOM     37  C   UNL A   1      37.583  32.452  31.511  1.00  0.00     0.031 A 
ATOM     38  C   UNL A   1      38.319  31.306  30.870  1.00  0.00     0.074 A 
ATOM     39  C   UNL A   1      37.924  32.872  32.746  1.00  0.00     0.049 A 
ATOM     40  N   UNL A   1      39.301  30.583  31.345  1.00  0.00    -0.248 NA
ATOM     41  C   UNL A   1      37.871  30.903  29.529  1.00  0.00     0.031 C 
ATOM     42  C   UNL A   1      37.261  33.949  33.485  1.00  0.00     0.029 A 
ATOM     43  N   UNL A   1      38.910  32.445  33.600  1.00  0.00    -0.354 N 
ATOM     44  C   UNL A   1      39.583  29.635  30.367  1.00  0.00     0.074 A 
ATOM     45  C   UNL A   1      38.622  29.836  29.303  1.00  0.00     0.031 C 
ATOM     46  C   UNL A   1      37.877  34.118  34.664  1.00  0.00     0.029 A 
ATOM     47  C   UNL A   1      38.946  33.134  34.791  1.00  0.00     0.049 A 
ATOM     48  H   UNL A   1      39.531  31.713  33.382  1.00  0.00     0.167 HD
ATOM     49  C   UNL A   1      40.568  28.701  30.347  1.00  0.00     0.034 A 
ATOM     50  C   UNL A   1      39.745  32.984  35.866  1.00  0.00     0.034 A 
ATOM     51  C   UNL A   1      41.520  28.520  31.416  1.00  0.00     0.049 A 
ATOM     52  C   UNL A   1      40.812  31.920  35.834  1.00  0.00     0.074 A 
ATOM     53  C   UNL A   1      42.584  27.637  31.484  1.00  0.00     0.029 A 
ATOM     54  N   UNL A   1      41.522  29.231  32.610  1.00  0.00    -0.354 N 
ATOM     55  N   UNL A   1      41.095  31.061  34.880  1.00  0.00    -0.248 NA
ATOM     56  C   UNL A   1      41.674  31.813  37.016  1.00  0.00     0.031 C 
ATOM     57  C   UNL A   1      43.181  27.763  32.743  1.00  0.00     0.029 A 
ATOM     58  C   UNL A   1      42.547  28.784  33.432  1.00  0.00     0.049 A 
ATOM     59  H   UNL A   1      40.888  29.948  32.840  1.00  0.00     0.167 HD
ATOM     60  C   UNL A   1      42.191  30.334  35.338  1.00  0.00     0.074 A 
ATOM     61  C   UNL A   1      42.527  30.871  36.642  1.00  0.00     0.031 C 
ATOM     62  C   UNL A   1      42.862  29.319  34.737  1.00  0.00     0.034 A 
BRANCH  49  63
ATOM     63  C   UNL A   1      40.642  27.794  29.140  1.00  0.00     0.023 A 
ATOM     64  C   UNL A   1      41.583  28.001  28.116  1.00  0.00     0.031 A 
ATOM     65  C   UNL A   1      39.743  26.721  28.995  1.00  0.00     0.131 A 
ATOM     66  C   UNL A   1      41.552  27.204  26.961  1.00  0.00     0.055 A 
ATOM     67  C   UNL A   1      39.775  25.876  27.884  1.00  0.00     0.041 A 
ATOM     68  F   UNL A   1      38.807  26.482  29.928  1.00  0.00    -0.206 F 
ATOM     69  C   UNL A   1      40.673  26.125  26.849  1.00  0.00     0.022 A 
BRANCH  66  70
ATOM     70  S   UNL A   1      42.576  27.694  25.545  1.00  0.00     0.124 S 
ATOM     71  O   UNL A   1      41.838  28.848  25.035  1.00  0.00    -0.237 OA
ATOM     72  O   UNL A   1      43.862  27.981  26.168  1.00  0.00    -0.237 OA
ATOM     73  O   UNL A   1      42.550  26.515  24.680  1.00  0.00    -0.744 OA
ENDBRANCH  66  70
ENDBRANCH  49  63
BRANCH  50  74
ATOM     74  C   UNL A   1      39.571  33.854  37.065  1.00  0.00     0.023 A 
ATOM     75  C   UNL A   1      38.940  33.371  38.223  1.00  0.00     0.031 A 
ATOM     76  C   UNL A   1      39.994  35.195  37.057  1.00  0.00     0.131 A 
ATOM     77  C   UNL A   1      38.705  34.234  39.304  1.00  0.00     0.055 A 
ATOM     78  C   UNL A   1      39.810  36.034  38.157  1.00  0.00     0.041 A 
ATOM     79  F   UNL A   1      40.608  35.707  35.977  1.00  0.00    -0.206 F 
ATOM     80  C   UNL A   1      39.148  35.559  39.284  1.00  0.00     0.022 A 
BRANCH  77  81
ATOM     81  S   UNL A   1      37.727  33.624  40.704  1.00  0.00     0.124 S 
ATOM     82  O   UNL A   1      36.598  32.996  40.026  1.00  0.00    -0.237 OA
ATOM     83  O   UNL A   1      38.666  32.720  41.359  1.00  0.00    -0.237 OA
ATOM     84  O   UNL A   1      37.410  34.839  41.452  1.00  0.00    -0.744 OA
ENDBRANCH  77  81
ENDBRANCH  50  74
BRANCH  62  85
ATOM     85  C   UNL A   1      44.055  28.758  35.472  1.00  0.00     0.023 A 
ATOM     86  C   UNL A   1      43.933  27.687  36.376  1.00  0.00     0.031 A 
ATOM     87  C   UNL A   1      45.331  29.319  35.285  1.00  0.00     0.131 A 
ATOM     88  C   UNL A   1      45.050  27.257  37.106  1.00  0.00     0.055 A 
ATOM     89  C   UNL A   1      46.452  28.841  35.963  1.00  0.00     0.041 A 
ATOM     90  F   UNL A   1      45.508  30.345  34.436  1.00  0.00    -0.206 F 
ATOM     91  C   UNL A   1      46.313  27.815  36.892  1.00  0.00     0.022 A 
BRANCH  88  92
ATOM     92  S   UNL A   1      44.809  26.034  38.425  1.00  0.00     0.124 S 
ATOM     93  O   UNL A   1      43.858  26.713  39.298  1.00  0.00    -0.237 OA
ATOM     94  O   UNL A   1      44.292  24.883  37.691  1.00  0.00    -0.237 OA
ATOM     95  O   UNL A   1      46.149  25.862  38.981  1.00  0.00    -0.744 OA
ENDBRANCH  88  92
ENDBRANCH  62  85
ENDBRANCH  36  37
ENDBRANCH  28  31
ENDBRANCH  26  27
ENDBRANCH  25  26
ENDBRANCH   1  25
TORSDOF 18
ENDMDL
MODEL 2
REMARK VINA RESULT:     -11.5      3.755      8.652
REMARK SMILES CC[C@H](C(=O)NCc1ccc(C(=O)NCCCNC(=O)c2ccc(-c3c4nc(c(-c5cc(S(=O)(=O)[O-])ccc5F)c5ccc([nH]5)c(-c5cc(S(=O)(=O)[O-])ccc5F)c5nc(c(-c6cc(S(=O)(=O)[O-])ccc6F)c6ccc3[nH]6)C=C5)C=C4)cc2)o1)c1ccccc1
REMARK SMILES IDX 15 1 14 2 12 3 13 4 11 6 8 7 9 8 84 9 10 10 7 11 6 12 4 13
REMARK SMILES IDX 5 14 3 16 2 17 1 18 85 19 86 20 90 21 87 22 89 23 88 24
REMARK SMILES IDX 16 25 17 26 18 27 19 28 20 30 21 31 22 32 83 33 23 34 82 35
REMARK SMILES IDX 24 36 25 37 26 38 76 39 27 40 81 41 75 42 77 43 28 44 80 45
REMARK SMILES IDX 74 46 73 47 29 49 61 50 41 51 60 52 42 53 45 54 59 55 78 56
REMARK SMILES IDX 43 57 44 58 58 60 79 61 46 62 30 63 31 64 39 65 32 66 38 67
REMARK SMILES IDX 40 68 37 69 33 70 34 71 35 72 36 73 62 74 63 75 71 76 64 77
REMARK SMILES IDX 70 78 72 79 69 80 65 81 66 82 67 83 68 84 47 85 48 86 56 87
REMARK SMILES IDX 49 88 55 89 57 90 54 91 50 92 51 93 52 94 53 95
REMARK H PARENT 14 5 6 15 18 29 77 48 45 59
REMARK Flexibility Score: inf
ROOT
ATOM      1  C   UNL A   1      32.952  28.826  24.747  1.00  0.00     0.118 C 
ENDROOT
BRANCH   1   2
ATOM      2  N   UNL A   1      33.731  28.787  23.525  1.00  0.00    -0.349 N 
ATOM      3  C   UNL A   1      33.721  27.891  22.482  1.00  0.00     0.286 C 
ATOM      4  O   UNL A   1      34.396  28.212  21.493  1.00  0.00    -0.266 OA
ATOM      5  H   UNL A   1      34.375  29.526  23.425  1.00  0.00     0.163 HD
BRANCH   3   6
ATOM      6  C   UNL A   1      32.963  26.657  22.545  1.00  0.00     0.191 A 
ATOM      7  C   UNL A   1      32.780  24.446  22.434  1.00  0.00     0.124 A 
ATOM      8  C   UNL A   1      31.533  24.928  22.770  1.00  0.00     0.048 A 
ATOM      9  O   UNL A   1      33.648  25.486  22.296  1.00  0.00    -0.454 OA
ATOM     10  C   UNL A   1      31.650  26.333  22.845  1.00  0.00     0.056 A 
BRANCH   7  11
ATOM     11  C   UNL A   1      33.336  23.081  22.240  1.00  0.00     0.191 C 
BRANCH  11  12
ATOM     12  N   UNL A   1      34.338  22.841  23.258  1.00  0.00    -0.348 N 
ATOM     13  C   UNL A   1      34.314  22.243  24.474  1.00  0.00     0.227 C 
ATOM     14  O   UNL A   1      35.322  22.430  25.169  1.00  0.00    -0.274 OA
ATOM     15  H   UNL A   1      35.227  23.186  23.015  1.00  0.00     0.163 HD
BRANCH  13  16
ATOM     16  C   UNL A   1      33.212  21.296  24.987  1.00  0.00     0.108 C 
BRANCH  16  17
ATOM     17  C   UNL A   1      31.758  21.782  25.089  1.00  0.00     0.015 C 
ATOM     18  C   UNL A   1      31.580  22.998  25.985  1.00  0.00     0.005 C 
ENDBRANCH  16  17
BRANCH  16  19
ATOM     19  C   UNL A   1      33.270  19.922  24.318  1.00  0.00    -0.036 A 
ATOM     20  C   UNL A   1      32.330  19.501  23.366  1.00  0.00     0.004 A 
ATOM     21  C   UNL A   1      34.298  19.033  24.679  1.00  0.00     0.004 A 
ATOM     22  C   UNL A   1      32.425  18.234  22.785  1.00  0.00     0.000 A 
ATOM     23  C   UNL A   1      34.385  17.765  24.106  1.00  0.00     0.000 A 
ATOM     24  C   UNL A   1      33.448  17.366  23.156  1.00  0.00     0.000 A 
ENDBRANCH  16  19
ENDBRANCH  13  16
ENDBRANCH  11  12
ENDBRANCH   7  11
ENDBRANCH   3   6
ENDBRANCH   1   2
BRANCH   1  25
ATOM     25  C   UNL A   1      33.638  28.096  25.899  1.00  0.00     0.042 C 
BRANCH  25  26
ATOM     26  C   UNL A   1      33.367  28.717  27.269  1.00  0.00     0.118 C 
BRANCH  26  27
ATOM     27  N   UNL A   1      33.477  30.169  27.243  1.00  0.00    -0.352 N 
ATOM     28  C   UNL A   1      34.413  31.004  27.798  1.00  0.00     0.251 C 
ATOM     29  H   UNL A   1      32.762  30.625  26.745  1.00  0.00     0.163 HD
ATOM     30  O   UNL A   1      34.163  32.206  27.866  1.00  0.00    -0.269 OA
BRANCH  28  31
ATOM     31  C   UNL A   1      35.698  30.481  28.313  1.00  0.00     0.039 A 
ATOM     32  C   UNL A   1      35.705  29.800  29.535  1.00  0.00     0.014 A 
ATOM     33  C   UNL A   1      36.901  30.708  27.640  1.00  0.00     0.014 A 
ATOM     34  C   UNL A   1      36.906  29.306  30.051  1.00  0.00     0.010 A 
ATOM     35  C   UNL A   1      38.085  30.148  28.115  1.00  0.00     0.010 A 
ATOM     36  C   UNL A   1      38.102  29.447  29.329  1.00  0.00    -0.014 A 
BRANCH  36  37
ATOM     37  C   UNL A   1      39.376  28.872  29.837  1.00  0.00     0.031 A 
ATOM     38  C   UNL A   1      40.051  29.466  31.044  1.00  0.00     0.074 A 
ATOM     39  C   UNL A   1      39.946  27.843  29.179  1.00  0.00     0.049 A 
ATOM     40  N   UNL A   1      41.189  29.139  31.602  1.00  0.00    -0.248 NA
ATOM     41  C   UNL A   1      39.369  30.596  31.692  1.00  0.00     0.031 C 
ATOM     42  C   UNL A   1      39.405  27.208  27.975  1.00  0.00     0.029 A 
ATOM     43  N   UNL A   1      41.106  27.151  29.424  1.00  0.00    -0.354 N 
ATOM     44  C   UNL A   1      41.364  30.026  32.660  1.00  0.00     0.074 A 
ATOM     45  C   UNL A   1      40.246  30.946  32.620  1.00  0.00     0.031 C 
ATOM     46  C   UNL A   1      40.212  26.201  27.607  1.00  0.00     0.029 A 
ATOM     47  C   UNL A   1      41.353  26.148  28.515  1.00  0.00     0.049 A 
ATOM     48  H   UNL A   1      41.704  27.354  30.179  1.00  0.00     0.167 HD
ATOM     49  C   UNL A   1      42.350  30.055  33.591  1.00  0.00     0.034 A 
ATOM     50  C   UNL A   1      42.387  25.288  28.418  1.00  0.00     0.034 A 
ATOM     51  C   UNL A   1      43.454  29.125  33.616  1.00  0.00     0.049 A 
ATOM     52  C   UNL A   1      43.487  25.359  29.447  1.00  0.00     0.074 A 
ATOM     53  C   UNL A   1      44.484  29.034  34.535  1.00  0.00     0.029 A 
ATOM     54  N   UNL A   1      43.677  28.128  32.674  1.00  0.00    -0.354 N 
ATOM     55  N   UNL A   1      43.613  26.176  30.468  1.00  0.00    -0.248 NA
ATOM     56  C   UNL A   1      44.576  24.385  29.316  1.00  0.00     0.031 C 
ATOM     57  C   UNL A   1      45.366  28.033  34.111  1.00  0.00     0.029 A 
ATOM     58  C   UNL A   1      44.843  27.439  32.973  1.00  0.00     0.049 A 
ATOM     59  H   UNL A   1      43.091  27.937  31.906  1.00  0.00     0.167 HD
ATOM     60  C   UNL A   1      44.781  25.789  31.120  1.00  0.00     0.074 A 
ATOM     61  C   UNL A   1      45.308  24.655  30.386  1.00  0.00     0.031 C 
ATOM     62  C   UNL A   1      45.365  26.319  32.224  1.00  0.00     0.034 A 
BRANCH  49  63
ATOM     63  C   UNL A   1      42.286  31.143  34.639  1.00  0.00     0.023 A 
ATOM     64  C   UNL A   1      42.897  32.394  34.445  1.00  0.00     0.031 A 
ATOM     65  C   UNL A   1      41.628  30.920  35.862  1.00  0.00     0.131 A 
ATOM     66  C   UNL A   1      42.909  33.340  35.481  1.00  0.00     0.055 A 
ATOM     67  C   UNL A   1      41.566  31.898  36.856  1.00  0.00     0.041 A 
ATOM     68  F   UNL A   1      41.042  29.738  36.118  1.00  0.00    -0.206 F 
ATOM     69  C   UNL A   1      42.223  33.112  36.676  1.00  0.00     0.022 A 
BRANCH  66  70
ATOM     70  S   UNL A   1      43.959  34.808  35.301  1.00  0.00     0.124 S 
ATOM     71  O   UNL A   1      45.042  34.511  36.236  1.00  0.00    -0.237 OA
ATOM     72  O   UNL A   1      44.308  34.776  33.886  1.00  0.00    -0.237 OA
ATOM     73  O   UNL A   1      43.082  35.908  35.703  1.00  0.00    -0.744 OA
ENDBRANCH  66  70
ENDBRANCH  49  63
BRANCH  50  74
ATOM     74  C   UNL A   1      42.439  24.289  27.312  1.00  0.00     0.023 A 
ATOM     75  C   UNL A   1      41.635  23.137  27.340  1.00  0.00     0.031 A 
ATOM     76  C   UNL A   1      43.324  24.448  26.231  1.00  0.00     0.131 A 
ATOM     77  C   UNL A   1      41.769  22.167  26.335  1.00  0.00     0.055 A 
ATOM     78  C   UNL A   1      43.410  23.507  25.203  1.00  0.00     0.041 A 
ATOM     79  F   UNL A   1      44.111  25.533  26.151  1.00  0.00    -0.206 F 
ATOM     80  C   UNL A   1      42.640  22.351  25.260  1.00  0.00     0.022 A 
BRANCH  77  81
ATOM     81  S   UNL A   1      40.849  20.613  26.504  1.00  0.00     0.124 S 
ATOM     82  O   UNL A   1      40.938  20.370  27.939  1.00  0.00    -0.237 OA
ATOM     83  O   UNL A   1      39.532  20.984  25.996  1.00  0.00    -0.237 OA
ATOM     84  O   UNL A   1      41.599  19.682  25.664  1.00  0.00    -0.744 OA
ENDBRANCH  77  81
ENDBRANCH  50  74
BRANCH  62  85
ATOM     85  C   UNL A   1      46.617  25.641  32.728  1.00  0.00     0.023 A 
ATOM     86  C   UNL A   1      46.569  24.613  33.686  1.00  0.00     0.031 A 
ATOM     87  C   UNL A   1      47.879  26.050  32.262  1.00  0.00     0.131 A 
ATOM     88  C   UNL A   1      47.761  24.075  34.194  1.00  0.00     0.055 A 
ATOM     89  C   UNL A   1      49.059  25.462  32.720  1.00  0.00     0.041 A 
ATOM     90  F   UNL A   1      47.987  27.029  31.349  1.00  0.00    -0.206 F 
ATOM     91  C   UNL A   1      49.004  24.480  33.705  1.00  0.00     0.022 A 
BRANCH  88  92
ATOM     92  S   UNL A   1      47.667  22.918  35.589  1.00  0.00     0.124 S 
ATOM     93  O   UNL A   1      47.523  21.635  34.910  1.00  0.00    -0.237 OA
ATOM     94  O   UNL A   1      48.941  23.142  36.265  1.00  0.00    -0.237 OA
ATOM     95  O   UNL A   1      46.487  23.365  36.327  1.00  0.00    -0.744 OA
ENDBRANCH  88  92
ENDBRANCH  62  85
ENDBRANCH  36  37
ENDBRANCH  28  31
ENDBRANCH  26  27
ENDBRANCH  25  26
ENDBRANCH   1  25
TORSDOF 18
ENDMDL
MODEL 3
REMARK VINA RESULT:     -11.5      2.648      8.250
REMARK SMILES CC[C@H](C(=O)NCc1ccc(C(=O)NCCCNC(=O)c2ccc(-c3c4nc(c(-c5cc(S(=O)(=O)[O-])ccc5F)c5ccc([nH]5)c(-c5cc(S(=O)(=O)[O-])ccc5F)c5nc(c(-c6cc(S(=O)(=O)[O-])ccc6F)c6ccc3[nH]6)C=C5)C=C4)cc2)o1)c1ccccc1
REMARK SMILES IDX 15 1 14 2 12 3 13 4 11 6 8 7 9 8 84 9 10 10 7 11 6 12 4 13
REMARK SMILES IDX 5 14 3 16 2 17 1 18 85 19 86 20 90 21 87 22 89 23 88 24
REMARK SMILES IDX 16 25 17 26 18 27 19 28 20 30 21 31 22 32 83 33 23 34 82 35
REMARK SMILES IDX 24 36 25 37 26 38 76 39 27 40 81 41 75 42 77 43 28 44 80 45
REMARK SMILES IDX 74 46 73 47 29 49 61 50 41 51 60 52 42 53 45 54 59 55 78 56
REMARK SMILES IDX 43 57 44 58 58 60 79 61 46 62 30 63 31 64 39 65 32 66 38 67
REMARK SMILES IDX 40 68 37 69 33 70 34 71 35 72 36 73 62 74 63 75 71 76 64 77
REMARK SMILES IDX 70 78 72 79 69 80 65 81 66 82 67 83 68 84 47 85 48 86 56 87
REMARK SMILES IDX 49 88 55 89 57 90 54 91 50 92 51 93 52 94 53 95
REMARK H PARENT 14 5 6 15 18 29 77 48 45 59
REMARK Flexibility Score: inf
ROOT
ATOM      1  C   UNL A   1      32.761  28.971  24.059  1.00  0.00     0.118 C 
ENDROOT
BRANCH   1   2
ATOM      2  N   UNL A   1      31.999  29.452  22.922  1.00  0.00    -0.349 N 
ATOM      3  C   UNL A   1      30.767  29.078  22.444  1.00  0.00     0.286 C 
ATOM      4  O   UNL A   1      30.303  29.788  21.539  1.00  0.00    -0.266 OA
ATOM      5  H   UNL A   1      32.439  30.167  22.407  1.00  0.00     0.163 HD
BRANCH   3   6
ATOM      6  C   UNL A   1      30.060  27.928  22.975  1.00  0.00     0.191 A 
ATOM      7  C   UNL A   1      29.913  25.778  23.511  1.00  0.00     0.124 A 
ATOM      8  C   UNL A   1      28.732  26.364  23.911  1.00  0.00     0.048 A 
ATOM      9  O   UNL A   1      30.720  26.717  22.944  1.00  0.00    -0.454 OA
ATOM     10  C   UNL A   1      28.827  27.732  23.574  1.00  0.00     0.056 A 
BRANCH   7  11
ATOM     11  C   UNL A   1      30.460  24.398  23.609  1.00  0.00     0.191 C 
BRANCH  11  12
ATOM     12  N   UNL A   1      31.627  24.302  22.757  1.00  0.00    -0.348 N 
ATOM     13  C   UNL A   1      32.851  23.740  22.905  1.00  0.00     0.227 C 
ATOM     14  O   UNL A   1      33.681  24.059  22.042  1.00  0.00    -0.274 OA
ATOM     15  H   UNL A   1      31.505  24.737  21.882  1.00  0.00     0.163 HD
BRANCH  13  16
ATOM     16  C   UNL A   1      33.235  22.691  23.966  1.00  0.00     0.108 C 
BRANCH  16  17
ATOM     17  C   UNL A   1      32.894  21.209  23.751  1.00  0.00     0.015 C 
ATOM     18  C   UNL A   1      32.148  20.935  22.453  1.00  0.00     0.005 C 
ENDBRANCH  16  17
BRANCH  16  19
ATOM     19  C   UNL A   1      34.684  22.842  24.433  1.00  0.00    -0.036 A 
ATOM     20  C   UNL A   1      35.684  21.910  24.119  1.00  0.00     0.004 A 
ATOM     21  C   UNL A   1      35.032  23.953  25.222  1.00  0.00     0.004 A 
ATOM     22  C   UNL A   1      36.993  22.092  24.571  1.00  0.00     0.000 A 
ATOM     23  C   UNL A   1      36.337  24.128  25.681  1.00  0.00     0.000 A 
ATOM     24  C   UNL A   1      37.319  23.197  25.353  1.00  0.00     0.000 A 
ENDBRANCH  16  19
ENDBRANCH  13  16
ENDBRANCH  11  12
ENDBRANCH   7  11
ENDBRANCH   3   6
ENDBRANCH   1   2
BRANCH   1  25
ATOM     25  C   UNL A   1      32.140  29.382  25.392  1.00  0.00     0.042 C 
BRANCH  25  26
ATOM     26  C   UNL A   1      33.168  29.722  26.470  1.00  0.00     0.118 C 
BRANCH  26  27
ATOM     27  N   UNL A   1      33.174  31.143  26.789  1.00  0.00    -0.352 N 
ATOM     28  C   UNL A   1      33.964  31.862  27.650  1.00  0.00     0.251 C 
ATOM     29  H   UNL A   1      32.500  31.675  26.309  1.00  0.00     0.163 HD
ATOM     30  O   UNL A   1      33.621  33.003  27.951  1.00  0.00    -0.269 OA
BRANCH  28  31
ATOM     31  C   UNL A   1      35.205  31.285  28.216  1.00  0.00     0.039 A 
ATOM     32  C   UNL A   1      36.379  32.044  28.173  1.00  0.00     0.014 A 
ATOM     33  C   UNL A   1      35.237  29.986  28.730  1.00  0.00     0.014 A 
ATOM     34  C   UNL A   1      37.567  31.521  28.691  1.00  0.00     0.010 A 
ATOM     35  C   UNL A   1      36.403  29.496  29.316  1.00  0.00     0.010 A 
ATOM     36  C   UNL A   1      37.582  30.254  29.296  1.00  0.00    -0.014 A 
BRANCH  36  37
ATOM     37  C   UNL A   1      38.824  29.711  29.906  1.00  0.00     0.031 A 
ATOM     38  C   UNL A   1      39.300  30.218  31.242  1.00  0.00     0.074 A 
ATOM     39  C   UNL A   1      39.547  28.795  29.232  1.00  0.00     0.049 A 
ATOM     40  N   UNL A   1      40.383  29.907  31.907  1.00  0.00    -0.248 NA
ATOM     41  C   UNL A   1      38.459  31.228  31.901  1.00  0.00     0.031 C 
ATOM     42  C   UNL A   1      39.207  28.256  27.913  1.00  0.00     0.029 A 
ATOM     43  N   UNL A   1      40.718  28.156  29.557  1.00  0.00    -0.354 N 
ATOM     44  C   UNL A   1      40.359  30.689  33.059  1.00  0.00     0.074 A 
ATOM     45  C   UNL A   1      39.188  31.535  32.963  1.00  0.00     0.031 C 
ATOM     46  C   UNL A   1      40.128  27.347  27.558  1.00  0.00     0.029 A 
ATOM     47  C   UNL A   1      41.150  27.272  28.596  1.00  0.00     0.049 A 
ATOM     48  H   UNL A   1      41.203  28.317  30.398  1.00  0.00     0.167 HD
ATOM     49  C   UNL A   1      41.220  30.683  34.108  1.00  0.00     0.034 A 
ATOM     50  C   UNL A   1      42.251  26.495  28.551  1.00  0.00     0.034 A 
ATOM     51  C   UNL A   1      42.380  29.828  34.186  1.00  0.00     0.049 A 
ATOM     52  C   UNL A   1      43.209  26.527  29.715  1.00  0.00     0.074 A 
ATOM     53  C   UNL A   1      43.295  29.707  35.217  1.00  0.00     0.029 A 
ATOM     54  N   UNL A   1      42.791  28.951  33.190  1.00  0.00    -0.354 N 
ATOM     55  N   UNL A   1      43.146  27.239  30.817  1.00  0.00    -0.248 NA
ATOM     56  C   UNL A   1      44.377  25.644  29.633  1.00  0.00     0.031 C 
ATOM     57  C   UNL A   1      44.295  28.814  34.817  1.00  0.00     0.029 A 
ATOM     58  C   UNL A   1      43.962  28.310  33.570  1.00  0.00     0.049 A 
ATOM     59  H   UNL A   1      42.320  28.804  32.338  1.00  0.00     0.167 HD
ATOM     60  C   UNL A   1      44.253  26.862  31.574  1.00  0.00     0.074 A 
ATOM     61  C   UNL A   1      44.950  25.847  30.809  1.00  0.00     0.031 C 
ATOM     62  C   UNL A   1      44.655  27.310  32.791  1.00  0.00     0.034 A 
BRANCH  49  63
ATOM     63  C   UNL A   1      40.945  31.649  35.238  1.00  0.00     0.023 A 
ATOM     64  C   UNL A   1      39.876  31.457  36.130  1.00  0.00     0.031 A 
ATOM     65  C   UNL A   1      41.746  32.792  35.413  1.00  0.00     0.131 A 
ATOM     66  C   UNL A   1      39.587  32.429  37.101  1.00  0.00     0.055 A 
ATOM     67  C   UNL A   1      41.507  33.711  36.436  1.00  0.00     0.041 A 
ATOM     68  F   UNL A   1      42.770  33.044  34.581  1.00  0.00    -0.206 F 
ATOM     69  C   UNL A   1      40.411  33.542  37.279  1.00  0.00     0.022 A 
BRANCH  66  70
ATOM     70  S   UNL A   1      38.032  32.293  38.025  1.00  0.00     0.124 S 
ATOM     71  O   UNL A   1      37.573  30.962  37.633  1.00  0.00    -0.237 OA
ATOM     72  O   UNL A   1      38.471  32.437  39.407  1.00  0.00    -0.237 OA
ATOM     73  O   UNL A   1      37.227  33.399  37.508  1.00  0.00    -0.744 OA
ENDBRANCH  66  70
ENDBRANCH  49  63
BRANCH  50  74
ATOM     74  C   UNL A   1      42.514  25.622  27.370  1.00  0.00     0.023 A 
ATOM     75  C   UNL A   1      42.069  24.290  27.343  1.00  0.00     0.031 A 
ATOM     76  C   UNL A   1      43.250  26.092  26.269  1.00  0.00     0.131 A 
ATOM     77  C   UNL A   1      42.408  23.461  26.263  1.00  0.00     0.055 A 
ATOM     78  C   UNL A   1      43.535  25.280  25.170  1.00  0.00     0.041 A 
ATOM     79  F   UNL A   1      43.695  27.359  26.241  1.00  0.00    -0.206 F 
ATOM     80  C   UNL A   1      43.125  23.952  25.169  1.00  0.00     0.022 A 
BRANCH  77  81
ATOM     81  S   UNL A   1      41.974  21.703  26.350  1.00  0.00     0.124 S 
ATOM     82  O   UNL A   1      42.873  21.125  25.357  1.00  0.00    -0.237 OA
ATOM     83  O   UNL A   1      42.268  21.386  27.743  1.00  0.00    -0.237 OA
ATOM     84  O   UNL A   1      40.556  21.685  25.996  1.00  0.00    -0.744 OA
ENDBRANCH  77  81
ENDBRANCH  50  74
BRANCH  62  85
ATOM     85  C   UNL A   1      45.885  26.665  33.384  1.00  0.00     0.023 A 
ATOM     86  C   UNL A   1      45.811  25.474  34.128  1.00  0.00     0.031 A 
ATOM     87  C   UNL A   1      47.147  27.266  33.225  1.00  0.00     0.131 A 
ATOM     88  C   UNL A   1      46.964  24.959  34.740  1.00  0.00     0.055 A 
ATOM     89  C   UNL A   1      48.301  26.711  33.778  1.00  0.00     0.041 A 
ATOM     90  F   UNL A   1      47.278  28.406  32.527  1.00  0.00    -0.206 F 
ATOM     91  C   UNL A   1      48.211  25.559  34.554  1.00  0.00     0.022 A 
BRANCH  88  92
ATOM     92  S   UNL A   1      46.792  23.555  35.877  1.00  0.00     0.124 S 
ATOM     93  O   UNL A   1      46.155  22.554  35.029  1.00  0.00    -0.237 OA
ATOM     94  O   UNL A   1      48.176  23.287  36.251  1.00  0.00    -0.237 OA
ATOM     95  O   UNL A   1      45.952  24.084  36.950  1.00  0.00    -0.744 OA
ENDBRANCH  88  92
ENDBRANCH  62  85
ENDBRANCH  36  37
ENDBRANCH  28  31
ENDBRANCH  26  27
ENDBRANCH  25  26
ENDBRANCH   1  25
TORSDOF 18
ENDMDL
