MODEL 1
REMARK VINA RESULT:     -11.6      0.000      0.000
REMARK SMILES COc1cccc(-c2ccc(C#N)c(SCC(=O)NCCCNC(=O)c3ccc(-c4c5nc(c(-c6cc(S(=O)(=O)[O-])ccc6F)c6ccc([nH]6)c(-c6cc(S(=O)(=O)[O-])ccc6F)c6nc(c(-c7cc(S(=O)(=O)[O-])ccc7F)c7ccc4[nH]7)C=C6)C=C5)cc3)n2)c1
REMARK SMILES IDX 20 1 19 2 17 3 18 4 16 6 15 7 14 8 8 9 9 10 89 11 10 12
REMARK SMILES IDX 11 13 7 14 3 15 4 16 90 17 5 18 6 19 2 20 1 21 12 22 13 23
REMARK SMILES IDX 21 24 22 25 23 26 24 27 25 29 26 30 27 31 88 32 28 33 87 34
REMARK SMILES IDX 29 35 30 36 31 37 81 38 32 39 86 40 80 41 82 42 33 43 85 44
REMARK SMILES IDX 79 45 78 46 34 48 66 49 46 50 65 51 47 52 50 53 64 54 83 55
REMARK SMILES IDX 48 56 49 57 63 59 84 60 51 61 35 62 36 63 44 64 37 65 43 66
REMARK SMILES IDX 45 67 42 68 38 69 39 70 40 71 41 72 67 73 68 74 76 75 69 76
REMARK SMILES IDX 75 77 77 78 74 79 70 80 71 81 72 82 73 83 52 84 53 85 61 86
REMARK SMILES IDX 54 87 60 88 62 89 59 90 55 91 56 92 57 93 58 94
REMARK H PARENT 19 5 23 28 82 47 50 58
REMARK Flexibility Score: inf
ROOT
ATOM      1  C   UNL A   1      32.017  30.558  26.880  1.00  0.00     0.117 C 
ENDROOT
BRANCH   1   2
ATOM      2  N   UNL A   1      33.270  30.257  27.541  1.00  0.00    -0.355 N 
ATOM      3  C   UNL A   1      34.226  29.345  27.226  1.00  0.00     0.230 C 
ATOM      4  O   UNL A   1      35.151  29.207  28.027  1.00  0.00    -0.274 OA
ATOM      5  H   UNL A   1      33.459  30.797  28.342  1.00  0.00     0.163 HD
BRANCH   3   6
ATOM      6  C   UNL A   1      34.196  28.596  25.910  1.00  0.00     0.176 C 
BRANCH   6   7
ATOM      7  S   UNL A   1      33.190  27.083  25.896  1.00  0.00    -0.095 SA
BRANCH   7   8
ATOM      8  C   UNL A   1      32.297  26.995  24.352  1.00  0.00     0.115 A 
ATOM      9  C   UNL A   1      30.666  28.208  23.149  1.00  0.00     0.072 A 
ATOM     10  C   UNL A   1      30.717  27.298  22.103  1.00  0.00     0.030 A 
ATOM     11  N   UNL A   1      31.426  28.050  24.260  1.00  0.00    -0.240 NA
ATOM     12  C   UNL A   1      31.611  26.242  22.178  1.00  0.00     0.024 A 
ATOM     13  C   UNL A   1      32.450  26.102  23.293  1.00  0.00     0.084 A 
BRANCH   9  14
ATOM     14  C   UNL A   1      29.841  29.424  23.034  1.00  0.00     0.004 A 
ATOM     15  C   UNL A   1      28.648  31.020  21.616  1.00  0.00     0.119 A 
ATOM     16  C   UNL A   1      28.592  31.921  22.677  1.00  0.00     0.046 A 
ATOM     17  C   UNL A   1      29.266  29.781  21.797  1.00  0.00     0.056 A 
ATOM     18  C   UNL A   1      29.108  31.573  23.924  1.00  0.00     0.005 A 
ATOM     19  C   UNL A   1      29.723  30.329  24.102  1.00  0.00     0.010 A 
BRANCH  15  20
ATOM     20  O   UNL A   1      28.161  31.477  20.422  1.00  0.00    -0.497 OA
ATOM     21  C   UNL A   1      27.750  32.842  20.409  1.00  0.00     0.278 C 
ENDBRANCH  15  20
ENDBRANCH   9  14
BRANCH  13  22
ATOM     22  C   UNL A   1      33.489  25.132  23.181  1.00  0.00     0.102 C 
ATOM     23  N   UNL A   1      34.391  24.397  23.153  1.00  0.00    -0.192 NA
ENDBRANCH  13  22
ENDBRANCH   7   8
ENDBRANCH   6   7
ENDBRANCH   3   6
ENDBRANCH   1   2
BRANCH   1  24
ATOM     24  C   UNL A   1      31.771  32.062  26.822  1.00  0.00     0.042 C 
BRANCH  24  25
ATOM     25  C   UNL A   1      32.991  32.906  27.185  1.00  0.00     0.118 C 
BRANCH  25  26
ATOM     26  N   UNL A   1      32.634  34.225  27.690  1.00  0.00    -0.352 N 
ATOM     27  C   UNL A   1      33.089  34.897  28.799  1.00  0.00     0.251 C 
ATOM     28  H   UNL A   1      31.965  34.709  27.155  1.00  0.00     0.163 HD
ATOM     29  O   UNL A   1      32.504  35.910  29.169  1.00  0.00    -0.269 OA
BRANCH  27  30
ATOM     30  C   UNL A   1      34.256  34.389  29.551  1.00  0.00     0.039 A 
ATOM     31  C   UNL A   1      34.043  33.704  30.749  1.00  0.00     0.014 A 
ATOM     32  C   UNL A   1      35.556  34.590  29.081  1.00  0.00     0.014 A 
ATOM     33  C   UNL A   1      35.130  33.159  31.435  1.00  0.00     0.010 A 
ATOM     34  C   UNL A   1      36.628  33.968  29.718  1.00  0.00     0.010 A 
ATOM     35  C   UNL A   1      36.428  33.246  30.902  1.00  0.00    -0.014 A 
BRANCH  35  36
ATOM     36  C   UNL A   1      37.580  32.582  31.570  1.00  0.00     0.031 A 
ATOM     37  C   UNL A   1      38.291  31.440  30.896  1.00  0.00     0.074 A 
ATOM     38  C   UNL A   1      37.955  32.978  32.804  1.00  0.00     0.049 A 
ATOM     39  N   UNL A   1      39.270  30.696  31.345  1.00  0.00    -0.248 NA
ATOM     40  C   UNL A   1      37.823  31.066  29.552  1.00  0.00     0.031 C 
ATOM     41  C   UNL A   1      37.324  34.054  33.572  1.00  0.00     0.029 A 
ATOM     42  N   UNL A   1      38.952  32.526  33.631  1.00  0.00    -0.354 N 
ATOM     43  C   UNL A   1      39.535  29.771  30.342  1.00  0.00     0.074 A 
ATOM     44  C   UNL A   1      38.565  30.001  29.292  1.00  0.00     0.031 C 
ATOM     45  C   UNL A   1      37.973  34.203  34.737  1.00  0.00     0.029 A 
ATOM     46  C   UNL A   1      39.022  33.194  34.833  1.00  0.00     0.049 A 
ATOM     47  H   UNL A   1      39.561  31.791  33.388  1.00  0.00     0.167 HD
ATOM     48  C   UNL A   1      40.511  28.831  30.291  1.00  0.00     0.034 A 
ATOM     49  C   UNL A   1      39.825  33.004  35.900  1.00  0.00     0.034 A 
ATOM     50  C   UNL A   1      41.471  28.613  31.346  1.00  0.00     0.049 A 
ATOM     51  C   UNL A   1      40.860  31.907  35.844  1.00  0.00     0.074 A 
ATOM     52  C   UNL A   1      42.523  27.715  31.377  1.00  0.00     0.029 A 
ATOM     53  N   UNL A   1      41.491  29.290  32.558  1.00  0.00    -0.354 N 
ATOM     54  N   UNL A   1      41.122  31.067  34.868  1.00  0.00    -0.248 NA
ATOM     55  C   UNL A   1      41.712  31.737  37.028  1.00  0.00     0.031 C 
ATOM     56  C   UNL A   1      43.119  27.782  32.640  1.00  0.00     0.029 A 
ATOM     57  C   UNL A   1      42.510  28.797  33.360  1.00  0.00     0.049 A 
ATOM     58  H   UNL A   1      40.873  30.013  32.812  1.00  0.00     0.167 HD
ATOM     59  C   UNL A   1      42.197  30.298  35.309  1.00  0.00     0.074 A 
ATOM     60  C   UNL A   1      42.541  30.785  36.628  1.00  0.00     0.031 C 
ATOM     61  C   UNL A   1      42.844  29.285  34.678  1.00  0.00     0.034 A 
BRANCH  48  62
ATOM     62  C   UNL A   1      40.573  27.950  29.066  1.00  0.00     0.023 A 
ATOM     63  C   UNL A   1      41.525  28.156  28.052  1.00  0.00     0.031 A 
ATOM     64  C   UNL A   1      39.664  26.888  28.907  1.00  0.00     0.131 A 
ATOM     65  C   UNL A   1      41.504  27.359  26.898  1.00  0.00     0.055 A 
ATOM     66  C   UNL A   1      39.708  26.041  27.797  1.00  0.00     0.041 A 
ATOM     67  F   UNL A   1      38.715  26.656  29.827  1.00  0.00    -0.206 F 
ATOM     68  C   UNL A   1      40.622  26.283  26.778  1.00  0.00     0.022 A 
BRANCH  65  69
ATOM     69  S   UNL A   1      42.544  27.845  25.494  1.00  0.00     0.124 S 
ATOM     70  O   UNL A   1      42.437  26.671  24.630  1.00  0.00    -0.237 OA
ATOM     71  O   UNL A   1      41.883  29.053  25.014  1.00  0.00    -0.237 OA
ATOM     72  O   UNL A   1      43.858  28.048  26.096  1.00  0.00    -0.744 OA
ENDBRANCH  65  69
ENDBRANCH  48  62
BRANCH  49  73
ATOM     73  C   UNL A   1      39.678  33.846  37.125  1.00  0.00     0.023 A 
ATOM     74  C   UNL A   1      39.084  33.335  38.289  1.00  0.00     0.031 A 
ATOM     75  C   UNL A   1      40.068  35.197  37.127  1.00  0.00     0.131 A 
ATOM     76  C   UNL A   1      38.833  34.183  39.379  1.00  0.00     0.055 A 
ATOM     77  C   UNL A   1      39.886  36.019  38.241  1.00  0.00     0.041 A 
ATOM     78  F   UNL A   1      40.637  35.744  36.040  1.00  0.00    -0.206 F 
ATOM     79  C   UNL A   1      39.248  35.516  39.370  1.00  0.00     0.022 A 
BRANCH  76  80
ATOM     80  S   UNL A   1      37.838  33.552  40.758  1.00  0.00     0.124 S 
ATOM     81  O   UNL A   1      38.833  32.806  41.520  1.00  0.00    -0.237 OA
ATOM     82  O   UNL A   1      37.350  34.783  41.369  1.00  0.00    -0.237 OA
ATOM     83  O   UNL A   1      36.819  32.739  40.097  1.00  0.00    -0.744 OA
ENDBRANCH  76  80
ENDBRANCH  49  73
BRANCH  61  84
ATOM     84  C   UNL A   1      44.031  28.673  35.385  1.00  0.00     0.023 A 
ATOM     85  C   UNL A   1      43.894  27.599  36.280  1.00  0.00     0.031 A 
ATOM     86  C   UNL A   1      45.324  29.182  35.159  1.00  0.00     0.131 A 
ATOM     87  C   UNL A   1      45.018  27.111  36.963  1.00  0.00     0.055 A 
ATOM     88  C   UNL A   1      46.448  28.640  35.781  1.00  0.00     0.041 A 
ATOM     89  F   UNL A   1      45.516  30.213  34.320  1.00  0.00    -0.206 F 
ATOM     90  C   UNL A   1      46.297  27.609  36.701  1.00  0.00     0.022 A 
BRANCH  87  91
ATOM     91  S   UNL A   1      44.772  25.892  38.284  1.00  0.00     0.124 S 
ATOM     92  O   UNL A   1      45.936  26.127  39.132  1.00  0.00    -0.237 OA
ATOM     93  O   UNL A   1      43.485  26.293  38.844  1.00  0.00    -0.237 OA
ATOM     94  O   UNL A   1      44.768  24.614  37.576  1.00  0.00    -0.744 OA
ENDBRANCH  87  91
ENDBRANCH  61  84
ENDBRANCH  35  36
ENDBRANCH  27  30
ENDBRANCH  25  26
ENDBRANCH  24  25
ENDBRANCH   1  24
TORSDOF 18
ENDMDL
MODEL 2
REMARK VINA RESULT:     -11.3      1.934      7.837
REMARK SMILES COc1cccc(-c2ccc(C#N)c(SCC(=O)NCCCNC(=O)c3ccc(-c4c5nc(c(-c6cc(S(=O)(=O)[O-])ccc6F)c6ccc([nH]6)c(-c6cc(S(=O)(=O)[O-])ccc6F)c6nc(c(-c7cc(S(=O)(=O)[O-])ccc7F)c7ccc4[nH]7)C=C6)C=C5)cc3)n2)c1
REMARK SMILES IDX 20 1 19 2 17 3 18 4 16 6 15 7 14 8 8 9 9 10 89 11 10 12
REMARK SMILES IDX 11 13 7 14 3 15 4 16 90 17 5 18 6 19 2 20 1 21 12 22 13 23
REMARK SMILES IDX 21 24 22 25 23 26 24 27 25 29 26 30 27 31 88 32 28 33 87 34
REMARK SMILES IDX 29 35 30 36 31 37 81 38 32 39 86 40 80 41 82 42 33 43 85 44
REMARK SMILES IDX 79 45 78 46 34 48 66 49 46 50 65 51 47 52 50 53 64 54 83 55
REMARK SMILES IDX 48 56 49 57 63 59 84 60 51 61 35 62 36 63 44 64 37 65 43 66
REMARK SMILES IDX 45 67 42 68 38 69 39 70 40 71 41 72 67 73 68 74 76 75 69 76
REMARK SMILES IDX 75 77 77 78 74 79 70 80 71 81 72 82 73 83 52 84 53 85 61 86
REMARK SMILES IDX 54 87 60 88 62 89 59 90 55 91 56 92 57 93 58 94
REMARK H PARENT 19 5 23 28 82 47 50 58
REMARK Flexibility Score: inf
ROOT
ATOM      1  C   UNL A   1      33.598  30.404  27.182  1.00  0.00     0.117 C 
ENDROOT
BRANCH   1   2
ATOM      2  N   UNL A   1      32.523  29.553  27.650  1.00  0.00    -0.355 N 
ATOM      3  C   UNL A   1      32.262  28.248  27.379  1.00  0.00     0.230 C 
ATOM      4  O   UNL A   1      31.206  27.788  27.817  1.00  0.00    -0.274 OA
ATOM      5  H   UNL A   1      31.883  29.987  28.259  1.00  0.00     0.163 HD
BRANCH   3   6
ATOM      6  C   UNL A   1      33.263  27.381  26.645  1.00  0.00     0.176 C 
BRANCH   6   7
ATOM      7  S   UNL A   1      32.614  25.810  26.002  1.00  0.00    -0.095 SA
BRANCH   7   8
ATOM      8  C   UNL A   1      32.083  26.050  24.315  1.00  0.00     0.115 A 
ATOM      9  C   UNL A   1      30.541  27.348  23.083  1.00  0.00     0.072 A 
ATOM     10  C   UNL A   1      30.964  26.777  21.892  1.00  0.00     0.030 A 
ATOM     11  N   UNL A   1      31.075  26.978  24.273  1.00  0.00    -0.240 NA
ATOM     12  C   UNL A   1      31.999  25.854  21.923  1.00  0.00     0.024 A 
ATOM     13  C   UNL A   1      32.604  25.511  23.140  1.00  0.00     0.084 A 
BRANCH   9  14
ATOM     14  C   UNL A   1      29.554  28.442  23.070  1.00  0.00     0.004 A 
ATOM     15  C   UNL A   1      29.017  30.785  23.520  1.00  0.00     0.119 A 
ATOM     16  C   UNL A   1      27.658  30.490  23.439  1.00  0.00     0.046 A 
ATOM     17  C   UNL A   1      29.955  29.767  23.333  1.00  0.00     0.056 A 
ATOM     18  C   UNL A   1      27.236  29.198  23.130  1.00  0.00     0.005 A 
ATOM     19  C   UNL A   1      28.179  28.182  22.940  1.00  0.00     0.010 A 
BRANCH  15  20
ATOM     20  O   UNL A   1      29.325  32.068  23.880  1.00  0.00    -0.497 OA
ATOM     21  C   UNL A   1      28.921  33.078  22.959  1.00  0.00     0.278 C 
ENDBRANCH  15  20
ENDBRANCH   9  14
BRANCH  13  22
ATOM     22  C   UNL A   1      33.800  24.739  23.051  1.00  0.00     0.102 C 
ATOM     23  N   UNL A   1      34.774  24.125  22.879  1.00  0.00    -0.192 NA
ENDBRANCH  13  22
ENDBRANCH   7   8
ENDBRANCH   6   7
ENDBRANCH   3   6
ENDBRANCH   1   2
BRANCH   1  24
ATOM     24  C   UNL A   1      33.055  31.648  26.488  1.00  0.00     0.042 C 
BRANCH  24  25
ATOM     25  C   UNL A   1      32.067  32.450  27.332  1.00  0.00     0.118 C 
BRANCH  25  26
ATOM     26  N   UNL A   1      32.458  33.844  27.489  1.00  0.00    -0.352 N 
ATOM     27  C   UNL A   1      33.510  34.392  28.181  1.00  0.00     0.251 C 
ATOM     28  H   UNL A   1      31.879  34.493  27.027  1.00  0.00     0.163 HD
ATOM     29  O   UNL A   1      33.542  35.605  28.367  1.00  0.00    -0.269 OA
BRANCH  27  30
ATOM     30  C   UNL A   1      34.581  33.525  28.717  1.00  0.00     0.039 A 
ATOM     31  C   UNL A   1      35.847  33.569  28.127  1.00  0.00     0.014 A 
ATOM     32  C   UNL A   1      34.341  32.666  29.793  1.00  0.00     0.014 A 
ATOM     33  C   UNL A   1      36.887  32.808  28.665  1.00  0.00     0.010 A 
ATOM     34  C   UNL A   1      35.400  31.979  30.382  1.00  0.00     0.010 A 
ATOM     35  C   UNL A   1      36.685  32.042  29.825  1.00  0.00    -0.014 A 
BRANCH  35  36
ATOM     36  C   UNL A   1      37.808  31.307  30.467  1.00  0.00     0.031 A 
ATOM     37  C   UNL A   1      38.178  31.590  31.898  1.00  0.00     0.074 A 
ATOM     38  C   UNL A   1      38.524  30.420  29.746  1.00  0.00     0.049 A 
ATOM     39  N   UNL A   1      39.162  31.100  32.609  1.00  0.00    -0.248 NA
ATOM     40  C   UNL A   1      37.350  32.570  32.617  1.00  0.00     0.031 C 
ATOM     41  C   UNL A   1      38.279  30.083  28.342  1.00  0.00     0.029 A 
ATOM     42  N   UNL A   1      39.600  29.640  30.088  1.00  0.00    -0.354 N 
ATOM     43  C   UNL A   1      39.072  31.711  33.854  1.00  0.00     0.074 A 
ATOM     44  C   UNL A   1      37.981  32.660  33.778  1.00  0.00     0.031 C 
ATOM     45  C   UNL A   1      39.154  29.139  27.957  1.00  0.00     0.029 A 
ATOM     46  C   UNL A   1      40.063  28.850  29.061  1.00  0.00     0.049 A 
ATOM     47  H   UNL A   1      40.005  29.646  30.986  1.00  0.00     0.167 HD
ATOM     48  C   UNL A   1      39.815  31.485  34.966  1.00  0.00     0.034 A 
ATOM     49  C   UNL A   1      41.111  28.004  29.004  1.00  0.00     0.034 A 
ATOM     50  C   UNL A   1      40.900  30.536  35.026  1.00  0.00     0.049 A 
ATOM     51  C   UNL A   1      41.964  27.821  30.236  1.00  0.00     0.074 A 
ATOM     52  C   UNL A   1      41.690  30.203  36.112  1.00  0.00     0.029 A 
ATOM     53  N   UNL A   1      41.356  29.777  33.957  1.00  0.00    -0.354 N 
ATOM     54  N   UNL A   1      41.837  28.378  31.419  1.00  0.00    -0.248 NA
ATOM     55  C   UNL A   1      43.094  26.889  30.129  1.00  0.00     0.031 C 
ATOM     56  C   UNL A   1      42.680  29.317  35.680  1.00  0.00     0.029 A 
ATOM     57  C   UNL A   1      42.444  29.011  34.349  1.00  0.00     0.049 A 
ATOM     58  H   UNL A   1      40.966  29.781  33.054  1.00  0.00     0.167 HD
ATOM     59  C   UNL A   1      42.849  27.831  32.205  1.00  0.00     0.074 A 
ATOM     60  C   UNL A   1      43.563  26.891  31.367  1.00  0.00     0.031 C 
ATOM     61  C   UNL A   1      43.155  28.079  33.505  1.00  0.00     0.034 A 
BRANCH  48  62
ATOM     62  C   UNL A   1      39.497  32.298  36.199  1.00  0.00     0.023 A 
ATOM     63  C   UNL A   1      38.636  31.817  37.201  1.00  0.00     0.031 A 
ATOM     64  C   UNL A   1      40.062  33.574  36.376  1.00  0.00     0.131 A 
ATOM     65  C   UNL A   1      38.312  32.631  38.296  1.00  0.00     0.055 A 
ATOM     66  C   UNL A   1      39.806  34.342  37.513  1.00  0.00     0.041 A 
ATOM     67  F   UNL A   1      40.871  34.099  35.442  1.00  0.00    -0.206 F 
ATOM     68  C   UNL A   1      38.915  33.877  38.475  1.00  0.00     0.022 A 
BRANCH  65  69
ATOM     69  S   UNL A   1      36.976  32.100  39.402  1.00  0.00     0.124 S 
ATOM     70  O   UNL A   1      37.402  32.676  40.675  1.00  0.00    -0.237 OA
ATOM     71  O   UNL A   1      35.799  32.705  38.788  1.00  0.00    -0.237 OA
ATOM     72  O   UNL A   1      37.036  30.642  39.335  1.00  0.00    -0.744 OA
ENDBRANCH  65  69
ENDBRANCH  48  62
BRANCH  49  73
ATOM     73  C   UNL A   1      41.440  27.279  27.740  1.00  0.00     0.023 A 
ATOM     74  C   UNL A   1      41.265  25.891  27.633  1.00  0.00     0.031 A 
ATOM     75  C   UNL A   1      42.002  27.956  26.642  1.00  0.00     0.131 A 
ATOM     76  C   UNL A   1      41.709  25.215  26.486  1.00  0.00     0.055 A 
ATOM     77  C   UNL A   1      42.373  27.289  25.473  1.00  0.00     0.041 A 
ATOM     78  F   UNL A   1      42.199  29.283  26.688  1.00  0.00    -0.206 F 
ATOM     79  C   UNL A   1      42.243  25.907  25.397  1.00  0.00     0.022 A 
BRANCH  76  80
ATOM     80  S   UNL A   1      41.699  23.400  26.491  1.00  0.00     0.124 S 
ATOM     81  O   UNL A   1      42.602  23.099  25.386  1.00  0.00    -0.237 OA
ATOM     82  O   UNL A   1      42.195  23.098  27.829  1.00  0.00    -0.237 OA
ATOM     83  O   UNL A   1      40.295  23.068  26.258  1.00  0.00    -0.744 OA
ENDBRANCH  76  80
ENDBRANCH  49  73
BRANCH  61  84
ATOM     84  C   UNL A   1      44.280  27.277  34.117  1.00  0.00     0.023 A 
ATOM     85  C   UNL A   1      44.112  25.940  34.515  1.00  0.00     0.031 A 
ATOM     86  C   UNL A   1      45.543  27.868  34.309  1.00  0.00     0.131 A 
ATOM     87  C   UNL A   1      45.167  25.260  35.142  1.00  0.00     0.055 A 
ATOM     88  C   UNL A   1      46.611  27.162  34.860  1.00  0.00     0.041 A 
ATOM     89  F   UNL A   1      45.761  29.146  33.956  1.00  0.00    -0.206 F 
ATOM     90  C   UNL A   1      46.422  25.854  35.294  1.00  0.00     0.022 A 
BRANCH  87  91
ATOM     91  S   UNL A   1      44.845  23.625  35.858  1.00  0.00     0.124 S 
ATOM     92  O   UNL A   1      43.444  23.413  35.508  1.00  0.00    -0.237 OA
ATOM     93  O   UNL A   1      45.810  22.781  35.161  1.00  0.00    -0.237 OA
ATOM     94  O   UNL A   1      45.106  23.818  37.283  1.00  0.00    -0.744 OA
ENDBRANCH  87  91
ENDBRANCH  61  84
ENDBRANCH  35  36
ENDBRANCH  27  30
ENDBRANCH  25  26
ENDBRANCH  24  25
ENDBRANCH   1  24
TORSDOF 18
ENDMDL
MODEL 3
REMARK VINA RESULT:     -11.2      6.175      9.651
REMARK SMILES COc1cccc(-c2ccc(C#N)c(SCC(=O)NCCCNC(=O)c3ccc(-c4c5nc(c(-c6cc(S(=O)(=O)[O-])ccc6F)c6ccc([nH]6)c(-c6cc(S(=O)(=O)[O-])ccc6F)c6nc(c(-c7cc(S(=O)(=O)[O-])ccc7F)c7ccc4[nH]7)C=C6)C=C5)cc3)n2)c1
REMARK SMILES IDX 20 1 19 2 17 3 18 4 16 6 15 7 14 8 8 9 9 10 89 11 10 12
REMARK SMILES IDX 11 13 7 14 3 15 4 16 90 17 5 18 6 19 2 20 1 21 12 22 13 23
REMARK SMILES IDX 21 24 22 25 23 26 24 27 25 29 26 30 27 31 88 32 28 33 87 34
REMARK SMILES IDX 29 35 30 36 31 37 81 38 32 39 86 40 80 41 82 42 33 43 85 44
REMARK SMILES IDX 79 45 78 46 34 48 66 49 46 50 65 51 47 52 50 53 64 54 83 55
REMARK SMILES IDX 48 56 49 57 63 59 84 60 51 61 35 62 36 63 44 64 37 65 43 66
REMARK SMILES IDX 45 67 42 68 38 69 39 70 40 71 41 72 67 73 68 74 76 75 69 76
REMARK SMILES IDX 75 77 77 78 74 79 70 80 71 81 72 82 73 83 52 84 53 85 61 86
REMARK SMILES IDX 54 87 60 88 62 89 59 90 55 91 56 92 57 93 58 94
REMARK H PARENT 19 5 23 28 82 47 50 58
REMARK Flexibility Score: inf
ROOT
ATOM      1  C   UNL A   1      36.408  20.728  25.051  1.00  0.00     0.117 C 
ENDROOT
BRANCH   1   2
ATOM      2  N   UNL A   1      36.150  21.767  24.074  1.00  0.00    -0.355 N 
ATOM      3  C   UNL A   1      35.673  23.027  24.245  1.00  0.00     0.230 C 
ATOM      4  O   UNL A   1      35.433  23.675  23.226  1.00  0.00    -0.274 OA
ATOM      5  H   UNL A   1      36.352  21.522  23.142  1.00  0.00     0.163 HD
BRANCH   3   6
ATOM      6  C   UNL A   1      35.525  23.631  25.626  1.00  0.00     0.176 C 
BRANCH   6   7
ATOM      7  S   UNL A   1      33.928  23.334  26.441  1.00  0.00    -0.095 SA
BRANCH   7   8
ATOM      8  C   UNL A   1      32.620  23.539  25.243  1.00  0.00     0.115 A 
ATOM      9  C   UNL A   1      31.264  25.249  24.338  1.00  0.00     0.072 A 
ATOM     10  C   UNL A   1      30.631  24.345  23.498  1.00  0.00     0.030 A 
ATOM     11  N   UNL A   1      32.226  24.852  25.208  1.00  0.00    -0.240 NA
ATOM     12  C   UNL A   1      31.040  23.020  23.512  1.00  0.00     0.024 A 
ATOM     13  C   UNL A   1      32.077  22.608  24.360  1.00  0.00     0.084 A 
BRANCH   9  14
ATOM     14  C   UNL A   1      30.963  26.688  24.239  1.00  0.00     0.004 A 
ATOM     15  C   UNL A   1      30.148  28.571  22.909  1.00  0.00     0.119 A 
ATOM     16  C   UNL A   1      30.710  29.461  23.823  1.00  0.00     0.046 A 
ATOM     17  C   UNL A   1      30.273  27.197  23.121  1.00  0.00     0.056 A 
ATOM     18  C   UNL A   1      31.353  28.984  24.964  1.00  0.00     0.005 A 
ATOM     19  C   UNL A   1      31.473  27.606  25.174  1.00  0.00     0.010 A 
BRANCH  15  20
ATOM     20  O   UNL A   1      29.585  29.138  21.799  1.00  0.00    -0.497 OA
ATOM     21  C   UNL A   1      28.931  30.386  22.011  1.00  0.00     0.278 C 
ENDBRANCH  15  20
ENDBRANCH   9  14
BRANCH  13  22
ATOM     22  C   UNL A   1      32.583  21.292  24.142  1.00  0.00     0.102 C 
ATOM     23  N   UNL A   1      32.990  20.205  24.064  1.00  0.00    -0.192 NA
ENDBRANCH  13  22
ENDBRANCH   7   8
ENDBRANCH   6   7
ENDBRANCH   3   6
ENDBRANCH   1   2
BRANCH   1  24
ATOM     24  C   UNL A   1      37.784  20.106  24.845  1.00  0.00     0.042 C 
BRANCH  24  25
ATOM     25  C   UNL A   1      38.789  20.440  25.945  1.00  0.00     0.118 C 
BRANCH  25  26
ATOM     26  N   UNL A   1      39.895  19.493  26.006  1.00  0.00    -0.352 N 
ATOM     27  C   UNL A   1      41.245  19.720  26.117  1.00  0.00     0.251 C 
ATOM     28  H   UNL A   1      39.633  18.545  25.961  1.00  0.00     0.163 HD
ATOM     29  O   UNL A   1      42.027  18.792  25.935  1.00  0.00    -0.269 OA
BRANCH  27  30
ATOM     30  C   UNL A   1      41.749  21.074  26.429  1.00  0.00     0.039 A 
ATOM     31  C   UNL A   1      41.952  21.979  25.384  1.00  0.00     0.014 A 
ATOM     32  C   UNL A   1      42.026  21.453  27.745  1.00  0.00     0.014 A 
ATOM     33  C   UNL A   1      42.362  23.283  25.669  1.00  0.00     0.010 A 
ATOM     34  C   UNL A   1      42.346  22.778  28.034  1.00  0.00     0.010 A 
ATOM     35  C   UNL A   1      42.518  23.708  26.999  1.00  0.00    -0.014 A 
BRANCH  35  36
ATOM     36  C   UNL A   1      42.854  25.122  27.320  1.00  0.00     0.031 A 
ATOM     37  C   UNL A   1      44.248  25.640  27.088  1.00  0.00     0.074 A 
ATOM     38  C   UNL A   1      41.916  25.923  27.864  1.00  0.00     0.049 A 
ATOM     39  N   UNL A   1      44.747  26.818  27.365  1.00  0.00    -0.248 NA
ATOM     40  C   UNL A   1      45.214  24.705  26.492  1.00  0.00     0.031 C 
ATOM     41  C   UNL A   1      40.538  25.526  28.164  1.00  0.00     0.029 A 
ATOM     42  N   UNL A   1      41.973  27.234  28.265  1.00  0.00    -0.354 N 
ATOM     43  C   UNL A   1      46.081  26.765  26.977  1.00  0.00     0.074 A 
ATOM     44  C   UNL A   1      46.330  25.417  26.513  1.00  0.00     0.031 C 
ATOM     45  C   UNL A   1      39.874  26.580  28.663  1.00  0.00     0.029 A 
ATOM     46  C   UNL A   1      40.790  27.710  28.782  1.00  0.00     0.049 A 
ATOM     47  H   UNL A   1      42.787  27.785  28.190  1.00  0.00     0.167 HD
ATOM     48  C   UNL A   1      47.006  27.756  26.985  1.00  0.00     0.034 A 
ATOM     49  C   UNL A   1      40.480  28.911  29.312  1.00  0.00     0.034 A 
ATOM     50  C   UNL A   1      46.743  29.096  27.451  1.00  0.00     0.049 A 
ATOM     51  C   UNL A   1      41.548  29.976  29.371  1.00  0.00     0.074 A 
ATOM     52  C   UNL A   1      47.598  30.183  27.466  1.00  0.00     0.029 A 
ATOM     53  N   UNL A   1      45.541  29.530  27.994  1.00  0.00    -0.354 N 
ATOM     54  N   UNL A   1      42.795  29.920  28.961  1.00  0.00    -0.248 NA
ATOM     55  C   UNL A   1      41.166  31.268  29.955  1.00  0.00     0.031 C 
ATOM     56  C   UNL A   1      46.948  31.244  28.101  1.00  0.00     0.029 A 
ATOM     57  C   UNL A   1      45.649  30.856  28.387  1.00  0.00     0.049 A 
ATOM     58  H   UNL A   1      44.731  28.978  28.087  1.00  0.00     0.167 HD
ATOM     59  C   UNL A   1      43.330  31.183  29.202  1.00  0.00     0.074 A 
ATOM     60  C   UNL A   1      42.267  31.980  29.777  1.00  0.00     0.031 C 
ATOM     61  C   UNL A   1      44.585  31.643  28.964  1.00  0.00     0.034 A 
BRANCH  48  62
ATOM     62  C   UNL A   1      48.397  27.420  26.501  1.00  0.00     0.023 A 
ATOM     63  C   UNL A   1      48.812  27.702  25.187  1.00  0.00     0.031 A 
ATOM     64  C   UNL A   1      49.323  26.808  27.364  1.00  0.00     0.131 A 
ATOM     65  C   UNL A   1      50.088  27.311  24.756  1.00  0.00     0.055 A 
ATOM     66  C   UNL A   1      50.623  26.504  26.955  1.00  0.00     0.041 A 
ATOM     67  F   UNL A   1      48.979  26.490  28.622  1.00  0.00    -0.206 F 
ATOM     68  C   UNL A   1      51.008  26.743  25.640  1.00  0.00     0.022 A 
BRANCH  65  69
ATOM     69  S   UNL A   1      50.474  27.419  22.987  1.00  0.00     0.124 S 
ATOM     70  O   UNL A   1      50.537  28.865  22.788  1.00  0.00    -0.237 OA
ATOM     71  O   UNL A   1      51.742  26.705  22.896  1.00  0.00    -0.237 OA
ATOM     72  O   UNL A   1      49.338  26.758  22.349  1.00  0.00    -0.744 OA
ENDBRANCH  65  69
ENDBRANCH  48  62
BRANCH  49  73
ATOM     73  C   UNL A   1      39.114  29.176  29.854  1.00  0.00     0.023 A 
ATOM     74  C   UNL A   1      38.169  29.905  29.115  1.00  0.00     0.031 A 
ATOM     75  C   UNL A   1      38.756  28.765  31.151  1.00  0.00     0.131 A 
ATOM     76  C   UNL A   1      36.943  30.259  29.700  1.00  0.00     0.055 A 
ATOM     77  C   UNL A   1      37.506  29.053  31.701  1.00  0.00     0.041 A 
ATOM     78  F   UNL A   1      39.620  28.069  31.907  1.00  0.00    -0.206 F 
ATOM     79  C   UNL A   1      36.597  29.820  30.980  1.00  0.00     0.022 A 
BRANCH  76  80
ATOM     80  S   UNL A   1      35.859  31.411  28.812  1.00  0.00     0.124 S 
ATOM     81  O   UNL A   1      36.812  32.418  28.357  1.00  0.00    -0.237 OA
ATOM     82  O   UNL A   1      35.287  30.555  27.779  1.00  0.00    -0.237 OA
ATOM     83  O   UNL A   1      34.922  31.857  29.840  1.00  0.00    -0.744 OA
ENDBRANCH  76  80
ENDBRANCH  49  73
BRANCH  61  84
ATOM     84  C   UNL A   1      44.860  33.097  29.273  1.00  0.00     0.023 A 
ATOM     85  C   UNL A   1      44.673  34.111  28.320  1.00  0.00     0.031 A 
ATOM     86  C   UNL A   1      45.325  33.469  30.549  1.00  0.00     0.131 A 
ATOM     87  C   UNL A   1      45.007  35.437  28.634  1.00  0.00     0.055 A 
ATOM     88  C   UNL A   1      45.581  34.799  30.880  1.00  0.00     0.041 A 
ATOM     89  F   UNL A   1      45.531  32.543  31.499  1.00  0.00    -0.206 F 
ATOM     90  C   UNL A   1      45.437  35.790  29.915  1.00  0.00     0.022 A 
BRANCH  87  91
ATOM     91  S   UNL A   1      44.983  36.677  27.310  1.00  0.00     0.124 S 
ATOM     92  O   UNL A   1      45.437  37.874  28.010  1.00  0.00    -0.237 OA
ATOM     93  O   UNL A   1      45.914  36.116  26.337  1.00  0.00    -0.237 OA
ATOM     94  O   UNL A   1      43.584  36.699  26.887  1.00  0.00    -0.744 OA
ENDBRANCH  87  91
ENDBRANCH  61  84
ENDBRANCH  35  36
ENDBRANCH  27  30
ENDBRANCH  25  26
ENDBRANCH  24  25
ENDBRANCH   1  24
TORSDOF 18
ENDMDL
