MODEL 1
REMARK VINA RESULT:     -11.4      0.000      0.000
REMARK SMILES C[C@@H](CC(=O)NCCCNC(=O)c1ccc(-c2c3nc(c(-c4cc(S(=O)(=O)[O-])ccc4F)c4ccc([nH]4)c(-c4cc(S(=O)(=O)[O-])ccc4F)c4nc(c(-c5cc(S(=O)(=O)[O-])ccc5F)c5ccc2[nH]5)C=C4)C=C3)cc1)NC(=O)c1ccc(O)cc1
REMARK SMILES IDX 7 1 6 2 4 3 5 4 3 6 2 7 1 8 76 9 77 10 78 12 79 13 80 14
REMARK SMILES IDX 85 15 81 16 84 17 82 18 83 19 8 21 9 22 10 23 11 24 12 26
REMARK SMILES IDX 13 27 14 28 75 29 15 30 74 31 16 32 17 33 18 34 68 35 19 36
REMARK SMILES IDX 73 37 67 38 69 39 20 40 72 41 66 42 65 43 21 45 53 46 33 47
REMARK SMILES IDX 52 48 34 49 37 50 51 51 70 52 35 53 36 54 50 56 71 57 38 58
REMARK SMILES IDX 22 59 23 60 31 61 24 62 30 63 32 64 29 65 25 66 26 67 27 68
REMARK SMILES IDX 28 69 54 70 55 71 63 72 56 73 62 74 64 75 61 76 57 77 58 78
REMARK SMILES IDX 59 79 60 80 39 81 40 82 48 83 41 84 47 85 49 86 46 87 42 88
REMARK SMILES IDX 43 89 44 90 45 91
REMARK H PARENT 6 5 76 11 83 20 10 25 69 44 37 55
REMARK Flexibility Score: inf
ROOT
ATOM      1  C   UNL A   1      31.496  30.373  25.773  1.00  0.00     0.117 C 
ENDROOT
BRANCH   1   2
ATOM      2  N   UNL A   1      30.913  30.178  24.456  1.00  0.00    -0.356 N 
ATOM      3  C   UNL A   1      31.045  29.150  23.577  1.00  0.00     0.222 C 
ATOM      4  O   UNL A   1      30.575  29.287  22.446  1.00  0.00    -0.275 OA
ATOM      5  H   UNL A   1      30.328  30.908  24.151  1.00  0.00     0.163 HD
BRANCH   3   6
ATOM      6  C   UNL A   1      31.719  27.862  23.984  1.00  0.00     0.124 C 
BRANCH   6   7
ATOM      7  C   UNL A   1      33.043  27.564  23.275  1.00  0.00     0.088 C 
ATOM      8  C   UNL A   1      34.059  28.698  23.327  1.00  0.00     0.031 C 
BRANCH   7   9
ATOM      9  N   UNL A   1      32.858  27.126  21.890  1.00  0.00    -0.349 N 
ATOM     10  C   UNL A   1      32.836  25.846  21.400  1.00  0.00     0.251 C 
ATOM     11  H   UNL A   1      32.732  27.843  21.226  1.00  0.00     0.164 HD
ATOM     12  O   UNL A   1      32.990  25.620  20.199  1.00  0.00    -0.269 OA
BRANCH  10  13
ATOM     13  C   UNL A   1      32.618  24.726  22.332  1.00  0.00     0.040 A 
ATOM     14  C   UNL A   1      33.703  23.951  22.748  1.00  0.00     0.017 A 
ATOM     15  C   UNL A   1      31.322  24.440  22.782  1.00  0.00     0.017 A 
ATOM     16  C   UNL A   1      33.495  22.927  23.672  1.00  0.00     0.047 A 
ATOM     17  C   UNL A   1      31.121  23.427  23.717  1.00  0.00     0.047 A 
ATOM     18  C   UNL A   1      32.214  22.686  24.162  1.00  0.00     0.115 A 
BRANCH  18  19
ATOM     19  O   UNL A   1      32.062  21.703  25.094  1.00  0.00    -0.508 OA
ATOM     20  H   UNL A   1      31.888  20.823  24.821  1.00  0.00     0.293 HD
ENDBRANCH  18  19
ENDBRANCH  10  13
ENDBRANCH   7   9
ENDBRANCH   6   7
ENDBRANCH   3   6
ENDBRANCH   1   2
BRANCH   1  21
ATOM     21  C   UNL A   1      31.406  31.832  26.205  1.00  0.00     0.042 C 
BRANCH  21  22
ATOM     22  C   UNL A   1      32.412  32.217  27.281  1.00  0.00     0.118 C 
BRANCH  22  23
ATOM     23  N   UNL A   1      32.465  33.654  27.483  1.00  0.00    -0.352 N 
ATOM     24  C   UNL A   1      33.216  34.388  28.368  1.00  0.00     0.251 C 
ATOM     25  H   UNL A   1      31.875  34.181  26.897  1.00  0.00     0.163 HD
ATOM     26  O   UNL A   1      32.924  35.567  28.555  1.00  0.00    -0.269 OA
BRANCH  24  27
ATOM     27  C   UNL A   1      34.345  33.772  29.108  1.00  0.00     0.039 A 
ATOM     28  C   UNL A   1      35.645  34.209  28.835  1.00  0.00     0.014 A 
ATOM     29  C   UNL A   1      34.143  32.739  30.028  1.00  0.00     0.014 A 
ATOM     30  C   UNL A   1      36.729  33.645  29.514  1.00  0.00     0.010 A 
ATOM     31  C   UNL A   1      35.214  32.241  30.769  1.00  0.00     0.010 A 
ATOM     32  C   UNL A   1      36.522  32.673  30.508  1.00  0.00    -0.014 A 
BRANCH  32  33
ATOM     33  C   UNL A   1      37.666  32.069  31.244  1.00  0.00     0.031 A 
ATOM     34  C   UNL A   1      38.454  30.946  30.620  1.00  0.00     0.074 A 
ATOM     35  C   UNL A   1      37.969  32.497  32.486  1.00  0.00     0.049 A 
ATOM     36  N   UNL A   1      39.444  30.249  31.119  1.00  0.00    -0.248 NA
ATOM     37  C   UNL A   1      38.055  30.532  29.266  1.00  0.00     0.031 C 
ATOM     38  C   UNL A   1      37.256  33.548  33.214  1.00  0.00     0.029 A 
ATOM     39  N   UNL A   1      38.953  32.101  33.356  1.00  0.00    -0.354 N 
ATOM     40  C   UNL A   1      39.774  29.307  30.149  1.00  0.00     0.074 A 
ATOM     41  C   UNL A   1      38.833  29.481  29.063  1.00  0.00     0.031 C 
ATOM     42  C   UNL A   1      37.844  33.732  34.407  1.00  0.00     0.029 A 
ATOM     43  C   UNL A   1      38.948  32.787  34.548  1.00  0.00     0.049 A 
ATOM     44  H   UNL A   1      39.602  31.390  33.147  1.00  0.00     0.167 HD
ATOM     45  C   UNL A   1      40.783  28.400  30.150  1.00  0.00     0.034 A 
ATOM     46  C   UNL A   1      39.737  32.666  35.633  1.00  0.00     0.034 A 
ATOM     47  C   UNL A   1      41.727  28.251  31.232  1.00  0.00     0.049 A 
ATOM     48  C   UNL A   1      40.846  31.646  35.617  1.00  0.00     0.074 A 
ATOM     49  C   UNL A   1      42.815  27.402  31.318  1.00  0.00     0.029 A 
ATOM     50  N   UNL A   1      41.691  28.969  32.421  1.00  0.00    -0.354 N 
ATOM     51  N   UNL A   1      41.172  30.791  34.673  1.00  0.00    -0.248 NA
ATOM     52  C   UNL A   1      41.704  31.581  36.808  1.00  0.00     0.031 C 
ATOM     53  C   UNL A   1      43.402  27.563  32.578  1.00  0.00     0.029 A 
ATOM     54  C   UNL A   1      42.723  28.565  33.254  1.00  0.00     0.049 A 
ATOM     55  H   UNL A   1      41.030  29.665  32.640  1.00  0.00     0.167 HD
ATOM     56  C   UNL A   1      42.289  30.110  35.148  1.00  0.00     0.074 A 
ATOM     57  C   UNL A   1      42.590  30.664  36.451  1.00  0.00     0.031 C 
ATOM     58  C   UNL A   1      43.005  29.119  34.557  1.00  0.00     0.034 A 
BRANCH  45  59
ATOM     59  C   UNL A   1      40.897  27.489  28.949  1.00  0.00     0.023 A 
ATOM     60  C   UNL A   1      41.893  27.674  27.975  1.00  0.00     0.031 A 
ATOM     61  C   UNL A   1      39.976  26.443  28.756  1.00  0.00     0.131 A 
ATOM     62  C   UNL A   1      41.894  26.886  26.814  1.00  0.00     0.055 A 
ATOM     63  C   UNL A   1      40.035  25.606  27.639  1.00  0.00     0.041 A 
ATOM     64  F   UNL A   1      38.990  26.228  29.642  1.00  0.00    -0.206 F 
ATOM     65  C   UNL A   1      40.989  25.836  26.651  1.00  0.00     0.022 A 
BRANCH  62  66
ATOM     66  S   UNL A   1      43.001  27.350  25.453  1.00  0.00     0.124 S 
ATOM     67  O   UNL A   1      44.149  27.888  26.179  1.00  0.00    -0.237 OA
ATOM     68  O   UNL A   1      43.216  26.078  24.773  1.00  0.00    -0.237 OA
ATOM     69  O   UNL A   1      42.228  28.337  24.703  1.00  0.00    -0.744 OA
ENDBRANCH  62  66
ENDBRANCH  45  59
BRANCH  46  70
ATOM     70  C   UNL A   1      39.516  33.528  36.829  1.00  0.00     0.023 A 
ATOM     71  C   UNL A   1      38.902  33.018  37.984  1.00  0.00     0.031 A 
ATOM     72  C   UNL A   1      39.880  34.886  36.820  1.00  0.00     0.131 A 
ATOM     73  C   UNL A   1      38.629  33.870  39.066  1.00  0.00     0.055 A 
ATOM     74  C   UNL A   1      39.651  35.718  37.918  1.00  0.00     0.041 A 
ATOM     75  F   UNL A   1      40.477  35.422  35.744  1.00  0.00    -0.206 F 
ATOM     76  C   UNL A   1      39.010  35.213  39.045  1.00  0.00     0.022 A 
BRANCH  73  77
ATOM     77  S   UNL A   1      37.697  33.212  40.475  1.00  0.00     0.124 S 
ATOM     78  O   UNL A   1      38.477  32.030  40.824  1.00  0.00    -0.237 OA
ATOM     79  O   UNL A   1      37.755  34.322  41.421  1.00  0.00    -0.237 OA
ATOM     80  O   UNL A   1      36.375  32.944  39.914  1.00  0.00    -0.744 OA
ENDBRANCH  73  77
ENDBRANCH  46  70
BRANCH  58  81
ATOM     81  C   UNL A   1      44.210  28.607  35.308  1.00  0.00     0.023 A 
ATOM     82  C   UNL A   1      44.108  27.570  36.252  1.00  0.00     0.031 A 
ATOM     83  C   UNL A   1      45.474  29.180  35.087  1.00  0.00     0.131 A 
ATOM     84  C   UNL A   1      45.239  27.179  36.984  1.00  0.00     0.055 A 
ATOM     85  C   UNL A   1      46.608  28.746  35.776  1.00  0.00     0.041 A 
ATOM     86  F   UNL A   1      45.629  30.175  34.198  1.00  0.00    -0.206 F 
ATOM     87  C   UNL A   1      46.491  27.750  36.741  1.00  0.00     0.022 A 
BRANCH  84  88
ATOM     88  S   UNL A   1      45.034  25.978  38.328  1.00  0.00     0.124 S 
ATOM     89  O   UNL A   1      44.067  25.046  37.756  1.00  0.00    -0.237 OA
ATOM     90  O   UNL A   1      46.389  25.466  38.499  1.00  0.00    -0.237 OA
ATOM     91  O   UNL A   1      44.533  26.788  39.438  1.00  0.00    -0.744 OA
ENDBRANCH  84  88
ENDBRANCH  58  81
ENDBRANCH  32  33
ENDBRANCH  24  27
ENDBRANCH  22  23
ENDBRANCH  21  22
ENDBRANCH   1  21
TORSDOF 17
ENDMDL
MODEL 2
REMARK VINA RESULT:     -11.4      6.230     10.882
REMARK SMILES C[C@@H](CC(=O)NCCCNC(=O)c1ccc(-c2c3nc(c(-c4cc(S(=O)(=O)[O-])ccc4F)c4ccc([nH]4)c(-c4cc(S(=O)(=O)[O-])ccc4F)c4nc(c(-c5cc(S(=O)(=O)[O-])ccc5F)c5ccc2[nH]5)C=C4)C=C3)cc1)NC(=O)c1ccc(O)cc1
REMARK SMILES IDX 7 1 6 2 4 3 5 4 3 6 2 7 1 8 76 9 77 10 78 12 79 13 80 14
REMARK SMILES IDX 85 15 81 16 84 17 82 18 83 19 8 21 9 22 10 23 11 24 12 26
REMARK SMILES IDX 13 27 14 28 75 29 15 30 74 31 16 32 17 33 18 34 68 35 19 36
REMARK SMILES IDX 73 37 67 38 69 39 20 40 72 41 66 42 65 43 21 45 53 46 33 47
REMARK SMILES IDX 52 48 34 49 37 50 51 51 70 52 35 53 36 54 50 56 71 57 38 58
REMARK SMILES IDX 22 59 23 60 31 61 24 62 30 63 32 64 29 65 25 66 26 67 27 68
REMARK SMILES IDX 28 69 54 70 55 71 63 72 56 73 62 74 64 75 61 76 57 77 58 78
REMARK SMILES IDX 59 79 60 80 39 81 40 82 48 83 41 84 47 85 49 86 46 87 42 88
REMARK SMILES IDX 43 89 44 90 45 91
REMARK H PARENT 6 5 76 11 83 20 10 25 69 44 37 55
REMARK Flexibility Score: inf
ROOT
ATOM      1  C   UNL A   1      42.515  20.468  25.760  1.00  0.00     0.117 C 
ENDROOT
BRANCH   1   2
ATOM      2  N   UNL A   1      43.964  20.384  25.829  1.00  0.00    -0.356 N 
ATOM      3  C   UNL A   1      44.921  21.218  25.344  1.00  0.00     0.222 C 
ATOM      4  O   UNL A   1      46.095  20.846  25.390  1.00  0.00    -0.275 OA
ATOM      5  H   UNL A   1      44.309  19.594  26.305  1.00  0.00     0.163 HD
BRANCH   3   6
ATOM      6  C   UNL A   1      44.559  22.576  24.793  1.00  0.00     0.124 C 
BRANCH   6   7
ATOM      7  C   UNL A   1      44.788  23.751  25.748  1.00  0.00     0.088 C 
ATOM      8  C   UNL A   1      43.779  23.849  26.885  1.00  0.00     0.031 C 
BRANCH   7   9
ATOM      9  N   UNL A   1      44.879  25.037  25.052  1.00  0.00    -0.349 N 
ATOM     10  C   UNL A   1      45.770  26.056  25.266  1.00  0.00     0.251 C 
ATOM     11  H   UNL A   1      44.216  25.187  24.340  1.00  0.00     0.164 HD
ATOM     12  O   UNL A   1      45.551  27.193  24.846  1.00  0.00    -0.269 OA
BRANCH  10  13
ATOM     13  C   UNL A   1      47.013  25.778  26.007  1.00  0.00     0.040 A 
ATOM     14  C   UNL A   1      46.961  25.555  27.385  1.00  0.00     0.017 A 
ATOM     15  C   UNL A   1      48.236  25.753  25.325  1.00  0.00     0.017 A 
ATOM     16  C   UNL A   1      48.135  25.239  28.069  1.00  0.00     0.047 A 
ATOM     17  C   UNL A   1      49.404  25.421  26.009  1.00  0.00     0.047 A 
ATOM     18  C   UNL A   1      49.340  25.156  27.375  1.00  0.00     0.115 A 
BRANCH  18  19
ATOM     19  O   UNL A   1      50.456  24.806  28.075  1.00  0.00    -0.508 OA
ATOM     20  H   UNL A   1      51.112  25.448  28.262  1.00  0.00     0.293 HD
ENDBRANCH  18  19
ENDBRANCH  10  13
ENDBRANCH   7   9
ENDBRANCH   6   7
ENDBRANCH   3   6
ENDBRANCH   1   2
BRANCH   1  21
ATOM     21  C   UNL A   1      41.884  20.277  27.134  1.00  0.00     0.042 C 
BRANCH  21  22
ATOM     22  C   UNL A   1      40.995  21.434  27.568  1.00  0.00     0.118 C 
BRANCH  22  23
ATOM     23  N   UNL A   1      39.840  21.583  26.702  1.00  0.00    -0.352 N 
ATOM     24  C   UNL A   1      39.058  22.687  26.465  1.00  0.00     0.251 C 
ATOM     25  H   UNL A   1      39.578  20.771  26.210  1.00  0.00     0.163 HD
ATOM     26  O   UNL A   1      37.979  22.536  25.897  1.00  0.00    -0.269 OA
BRANCH  24  27
ATOM     27  C   UNL A   1      39.489  24.038  26.901  1.00  0.00     0.039 A 
ATOM     28  C   UNL A   1      39.220  24.439  28.213  1.00  0.00     0.014 A 
ATOM     29  C   UNL A   1      40.111  24.930  26.022  1.00  0.00     0.014 A 
ATOM     30  C   UNL A   1      39.611  25.707  28.651  1.00  0.00     0.010 A 
ATOM     31  C   UNL A   1      40.581  26.158  26.485  1.00  0.00     0.010 A 
ATOM     32  C   UNL A   1      40.320  26.570  27.799  1.00  0.00    -0.014 A 
BRANCH  32  33
ATOM     33  C   UNL A   1      40.750  27.921  28.253  1.00  0.00     0.031 A 
ATOM     34  C   UNL A   1      42.209  28.296  28.225  1.00  0.00     0.074 A 
ATOM     35  C   UNL A   1      39.839  28.792  28.731  1.00  0.00     0.049 A 
ATOM     36  N   UNL A   1      42.792  29.396  28.630  1.00  0.00    -0.248 NA
ATOM     37  C   UNL A   1      43.140  27.286  27.697  1.00  0.00     0.031 C 
ATOM     38  C   UNL A   1      38.402  28.533  28.847  1.00  0.00     0.029 A 
ATOM     39  N   UNL A   1      39.984  30.070  29.208  1.00  0.00    -0.354 N 
ATOM     40  C   UNL A   1      44.155  29.204  28.423  1.00  0.00     0.074 A 
ATOM     41  C   UNL A   1      44.314  27.856  27.919  1.00  0.00     0.031 C 
ATOM     42  C   UNL A   1      37.797  29.629  29.335  1.00  0.00     0.029 A 
ATOM     43  C   UNL A   1      38.802  30.652  29.606  1.00  0.00     0.049 A 
ATOM     44  H   UNL A   1      40.854  30.529  29.262  1.00  0.00     0.167 HD
ATOM     45  C   UNL A   1      45.177  30.076  28.609  1.00  0.00     0.034 A 
ATOM     46  C   UNL A   1      38.556  31.866  30.133  1.00  0.00     0.034 A 
ATOM     47  C   UNL A   1      45.002  31.424  29.094  1.00  0.00     0.049 A 
ATOM     48  C   UNL A   1      39.708  32.817  30.341  1.00  0.00     0.074 A 
ATOM     49  C   UNL A   1      45.958  32.408  29.273  1.00  0.00     0.029 A 
ATOM     50  N   UNL A   1      43.788  31.977  29.481  1.00  0.00    -0.354 N 
ATOM     51  N   UNL A   1      40.986  32.635  30.099  1.00  0.00    -0.248 NA
ATOM     52  C   UNL A   1      39.381  34.144  30.881  1.00  0.00     0.031 C 
ATOM     53  C   UNL A   1      45.334  33.534  29.822  1.00  0.00     0.029 A 
ATOM     54  C   UNL A   1      43.974  33.279  29.920  1.00  0.00     0.049 A 
ATOM     55  H   UNL A   1      42.920  31.513  29.449  1.00  0.00     0.167 HD
ATOM     56  C   UNL A   1      41.610  33.834  30.430  1.00  0.00     0.074 A 
ATOM     57  C   UNL A   1      40.566  34.736  30.872  1.00  0.00     0.031 C 
ATOM     58  C   UNL A   1      42.925  34.163  30.370  1.00  0.00     0.034 A 
BRANCH  45  59
ATOM     59  C   UNL A   1      46.573  29.583  28.304  1.00  0.00     0.023 A 
ATOM     60  C   UNL A   1      47.376  28.982  29.289  1.00  0.00     0.031 A 
ATOM     61  C   UNL A   1      47.124  29.749  27.020  1.00  0.00     0.131 A 
ATOM     62  C   UNL A   1      48.707  28.648  29.002  1.00  0.00     0.055 A 
ATOM     63  C   UNL A   1      48.423  29.335  26.717  1.00  0.00     0.041 A 
ATOM     64  F   UNL A   1      46.414  30.334  26.042  1.00  0.00    -0.206 F 
ATOM     65  C   UNL A   1      49.229  28.796  27.716  1.00  0.00     0.022 A 
BRANCH  62  66
ATOM     66  S   UNL A   1      49.792  28.157  30.371  1.00  0.00     0.124 S 
ATOM     67  O   UNL A   1      48.905  27.299  31.155  1.00  0.00    -0.237 OA
ATOM     68  O   UNL A   1      50.886  27.482  29.681  1.00  0.00    -0.237 OA
ATOM     69  O   UNL A   1      50.141  29.426  31.005  1.00  0.00    -0.744 OA
ENDBRANCH  62  66
ENDBRANCH  45  59
BRANCH  46  70
ATOM     70  C   UNL A   1      37.168  32.262  30.506  1.00  0.00     0.023 A 
ATOM     71  C   UNL A   1      36.279  32.771  29.547  1.00  0.00     0.031 A 
ATOM     72  C   UNL A   1      36.722  32.172  31.837  1.00  0.00     0.131 A 
ATOM     73  C   UNL A   1      35.006  33.214  29.937  1.00  0.00     0.055 A 
ATOM     74  C   UNL A   1      35.437  32.567  32.212  1.00  0.00     0.041 A 
ATOM     75  F   UNL A   1      37.530  31.684  32.792  1.00  0.00    -0.206 F 
ATOM     76  C   UNL A   1      34.575  33.105  31.261  1.00  0.00     0.022 A 
BRANCH  73  77
ATOM     77  S   UNL A   1      33.945  34.009  28.699  1.00  0.00     0.124 S 
ATOM     78  O   UNL A   1      34.853  34.987  28.112  1.00  0.00    -0.237 OA
ATOM     79  O   UNL A   1      33.578  32.882  27.848  1.00  0.00    -0.237 OA
ATOM     80  O   UNL A   1      32.854  34.567  29.495  1.00  0.00    -0.744 OA
ENDBRANCH  73  77
ENDBRANCH  46  70
BRANCH  58  81
ATOM     81  C   UNL A   1      43.294  35.575  30.755  1.00  0.00     0.023 A 
ATOM     82  C   UNL A   1      43.381  36.603  29.800  1.00  0.00     0.031 A 
ATOM     83  C   UNL A   1      43.582  35.889  32.094  1.00  0.00     0.131 A 
ATOM     84  C   UNL A   1      43.805  37.883  30.188  1.00  0.00     0.055 A 
ATOM     85  C   UNL A   1      43.945  37.179  32.485  1.00  0.00     0.041 A 
ATOM     86  F   UNL A   1      43.516  34.945  33.048  1.00  0.00    -0.206 F 
ATOM     87  C   UNL A   1      44.072  38.181  31.528  1.00  0.00     0.022 A 
BRANCH  84  88
ATOM     88  S   UNL A   1      44.093  39.132  28.905  1.00  0.00     0.124 S 
ATOM     89  O   UNL A   1      45.532  39.349  29.012  1.00  0.00    -0.237 OA
ATOM     90  O   UNL A   1      43.639  38.450  27.698  1.00  0.00    -0.237 OA
ATOM     91  O   UNL A   1      43.263  40.258  29.330  1.00  0.00    -0.744 OA
ENDBRANCH  84  88
ENDBRANCH  58  81
ENDBRANCH  32  33
ENDBRANCH  24  27
ENDBRANCH  22  23
ENDBRANCH  21  22
ENDBRANCH   1  21
TORSDOF 17
ENDMDL
MODEL 3
REMARK VINA RESULT:     -11.2      2.235      8.304
REMARK SMILES C[C@@H](CC(=O)NCCCNC(=O)c1ccc(-c2c3nc(c(-c4cc(S(=O)(=O)[O-])ccc4F)c4ccc([nH]4)c(-c4cc(S(=O)(=O)[O-])ccc4F)c4nc(c(-c5cc(S(=O)(=O)[O-])ccc5F)c5ccc2[nH]5)C=C4)C=C3)cc1)NC(=O)c1ccc(O)cc1
REMARK SMILES IDX 7 1 6 2 4 3 5 4 3 6 2 7 1 8 76 9 77 10 78 12 79 13 80 14
REMARK SMILES IDX 85 15 81 16 84 17 82 18 83 19 8 21 9 22 10 23 11 24 12 26
REMARK SMILES IDX 13 27 14 28 75 29 15 30 74 31 16 32 17 33 18 34 68 35 19 36
REMARK SMILES IDX 73 37 67 38 69 39 20 40 72 41 66 42 65 43 21 45 53 46 33 47
REMARK SMILES IDX 52 48 34 49 37 50 51 51 70 52 35 53 36 54 50 56 71 57 38 58
REMARK SMILES IDX 22 59 23 60 31 61 24 62 30 63 32 64 29 65 25 66 26 67 27 68
REMARK SMILES IDX 28 69 54 70 55 71 63 72 56 73 62 74 64 75 61 76 57 77 58 78
REMARK SMILES IDX 59 79 60 80 39 81 40 82 48 83 41 84 47 85 49 86 46 87 42 88
REMARK SMILES IDX 43 89 44 90 45 91
REMARK H PARENT 6 5 76 11 83 20 10 25 69 44 37 55
REMARK Flexibility Score: inf
ROOT
ATOM      1  C   UNL A   1      31.333  30.667  26.393  1.00  0.00     0.117 C 
ENDROOT
BRANCH   1   2
ATOM      2  N   UNL A   1      32.439  30.082  25.653  1.00  0.00    -0.356 N 
ATOM      3  C   UNL A   1      32.881  28.798  25.596  1.00  0.00     0.222 C 
ATOM      4  O   UNL A   1      33.946  28.574  25.018  1.00  0.00    -0.275 OA
ATOM      5  H   UNL A   1      32.951  30.719  25.105  1.00  0.00     0.163 HD
BRANCH   3   6
ATOM      6  C   UNL A   1      32.073  27.672  26.194  1.00  0.00     0.124 C 
BRANCH   6   7
ATOM      7  C   UNL A   1      30.923  27.157  25.322  1.00  0.00     0.088 C 
ATOM      8  C   UNL A   1      30.274  25.873  25.823  1.00  0.00     0.031 C 
BRANCH   7   9
ATOM      9  N   UNL A   1      31.303  27.006  23.916  1.00  0.00    -0.349 N 
ATOM     10  C   UNL A   1      30.658  27.489  22.807  1.00  0.00     0.251 C 
ATOM     11  H   UNL A   1      32.126  26.494  23.745  1.00  0.00     0.164 HD
ATOM     12  O   UNL A   1      30.891  27.037  21.685  1.00  0.00    -0.269 OA
BRANCH  10  13
ATOM     13  C   UNL A   1      29.674  28.575  22.965  1.00  0.00     0.040 A 
ATOM     14  C   UNL A   1      28.311  28.272  23.002  1.00  0.00     0.017 A 
ATOM     15  C   UNL A   1      30.113  29.901  23.064  1.00  0.00     0.017 A 
ATOM     16  C   UNL A   1      27.389  29.299  23.207  1.00  0.00     0.047 A 
ATOM     17  C   UNL A   1      29.191  30.922  23.285  1.00  0.00     0.047 A 
ATOM     18  C   UNL A   1      27.836  30.609  23.365  1.00  0.00     0.115 A 
BRANCH  18  19
ATOM     19  O   UNL A   1      26.905  31.575  23.603  1.00  0.00    -0.508 OA
ATOM     20  H   UNL A   1      26.390  31.546  24.385  1.00  0.00     0.293 HD
ENDBRANCH  18  19
ENDBRANCH  10  13
ENDBRANCH   7   9
ENDBRANCH   6   7
ENDBRANCH   3   6
ENDBRANCH   1   2
BRANCH   1  21
ATOM     21  C   UNL A   1      31.529  32.167  26.583  1.00  0.00     0.042 C 
BRANCH  21  22
ATOM     22  C   UNL A   1      32.855  32.536  27.234  1.00  0.00     0.118 C 
BRANCH  22  23
ATOM     23  N   UNL A   1      32.817  33.862  27.822  1.00  0.00    -0.352 N 
ATOM     24  C   UNL A   1      33.558  34.385  28.854  1.00  0.00     0.251 C 
ATOM     25  H   UNL A   1      32.164  34.480  27.421  1.00  0.00     0.163 HD
ATOM     26  O   UNL A   1      33.195  35.442  29.366  1.00  0.00    -0.269 OA
BRANCH  24  27
ATOM     27  C   UNL A   1      34.762  33.684  29.364  1.00  0.00     0.039 A 
ATOM     28  C   UNL A   1      34.594  32.626  30.262  1.00  0.00     0.014 A 
ATOM     29  C   UNL A   1      36.052  34.087  29.006  1.00  0.00     0.014 A 
ATOM     30  C   UNL A   1      35.711  31.948  30.761  1.00  0.00     0.010 A 
ATOM     31  C   UNL A   1      37.159  33.354  29.433  1.00  0.00     0.010 A 
ATOM     32  C   UNL A   1      37.004  32.290  30.331  1.00  0.00    -0.014 A 
BRANCH  32  33
ATOM     33  C   UNL A   1      38.202  31.573  30.848  1.00  0.00     0.031 A 
ATOM     34  C   UNL A   1      38.782  31.945  32.188  1.00  0.00     0.074 A 
ATOM     35  C   UNL A   1      38.792  30.620  30.099  1.00  0.00     0.049 A 
ATOM     36  N   UNL A   1      39.850  31.483  32.788  1.00  0.00    -0.248 NA
ATOM     37  C   UNL A   1      38.083  32.999  32.940  1.00  0.00     0.031 C 
ATOM     38  C   UNL A   1      38.350  30.198  28.768  1.00  0.00     0.029 A 
ATOM     39  N   UNL A   1      39.890  29.837  30.347  1.00  0.00    -0.354 N 
ATOM     40  C   UNL A   1      39.961  32.200  33.976  1.00  0.00     0.074 A 
ATOM     41  C   UNL A   1      38.888  33.172  33.976  1.00  0.00     0.031 C 
ATOM     42  C   UNL A   1      39.152  29.213  28.331  1.00  0.00     0.029 A 
ATOM     43  C   UNL A   1      40.189  28.961  29.328  1.00  0.00     0.049 A 
ATOM     44  H   UNL A   1      40.418  29.895  31.176  1.00  0.00     0.167 HD
ATOM     45  C   UNL A   1      40.855  32.047  34.984  1.00  0.00     0.034 A 
ATOM     46  C   UNL A   1      41.185  28.064  29.206  1.00  0.00     0.034 A 
ATOM     47  C   UNL A   1      41.907  31.059  34.979  1.00  0.00     0.049 A 
ATOM     48  C   UNL A   1      42.174  27.915  30.335  1.00  0.00     0.074 A 
ATOM     49  C   UNL A   1      42.836  30.781  35.967  1.00  0.00     0.029 A 
ATOM     50  N   UNL A   1      42.173  30.187  33.931  1.00  0.00    -0.354 N 
ATOM     51  N   UNL A   1      42.238  28.572  31.471  1.00  0.00    -0.248 NA
ATOM     52  C   UNL A   1      43.217  26.894  30.170  1.00  0.00     0.031 C 
ATOM     53  C   UNL A   1      43.698  29.786  35.494  1.00  0.00     0.029 A 
ATOM     54  C   UNL A   1      43.265  29.389  34.238  1.00  0.00     0.049 A 
ATOM     55  H   UNL A   1      41.660  30.142  33.091  1.00  0.00     0.167 HD
ATOM     56  C   UNL A   1      43.311  28.022  32.167  1.00  0.00     0.074 A 
ATOM     57  C   UNL A   1      43.852  26.970  31.331  1.00  0.00     0.031 C 
ATOM     58  C   UNL A   1      43.802  28.352  33.388  1.00  0.00     0.034 A 
BRANCH  45  59
ATOM     59  C   UNL A   1      40.737  32.984  36.164  1.00  0.00     0.023 A 
ATOM     60  C   UNL A   1      39.991  32.644  37.306  1.00  0.00     0.031 A 
ATOM     61  C   UNL A   1      41.348  34.251  36.133  1.00  0.00     0.131 A 
ATOM     62  C   UNL A   1      39.804  33.586  38.329  1.00  0.00     0.055 A 
ATOM     63  C   UNL A   1      41.229  35.153  37.193  1.00  0.00     0.041 A 
ATOM     64  F   UNL A   1      42.058  34.642  35.062  1.00  0.00    -0.206 F 
ATOM     65  C   UNL A   1      40.439  34.829  38.293  1.00  0.00     0.022 A 
BRANCH  62  66
ATOM     66  S   UNL A   1      38.598  33.220  39.633  1.00  0.00     0.124 S 
ATOM     67  O   UNL A   1      37.452  32.757  38.853  1.00  0.00    -0.237 OA
ATOM     68  O   UNL A   1      39.285  32.204  40.422  1.00  0.00    -0.237 OA
ATOM     69  O   UNL A   1      38.410  34.507  40.299  1.00  0.00    -0.744 OA
ENDBRANCH  62  66
ENDBRANCH  45  59
BRANCH  46  70
ATOM     70  C   UNL A   1      41.308  27.232  27.975  1.00  0.00     0.023 A 
ATOM     71  C   UNL A   1      40.959  25.872  27.983  1.00  0.00     0.031 A 
ATOM     72  C   UNL A   1      41.814  27.776  26.781  1.00  0.00     0.131 A 
ATOM     73  C   UNL A   1      41.161  25.091  26.835  1.00  0.00     0.055 A 
ATOM     74  C   UNL A   1      41.966  27.006  25.626  1.00  0.00     0.041 A 
ATOM     75  F   UNL A   1      42.155  29.073  26.717  1.00  0.00    -0.206 F 
ATOM     76  C   UNL A   1      41.652  25.651  25.654  1.00  0.00     0.022 A 
BRANCH  73  77
ATOM     77  S   UNL A   1      40.844  23.308  26.932  1.00  0.00     0.124 S 
ATOM     78  O   UNL A   1      41.635  22.803  25.815  1.00  0.00    -0.237 OA
ATOM     79  O   UNL A   1      41.338  22.984  28.266  1.00  0.00    -0.237 OA
ATOM     80  O   UNL A   1      39.396  23.210  26.766  1.00  0.00    -0.744 OA
ENDBRANCH  73  77
ENDBRANCH  46  70
BRANCH  58  81
ATOM     81  C   UNL A   1      44.958  27.532  33.904  1.00  0.00     0.023 A 
ATOM     82  C   UNL A   1      44.757  26.345  34.632  1.00  0.00     0.031 A 
ATOM     83  C   UNL A   1      46.279  27.956  33.680  1.00  0.00     0.131 A 
ATOM     84  C   UNL A   1      45.859  25.656  35.160  1.00  0.00     0.055 A 
ATOM     85  C   UNL A   1      47.374  27.233  34.158  1.00  0.00     0.041 A 
ATOM     86  F   UNL A   1      46.529  29.083  32.994  1.00  0.00    -0.206 F 
ATOM     87  C   UNL A   1      47.167  26.084  34.915  1.00  0.00     0.022 A 
BRANCH  84  88
ATOM     88  S   UNL A   1      45.557  24.241  36.255  1.00  0.00     0.124 S 
ATOM     89  O   UNL A   1      46.238  24.655  37.478  1.00  0.00    -0.237 OA
ATOM     90  O   UNL A   1      44.100  24.201  36.318  1.00  0.00    -0.237 OA
ATOM     91  O   UNL A   1      46.178  23.122  35.548  1.00  0.00    -0.744 OA
ENDBRANCH  84  88
ENDBRANCH  58  81
ENDBRANCH  32  33
ENDBRANCH  24  27
ENDBRANCH  22  23
ENDBRANCH  21  22
ENDBRANCH   1  21
TORSDOF 17
ENDMDL
