MODEL 1
REMARK VINA RESULT:     -12.4      0.000      0.000
REMARK SMILES CC1(C)CCC[C@@H]1NC(=O)CC1(C(=O)NCCCNC(=O)c2ccc(-c3c4nc(c(-c5cc(S(=O)(=O)[O-])ccc5F)c5ccc([nH]5)c(-c5cc(S(=O)(=O)[O-])ccc5F)c5nc(c(-c6cc(S(=O)(=O)[O-])ccc6F)c6ccc3[nH]6)C=C5)C=C4)cc2)CCCCC1
REMARK SMILES IDX 17 1 16 2 15 3 13 4 14 5 12 7 85 8 89 9 86 10 88 11 87 12
REMARK SMILES IDX 11 13 9 14 8 15 10 17 7 18 1 19 2 20 3 21 4 22 5 23 6 24
REMARK SMILES IDX 18 25 19 26 20 27 21 29 22 30 23 31 84 32 24 33 83 34 25 35
REMARK SMILES IDX 26 36 27 37 77 38 28 39 82 40 76 41 78 42 29 43 81 44 75 45
REMARK SMILES IDX 74 46 30 48 62 49 42 50 61 51 43 52 46 53 60 54 79 55 44 56
REMARK SMILES IDX 45 57 59 59 80 60 47 61 31 62 32 63 40 64 33 65 39 66 41 67
REMARK SMILES IDX 38 68 34 69 35 70 36 71 37 72 63 73 64 74 72 75 65 76 71 77
REMARK SMILES IDX 73 78 70 79 66 80 67 81 68 82 69 83 48 84 49 85 57 86 50 87
REMARK SMILES IDX 56 88 58 89 55 90 51 91 52 92 53 93 54 94
REMARK H PARENT 15 6 8 16 19 28 78 47 46 58
REMARK Flexibility Score: inf
ROOT
ATOM      1  C   UNL A   1      31.488  31.821  26.277  1.00  0.00     0.042 C 
ENDROOT
BRANCH   1   2
ATOM      2  C   UNL A   1      31.482  30.326  26.003  1.00  0.00     0.117 C 
BRANCH   2   3
ATOM      3  N   UNL A   1      31.065  30.039  24.656  1.00  0.00    -0.356 N 
ATOM      4  C   UNL A   1      31.244  29.037  23.779  1.00  0.00     0.226 C 
ATOM      5  O   UNL A   1      30.766  29.338  22.672  1.00  0.00    -0.274 OA
ATOM      6  H   UNL A   1      30.507  30.760  24.283  1.00  0.00     0.163 HD
BRANCH   4   7
ATOM      7  C   UNL A   1      31.885  27.625  24.026  1.00  0.00     0.058 C 
ATOM      8  C   UNL A   1      31.006  26.808  25.021  1.00  0.00     0.017 C 
ATOM      9  C   UNL A   1      33.337  27.463  24.523  1.00  0.00     0.017 C 
ATOM     10  C   UNL A   1      31.307  26.958  26.523  1.00  0.00     0.001 C 
ATOM     11  C   UNL A   1      33.654  27.881  25.933  1.00  0.00     0.001 C 
ATOM     12  C   UNL A   1      32.774  27.152  26.932  1.00  0.00     0.000 C 
BRANCH   7  13
ATOM     13  C   UNL A   1      31.813  26.940  22.589  1.00  0.00     0.117 C 
BRANCH  13  14
ATOM     14  C   UNL A   1      33.068  26.244  22.078  1.00  0.00     0.221 C 
ATOM     15  N   UNL A   1      33.446  24.983  22.406  1.00  0.00    -0.353 N 
ATOM     16  H   UNL A   1      34.219  24.681  21.877  1.00  0.00     0.163 HD
ATOM     17  O   UNL A   1      33.807  26.851  21.293  1.00  0.00    -0.275 OA
BRANCH  15  18
ATOM     18  C   UNL A   1      32.991  23.958  23.355  1.00  0.00     0.087 C 
ATOM     19  C   UNL A   1      34.652  24.335  25.274  1.00  0.00     0.013 C 
ATOM     20  C   UNL A   1      34.171  23.370  24.191  1.00  0.00    -0.015 C 
ATOM     21  C   UNL A   1      35.380  22.939  23.324  1.00  0.00     0.013 C 
ATOM     22  C   UNL A   1      33.518  22.125  24.819  1.00  0.00     0.008 C 
ATOM     23  C   UNL A   1      32.648  21.536  23.721  1.00  0.00     0.003 C 
ATOM     24  C   UNL A   1      32.406  22.675  22.735  1.00  0.00     0.025 C 
ENDBRANCH  15  18
ENDBRANCH  13  14
ENDBRANCH   7  13
ENDBRANCH   4   7
ENDBRANCH   2   3
ENDBRANCH   1   2
BRANCH   1  25
ATOM     25  C   UNL A   1      32.586  32.216  27.246  1.00  0.00     0.118 C 
BRANCH  25  26
ATOM     26  N   UNL A   1      32.528  33.640  27.565  1.00  0.00    -0.352 N 
ATOM     27  C   UNL A   1      33.215  34.360  28.514  1.00  0.00     0.251 C 
ATOM     28  H   UNL A   1      31.902  34.164  27.017  1.00  0.00     0.163 HD
ATOM     29  O   UNL A   1      32.813  35.470  28.838  1.00  0.00    -0.269 OA
BRANCH  27  30
ATOM     30  C   UNL A   1      34.422  33.779  29.140  1.00  0.00     0.039 A 
ATOM     31  C   UNL A   1      35.681  34.295  28.828  1.00  0.00     0.014 A 
ATOM     32  C   UNL A   1      34.303  32.713  30.033  1.00  0.00     0.014 A 
ATOM     33  C   UNL A   1      36.813  33.783  29.470  1.00  0.00     0.010 A 
ATOM     34  C   UNL A   1      35.407  32.295  30.760  1.00  0.00     0.010 A 
ATOM     35  C   UNL A   1      36.679  32.807  30.469  1.00  0.00    -0.014 A 
BRANCH  35  36
ATOM     36  C   UNL A   1      37.846  32.244  31.194  1.00  0.00     0.031 A 
ATOM     37  C   UNL A   1      38.618  31.109  30.569  1.00  0.00     0.074 A 
ATOM     38  C   UNL A   1      38.155  32.685  32.429  1.00  0.00     0.049 A 
ATOM     39  N   UNL A   1      39.550  30.355  31.089  1.00  0.00    -0.248 NA
ATOM     40  C   UNL A   1      38.254  30.746  29.188  1.00  0.00     0.031 C 
ATOM     41  C   UNL A   1      37.462  33.759  33.145  1.00  0.00     0.029 A 
ATOM     42  N   UNL A   1      39.123  32.273  33.311  1.00  0.00    -0.354 N 
ATOM     43  C   UNL A   1      39.866  29.419  30.109  1.00  0.00     0.074 A 
ATOM     44  C   UNL A   1      38.972  29.651  28.997  1.00  0.00     0.031 C 
ATOM     45  C   UNL A   1      38.045  33.938  34.341  1.00  0.00     0.029 A 
ATOM     46  C   UNL A   1      39.109  32.954  34.507  1.00  0.00     0.049 A 
ATOM     47  H   UNL A   1      39.768  31.559  33.106  1.00  0.00     0.167 HD
ATOM     48  C   UNL A   1      40.834  28.471  30.125  1.00  0.00     0.034 A 
ATOM     49  C   UNL A   1      39.857  32.787  35.616  1.00  0.00     0.034 A 
ATOM     50  C   UNL A   1      41.735  28.276  31.232  1.00  0.00     0.049 A 
ATOM     51  C   UNL A   1      40.908  31.703  35.621  1.00  0.00     0.074 A 
ATOM     52  C   UNL A   1      42.779  27.376  31.344  1.00  0.00     0.029 A 
ATOM     53  N   UNL A   1      41.699  28.997  32.419  1.00  0.00    -0.354 N 
ATOM     54  N   UNL A   1      41.212  30.841  34.677  1.00  0.00    -0.248 NA
ATOM     55  C   UNL A   1      41.727  31.575  36.834  1.00  0.00     0.031 C 
ATOM     56  C   UNL A   1      43.331  27.504  32.622  1.00  0.00     0.029 A 
ATOM     57  C   UNL A   1      42.691  28.546  33.275  1.00  0.00     0.049 A 
ATOM     58  H   UNL A   1      41.065  29.722  32.622  1.00  0.00     0.167 HD
ATOM     59  C   UNL A   1      42.288  30.104  35.166  1.00  0.00     0.074 A 
ATOM     60  C   UNL A   1      42.583  30.627  36.484  1.00  0.00     0.031 C 
ATOM     61  C   UNL A   1      42.978  29.094  34.580  1.00  0.00     0.034 A 
BRANCH  48  62
ATOM     62  C   UNL A   1      40.957  27.575  28.916  1.00  0.00     0.023 A 
ATOM     63  C   UNL A   1      41.972  27.757  27.961  1.00  0.00     0.031 A 
ATOM     64  C   UNL A   1      40.038  26.531  28.707  1.00  0.00     0.131 A 
ATOM     65  C   UNL A   1      42.004  26.957  26.810  1.00  0.00     0.055 A 
ATOM     66  C   UNL A   1      40.128  25.682  27.602  1.00  0.00     0.041 A 
ATOM     67  F   UNL A   1      39.031  26.323  29.570  1.00  0.00    -0.206 F 
ATOM     68  C   UNL A   1      41.107  25.900  26.638  1.00  0.00     0.022 A 
BRANCH  65  69
ATOM     69  S   UNL A   1      43.148  27.406  25.477  1.00  0.00     0.124 S 
ATOM     70  O   UNL A   1      44.177  28.142  26.208  1.00  0.00    -0.237 OA
ATOM     71  O   UNL A   1      43.546  26.107  24.949  1.00  0.00    -0.237 OA
ATOM     72  O   UNL A   1      42.328  28.220  24.582  1.00  0.00    -0.744 OA
ENDBRANCH  65  69
ENDBRANCH  48  62
BRANCH  49  73
ATOM     73  C   UNL A   1      39.644  33.644  36.820  1.00  0.00     0.023 A 
ATOM     74  C   UNL A   1      39.065  33.117  37.985  1.00  0.00     0.031 A 
ATOM     75  C   UNL A   1      39.948  35.017  36.803  1.00  0.00     0.131 A 
ATOM     76  C   UNL A   1      38.742  33.966  39.055  1.00  0.00     0.055 A 
ATOM     77  C   UNL A   1      39.689  35.845  37.897  1.00  0.00     0.041 A 
ATOM     78  F   UNL A   1      40.506  35.577  35.718  1.00  0.00    -0.206 F 
ATOM     79  C   UNL A   1      39.064  35.323  39.025  1.00  0.00     0.022 A 
BRANCH  76  80
ATOM     80  S   UNL A   1      37.774  33.291  40.433  1.00  0.00     0.124 S 
ATOM     81  O   UNL A   1      37.789  34.404  41.376  1.00  0.00    -0.237 OA
ATOM     82  O   UNL A   1      36.495  33.008  39.792  1.00  0.00    -0.237 OA
ATOM     83  O   UNL A   1      38.540  32.116  40.842  1.00  0.00    -0.744 OA
ENDBRANCH  76  80
ENDBRANCH  49  73
BRANCH  61  84
ATOM     84  C   UNL A   1      44.169  28.544  35.323  1.00  0.00     0.023 A 
ATOM     85  C   UNL A   1      44.048  27.519  36.277  1.00  0.00     0.031 A 
ATOM     86  C   UNL A   1      45.454  29.052  35.054  1.00  0.00     0.131 A 
ATOM     87  C   UNL A   1      45.185  27.070  36.964  1.00  0.00     0.055 A 
ATOM     88  C   UNL A   1      46.589  28.554  35.693  1.00  0.00     0.041 A 
ATOM     89  F   UNL A   1      45.626  30.032  34.154  1.00  0.00    -0.206 F 
ATOM     90  C   UNL A   1      46.457  27.565  36.663  1.00  0.00     0.022 A 
BRANCH  87  91
ATOM     91  S   UNL A   1      44.972  25.885  38.320  1.00  0.00     0.124 S 
ATOM     92  O   UNL A   1      44.222  24.814  37.672  1.00  0.00    -0.237 OA
ATOM     93  O   UNL A   1      46.350  25.569  38.679  1.00  0.00    -0.237 OA
ATOM     94  O   UNL A   1      44.228  26.644  39.324  1.00  0.00    -0.744 OA
ENDBRANCH  87  91
ENDBRANCH  61  84
ENDBRANCH  35  36
ENDBRANCH  27  30
ENDBRANCH  25  26
ENDBRANCH   1  25
TORSDOF 16
ENDMDL
MODEL 2
REMARK VINA RESULT:     -12.1      3.992      9.060
REMARK SMILES CC1(C)CCC[C@@H]1NC(=O)CC1(C(=O)NCCCNC(=O)c2ccc(-c3c4nc(c(-c5cc(S(=O)(=O)[O-])ccc5F)c5ccc([nH]5)c(-c5cc(S(=O)(=O)[O-])ccc5F)c5nc(c(-c6cc(S(=O)(=O)[O-])ccc6F)c6ccc3[nH]6)C=C5)C=C4)cc2)CCCCC1
REMARK SMILES IDX 17 1 16 2 15 3 13 4 14 5 12 7 85 8 89 9 86 10 88 11 87 12
REMARK SMILES IDX 11 13 9 14 8 15 10 17 7 18 1 19 2 20 3 21 4 22 5 23 6 24
REMARK SMILES IDX 18 25 19 26 20 27 21 29 22 30 23 31 84 32 24 33 83 34 25 35
REMARK SMILES IDX 26 36 27 37 77 38 28 39 82 40 76 41 78 42 29 43 81 44 75 45
REMARK SMILES IDX 74 46 30 48 62 49 42 50 61 51 43 52 46 53 60 54 79 55 44 56
REMARK SMILES IDX 45 57 59 59 80 60 47 61 31 62 32 63 40 64 33 65 39 66 41 67
REMARK SMILES IDX 38 68 34 69 35 70 36 71 37 72 63 73 64 74 72 75 65 76 71 77
REMARK SMILES IDX 73 78 70 79 66 80 67 81 68 82 69 83 48 84 49 85 57 86 50 87
REMARK SMILES IDX 56 88 58 89 55 90 51 91 52 92 53 93 54 94
REMARK H PARENT 15 6 8 16 19 28 78 47 46 58
REMARK Flexibility Score: inf
ROOT
ATOM      1  C   UNL A   1      33.288  27.856  26.888  1.00  0.00     0.042 C 
ENDROOT
BRANCH   1   2
ATOM      2  C   UNL A   1      31.795  28.030  26.665  1.00  0.00     0.117 C 
BRANCH   2   3
ATOM      3  N   UNL A   1      31.095  26.779  26.792  1.00  0.00    -0.356 N 
ATOM      4  C   UNL A   1      30.693  25.805  25.958  1.00  0.00     0.226 C 
ATOM      5  O   UNL A   1      29.995  24.975  26.564  1.00  0.00    -0.274 OA
ATOM      6  H   UNL A   1      30.847  26.590  27.725  1.00  0.00     0.163 HD
BRANCH   4   7
ATOM      7  C   UNL A   1      31.049  25.608  24.442  1.00  0.00     0.058 C 
ATOM      8  C   UNL A   1      30.894  24.106  24.049  1.00  0.00     0.017 C 
ATOM      9  C   UNL A   1      32.406  26.053  23.856  1.00  0.00     0.017 C 
ATOM     10  C   UNL A   1      32.123  23.197  24.225  1.00  0.00     0.001 C 
ATOM     11  C   UNL A   1      33.638  25.296  24.270  1.00  0.00     0.001 C 
ATOM     12  C   UNL A   1      33.503  23.816  23.962  1.00  0.00     0.000 C 
BRANCH   7  13
ATOM     13  C   UNL A   1      29.926  26.455  23.693  1.00  0.00     0.117 C 
BRANCH  13  14
ATOM     14  C   UNL A   1      30.380  27.418  22.604  1.00  0.00     0.221 C 
ATOM     15  N   UNL A   1      30.155  28.756  22.606  1.00  0.00    -0.353 N 
ATOM     16  H   UNL A   1      30.633  29.211  21.875  1.00  0.00     0.163 HD
ATOM     17  O   UNL A   1      31.015  26.971  21.640  1.00  0.00    -0.275 OA
BRANCH  15  18
ATOM     18  C   UNL A   1      29.376  29.694  23.425  1.00  0.00     0.087 C 
ATOM     19  C   UNL A   1      27.009  28.776  23.053  1.00  0.00     0.013 C 
ATOM     20  C   UNL A   1      27.957  29.953  22.828  1.00  0.00    -0.015 C 
ATOM     21  C   UNL A   1      27.983  30.300  21.318  1.00  0.00     0.013 C 
ATOM     22  C   UNL A   1      27.500  31.184  23.631  1.00  0.00     0.008 C 
ATOM     23  C   UNL A   1      28.737  32.060  23.752  1.00  0.00     0.003 C 
ATOM     24  C   UNL A   1      29.923  31.132  23.512  1.00  0.00     0.025 C 
ENDBRANCH  15  18
ENDBRANCH  13  14
ENDBRANCH   7  13
ENDBRANCH   4   7
ENDBRANCH   2   3
ENDBRANCH   1   2
BRANCH   1  25
ATOM     25  C   UNL A   1      34.103  28.830  26.058  1.00  0.00     0.118 C 
BRANCH  25  26
ATOM     26  N   UNL A   1      33.911  30.205  26.510  1.00  0.00    -0.352 N 
ATOM     27  C   UNL A   1      34.513  30.886  27.542  1.00  0.00     0.251 C 
ATOM     28  H   UNL A   1      33.250  30.724  25.998  1.00  0.00     0.163 HD
ATOM     29  O   UNL A   1      34.007  31.920  27.960  1.00  0.00    -0.269 OA
BRANCH  27  30
ATOM     30  C   UNL A   1      35.756  30.355  28.142  1.00  0.00     0.039 A 
ATOM     31  C   UNL A   1      35.709  29.726  29.388  1.00  0.00     0.014 A 
ATOM     32  C   UNL A   1      36.970  30.489  27.470  1.00  0.00     0.014 A 
ATOM     33  C   UNL A   1      36.876  29.171  29.922  1.00  0.00     0.010 A 
ATOM     34  C   UNL A   1      38.095  29.830  27.939  1.00  0.00     0.010 A 
ATOM     35  C   UNL A   1      38.069  29.184  29.183  1.00  0.00    -0.014 A 
BRANCH  35  36
ATOM     36  C   UNL A   1      39.330  28.593  29.696  1.00  0.00     0.031 A 
ATOM     37  C   UNL A   1      39.979  29.198  30.915  1.00  0.00     0.074 A 
ATOM     38  C   UNL A   1      39.928  27.587  29.029  1.00  0.00     0.049 A 
ATOM     39  N   UNL A   1      41.157  28.962  31.430  1.00  0.00    -0.248 NA
ATOM     40  C   UNL A   1      39.216  30.243  31.619  1.00  0.00     0.031 C 
ATOM     41  C   UNL A   1      39.406  26.940  27.822  1.00  0.00     0.029 A 
ATOM     42  N   UNL A   1      41.116  26.939  29.262  1.00  0.00    -0.354 N 
ATOM     43  C   UNL A   1      41.282  29.843  32.500  1.00  0.00     0.074 A 
ATOM     44  C   UNL A   1      40.095  30.669  32.510  1.00  0.00     0.031 C 
ATOM     45  C   UNL A   1      40.255  25.972  27.439  1.00  0.00     0.029 A 
ATOM     46  C   UNL A   1      41.410  25.969  28.330  1.00  0.00     0.049 A 
ATOM     47  H   UNL A   1      41.701  27.148  30.024  1.00  0.00     0.167 HD
ATOM     48  C   UNL A   1      42.282  29.933  33.410  1.00  0.00     0.034 A 
ATOM     49  C   UNL A   1      42.499  25.184  28.200  1.00  0.00     0.034 A 
ATOM     50  C   UNL A   1      43.443  29.079  33.400  1.00  0.00     0.049 A 
ATOM     51  C   UNL A   1      43.615  25.326  29.208  1.00  0.00     0.074 A 
ATOM     52  C   UNL A   1      44.499  29.052  34.292  1.00  0.00     0.029 A 
ATOM     53  N   UNL A   1      43.696  28.098  32.450  1.00  0.00    -0.354 N 
ATOM     54  N   UNL A   1      43.707  26.147  30.230  1.00  0.00    -0.248 NA
ATOM     55  C   UNL A   1      44.768  24.428  29.055  1.00  0.00     0.031 C 
ATOM     56  C   UNL A   1      45.424  28.104  33.845  1.00  0.00     0.029 A 
ATOM     57  C   UNL A   1      44.903  27.475  32.724  1.00  0.00     0.049 A 
ATOM     58  H   UNL A   1      43.106  27.877  31.694  1.00  0.00     0.167 HD
ATOM     59  C   UNL A   1      44.904  25.828  30.867  1.00  0.00     0.074 A 
ATOM     60  C   UNL A   1      45.495  24.738  30.118  1.00  0.00     0.031 C 
ATOM     61  C   UNL A   1      45.464  26.378  31.973  1.00  0.00     0.034 A 
BRANCH  48  62
ATOM     62  C   UNL A   1      42.165  30.995  34.477  1.00  0.00     0.023 A 
ATOM     63  C   UNL A   1      42.639  32.302  34.273  1.00  0.00     0.031 A 
ATOM     64  C   UNL A   1      41.583  30.693  35.721  1.00  0.00     0.131 A 
ATOM     65  C   UNL A   1      42.586  33.238  35.316  1.00  0.00     0.055 A 
ATOM     66  C   UNL A   1      41.456  31.654  36.726  1.00  0.00     0.041 A 
ATOM     67  F   UNL A   1      41.136  29.455  35.985  1.00  0.00    -0.206 F 
ATOM     68  C   UNL A   1      41.971  32.933  36.532  1.00  0.00     0.022 A 
BRANCH  65  69
ATOM     69  S   UNL A   1      43.459  34.814  35.108  1.00  0.00     0.124 S 
ATOM     70  O   UNL A   1      42.359  35.772  35.188  1.00  0.00    -0.237 OA
ATOM     71  O   UNL A   1      44.387  34.814  36.233  1.00  0.00    -0.237 OA
ATOM     72  O   UNL A   1      44.075  34.692  33.789  1.00  0.00    -0.744 OA
ENDBRANCH  65  69
ENDBRANCH  48  62
BRANCH  49  73
ATOM     73  C   UNL A   1      42.607  24.205  27.079  1.00  0.00     0.023 A 
ATOM     74  C   UNL A   1      41.980  22.951  27.156  1.00  0.00     0.031 A 
ATOM     75  C   UNL A   1      43.395  24.474  25.946  1.00  0.00     0.131 A 
ATOM     76  C   UNL A   1      42.207  21.990  26.160  1.00  0.00     0.055 A 
ATOM     77  C   UNL A   1      43.562  23.539  24.922  1.00  0.00     0.041 A 
ATOM     78  F   UNL A   1      44.017  25.657  25.816  1.00  0.00    -0.206 F 
ATOM     79  C   UNL A   1      42.981  22.280  25.036  1.00  0.00     0.022 A 
BRANCH  76  80
ATOM     80  S   UNL A   1      41.581  20.307  26.422  1.00  0.00     0.124 S 
ATOM     81  O   UNL A   1      42.223  19.581  25.332  1.00  0.00    -0.237 OA
ATOM     82  O   UNL A   1      42.067  20.011  27.765  1.00  0.00    -0.237 OA
ATOM     83  O   UNL A   1      40.133  20.461  26.302  1.00  0.00    -0.744 OA
ENDBRANCH  76  80
ENDBRANCH  49  73
BRANCH  61  84
ATOM     84  C   UNL A   1      46.738  25.755  32.489  1.00  0.00     0.023 A 
ATOM     85  C   UNL A   1      47.995  26.058  31.940  1.00  0.00     0.031 A 
ATOM     86  C   UNL A   1      46.684  24.851  33.566  1.00  0.00     0.131 A 
ATOM     87  C   UNL A   1      49.143  25.423  32.436  1.00  0.00     0.055 A 
ATOM     88  C   UNL A   1      47.837  24.274  34.098  1.00  0.00     0.041 A 
ATOM     89  F   UNL A   1      45.510  24.525  34.127  1.00  0.00    -0.206 F 
ATOM     90  C   UNL A   1      49.074  24.549  33.525  1.00  0.00     0.022 A 
BRANCH  87  91
ATOM     91  S   UNL A   1      50.721  25.689  31.584  1.00  0.00     0.124 S 
ATOM     92  O   UNL A   1      51.515  24.560  32.057  1.00  0.00    -0.237 OA
ATOM     93  O   UNL A   1      50.329  25.648  30.179  1.00  0.00    -0.237 OA
ATOM     94  O   UNL A   1      51.156  26.999  32.068  1.00  0.00    -0.744 OA
ENDBRANCH  87  91
ENDBRANCH  61  84
ENDBRANCH  35  36
ENDBRANCH  27  30
ENDBRANCH  25  26
ENDBRANCH   1  25
TORSDOF 16
ENDMDL
MODEL 3
REMARK VINA RESULT:     -12.1      1.748      2.243
REMARK SMILES CC1(C)CCC[C@@H]1NC(=O)CC1(C(=O)NCCCNC(=O)c2ccc(-c3c4nc(c(-c5cc(S(=O)(=O)[O-])ccc5F)c5ccc([nH]5)c(-c5cc(S(=O)(=O)[O-])ccc5F)c5nc(c(-c6cc(S(=O)(=O)[O-])ccc6F)c6ccc3[nH]6)C=C5)C=C4)cc2)CCCCC1
REMARK SMILES IDX 17 1 16 2 15 3 13 4 14 5 12 7 85 8 89 9 86 10 88 11 87 12
REMARK SMILES IDX 11 13 9 14 8 15 10 17 7 18 1 19 2 20 3 21 4 22 5 23 6 24
REMARK SMILES IDX 18 25 19 26 20 27 21 29 22 30 23 31 84 32 24 33 83 34 25 35
REMARK SMILES IDX 26 36 27 37 77 38 28 39 82 40 76 41 78 42 29 43 81 44 75 45
REMARK SMILES IDX 74 46 30 48 62 49 42 50 61 51 43 52 46 53 60 54 79 55 44 56
REMARK SMILES IDX 45 57 59 59 80 60 47 61 31 62 32 63 40 64 33 65 39 66 41 67
REMARK SMILES IDX 38 68 34 69 35 70 36 71 37 72 63 73 64 74 72 75 65 76 71 77
REMARK SMILES IDX 73 78 70 79 66 80 67 81 68 82 69 83 48 84 49 85 57 86 50 87
REMARK SMILES IDX 56 88 58 89 55 90 51 91 52 92 53 93 54 94
REMARK H PARENT 15 6 8 16 19 28 78 47 46 58
REMARK Flexibility Score: inf
ROOT
ATOM      1  C   UNL A   1      31.467  31.931  26.481  1.00  0.00     0.042 C 
ENDROOT
BRANCH   1   2
ATOM      2  C   UNL A   1      31.630  30.523  25.934  1.00  0.00     0.117 C 
BRANCH   2   3
ATOM      3  N   UNL A   1      31.653  29.547  26.990  1.00  0.00    -0.356 N 
ATOM      4  C   UNL A   1      31.701  28.206  27.070  1.00  0.00     0.226 C 
ATOM      5  O   UNL A   1      31.568  27.836  28.248  1.00  0.00    -0.274 OA
ATOM      6  H   UNL A   1      31.627  29.967  27.880  1.00  0.00     0.163 HD
BRANCH   4   7
ATOM      7  C   UNL A   1      31.952  27.167  25.920  1.00  0.00     0.058 C 
ATOM      8  C   UNL A   1      33.410  27.307  25.385  1.00  0.00     0.017 C 
ATOM      9  C   UNL A   1      31.053  27.102  24.667  1.00  0.00     0.017 C 
ATOM     10  C   UNL A   1      33.651  28.300  24.234  1.00  0.00     0.001 C 
ATOM     11  C   UNL A   1      31.121  28.241  23.686  1.00  0.00     0.001 C 
ATOM     12  C   UNL A   1      32.539  28.452  23.187  1.00  0.00     0.000 C 
BRANCH   7  13
ATOM     13  C   UNL A   1      31.806  25.764  26.662  1.00  0.00     0.117 C 
BRANCH  13  14
ATOM     14  C   UNL A   1      31.327  24.578  25.836  1.00  0.00     0.221 C 
ATOM     15  N   UNL A   1      32.135  23.731  25.151  1.00  0.00    -0.353 N 
ATOM     16  H   UNL A   1      31.639  22.964  24.783  1.00  0.00     0.163 HD
ATOM     17  O   UNL A   1      30.114  24.342  25.781  1.00  0.00    -0.275 OA
BRANCH  15  18
ATOM     18  C   UNL A   1      33.565  23.672  24.819  1.00  0.00     0.087 C 
ATOM     19  C   UNL A   1      33.567  24.904  22.568  1.00  0.00     0.013 C 
ATOM     20  C   UNL A   1      33.805  23.573  23.280  1.00  0.00    -0.015 C 
ATOM     21  C   UNL A   1      32.951  22.475  22.597  1.00  0.00     0.013 C 
ATOM     22  C   UNL A   1      35.292  23.179  23.220  1.00  0.00     0.008 C 
ATOM     23  C   UNL A   1      35.485  22.185  24.354  1.00  0.00     0.003 C 
ATOM     24  C   UNL A   1      34.324  22.427  25.313  1.00  0.00     0.025 C 
ENDBRANCH  15  18
ENDBRANCH  13  14
ENDBRANCH   7  13
ENDBRANCH   4   7
ENDBRANCH   2   3
ENDBRANCH   1   2
BRANCH   1  25
ATOM     25  C   UNL A   1      32.690  32.383  27.257  1.00  0.00     0.118 C 
BRANCH  25  26
ATOM     26  N   UNL A   1      32.587  33.788  27.642  1.00  0.00    -0.352 N 
ATOM     27  C   UNL A   1      33.234  34.479  28.639  1.00  0.00     0.251 C 
ATOM     28  H   UNL A   1      31.957  34.322  27.107  1.00  0.00     0.163 HD
ATOM     29  O   UNL A   1      32.796  35.561  29.008  1.00  0.00    -0.269 OA
BRANCH  27  30
ATOM     30  C   UNL A   1      34.444  33.900  29.263  1.00  0.00     0.039 A 
ATOM     31  C   UNL A   1      35.706  34.371  28.895  1.00  0.00     0.014 A 
ATOM     32  C   UNL A   1      34.325  32.881  30.208  1.00  0.00     0.014 A 
ATOM     33  C   UNL A   1      36.842  33.864  29.533  1.00  0.00     0.010 A 
ATOM     34  C   UNL A   1      35.437  32.473  30.927  1.00  0.00     0.010 A 
ATOM     35  C   UNL A   1      36.713  32.940  30.581  1.00  0.00    -0.014 A 
BRANCH  35  36
ATOM     36  C   UNL A   1      37.886  32.385  31.302  1.00  0.00     0.031 A 
ATOM     37  C   UNL A   1      38.663  31.255  30.675  1.00  0.00     0.074 A 
ATOM     38  C   UNL A   1      38.194  32.827  32.537  1.00  0.00     0.049 A 
ATOM     39  N   UNL A   1      39.602  30.507  31.192  1.00  0.00    -0.248 NA
ATOM     40  C   UNL A   1      38.299  30.891  29.295  1.00  0.00     0.031 C 
ATOM     41  C   UNL A   1      37.496  33.896  33.254  1.00  0.00     0.029 A 
ATOM     42  N   UNL A   1      39.167  32.422  33.416  1.00  0.00    -0.354 N 
ATOM     43  C   UNL A   1      39.922  29.574  30.212  1.00  0.00     0.074 A 
ATOM     44  C   UNL A   1      39.024  29.801  29.102  1.00  0.00     0.031 C 
ATOM     45  C   UNL A   1      38.080  34.079  34.449  1.00  0.00     0.029 A 
ATOM     46  C   UNL A   1      39.152  33.103  34.612  1.00  0.00     0.049 A 
ATOM     47  H   UNL A   1      39.816  31.712  33.209  1.00  0.00     0.167 HD
ATOM     48  C   UNL A   1      40.897  28.633  30.225  1.00  0.00     0.034 A 
ATOM     49  C   UNL A   1      39.903  32.940  35.720  1.00  0.00     0.034 A 
ATOM     50  C   UNL A   1      41.802  28.444  31.330  1.00  0.00     0.049 A 
ATOM     51  C   UNL A   1      40.962  31.863  35.722  1.00  0.00     0.074 A 
ATOM     52  C   UNL A   1      42.852  27.551  31.439  1.00  0.00     0.029 A 
ATOM     53  N   UNL A   1      41.764  29.164  32.517  1.00  0.00    -0.354 N 
ATOM     54  N   UNL A   1      41.269  31.004  34.776  1.00  0.00    -0.248 NA
ATOM     55  C   UNL A   1      41.784  31.741  36.933  1.00  0.00     0.031 C 
ATOM     56  C   UNL A   1      43.406  27.682  32.716  1.00  0.00     0.029 A 
ATOM     57  C   UNL A   1      42.760  28.720  33.371  1.00  0.00     0.049 A 
ATOM     58  H   UNL A   1      41.125  29.884  32.721  1.00  0.00     0.167 HD
ATOM     59  C   UNL A   1      42.352  30.275  35.263  1.00  0.00     0.074 A 
ATOM     60  C   UNL A   1      42.646  30.799  36.580  1.00  0.00     0.031 C 
ATOM     61  C   UNL A   1      43.047  29.269  34.675  1.00  0.00     0.034 A 
BRANCH  48  62
ATOM     62  C   UNL A   1      41.022  27.738  29.015  1.00  0.00     0.023 A 
ATOM     63  C   UNL A   1      42.025  27.937  28.051  1.00  0.00     0.031 A 
ATOM     64  C   UNL A   1      40.120  26.678  28.817  1.00  0.00     0.131 A 
ATOM     65  C   UNL A   1      42.059  27.136  26.899  1.00  0.00     0.055 A 
ATOM     66  C   UNL A   1      40.213  25.830  27.711  1.00  0.00     0.041 A 
ATOM     67  F   UNL A   1      39.125  26.454  29.689  1.00  0.00    -0.206 F 
ATOM     68  C   UNL A   1      41.179  26.064  26.737  1.00  0.00     0.022 A 
BRANCH  65  69
ATOM     69  S   UNL A   1      43.182  27.604  25.555  1.00  0.00     0.124 S 
ATOM     70  O   UNL A   1      44.071  28.548  26.228  1.00  0.00    -0.237 OA
ATOM     71  O   UNL A   1      43.775  26.326  25.178  1.00  0.00    -0.237 OA
ATOM     72  O   UNL A   1      42.294  28.199  24.559  1.00  0.00    -0.744 OA
ENDBRANCH  65  69
ENDBRANCH  48  62
BRANCH  49  73
ATOM     73  C   UNL A   1      39.687  33.796  36.924  1.00  0.00     0.023 A 
ATOM     74  C   UNL A   1      40.529  34.886  37.192  1.00  0.00     0.031 A 
ATOM     75  C   UNL A   1      38.684  33.497  37.863  1.00  0.00     0.131 A 
ATOM     76  C   UNL A   1      40.401  35.593  38.398  1.00  0.00     0.055 A 
ATOM     77  C   UNL A   1      38.515  34.247  39.029  1.00  0.00     0.041 A 
ATOM     78  F   UNL A   1      37.846  32.467  37.659  1.00  0.00    -0.206 F 
ATOM     79  C   UNL A   1      39.390  35.290  39.311  1.00  0.00     0.022 A 
BRANCH  76  80
ATOM     80  S   UNL A   1      41.663  36.829  38.814  1.00  0.00     0.124 S 
ATOM     81  O   UNL A   1      42.457  36.116  39.808  1.00  0.00    -0.237 OA
ATOM     82  O   UNL A   1      42.301  37.055  37.522  1.00  0.00    -0.237 OA
ATOM     83  O   UNL A   1      40.880  37.951  39.328  1.00  0.00    -0.744 OA
ENDBRANCH  76  80
ENDBRANCH  49  73
BRANCH  61  84
ATOM     84  C   UNL A   1      44.244  28.727  35.415  1.00  0.00     0.023 A 
ATOM     85  C   UNL A   1      44.117  27.821  36.481  1.00  0.00     0.031 A 
ATOM     86  C   UNL A   1      45.539  29.120  35.028  1.00  0.00     0.131 A 
ATOM     87  C   UNL A   1      45.263  27.376  37.157  1.00  0.00     0.055 A 
ATOM     88  C   UNL A   1      46.677  28.622  35.662  1.00  0.00     0.041 A 
ATOM     89  F   UNL A   1      45.718  29.985  34.018  1.00  0.00    -0.206 F 
ATOM     90  C   UNL A   1      46.542  27.754  36.741  1.00  0.00     0.022 A 
BRANCH  87  91
ATOM     91  S   UNL A   1      45.056  26.360  38.645  1.00  0.00     0.124 S 
ATOM     92  O   UNL A   1      45.671  25.101  38.240  1.00  0.00    -0.237 OA
ATOM     93  O   UNL A   1      45.782  27.128  39.651  1.00  0.00    -0.237 OA
ATOM     94  O   UNL A   1      43.606  26.313  38.829  1.00  0.00    -0.744 OA
ENDBRANCH  87  91
ENDBRANCH  61  84
ENDBRANCH  35  36
ENDBRANCH  27  30
ENDBRANCH  25  26
ENDBRANCH   1  25
TORSDOF 16
ENDMDL
