MODEL 1
REMARK VINA RESULT:     -11.5      0.000      0.000
REMARK SMILES COc1ccccc1C[N@@H+](C)[C@@H](C)c1ccc(C(=O)NCCCNC(=O)c2ccc(-c3c4nc(c(-c5cc(S(=O)(=O)[O-])ccc5F)c5ccc([nH]5)c(-c5cc(S(=O)(=O)[O-])ccc5F)c5nc(c(-c6cc(S(=O)(=O)[O-])ccc6F)c6ccc3[nH]6)C=C5)C=C4)cc2)o1
REMARK SMILES IDX 21 1 20 2 18 3 19 4 17 6 14 7 15 8 90 9 16 10 12 11 13 12
REMARK SMILES IDX 10 13 11 14 9 16 8 17 3 18 4 19 5 20 7 21 6 22 2 23 1 24
REMARK SMILES IDX 22 25 23 26 24 27 25 28 26 30 27 31 28 32 89 33 29 34 88 35
REMARK SMILES IDX 30 36 31 37 32 38 82 39 33 40 87 41 81 42 83 43 34 44 86 45
REMARK SMILES IDX 80 46 79 47 35 49 67 50 47 51 66 52 48 53 51 54 65 55 84 56
REMARK SMILES IDX 49 57 50 58 64 60 85 61 52 62 36 63 37 64 45 65 38 66 44 67
REMARK SMILES IDX 46 68 43 69 39 70 40 71 41 72 42 73 68 74 69 75 77 76 70 77
REMARK SMILES IDX 76 78 78 79 75 80 71 81 72 82 73 83 74 84 53 85 54 86 62 87
REMARK SMILES IDX 55 88 61 89 63 90 60 91 56 92 57 93 58 94 59 95
REMARK H PARENT 20 5 10 15 24 29 83 48 51 59
REMARK Flexibility Score: inf
ROOT
ATOM      1  C   UNL A   1      31.567  30.851  26.029  1.00  0.00     0.118 C 
ENDROOT
BRANCH   1   2
ATOM      2  N   UNL A   1      31.731  29.861  27.070  1.00  0.00    -0.349 N 
ATOM      3  C   UNL A   1      31.809  28.491  26.983  1.00  0.00     0.287 C 
ATOM      4  O   UNL A   1      31.404  27.885  27.975  1.00  0.00    -0.266 OA
ATOM      5  H   UNL A   1      31.799  30.225  27.982  1.00  0.00     0.163 HD
BRANCH   3   6
ATOM      6  C   UNL A   1      32.393  27.848  25.824  1.00  0.00     0.191 A 
ATOM      7  C   UNL A   1      32.308  26.360  24.180  1.00  0.00     0.161 A 
ATOM      8  C   UNL A   1      33.573  26.909  24.148  1.00  0.00     0.053 A 
ATOM      9  O   UNL A   1      31.583  26.967  25.154  1.00  0.00    -0.450 OA
ATOM     10  C   UNL A   1      33.618  27.880  25.182  1.00  0.00     0.057 A 
BRANCH   7  11
ATOM     11  C   UNL A   1      31.617  25.346  23.310  1.00  0.00     0.248 C 
ATOM     12  C   UNL A   1      30.170  25.137  23.779  1.00  0.00     0.084 C 
BRANCH  11  13
ATOM     13  N   UNL A   1      32.426  24.122  23.037  1.00  0.00    -0.325 N 
ATOM     14  C   UNL A   1      32.992  24.194  21.683  1.00  0.00     0.333 C 
ATOM     15  H   UNL A   1      33.145  24.115  23.759  1.00  0.00     0.348 HD
BRANCH  13  16
ATOM     16  C   UNL A   1      31.687  22.845  23.156  1.00  0.00     0.303 C 
BRANCH  16  17
ATOM     17  C   UNL A   1      32.430  21.692  23.783  1.00  0.00     0.048 A 
ATOM     18  C   UNL A   1      33.276  21.870  24.886  1.00  0.00     0.127 A 
ATOM     19  C   UNL A   1      33.924  20.780  25.475  1.00  0.00     0.047 A 
ATOM     20  C   UNL A   1      33.726  19.494  24.975  1.00  0.00     0.004 A 
ATOM     21  C   UNL A   1      32.238  20.385  23.295  1.00  0.00     0.013 A 
ATOM     22  C   UNL A   1      32.885  19.296  23.884  1.00  0.00     0.001 A 
BRANCH  18  23
ATOM     23  O   UNL A   1      33.613  23.130  25.306  1.00  0.00    -0.496 OA
ATOM     24  C   UNL A   1      35.002  23.390  25.153  1.00  0.00     0.278 C 
ENDBRANCH  18  23
ENDBRANCH  16  17
ENDBRANCH  13  16
ENDBRANCH  11  13
ENDBRANCH   7  11
ENDBRANCH   3   6
ENDBRANCH   1   2
BRANCH   1  25
ATOM     25  C   UNL A   1      31.379  32.225  26.671  1.00  0.00     0.042 C 
BRANCH  25  26
ATOM     26  C   UNL A   1      32.679  32.763  27.272  1.00  0.00     0.118 C 
BRANCH  26  27
ATOM     27  N   UNL A   1      32.540  34.156  27.663  1.00  0.00    -0.352 N 
ATOM     28  C   UNL A   1      33.111  34.811  28.725  1.00  0.00     0.251 C 
ATOM     29  H   UNL A   1      31.958  34.705  27.088  1.00  0.00     0.163 HD
ATOM     30  O   UNL A   1      32.655  35.893  29.086  1.00  0.00    -0.269 OA
BRANCH  28  31
ATOM     31  C   UNL A   1      34.264  34.209  29.432  1.00  0.00     0.039 A 
ATOM     32  C   UNL A   1      34.033  33.410  30.553  1.00  0.00     0.014 A 
ATOM     33  C   UNL A   1      35.572  34.466  29.008  1.00  0.00     0.014 A 
ATOM     34  C   UNL A   1      35.113  32.836  31.228  1.00  0.00     0.010 A 
ATOM     35  C   UNL A   1      36.643  33.843  29.643  1.00  0.00     0.010 A 
ATOM     36  C   UNL A   1      36.426  33.032  30.768  1.00  0.00    -0.014 A 
BRANCH  36  37
ATOM     37  C   UNL A   1      37.588  32.430  31.473  1.00  0.00     0.031 A 
ATOM     38  C   UNL A   1      38.341  31.293  30.834  1.00  0.00     0.074 A 
ATOM     39  C   UNL A   1      37.934  32.871  32.698  1.00  0.00     0.049 A 
ATOM     40  N   UNL A   1      39.318  30.570  31.319  1.00  0.00    -0.248 NA
ATOM     41  C   UNL A   1      37.920  30.904  29.480  1.00  0.00     0.031 C 
ATOM     42  C   UNL A   1      37.266  33.952  33.427  1.00  0.00     0.029 A 
ATOM     43  N   UNL A   1      38.928  32.462  33.551  1.00  0.00    -0.354 N 
ATOM     44  C   UNL A   1      39.621  29.634  30.334  1.00  0.00     0.074 A 
ATOM     45  C   UNL A   1      38.683  29.846  29.252  1.00  0.00     0.031 C 
ATOM     46  C   UNL A   1      37.882  34.132  34.607  1.00  0.00     0.029 A 
ATOM     47  C   UNL A   1      38.958  33.154  34.740  1.00  0.00     0.049 A 
ATOM     48  H   UNL A   1      39.561  31.740  33.333  1.00  0.00     0.167 HD
ATOM     49  C   UNL A   1      40.605  28.701  30.323  1.00  0.00     0.034 A 
ATOM     50  C   UNL A   1      39.753  33.007  35.818  1.00  0.00     0.034 A 
ATOM     51  C   UNL A   1      41.540  28.508  31.405  1.00  0.00     0.049 A 
ATOM     52  C   UNL A   1      40.823  31.942  35.792  1.00  0.00     0.074 A 
ATOM     53  C   UNL A   1      42.585  27.604  31.493  1.00  0.00     0.029 A 
ATOM     54  N   UNL A   1      41.546  29.237  32.588  1.00  0.00    -0.354 N 
ATOM     55  N   UNL A   1      41.108  31.079  34.844  1.00  0.00    -0.248 NA
ATOM     56  C   UNL A   1      41.686  31.842  36.976  1.00  0.00     0.031 C 
ATOM     57  C   UNL A   1      43.191  27.754  32.746  1.00  0.00     0.029 A 
ATOM     58  C   UNL A   1      42.567  28.794  33.415  1.00  0.00     0.049 A 
ATOM     59  H   UNL A   1      40.916  29.960  32.807  1.00  0.00     0.167 HD
ATOM     60  C   UNL A   1      42.209  30.361  35.305  1.00  0.00     0.074 A 
ATOM     61  C   UNL A   1      42.541  30.901  36.606  1.00  0.00     0.031 C 
ATOM     62  C   UNL A   1      42.887  29.350  34.706  1.00  0.00     0.034 A 
BRANCH  49  63
ATOM     63  C   UNL A   1      40.702  27.811  29.108  1.00  0.00     0.023 A 
ATOM     64  C   UNL A   1      41.626  28.070  28.081  1.00  0.00     0.031 A 
ATOM     65  C   UNL A   1      39.848  26.704  28.961  1.00  0.00     0.131 A 
ATOM     66  C   UNL A   1      41.628  27.277  26.923  1.00  0.00     0.055 A 
ATOM     67  C   UNL A   1      39.908  25.871  27.842  1.00  0.00     0.041 A 
ATOM     68  F   UNL A   1      38.931  26.418  29.900  1.00  0.00    -0.206 F 
ATOM     69  C   UNL A   1      40.793  26.164  26.807  1.00  0.00     0.022 A 
BRANCH  66  70
ATOM     70  S   UNL A   1      42.650  27.798  25.519  1.00  0.00     0.124 S 
ATOM     71  O   UNL A   1      41.906  28.954  25.026  1.00  0.00    -0.237 OA
ATOM     72  O   UNL A   1      43.933  28.086  26.149  1.00  0.00    -0.237 OA
ATOM     73  O   UNL A   1      42.636  26.634  24.634  1.00  0.00    -0.744 OA
ENDBRANCH  66  70
ENDBRANCH  49  63
BRANCH  50  74
ATOM     74  C   UNL A   1      39.582  33.874  37.018  1.00  0.00     0.023 A 
ATOM     75  C   UNL A   1      39.000  33.372  38.193  1.00  0.00     0.031 A 
ATOM     76  C   UNL A   1      39.932  35.236  36.989  1.00  0.00     0.131 A 
ATOM     77  C   UNL A   1      38.727  34.234  39.266  1.00  0.00     0.055 A 
ATOM     78  C   UNL A   1      39.712  36.079  38.080  1.00  0.00     0.041 A 
ATOM     79  F   UNL A   1      40.497  35.769  35.893  1.00  0.00    -0.206 F 
ATOM     80  C   UNL A   1      39.090  35.582  39.221  1.00  0.00     0.022 A 
BRANCH  77  81
ATOM     81  S   UNL A   1      37.789  33.590  40.678  1.00  0.00     0.124 S 
ATOM     82  O   UNL A   1      37.580  34.795  41.471  1.00  0.00    -0.237 OA
ATOM     83  O   UNL A   1      36.607  33.036  40.027  1.00  0.00    -0.237 OA
ATOM     84  O   UNL A   1      38.694  32.603  41.265  1.00  0.00    -0.744 OA
ENDBRANCH  77  81
ENDBRANCH  50  74
BRANCH  62  85
ATOM     85  C   UNL A   1      44.096  28.815  35.433  1.00  0.00     0.023 A 
ATOM     86  C   UNL A   1      43.986  27.831  36.430  1.00  0.00     0.031 A 
ATOM     87  C   UNL A   1      45.375  29.315  35.133  1.00  0.00     0.131 A 
ATOM     88  C   UNL A   1      45.128  27.419  37.132  1.00  0.00     0.055 A 
ATOM     89  C   UNL A   1      46.515  28.861  35.795  1.00  0.00     0.041 A 
ATOM     90  F   UNL A   1      45.535  30.257  34.187  1.00  0.00    -0.206 F 
ATOM     91  C   UNL A   1      46.394  27.917  36.811  1.00  0.00     0.022 A 
BRANCH  88  92
ATOM     92  S   UNL A   1      44.928  26.284  38.533  1.00  0.00     0.124 S 
ATOM     93  O   UNL A   1      45.419  25.027  37.978  1.00  0.00    -0.237 OA
ATOM     94  O   UNL A   1      45.768  26.900  39.555  1.00  0.00    -0.237 OA
ATOM     95  O   UNL A   1      43.492  26.322  38.805  1.00  0.00    -0.744 OA
ENDBRANCH  88  92
ENDBRANCH  62  85
ENDBRANCH  36  37
ENDBRANCH  28  31
ENDBRANCH  26  27
ENDBRANCH  25  26
ENDBRANCH   1  25
TORSDOF 18
ENDMDL
MODEL 2
REMARK VINA RESULT:     -11.5      1.119      2.556
REMARK SMILES COc1ccccc1C[N@@H+](C)[C@@H](C)c1ccc(C(=O)NCCCNC(=O)c2ccc(-c3c4nc(c(-c5cc(S(=O)(=O)[O-])ccc5F)c5ccc([nH]5)c(-c5cc(S(=O)(=O)[O-])ccc5F)c5nc(c(-c6cc(S(=O)(=O)[O-])ccc6F)c6ccc3[nH]6)C=C5)C=C4)cc2)o1
REMARK SMILES IDX 21 1 20 2 18 3 19 4 17 6 14 7 15 8 90 9 16 10 12 11 13 12
REMARK SMILES IDX 10 13 11 14 9 16 8 17 3 18 4 19 5 20 7 21 6 22 2 23 1 24
REMARK SMILES IDX 22 25 23 26 24 27 25 28 26 30 27 31 28 32 89 33 29 34 88 35
REMARK SMILES IDX 30 36 31 37 32 38 82 39 33 40 87 41 81 42 83 43 34 44 86 45
REMARK SMILES IDX 80 46 79 47 35 49 67 50 47 51 66 52 48 53 51 54 65 55 84 56
REMARK SMILES IDX 49 57 50 58 64 60 85 61 52 62 36 63 37 64 45 65 38 66 44 67
REMARK SMILES IDX 46 68 43 69 39 70 40 71 41 72 42 73 68 74 69 75 77 76 70 77
REMARK SMILES IDX 76 78 78 79 75 80 71 81 72 82 73 83 74 84 53 85 54 86 62 87
REMARK SMILES IDX 55 88 61 89 63 90 60 91 56 92 57 93 58 94 59 95
REMARK H PARENT 20 5 10 15 24 29 83 48 51 59
REMARK Flexibility Score: inf
ROOT
ATOM      1  C   UNL A   1      31.614  31.091  26.314  1.00  0.00     0.118 C 
ENDROOT
BRANCH   1   2
ATOM      2  N   UNL A   1      32.979  30.662  26.523  1.00  0.00    -0.349 N 
ATOM      3  C   UNL A   1      33.466  29.503  27.079  1.00  0.00     0.287 C 
ATOM      4  O   UNL A   1      34.564  29.611  27.627  1.00  0.00    -0.266 OA
ATOM      5  H   UNL A   1      33.665  31.298  26.219  1.00  0.00     0.163 HD
BRANCH   3   6
ATOM      6  C   UNL A   1      32.745  28.253  26.952  1.00  0.00     0.191 A 
ATOM      7  C   UNL A   1      32.547  26.200  26.132  1.00  0.00     0.161 A 
ATOM      8  C   UNL A   1      31.369  26.474  26.795  1.00  0.00     0.053 A 
ATOM      9  O   UNL A   1      33.394  27.251  26.276  1.00  0.00    -0.450 OA
ATOM     10  C   UNL A   1      31.507  27.776  27.341  1.00  0.00     0.057 A 
BRANCH   7  11
ATOM     11  C   UNL A   1      33.052  24.977  25.415  1.00  0.00     0.248 C 
ATOM     12  C   UNL A   1      34.456  25.230  24.850  1.00  0.00     0.084 C 
BRANCH  11  13
ATOM     13  N   UNL A   1      32.054  24.350  24.500  1.00  0.00    -0.325 N 
ATOM     14  C   UNL A   1      32.433  22.956  24.233  1.00  0.00     0.333 C 
ATOM     15  H   UNL A   1      31.163  24.423  24.991  1.00  0.00     0.348 HD
BRANCH  13  16
ATOM     16  C   UNL A   1      31.882  25.034  23.199  1.00  0.00     0.303 C 
BRANCH  16  17
ATOM     17  C   UNL A   1      31.066  26.303  23.206  1.00  0.00     0.048 A 
ATOM     18  C   UNL A   1      31.624  27.542  22.866  1.00  0.00     0.127 A 
ATOM     19  C   UNL A   1      30.840  28.699  22.843  1.00  0.00     0.047 A 
ATOM     20  C   UNL A   1      29.481  28.631  23.148  1.00  0.00     0.004 A 
ATOM     21  C   UNL A   1      29.692  26.251  23.508  1.00  0.00     0.013 A 
ATOM     22  C   UNL A   1      28.907  27.407  23.483  1.00  0.00     0.001 A 
BRANCH  18  23
ATOM     23  O   UNL A   1      32.979  27.674  22.710  1.00  0.00    -0.496 OA
ATOM     24  C   UNL A   1      33.440  28.957  23.110  1.00  0.00     0.278 C 
ENDBRANCH  18  23
ENDBRANCH  16  17
ENDBRANCH  13  16
ENDBRANCH  11  13
ENDBRANCH   7  11
ENDBRANCH   3   6
ENDBRANCH   1   2
BRANCH   1  25
ATOM     25  C   UNL A   1      31.451  32.515  26.844  1.00  0.00     0.042 C 
BRANCH  25  26
ATOM     26  C   UNL A   1      32.779  33.108  27.317  1.00  0.00     0.118 C 
BRANCH  26  27
ATOM     27  N   UNL A   1      32.611  34.481  27.767  1.00  0.00    -0.352 N 
ATOM     28  C   UNL A   1      33.149  35.095  28.870  1.00  0.00     0.251 C 
ATOM     29  H   UNL A   1      32.033  35.046  27.205  1.00  0.00     0.163 HD
ATOM     30  O   UNL A   1      32.668  36.152  29.270  1.00  0.00    -0.269 OA
BRANCH  28  31
ATOM     31  C   UNL A   1      34.296  34.478  29.573  1.00  0.00     0.039 A 
ATOM     32  C   UNL A   1      34.082  33.847  30.801  1.00  0.00     0.014 A 
ATOM     33  C   UNL A   1      35.586  34.557  29.038  1.00  0.00     0.014 A 
ATOM     34  C   UNL A   1      35.157  33.261  31.474  1.00  0.00     0.010 A 
ATOM     35  C   UNL A   1      36.644  33.919  29.679  1.00  0.00     0.010 A 
ATOM     36  C   UNL A   1      36.443  33.275  30.910  1.00  0.00    -0.014 A 
BRANCH  36  37
ATOM     37  C   UNL A   1      37.600  32.658  31.611  1.00  0.00     0.031 A 
ATOM     38  C   UNL A   1      38.326  31.502  30.977  1.00  0.00     0.074 A 
ATOM     39  C   UNL A   1      37.964  33.103  32.830  1.00  0.00     0.049 A 
ATOM     40  N   UNL A   1      39.293  30.764  31.460  1.00  0.00    -0.248 NA
ATOM     41  C   UNL A   1      37.887  31.109  29.629  1.00  0.00     0.031 C 
ATOM     42  C   UNL A   1      37.322  34.202  33.555  1.00  0.00     0.029 A 
ATOM     43  N   UNL A   1      38.956  32.682  33.678  1.00  0.00    -0.354 N 
ATOM     44  C   UNL A   1      39.571  29.814  30.481  1.00  0.00     0.074 A 
ATOM     45  C   UNL A   1      38.629  30.035  29.404  1.00  0.00     0.031 C 
ATOM     46  C   UNL A   1      37.951  34.381  34.728  1.00  0.00     0.029 A 
ATOM     47  C   UNL A   1      39.009  33.384  34.861  1.00  0.00     0.049 A 
ATOM     48  H   UNL A   1      39.574  31.947  33.462  1.00  0.00     0.167 HD
ATOM     49  C   UNL A   1      40.538  28.863  30.471  1.00  0.00     0.034 A 
ATOM     50  C   UNL A   1      39.810  33.231  35.934  1.00  0.00     0.034 A 
ATOM     51  C   UNL A   1      41.477  28.662  31.546  1.00  0.00     0.049 A 
ATOM     52  C   UNL A   1      40.859  32.146  35.909  1.00  0.00     0.074 A 
ATOM     53  C   UNL A   1      42.505  27.739  31.634  1.00  0.00     0.029 A 
ATOM     54  N   UNL A   1      41.505  29.400  32.723  1.00  0.00    -0.354 N 
ATOM     55  N   UNL A   1      41.120  31.270  34.966  1.00  0.00    -0.248 NA
ATOM     56  C   UNL A   1      41.729  32.040  37.088  1.00  0.00     0.031 C 
ATOM     57  C   UNL A   1      43.124  27.888  32.881  1.00  0.00     0.029 A 
ATOM     58  C   UNL A   1      42.525  28.946  33.546  1.00  0.00     0.049 A 
ATOM     59  H   UNL A   1      40.891  30.138  32.941  1.00  0.00     0.167 HD
ATOM     60  C   UNL A   1      42.211  30.535  35.425  1.00  0.00     0.074 A 
ATOM     61  C   UNL A   1      42.564  31.080  36.719  1.00  0.00     0.031 C 
ATOM     62  C   UNL A   1      42.865  29.506  34.830  1.00  0.00     0.034 A 
BRANCH  49  63
ATOM     63  C   UNL A   1      40.608  27.961  29.262  1.00  0.00     0.023 A 
ATOM     64  C   UNL A   1      41.553  28.172  28.243  1.00  0.00     0.031 A 
ATOM     65  C   UNL A   1      39.708  26.891  29.113  1.00  0.00     0.131 A 
ATOM     66  C   UNL A   1      41.533  27.372  27.091  1.00  0.00     0.055 A 
ATOM     67  C   UNL A   1      39.743  26.049  28.000  1.00  0.00     0.041 A 
ATOM     68  F   UNL A   1      38.770  26.652  30.044  1.00  0.00    -0.206 F 
ATOM     69  C   UNL A   1      40.651  26.296  26.974  1.00  0.00     0.022 A 
BRANCH  66  70
ATOM     70  S   UNL A   1      42.591  27.838  25.694  1.00  0.00     0.124 S 
ATOM     71  O   UNL A   1      43.923  27.719  26.283  1.00  0.00    -0.237 OA
ATOM     72  O   UNL A   1      42.246  26.840  24.688  1.00  0.00    -0.237 OA
ATOM     73  O   UNL A   1      42.173  29.204  25.388  1.00  0.00    -0.744 OA
ENDBRANCH  66  70
ENDBRANCH  49  63
BRANCH  50  74
ATOM     74  C   UNL A   1      39.664  34.112  37.128  1.00  0.00     0.023 A 
ATOM     75  C   UNL A   1      39.062  33.636  38.304  1.00  0.00     0.031 A 
ATOM     76  C   UNL A   1      40.059  35.461  37.091  1.00  0.00     0.131 A 
ATOM     77  C   UNL A   1      38.816  34.514  39.371  1.00  0.00     0.055 A 
ATOM     78  C   UNL A   1      39.864  36.318  38.176  1.00  0.00     0.041 A 
ATOM     79  F   UNL A   1      40.644  35.967  35.993  1.00  0.00    -0.206 F 
ATOM     80  C   UNL A   1      39.223  35.849  39.319  1.00  0.00     0.022 A 
BRANCH  77  81
ATOM     81  S   UNL A   1      37.853  33.911  40.785  1.00  0.00     0.124 S 
ATOM     82  O   UNL A   1      36.742  33.237  40.123  1.00  0.00    -0.237 OA
ATOM     83  O   UNL A   1      38.817  33.049  41.460  1.00  0.00    -0.237 OA
ATOM     84  O   UNL A   1      37.504  35.135  41.504  1.00  0.00    -0.744 OA
ENDBRANCH  77  81
ENDBRANCH  50  74
BRANCH  62  85
ATOM     85  C   UNL A   1      44.069  28.954  35.553  1.00  0.00     0.023 A 
ATOM     86  C   UNL A   1      43.960  27.912  36.487  1.00  0.00     0.031 A 
ATOM     87  C   UNL A   1      45.344  29.498  35.311  1.00  0.00     0.131 A 
ATOM     88  C   UNL A   1      45.095  27.483  37.190  1.00  0.00     0.055 A 
ATOM     89  C   UNL A   1      46.479  29.030  35.972  1.00  0.00     0.041 A 
ATOM     90  F   UNL A   1      45.503  30.497  34.426  1.00  0.00    -0.206 F 
ATOM     91  C   UNL A   1      46.356  28.025  36.928  1.00  0.00     0.022 A 
BRANCH  88  92
ATOM     92  S   UNL A   1      44.890  26.264  38.518  1.00  0.00     0.124 S 
ATOM     93  O   UNL A   1      45.933  26.661  39.459  1.00  0.00    -0.237 OA
ATOM     94  O   UNL A   1      43.517  26.503  38.951  1.00  0.00    -0.237 OA
ATOM     95  O   UNL A   1      45.114  24.985  37.847  1.00  0.00    -0.744 OA
ENDBRANCH  88  92
ENDBRANCH  62  85
ENDBRANCH  36  37
ENDBRANCH  28  31
ENDBRANCH  26  27
ENDBRANCH  25  26
ENDBRANCH   1  25
TORSDOF 18
ENDMDL
MODEL 3
REMARK VINA RESULT:     -11.4      2.240      7.794
REMARK SMILES COc1ccccc1C[N@@H+](C)[C@@H](C)c1ccc(C(=O)NCCCNC(=O)c2ccc(-c3c4nc(c(-c5cc(S(=O)(=O)[O-])ccc5F)c5ccc([nH]5)c(-c5cc(S(=O)(=O)[O-])ccc5F)c5nc(c(-c6cc(S(=O)(=O)[O-])ccc6F)c6ccc3[nH]6)C=C5)C=C4)cc2)o1
REMARK SMILES IDX 21 1 20 2 18 3 19 4 17 6 14 7 15 8 90 9 16 10 12 11 13 12
REMARK SMILES IDX 10 13 11 14 9 16 8 17 3 18 4 19 5 20 7 21 6 22 2 23 1 24
REMARK SMILES IDX 22 25 23 26 24 27 25 28 26 30 27 31 28 32 89 33 29 34 88 35
REMARK SMILES IDX 30 36 31 37 32 38 82 39 33 40 87 41 81 42 83 43 34 44 86 45
REMARK SMILES IDX 80 46 79 47 35 49 67 50 47 51 66 52 48 53 51 54 65 55 84 56
REMARK SMILES IDX 49 57 50 58 64 60 85 61 52 62 36 63 37 64 45 65 38 66 44 67
REMARK SMILES IDX 46 68 43 69 39 70 40 71 41 72 42 73 68 74 69 75 77 76 70 77
REMARK SMILES IDX 76 78 78 79 75 80 71 81 72 82 73 83 74 84 53 85 54 86 62 87
REMARK SMILES IDX 55 88 61 89 63 90 60 91 56 92 57 93 58 94 59 95
REMARK H PARENT 20 5 10 15 24 29 83 48 51 59
REMARK Flexibility Score: inf
ROOT
ATOM      1  C   UNL A   1      31.285  30.246  25.243  1.00  0.00     0.118 C 
ENDROOT
BRANCH   1   2
ATOM      2  N   UNL A   1      30.499  30.164  24.031  1.00  0.00    -0.349 N 
ATOM      3  C   UNL A   1      30.334  29.119  23.153  1.00  0.00     0.287 C 
ATOM      4  O   UNL A   1      30.097  29.450  21.991  1.00  0.00    -0.266 OA
ATOM      5  H   UNL A   1      30.005  30.984  23.800  1.00  0.00     0.163 HD
BRANCH   3   6
ATOM      6  C   UNL A   1      30.375  27.745  23.611  1.00  0.00     0.191 A 
ATOM      7  C   UNL A   1      31.503  25.942  24.244  1.00  0.00     0.161 A 
ATOM      8  C   UNL A   1      30.176  25.570  24.170  1.00  0.00     0.053 A 
ATOM      9  O   UNL A   1      31.611  27.265  23.961  1.00  0.00    -0.450 OA
ATOM     10  C   UNL A   1      29.453  26.731  23.792  1.00  0.00     0.057 A 
BRANCH   7  11
ATOM     11  C   UNL A   1      32.746  25.202  24.656  1.00  0.00     0.248 C 
ATOM     12  C   UNL A   1      33.677  26.124  25.455  1.00  0.00     0.084 C 
BRANCH  11  13
ATOM     13  N   UNL A   1      33.364  24.390  23.567  1.00  0.00    -0.325 N 
ATOM     14  C   UNL A   1      32.673  24.655  22.298  1.00  0.00     0.333 C 
ATOM     15  H   UNL A   1      34.341  24.679  23.545  1.00  0.00     0.348 HD
BRANCH  13  16
ATOM     16  C   UNL A   1      33.355  22.928  23.795  1.00  0.00     0.303 C 
BRANCH  16  17
ATOM     17  C   UNL A   1      34.674  22.294  24.162  1.00  0.00     0.048 A 
ATOM     18  C   UNL A   1      34.747  21.005  24.709  1.00  0.00     0.127 A 
ATOM     19  C   UNL A   1      35.983  20.424  25.006  1.00  0.00     0.047 A 
ATOM     20  C   UNL A   1      37.165  21.118  24.750  1.00  0.00     0.004 A 
ATOM     21  C   UNL A   1      35.876  22.979  23.907  1.00  0.00     0.013 A 
ATOM     22  C   UNL A   1      37.112  22.397  24.202  1.00  0.00     0.001 A 
BRANCH  18  23
ATOM     23  O   UNL A   1      33.611  20.357  25.114  1.00  0.00    -0.496 OA
ATOM     24  C   UNL A   1      33.599  18.995  24.708  1.00  0.00     0.278 C 
ENDBRANCH  18  23
ENDBRANCH  16  17
ENDBRANCH  13  16
ENDBRANCH  11  13
ENDBRANCH   7  11
ENDBRANCH   3   6
ENDBRANCH   1   2
BRANCH   1  25
ATOM     25  C   UNL A   1      31.061  31.611  25.891  1.00  0.00     0.042 C 
BRANCH  25  26
ATOM     26  C   UNL A   1      32.147  31.948  26.914  1.00  0.00     0.118 C 
BRANCH  26  27
ATOM     27  N   UNL A   1      32.270  33.385  27.097  1.00  0.00    -0.352 N 
ATOM     28  C   UNL A   1      33.082  34.075  27.963  1.00  0.00     0.251 C 
ATOM     29  H   UNL A   1      31.693  33.939  26.522  1.00  0.00     0.163 HD
ATOM     30  O   UNL A   1      32.844  35.255  28.206  1.00  0.00    -0.269 OA
BRANCH  28  31
ATOM     31  C   UNL A   1      34.229  33.392  28.602  1.00  0.00     0.039 A 
ATOM     32  C   UNL A   1      35.522  33.672  28.155  1.00  0.00     0.014 A 
ATOM     33  C   UNL A   1      34.024  32.450  29.615  1.00  0.00     0.014 A 
ATOM     34  C   UNL A   1      36.613  33.034  28.750  1.00  0.00     0.010 A 
ATOM     35  C   UNL A   1      35.115  31.862  30.249  1.00  0.00     0.010 A 
ATOM     36  C   UNL A   1      36.421  32.139  29.815  1.00  0.00    -0.014 A 
BRANCH  36  37
ATOM     37  C   UNL A   1      37.569  31.450  30.461  1.00  0.00     0.031 A 
ATOM     38  C   UNL A   1      37.949  31.800  31.875  1.00  0.00     0.074 A 
ATOM     39  C   UNL A   1      38.293  30.552  29.765  1.00  0.00     0.049 A 
ATOM     40  N   UNL A   1      38.968  31.389  32.586  1.00  0.00    -0.248 NA
ATOM     41  C   UNL A   1      37.080  32.761  32.572  1.00  0.00     0.031 C 
ATOM     42  C   UNL A   1      38.033  30.147  28.382  1.00  0.00     0.029 A 
ATOM     43  N   UNL A   1      39.398  29.821  30.122  1.00  0.00    -0.354 N 
ATOM     44  C   UNL A   1      38.868  32.048  33.809  1.00  0.00     0.074 A 
ATOM     45  C   UNL A   1      37.723  32.929  33.717  1.00  0.00     0.031 C 
ATOM     46  C   UNL A   1      38.941  29.227  28.016  1.00  0.00     0.029 A 
ATOM     47  C   UNL A   1      39.873  29.008  29.118  1.00  0.00     0.049 A 
ATOM     48  H   UNL A   1      39.814  29.874  31.013  1.00  0.00     0.167 HD
ATOM     49  C   UNL A   1      39.645  31.912  34.912  1.00  0.00     0.034 A 
ATOM     50  C   UNL A   1      40.944  28.192  29.087  1.00  0.00     0.034 A 
ATOM     51  C   UNL A   1      40.776  31.021  34.993  1.00  0.00     0.049 A 
ATOM     52  C   UNL A   1      41.808  28.080  30.320  1.00  0.00     0.074 A 
ATOM     53  C   UNL A   1      41.621  30.793  36.065  1.00  0.00     0.029 A 
ATOM     54  N   UNL A   1      41.218  30.205  33.959  1.00  0.00    -0.354 N 
ATOM     55  N   UNL A   1      41.687  28.696  31.473  1.00  0.00    -0.248 NA
ATOM     56  C   UNL A   1      42.945  27.152  30.249  1.00  0.00     0.031 C 
ATOM     57  C   UNL A   1      42.601  29.877  35.665  1.00  0.00     0.029 A 
ATOM     58  C   UNL A   1      42.331  29.483  34.364  1.00  0.00     0.049 A 
ATOM     59  H   UNL A   1      40.803  30.149  33.069  1.00  0.00     0.167 HD
ATOM     60  C   UNL A   1      42.711  28.198  32.276  1.00  0.00     0.074 A 
ATOM     61  C   UNL A   1      43.428  27.225  31.480  1.00  0.00     0.031 C 
ATOM     62  C   UNL A   1      43.028  28.513  33.558  1.00  0.00     0.034 A 
BRANCH  49  63
ATOM     63  C   UNL A   1      39.299  32.763  36.110  1.00  0.00     0.023 A 
ATOM     64  C   UNL A   1      39.792  34.071  36.248  1.00  0.00     0.031 A 
ATOM     65  C   UNL A   1      38.486  32.254  37.139  1.00  0.00     0.131 A 
ATOM     66  C   UNL A   1      39.527  34.802  37.416  1.00  0.00     0.055 A 
ATOM     67  C   UNL A   1      38.160  33.015  38.264  1.00  0.00     0.041 A 
ATOM     68  F   UNL A   1      38.002  31.003  37.073  1.00  0.00    -0.206 F 
ATOM     69  C   UNL A   1      38.693  34.292  38.414  1.00  0.00     0.022 A 
BRANCH  66  70
ATOM     70  S   UNL A   1      40.390  36.377  37.668  1.00  0.00     0.124 S 
ATOM     71  O   UNL A   1      41.655  35.929  38.243  1.00  0.00    -0.237 OA
ATOM     72  O   UNL A   1      40.459  36.920  36.316  1.00  0.00    -0.237 OA
ATOM     73  O   UNL A   1      39.517  37.103  38.588  1.00  0.00    -0.744 OA
ENDBRANCH  66  70
ENDBRANCH  49  63
BRANCH  50  74
ATOM     74  C   UNL A   1      41.277  27.414  27.860  1.00  0.00     0.023 A 
ATOM     75  C   UNL A   1      41.031  26.033  27.793  1.00  0.00     0.031 A 
ATOM     76  C   UNL A   1      41.909  28.023  26.760  1.00  0.00     0.131 A 
ATOM     77  C   UNL A   1      41.469  25.295  26.683  1.00  0.00     0.055 A 
ATOM     78  C   UNL A   1      42.292  27.295  25.632  1.00  0.00     0.041 A 
ATOM     79  F   UNL A   1      42.164  29.341  26.768  1.00  0.00    -0.206 F 
ATOM     80  C   UNL A   1      42.087  25.918  25.597  1.00  0.00     0.022 A 
BRANCH  77  81
ATOM     81  S   UNL A   1      41.317  23.488  26.730  1.00  0.00     0.124 S 
ATOM     82  O   UNL A   1      39.896  23.302  26.462  1.00  0.00    -0.237 OA
ATOM     83  O   UNL A   1      42.231  23.081  25.668  1.00  0.00    -0.237 OA
ATOM     84  O   UNL A   1      41.747  23.147  28.085  1.00  0.00    -0.744 OA
ENDBRANCH  77  81
ENDBRANCH  50  74
BRANCH  62  85
ATOM     85  C   UNL A   1      44.161  27.742  34.189  1.00  0.00     0.023 A 
ATOM     86  C   UNL A   1      43.947  26.531  34.866  1.00  0.00     0.031 A 
ATOM     87  C   UNL A   1      45.473  28.244  34.124  1.00  0.00     0.131 A 
ATOM     88  C   UNL A   1      45.019  25.888  35.502  1.00  0.00     0.055 A 
ATOM     89  C   UNL A   1      46.546  27.573  34.711  1.00  0.00     0.041 A 
ATOM     90  F   UNL A   1      45.732  29.399  33.488  1.00  0.00    -0.206 F 
ATOM     91  C   UNL A   1      46.320  26.394  35.417  1.00  0.00     0.022 A 
BRANCH  88  92
ATOM     92  S   UNL A   1      44.680  24.425  36.519  1.00  0.00     0.124 S 
ATOM     93  O   UNL A   1      44.016  25.009  37.680  1.00  0.00    -0.237 OA
ATOM     94  O   UNL A   1      43.837  23.623  35.640  1.00  0.00    -0.237 OA
ATOM     95  O   UNL A   1      46.008  23.871  36.779  1.00  0.00    -0.744 OA
ENDBRANCH  88  92
ENDBRANCH  62  85
ENDBRANCH  36  37
ENDBRANCH  28  31
ENDBRANCH  26  27
ENDBRANCH  25  26
ENDBRANCH   1  25
TORSDOF 18
ENDMDL
