MODEL 1
REMARK VINA RESULT:     -12.0      0.000      0.000
REMARK SMILES NC(=O)C[C@H](C(=O)NCCCNC(=O)c1ccc(-c2c3nc(c(-c4cc(S(=O)(=O)[O-])ccc4F)c4ccc([nH]4)c(-c4cc(S(=O)(=O)[O-])ccc4F)c4nc(c(-c5cc(S(=O)(=O)[O-])ccc5F)c5ccc2[nH]5)C=C4)C=C3)cc1)N1C(=O)/C(=C/c2ccccc2)SC1=S
REMARK SMILES IDX 10 1 9 2 8 3 6 4 7 5 5 7 4 8 2 9 1 10 3 13 78 14 79 15 90 16
REMARK SMILES IDX 80 17 81 18 89 19 91 20 82 21 83 22 84 23 88 24 85 25 87 26
REMARK SMILES IDX 86 27 11 28 12 29 13 30 14 32 15 33 16 34 77 35 17 36 76 37
REMARK SMILES IDX 18 38 19 39 20 40 70 41 21 42 75 43 69 44 71 45 22 46 74 47
REMARK SMILES IDX 68 48 67 49 23 51 55 52 35 53 54 54 36 55 39 56 53 57 72 58
REMARK SMILES IDX 37 59 38 60 52 62 73 63 40 64 24 65 25 66 33 67 26 68 32 69
REMARK SMILES IDX 34 70 31 71 27 72 28 73 29 74 30 75 56 76 57 77 65 78 58 79
REMARK SMILES IDX 64 80 66 81 63 82 59 83 60 84 61 85 62 86 41 87 42 88 50 89
REMARK SMILES IDX 43 90 49 91 51 92 48 93 44 94 45 95 46 96 47 97
REMARK H PARENT 8 6 1 11 1 12 12 31 71 50 39 61
REMARK Flexibility Score: inf
ROOT
ATOM      1  C   UNL A   1      33.168  29.109  25.014  1.00  0.00     0.042 C 
ENDROOT
BRANCH   1   2
ATOM      2  C   UNL A   1      32.421  27.799  24.806  1.00  0.00     0.117 C 
BRANCH   2   3
ATOM      3  N   UNL A   1      32.755  26.832  25.839  1.00  0.00    -0.354 N 
ATOM      4  C   UNL A   1      32.885  25.476  25.766  1.00  0.00     0.243 C 
ATOM      5  O   UNL A   1      32.882  24.852  26.828  1.00  0.00    -0.273 OA
ATOM      6  H   UNL A   1      32.912  27.217  26.732  1.00  0.00     0.163 HD
BRANCH   4   7
ATOM      7  C   UNL A   1      33.048  24.787  24.397  1.00  0.00     0.190 C 
BRANCH   7   8
ATOM      8  C   UNL A   1      33.820  25.579  23.340  1.00  0.00     0.135 C 
BRANCH   8   9
ATOM      9  C   UNL A   1      33.074  25.720  22.037  1.00  0.00     0.220 C 
ATOM     10  N   UNL A   1      31.869  25.093  21.965  1.00  0.00    -0.370 N 
ATOM     11  H   UNL A   1      31.334  25.148  21.141  1.00  0.00     0.159 HD
ATOM     12  H   UNL A   1      31.531  24.585  22.738  1.00  0.00     0.159 HD
ATOM     13  O   UNL A   1      33.503  26.358  21.084  1.00  0.00    -0.275 OA
ENDBRANCH   8   9
ENDBRANCH   7   8
BRANCH   7  14
ATOM     14  N   UNL A   1      33.461  23.371  24.549  1.00  0.00    -0.280 N 
ATOM     15  C   UNL A   1      32.520  22.401  24.232  1.00  0.00     0.266 C 
ATOM     16  C   UNL A   1      34.685  22.900  24.995  1.00  0.00     0.149 C 
ATOM     17  O   UNL A   1      31.395  22.610  23.792  1.00  0.00    -0.268 OA
ATOM     18  C   UNL A   1      33.064  21.039  24.449  1.00  0.00     0.081 C 
ATOM     19  S   UNL A   1      34.652  21.138  25.082  1.00  0.00    -0.054 SA
ATOM     20  S   UNL A   1      36.084  23.723  25.381  1.00  0.00    -0.052 S 
ATOM     21  C   UNL A   1      32.367  19.940  24.132  1.00  0.00     0.029 C 
BRANCH  21  22
ATOM     22  C   UNL A   1      32.828  18.561  24.314  1.00  0.00    -0.024 A 
ATOM     23  C   UNL A   1      33.429  17.880  23.250  1.00  0.00     0.008 A 
ATOM     24  C   UNL A   1      32.652  17.906  25.538  1.00  0.00     0.008 A 
ATOM     25  C   UNL A   1      33.864  16.563  23.415  1.00  0.00     0.001 A 
ATOM     26  C   UNL A   1      33.088  16.590  25.702  1.00  0.00     0.001 A 
ATOM     27  C   UNL A   1      33.695  15.920  24.642  1.00  0.00     0.000 A 
ENDBRANCH  21  22
ENDBRANCH   7  14
ENDBRANCH   4   7
ENDBRANCH   2   3
ENDBRANCH   1   2
BRANCH   1  28
ATOM     28  C   UNL A   1      33.593  29.333  26.462  1.00  0.00     0.118 C 
BRANCH  28  29
ATOM     29  N   UNL A   1      33.582  30.745  26.820  1.00  0.00    -0.352 N 
ATOM     30  C   UNL A   1      34.349  31.432  27.727  1.00  0.00     0.251 C 
ATOM     31  H   UNL A   1      32.924  31.292  26.335  1.00  0.00     0.163 HD
ATOM     32  O   UNL A   1      33.985  32.545  28.096  1.00  0.00    -0.269 OA
BRANCH  30  33
ATOM     33  C   UNL A   1      35.595  30.836  28.256  1.00  0.00     0.039 A 
ATOM     34  C   UNL A   1      36.826  31.340  27.830  1.00  0.00     0.014 A 
ATOM     35  C   UNL A   1      35.551  29.750  29.135  1.00  0.00     0.014 A 
ATOM     36  C   UNL A   1      38.009  30.785  28.323  1.00  0.00     0.010 A 
ATOM     37  C   UNL A   1      36.724  29.264  29.698  1.00  0.00     0.010 A 
ATOM     38  C   UNL A   1      37.967  29.759  29.280  1.00  0.00    -0.014 A 
BRANCH  38  39
ATOM     39  C   UNL A   1      39.212  29.157  29.822  1.00  0.00     0.031 A 
ATOM     40  C   UNL A   1      39.841  29.731  31.065  1.00  0.00     0.074 A 
ATOM     41  C   UNL A   1      39.800  28.137  29.168  1.00  0.00     0.049 A 
ATOM     42  N   UNL A   1      40.960  29.402  31.657  1.00  0.00    -0.248 NA
ATOM     43  C   UNL A   1      39.134  30.853  31.702  1.00  0.00     0.031 C 
ATOM     44  C   UNL A   1      39.309  27.533  27.926  1.00  0.00     0.029 A 
ATOM     45  N   UNL A   1      40.942  27.431  29.450  1.00  0.00    -0.354 N 
ATOM     46  C   UNL A   1      41.101  30.288  32.721  1.00  0.00     0.074 A 
ATOM     47  C   UNL A   1      39.990  31.212  32.646  1.00  0.00     0.031 C 
ATOM     48  C   UNL A   1      40.127  26.529  27.573  1.00  0.00     0.029 A 
ATOM     49  C   UNL A   1      41.221  26.444  28.534  1.00  0.00     0.049 A 
ATOM     50  H   UNL A   1      41.509  27.615  30.234  1.00  0.00     0.167 HD
ATOM     51  C   UNL A   1      42.051  30.310  33.689  1.00  0.00     0.034 A 
ATOM     52  C   UNL A   1      42.247  25.572  28.477  1.00  0.00     0.034 A 
ATOM     53  C   UNL A   1      43.138  29.364  33.757  1.00  0.00     0.049 A 
ATOM     54  C   UNL A   1      43.287  25.608  29.568  1.00  0.00     0.074 A 
ATOM     55  C   UNL A   1      44.129  29.255  34.717  1.00  0.00     0.029 A 
ATOM     56  N   UNL A   1      43.377  28.362  32.825  1.00  0.00    -0.354 N 
ATOM     57  N   UNL A   1      43.378  26.419  30.598  1.00  0.00    -0.248 NA
ATOM     58  C   UNL A   1      44.351  24.600  29.498  1.00  0.00     0.031 C 
ATOM     59  C   UNL A   1      45.000  28.229  34.333  1.00  0.00     0.029 A 
ATOM     60  C   UNL A   1      44.513  27.645  33.174  1.00  0.00     0.049 A 
ATOM     61  H   UNL A   1      42.822  28.185  32.032  1.00  0.00     0.167 HD
ATOM     62  C   UNL A   1      44.495  25.997  31.314  1.00  0.00     0.074 A 
ATOM     63  C   UNL A   1      45.026  24.846  30.610  1.00  0.00     0.031 C 
ATOM     64  C   UNL A   1      45.034  26.509  32.450  1.00  0.00     0.034 A 
BRANCH  51  65
ATOM     65  C   UNL A   1      41.958  31.404  34.728  1.00  0.00     0.023 A 
ATOM     66  C   UNL A   1      40.936  31.418  35.695  1.00  0.00     0.031 A 
ATOM     67  C   UNL A   1      42.874  32.469  34.729  1.00  0.00     0.131 A 
ATOM     68  C   UNL A   1      40.802  32.516  36.560  1.00  0.00     0.055 A 
ATOM     69  C   UNL A   1      42.789  33.515  35.651  1.00  0.00     0.041 A 
ATOM     70  F   UNL A   1      43.860  32.525  33.819  1.00  0.00    -0.206 F 
ATOM     71  C   UNL A   1      41.738  33.552  36.563  1.00  0.00     0.022 A 
BRANCH  68  72
ATOM     72  S   UNL A   1      39.301  32.643  37.570  1.00  0.00     0.124 S 
ATOM     73  O   UNL A   1      38.696  33.865  37.045  1.00  0.00    -0.237 OA
ATOM     74  O   UNL A   1      38.604  31.401  37.258  1.00  0.00    -0.237 OA
ATOM     75  O   UNL A   1      39.813  32.748  38.935  1.00  0.00    -0.744 OA
ENDBRANCH  68  72
ENDBRANCH  51  65
BRANCH  52  76
ATOM     76  C   UNL A   1      42.342  24.587  27.362  1.00  0.00     0.023 A 
ATOM     77  C   UNL A   1      41.595  23.399  27.380  1.00  0.00     0.031 A 
ATOM     78  C   UNL A   1      43.214  24.801  26.279  1.00  0.00     0.131 A 
ATOM     79  C   UNL A   1      41.768  22.446  26.365  1.00  0.00     0.055 A 
ATOM     80  C   UNL A   1      43.344  23.874  25.243  1.00  0.00     0.041 A 
ATOM     81  F   UNL A   1      43.945  25.925  26.206  1.00  0.00    -0.206 F 
ATOM     82  C   UNL A   1      42.629  22.680  25.291  1.00  0.00     0.022 A 
BRANCH  79  83
ATOM     83  S   UNL A   1      40.913  20.854  26.515  1.00  0.00     0.124 S 
ATOM     84  O   UNL A   1      39.633  21.143  25.881  1.00  0.00    -0.237 OA
ATOM     85  O   UNL A   1      41.806  19.962  25.781  1.00  0.00    -0.237 OA
ATOM     86  O   UNL A   1      40.861  20.630  27.958  1.00  0.00    -0.744 OA
ENDBRANCH  79  83
ENDBRANCH  52  76
BRANCH  64  87
ATOM     87  C   UNL A   1      46.237  25.792  33.014  1.00  0.00     0.023 A 
ATOM     88  C   UNL A   1      46.105  24.649  33.822  1.00  0.00     0.031 A 
ATOM     89  C   UNL A   1      47.533  26.280  32.767  1.00  0.00     0.131 A 
ATOM     90  C   UNL A   1      47.240  24.077  34.413  1.00  0.00     0.055 A 
ATOM     91  C   UNL A   1      48.664  25.665  33.303  1.00  0.00     0.041 A 
ATOM     92  F   UNL A   1      47.719  27.369  32.004  1.00  0.00    -0.206 F 
ATOM     93  C   UNL A   1      48.521  24.568  34.146  1.00  0.00     0.022 A 
BRANCH  90  94
ATOM     94  S   UNL A   1      47.009  22.757  35.637  1.00  0.00     0.124 S 
ATOM     95  O   UNL A   1      47.788  21.667  35.057  1.00  0.00    -0.237 OA
ATOM     96  O   UNL A   1      47.557  23.357  36.849  1.00  0.00    -0.237 OA
ATOM     97  O   UNL A   1      45.563  22.548  35.647  1.00  0.00    -0.744 OA
ENDBRANCH  90  94
ENDBRANCH  64  87
ENDBRANCH  38  39
ENDBRANCH  30  33
ENDBRANCH  28  29
ENDBRANCH   1  28
TORSDOF 17
ENDMDL
MODEL 2
REMARK VINA RESULT:     -11.8      5.094     10.410
REMARK SMILES NC(=O)C[C@H](C(=O)NCCCNC(=O)c1ccc(-c2c3nc(c(-c4cc(S(=O)(=O)[O-])ccc4F)c4ccc([nH]4)c(-c4cc(S(=O)(=O)[O-])ccc4F)c4nc(c(-c5cc(S(=O)(=O)[O-])ccc5F)c5ccc2[nH]5)C=C4)C=C3)cc1)N1C(=O)/C(=C/c2ccccc2)SC1=S
REMARK SMILES IDX 10 1 9 2 8 3 6 4 7 5 5 7 4 8 2 9 1 10 3 13 78 14 79 15 90 16
REMARK SMILES IDX 80 17 81 18 89 19 91 20 82 21 83 22 84 23 88 24 85 25 87 26
REMARK SMILES IDX 86 27 11 28 12 29 13 30 14 32 15 33 16 34 77 35 17 36 76 37
REMARK SMILES IDX 18 38 19 39 20 40 70 41 21 42 75 43 69 44 71 45 22 46 74 47
REMARK SMILES IDX 68 48 67 49 23 51 55 52 35 53 54 54 36 55 39 56 53 57 72 58
REMARK SMILES IDX 37 59 38 60 52 62 73 63 40 64 24 65 25 66 33 67 26 68 32 69
REMARK SMILES IDX 34 70 31 71 27 72 28 73 29 74 30 75 56 76 57 77 65 78 58 79
REMARK SMILES IDX 64 80 66 81 63 82 59 83 60 84 61 85 62 86 41 87 42 88 50 89
REMARK SMILES IDX 43 90 49 91 51 92 48 93 44 94 45 95 46 96 47 97
REMARK H PARENT 8 6 1 11 1 12 12 31 71 50 39 61
REMARK Flexibility Score: inf
ROOT
ATOM      1  C   UNL A   1      35.880  21.825  24.408  1.00  0.00     0.042 C 
ENDROOT
BRANCH   1   2
ATOM      2  C   UNL A   1      34.566  22.592  24.345  1.00  0.00     0.117 C 
BRANCH   2   3
ATOM      3  N   UNL A   1      34.688  23.782  23.519  1.00  0.00    -0.354 N 
ATOM      4  C   UNL A   1      33.856  24.855  23.391  1.00  0.00     0.243 C 
ATOM      5  O   UNL A   1      34.028  25.588  22.418  1.00  0.00    -0.273 OA
ATOM      6  H   UNL A   1      35.501  23.818  22.963  1.00  0.00     0.163 HD
BRANCH   4   7
ATOM      7  C   UNL A   1      32.771  25.121  24.453  1.00  0.00     0.190 C 
BRANCH   7   8
ATOM      8  C   UNL A   1      33.131  24.732  25.888  1.00  0.00     0.135 C 
BRANCH   8   9
ATOM      9  C   UNL A   1      31.990  24.094  26.637  1.00  0.00     0.220 C 
ATOM     10  N   UNL A   1      32.185  22.812  27.051  1.00  0.00    -0.370 N 
ATOM     11  H   UNL A   1      31.476  22.341  27.546  1.00  0.00     0.159 HD
ATOM     12  H   UNL A   1      33.036  22.357  26.856  1.00  0.00     0.159 HD
ATOM     13  O   UNL A   1      30.937  24.672  26.877  1.00  0.00    -0.275 OA
ENDBRANCH   8   9
ENDBRANCH   7   8
BRANCH   7  14
ATOM     14  N   UNL A   1      32.181  26.473  24.296  1.00  0.00    -0.280 N 
ATOM     15  C   UNL A   1      31.065  26.584  23.476  1.00  0.00     0.266 C 
ATOM     16  C   UNL A   1      32.631  27.653  24.863  1.00  0.00     0.149 C 
ATOM     17  O   UNL A   1      30.496  25.657  22.910  1.00  0.00    -0.268 OA
ATOM     18  C   UNL A   1      30.598  27.988  23.400  1.00  0.00     0.081 C 
ATOM     19  S   UNL A   1      31.642  29.002  24.302  1.00  0.00    -0.054 SA
ATOM     20  S   UNL A   1      33.860  27.926  25.959  1.00  0.00    -0.052 S 
ATOM     21  C   UNL A   1      29.486  28.328  22.734  1.00  0.00     0.029 C 
BRANCH  21  22
ATOM     22  C   UNL A   1      28.955  29.688  22.608  1.00  0.00    -0.024 A 
ATOM     23  C   UNL A   1      29.255  30.454  21.477  1.00  0.00     0.008 A 
ATOM     24  C   UNL A   1      28.165  30.241  23.622  1.00  0.00     0.008 A 
ATOM     25  C   UNL A   1      28.757  31.753  21.355  1.00  0.00     0.001 A 
ATOM     26  C   UNL A   1      27.667  31.540  23.499  1.00  0.00     0.001 A 
ATOM     27  C   UNL A   1      27.961  32.294  22.365  1.00  0.00     0.000 A 
ENDBRANCH  21  22
ENDBRANCH   7  14
ENDBRANCH   4   7
ENDBRANCH   2   3
ENDBRANCH   1   2
BRANCH   1  28
ATOM     28  C   UNL A   1      36.573  21.936  25.763  1.00  0.00     0.118 C 
BRANCH  28  29
ATOM     29  N   UNL A   1      37.600  20.917  25.934  1.00  0.00    -0.352 N 
ATOM     30  C   UNL A   1      38.957  21.048  26.080  1.00  0.00     0.251 C 
ATOM     31  H   UNL A   1      37.268  19.991  25.947  1.00  0.00     0.163 HD
ATOM     32  O   UNL A   1      39.674  20.065  25.909  1.00  0.00    -0.269 OA
BRANCH  30  33
ATOM     33  C   UNL A   1      39.549  22.355  26.436  1.00  0.00     0.039 A 
ATOM     34  C   UNL A   1      40.587  22.403  27.369  1.00  0.00     0.014 A 
ATOM     35  C   UNL A   1      39.048  23.539  25.885  1.00  0.00     0.014 A 
ATOM     36  C   UNL A   1      41.153  23.633  27.712  1.00  0.00     0.010 A 
ATOM     37  C   UNL A   1      39.676  24.749  26.154  1.00  0.00     0.010 A 
ATOM     38  C   UNL A   1      40.718  24.814  27.088  1.00  0.00    -0.014 A 
BRANCH  38  39
ATOM     39  C   UNL A   1      41.308  26.132  27.434  1.00  0.00     0.031 A 
ATOM     40  C   UNL A   1      42.700  26.473  26.970  1.00  0.00     0.074 A 
ATOM     41  C   UNL A   1      40.615  26.991  28.206  1.00  0.00     0.049 A 
ATOM     42  N   UNL A   1      43.423  27.533  27.224  1.00  0.00    -0.248 NA
ATOM     43  C   UNL A   1      43.384  25.466  26.144  1.00  0.00     0.031 C 
ATOM     44  C   UNL A   1      39.279  26.747  28.756  1.00  0.00     0.029 A 
ATOM     45  N   UNL A   1      40.940  28.241  28.669  1.00  0.00    -0.354 N 
ATOM     46  C   UNL A   1      44.651  27.311  26.607  1.00  0.00     0.074 A 
ATOM     47  C   UNL A   1      44.596  25.985  26.031  1.00  0.00     0.031 C 
ATOM     48  C   UNL A   1      38.888  27.825  29.454  1.00  0.00     0.029 A 
ATOM     49  C   UNL A   1      39.957  28.817  29.439  1.00  0.00     0.049 A 
ATOM     50  H   UNL A   1      41.797  28.683  28.470  1.00  0.00     0.167 HD
ATOM     51  C   UNL A   1      45.714  28.148  26.504  1.00  0.00     0.034 A 
ATOM     52  C   UNL A   1      39.925  30.011  30.063  1.00  0.00     0.034 A 
ATOM     53  C   UNL A   1      45.738  29.475  27.068  1.00  0.00     0.049 A 
ATOM     54  C   UNL A   1      41.114  30.929  29.928  1.00  0.00     0.074 A 
ATOM     55  C   UNL A   1      46.736  30.431  26.984  1.00  0.00     0.029 A 
ATOM     56  N   UNL A   1      44.715  30.036  27.821  1.00  0.00    -0.354 N 
ATOM     57  N   UNL A   1      42.248  30.725  29.297  1.00  0.00    -0.248 NA
ATOM     58  C   UNL A   1      41.009  32.242  30.574  1.00  0.00     0.031 C 
ATOM     59  C   UNL A   1      46.341  31.543  27.737  1.00  0.00     0.029 A 
ATOM     60  C   UNL A   1      45.066  31.315  28.229  1.00  0.00     0.049 A 
ATOM     61  H   UNL A   1      43.863  29.591  28.036  1.00  0.00     0.167 HD
ATOM     62  C   UNL A   1      42.980  31.900  29.446  1.00  0.00     0.074 A 
ATOM     63  C   UNL A   1      42.146  32.812  30.205  1.00  0.00     0.031 C 
ATOM     64  C   UNL A   1      44.226  32.203  28.998  1.00  0.00     0.034 A 
BRANCH  51  65
ATOM     65  C   UNL A   1      46.933  27.633  25.774  1.00  0.00     0.023 A 
ATOM     66  C   UNL A   1      47.206  27.998  24.442  1.00  0.00     0.031 A 
ATOM     67  C   UNL A   1      47.813  26.733  26.398  1.00  0.00     0.131 A 
ATOM     68  C   UNL A   1      48.272  27.400  23.754  1.00  0.00     0.055 A 
ATOM     69  C   UNL A   1      48.926  26.209  25.735  1.00  0.00     0.041 A 
ATOM     70  F   UNL A   1      47.598  26.329  27.660  1.00  0.00    -0.206 F 
ATOM     71  C   UNL A   1      49.151  26.527  24.399  1.00  0.00     0.022 A 
BRANCH  68  72
ATOM     72  S   UNL A   1      48.398  27.658  21.963  1.00  0.00     0.124 S 
ATOM     73  O   UNL A   1      48.653  26.300  21.488  1.00  0.00    -0.237 OA
ATOM     74  O   UNL A   1      47.093  28.216  21.631  1.00  0.00    -0.237 OA
ATOM     75  O   UNL A   1      49.526  28.578  21.827  1.00  0.00    -0.744 OA
ENDBRANCH  68  72
ENDBRANCH  51  65
BRANCH  52  76
ATOM     76  C   UNL A   1      38.734  30.416  30.863  1.00  0.00     0.023 A 
ATOM     77  C   UNL A   1      37.663  31.101  30.269  1.00  0.00     0.031 A 
ATOM     78  C   UNL A   1      38.667  30.158  32.244  1.00  0.00     0.131 A 
ATOM     79  C   UNL A   1      36.594  31.552  31.058  1.00  0.00     0.055 A 
ATOM     80  C   UNL A   1      37.576  30.561  33.016  1.00  0.00     0.041 A 
ATOM     81  F   UNL A   1      39.659  29.497  32.861  1.00  0.00    -0.206 F 
ATOM     82  C   UNL A   1      36.538  31.276  32.426  1.00  0.00     0.022 A 
BRANCH  79  83
ATOM     83  S   UNL A   1      35.316  32.579  30.284  1.00  0.00     0.124 S 
ATOM     84  O   UNL A   1      34.879  31.732  29.182  1.00  0.00    -0.237 OA
ATOM     85  O   UNL A   1      34.365  32.751  31.378  1.00  0.00    -0.237 OA
ATOM     86  O   UNL A   1      36.041  33.788  29.896  1.00  0.00    -0.744 OA
ENDBRANCH  79  83
ENDBRANCH  52  76
BRANCH  64  87
ATOM     87  C   UNL A   1      44.732  33.595  29.288  1.00  0.00     0.023 A 
ATOM     88  C   UNL A   1      44.436  34.680  28.445  1.00  0.00     0.031 A 
ATOM     89  C   UNL A   1      45.552  33.832  30.406  1.00  0.00     0.131 A 
ATOM     90  C   UNL A   1      45.014  35.934  28.691  1.00  0.00     0.055 A 
ATOM     91  C   UNL A   1      46.069  35.097  30.684  1.00  0.00     0.041 A 
ATOM     92  F   UNL A   1      45.869  32.832  31.245  1.00  0.00    -0.206 F 
ATOM     93  C   UNL A   1      45.815  36.153  29.814  1.00  0.00     0.022 A 
BRANCH  90  94
ATOM     94  S   UNL A   1      44.804  37.244  27.453  1.00  0.00     0.124 S 
ATOM     95  O   UNL A   1      44.875  38.449  28.273  1.00  0.00    -0.237 OA
ATOM     96  O   UNL A   1      45.935  37.013  26.561  1.00  0.00    -0.237 OA
ATOM     97  O   UNL A   1      43.491  36.964  26.876  1.00  0.00    -0.744 OA
ENDBRANCH  90  94
ENDBRANCH  64  87
ENDBRANCH  38  39
ENDBRANCH  30  33
ENDBRANCH  28  29
ENDBRANCH   1  28
TORSDOF 17
ENDMDL
MODEL 3
REMARK VINA RESULT:     -11.8      1.490      2.147
REMARK SMILES NC(=O)C[C@H](C(=O)NCCCNC(=O)c1ccc(-c2c3nc(c(-c4cc(S(=O)(=O)[O-])ccc4F)c4ccc([nH]4)c(-c4cc(S(=O)(=O)[O-])ccc4F)c4nc(c(-c5cc(S(=O)(=O)[O-])ccc5F)c5ccc2[nH]5)C=C4)C=C3)cc1)N1C(=O)/C(=C/c2ccccc2)SC1=S
REMARK SMILES IDX 10 1 9 2 8 3 6 4 7 5 5 7 4 8 2 9 1 10 3 13 78 14 79 15 90 16
REMARK SMILES IDX 80 17 81 18 89 19 91 20 82 21 83 22 84 23 88 24 85 25 87 26
REMARK SMILES IDX 86 27 11 28 12 29 13 30 14 32 15 33 16 34 77 35 17 36 76 37
REMARK SMILES IDX 18 38 19 39 20 40 70 41 21 42 75 43 69 44 71 45 22 46 74 47
REMARK SMILES IDX 68 48 67 49 23 51 55 52 35 53 54 54 36 55 39 56 53 57 72 58
REMARK SMILES IDX 37 59 38 60 52 62 73 63 40 64 24 65 25 66 33 67 26 68 32 69
REMARK SMILES IDX 34 70 31 71 27 72 28 73 29 74 30 75 56 76 57 77 65 78 58 79
REMARK SMILES IDX 64 80 66 81 63 82 59 83 60 84 61 85 62 86 41 87 42 88 50 89
REMARK SMILES IDX 43 90 49 91 51 92 48 93 44 94 45 95 46 96 47 97
REMARK H PARENT 8 6 1 11 1 12 12 31 71 50 39 61
REMARK Flexibility Score: inf
ROOT
ATOM      1  C   UNL A   1      34.428  29.626  26.354  1.00  0.00     0.042 C 
ENDROOT
BRANCH   1   2
ATOM      2  C   UNL A   1      33.749  28.538  25.534  1.00  0.00     0.117 C 
BRANCH   2   3
ATOM      3  N   UNL A   1      34.023  28.698  24.115  1.00  0.00    -0.354 N 
ATOM      4  C   UNL A   1      33.523  28.023  23.040  1.00  0.00     0.243 C 
ATOM      5  O   UNL A   1      34.124  28.140  21.973  1.00  0.00    -0.273 OA
ATOM      6  H   UNL A   1      34.672  29.406  23.896  1.00  0.00     0.163 HD
BRANCH   4   7
ATOM      7  C   UNL A   1      32.244  27.175  23.187  1.00  0.00     0.190 C 
BRANCH   7   8
ATOM      8  C   UNL A   1      31.026  27.665  22.401  1.00  0.00     0.135 C 
BRANCH   8   9
ATOM      9  C   UNL A   1      30.684  29.109  22.670  1.00  0.00     0.220 C 
ATOM     10  N   UNL A   1      30.787  29.957  21.612  1.00  0.00    -0.370 N 
ATOM     11  H   UNL A   1      30.577  30.913  21.724  1.00  0.00     0.159 HD
ATOM     12  H   UNL A   1      31.071  29.616  20.733  1.00  0.00     0.159 HD
ATOM     13  O   UNL A   1      30.328  29.520  23.767  1.00  0.00    -0.275 OA
ENDBRANCH   8   9
ENDBRANCH   7   8
BRANCH   7  14
ATOM     14  N   UNL A   1      32.537  25.727  23.057  1.00  0.00    -0.280 N 
ATOM     15  C   UNL A   1      32.642  24.996  24.233  1.00  0.00     0.266 C 
ATOM     16  C   UNL A   1      32.741  25.017  21.886  1.00  0.00     0.149 C 
ATOM     17  O   UNL A   1      32.465  25.431  25.366  1.00  0.00    -0.268 OA
ATOM     18  C   UNL A   1      32.954  23.575  23.951  1.00  0.00     0.081 C 
ATOM     19  S   UNL A   1      33.143  23.341  22.266  1.00  0.00    -0.054 SA
ATOM     20  S   UNL A   1      32.614  25.498  20.293  1.00  0.00    -0.052 S 
ATOM     21  C   UNL A   1      33.020  22.659  24.926  1.00  0.00     0.029 C 
BRANCH  21  22
ATOM     22  C   UNL A   1      33.322  21.238  24.736  1.00  0.00    -0.024 A 
ATOM     23  C   UNL A   1      34.623  20.766  24.942  1.00  0.00     0.008 A 
ATOM     24  C   UNL A   1      32.325  20.346  24.326  1.00  0.00     0.008 A 
ATOM     25  C   UNL A   1      34.918  19.414  24.756  1.00  0.00     0.001 A 
ATOM     26  C   UNL A   1      32.621  18.994  24.141  1.00  0.00     0.001 A 
ATOM     27  C   UNL A   1      33.916  18.528  24.358  1.00  0.00     0.000 A 
ENDBRANCH  21  22
ENDBRANCH   7  14
ENDBRANCH   4   7
ENDBRANCH   2   3
ENDBRANCH   1   2
BRANCH   1  28
ATOM     28  C   UNL A   1      33.600  30.075  27.554  1.00  0.00     0.118 C 
BRANCH  28  29
ATOM     29  N   UNL A   1      33.730  31.506  27.799  1.00  0.00    -0.352 N 
ATOM     30  C   UNL A   1      34.634  32.191  28.570  1.00  0.00     0.251 C 
ATOM     31  H   UNL A   1      33.066  32.068  27.339  1.00  0.00     0.163 HD
ATOM     32  O   UNL A   1      34.393  33.353  28.883  1.00  0.00    -0.269 OA
BRANCH  30  33
ATOM     33  C   UNL A   1      35.881  31.536  29.019  1.00  0.00     0.039 A 
ATOM     34  C   UNL A   1      35.806  30.460  29.905  1.00  0.00     0.014 A 
ATOM     35  C   UNL A   1      37.128  32.013  28.604  1.00  0.00     0.014 A 
ATOM     36  C   UNL A   1      36.978  29.834  30.336  1.00  0.00     0.010 A 
ATOM     37  C   UNL A   1      38.286  31.330  28.956  1.00  0.00     0.010 A 
ATOM     38  C   UNL A   1      38.226  30.248  29.845  1.00  0.00    -0.014 A 
BRANCH  38  39
ATOM     39  C   UNL A   1      39.485  29.595  30.284  1.00  0.00     0.031 A 
ATOM     40  C   UNL A   1      40.221  30.125  31.488  1.00  0.00     0.074 A 
ATOM     41  C   UNL A   1      39.990  28.570  29.572  1.00  0.00     0.049 A 
ATOM     42  N   UNL A   1      41.369  29.748  31.991  1.00  0.00    -0.248 NA
ATOM     43  C   UNL A   1      39.600  31.257  32.194  1.00  0.00     0.031 C 
ATOM     44  C   UNL A   1      39.391  28.007  28.359  1.00  0.00     0.029 A 
ATOM     45  N   UNL A   1      41.125  27.823  29.758  1.00  0.00    -0.354 N 
ATOM     46  C   UNL A   1      41.615  30.608  33.057  1.00  0.00     0.074 A 
ATOM     47  C   UNL A   1      40.533  31.569  33.079  1.00  0.00     0.031 C 
ATOM     48  C   UNL A   1      40.148  26.984  27.930  1.00  0.00     0.029 A 
ATOM     49  C   UNL A   1      41.305  26.845  28.808  1.00  0.00     0.049 A 
ATOM     50  H   UNL A   1      41.753  27.973  30.502  1.00  0.00     0.167 HD
ATOM     51  C   UNL A   1      42.633  30.581  33.954  1.00  0.00     0.034 A 
ATOM     52  C   UNL A   1      42.293  25.941  28.662  1.00  0.00     0.034 A 
ATOM     53  C   UNL A   1      43.689  29.599  33.927  1.00  0.00     0.049 A 
ATOM     54  C   UNL A   1      43.410  25.922  29.675  1.00  0.00     0.074 A 
ATOM     55  C   UNL A   1      44.743  29.439  34.810  1.00  0.00     0.029 A 
ATOM     56  N   UNL A   1      43.827  28.608  32.963  1.00  0.00    -0.354 N 
ATOM     57  N   UNL A   1      43.602  26.710  30.709  1.00  0.00    -0.248 NA
ATOM     58  C   UNL A   1      44.431  24.882  29.510  1.00  0.00     0.031 C 
ATOM     59  C   UNL A   1      45.548  28.393  34.347  1.00  0.00     0.029 A 
ATOM     60  C   UNL A   1      44.959  27.847  33.217  1.00  0.00     0.049 A 
ATOM     61  H   UNL A   1      43.210  28.465  32.210  1.00  0.00     0.167 HD
ATOM     62  C   UNL A   1      44.752  26.238  31.335  1.00  0.00     0.074 A 
ATOM     63  C   UNL A   1      45.192  25.085  30.574  1.00  0.00     0.031 C 
ATOM     64  C   UNL A   1      45.389  26.710  32.438  1.00  0.00     0.034 A 
BRANCH  51  65
ATOM     65  C   UNL A   1      42.651  31.656  35.016  1.00  0.00     0.023 A 
ATOM     66  C   UNL A   1      41.737  31.654  36.086  1.00  0.00     0.031 A 
ATOM     67  C   UNL A   1      43.564  32.722  34.938  1.00  0.00     0.131 A 
ATOM     68  C   UNL A   1      41.697  32.736  36.979  1.00  0.00     0.055 A 
ATOM     69  C   UNL A   1      43.578  33.752  35.882  1.00  0.00     0.041 A 
ATOM     70  F   UNL A   1      44.448  32.794  33.930  1.00  0.00    -0.206 F 
ATOM     71  C   UNL A   1      42.629  33.773  36.900  1.00  0.00     0.022 A 
BRANCH  68  72
ATOM     72  S   UNL A   1      40.312  32.845  38.143  1.00  0.00     0.124 S 
ATOM     73  O   UNL A   1      39.986  34.268  38.080  1.00  0.00    -0.237 OA
ATOM     74  O   UNL A   1      39.332  31.939  37.556  1.00  0.00    -0.237 OA
ATOM     75  O   UNL A   1      40.892  32.403  39.410  1.00  0.00    -0.744 OA
ENDBRANCH  68  72
ENDBRANCH  51  65
BRANCH  52  76
ATOM     76  C   UNL A   1      42.275  24.976  27.526  1.00  0.00     0.023 A 
ATOM     77  C   UNL A   1      41.524  23.792  27.595  1.00  0.00     0.031 A 
ATOM     78  C   UNL A   1      43.041  25.204  26.369  1.00  0.00     0.131 A 
ATOM     79  C   UNL A   1      41.593  22.856  26.552  1.00  0.00     0.055 A 
ATOM     80  C   UNL A   1      43.065  24.295  25.310  1.00  0.00     0.041 A 
ATOM     81  F   UNL A   1      43.770  26.325  26.246  1.00  0.00    -0.206 F 
ATOM     82  C   UNL A   1      42.350  23.104  25.404  1.00  0.00     0.022 A 
BRANCH  79  83
ATOM     83  S   UNL A   1      40.745  21.266  26.755  1.00  0.00     0.124 S 
ATOM     84  O   UNL A   1      40.649  21.162  28.206  1.00  0.00    -0.237 OA
ATOM     85  O   UNL A   1      39.493  21.499  26.043  1.00  0.00    -0.237 OA
ATOM     86  O   UNL A   1      41.653  20.313  26.118  1.00  0.00    -0.744 OA
ENDBRANCH  79  83
ENDBRANCH  52  76
BRANCH  64  87
ATOM     87  C   UNL A   1      46.604  25.944  32.900  1.00  0.00     0.023 A 
ATOM     88  C   UNL A   1      46.502  24.872  33.805  1.00  0.00     0.031 A 
ATOM     89  C   UNL A   1      47.887  26.313  32.456  1.00  0.00     0.131 A 
ATOM     90  C   UNL A   1      47.664  24.256  34.292  1.00  0.00     0.055 A 
ATOM     91  C   UNL A   1      49.035  25.652  32.892  1.00  0.00     0.041 A 
ATOM     92  F   UNL A   1      48.044  27.331  31.594  1.00  0.00    -0.206 F 
ATOM     93  C   UNL A   1      48.929  24.629  33.829  1.00  0.00     0.022 A 
BRANCH  90  94
ATOM     94  S   UNL A   1      47.507  23.044  35.633  1.00  0.00     0.124 S 
ATOM     95  O   UNL A   1      48.367  23.619  36.663  1.00  0.00    -0.237 OA
ATOM     96  O   UNL A   1      46.075  23.071  35.910  1.00  0.00    -0.237 OA
ATOM     97  O   UNL A   1      48.000  21.805  35.035  1.00  0.00    -0.744 OA
ENDBRANCH  90  94
ENDBRANCH  64  87
ENDBRANCH  38  39
ENDBRANCH  30  33
ENDBRANCH  28  29
ENDBRANCH   1  28
TORSDOF 17
ENDMDL
