MODEL 1
REMARK VINA RESULT:     -13.7      0.000      0.000
REMARK SMILES Cc1ccc(CC(=O)NCCCNC(=O)c2ccc(-c3c4nc(c(-c5cc(S(=O)(=O)[O-])ccc5F)c5ccc([nH]5)c(-c5cc(S(=O)(=O)[O-])ccc5F)c5nc(c(-c6cc(S(=O)(=O)[O-])ccc6F)c6ccc3[nH]6)C=C5)C=C4)cc2)n1-c1ccc(F)cc1
REMARK SMILES IDX 11 1 10 2 9 3 7 4 8 5 6 7 5 8 1 9 2 10 3 11 79 12 4 13 80 14
REMARK SMILES IDX 81 15 86 16 82 17 85 18 83 19 84 20 12 21 13 22 14 23 15 25
REMARK SMILES IDX 16 26 17 27 78 28 18 29 77 30 19 31 20 32 21 33 71 34 22 35
REMARK SMILES IDX 76 36 70 37 72 38 23 39 75 40 69 41 68 42 24 44 56 45 36 46
REMARK SMILES IDX 55 47 37 48 40 49 54 50 73 51 38 52 39 53 53 55 74 56 41 57
REMARK SMILES IDX 25 58 26 59 34 60 27 61 33 62 35 63 32 64 28 65 29 66 30 67
REMARK SMILES IDX 31 68 57 69 58 70 66 71 59 72 65 73 67 74 64 75 60 76 61 77
REMARK SMILES IDX 62 78 63 79 42 80 43 81 51 82 44 83 50 84 52 85 49 86 45 87
REMARK SMILES IDX 46 88 47 89 48 90
REMARK H PARENT 9 6 13 24 72 43 40 54
REMARK Flexibility Score: inf
ROOT
ATOM      1  C   UNL A   1      40.312  22.014  26.780  1.00  0.00     0.042 C 
ENDROOT
BRANCH   1   2
ATOM      2  C   UNL A   1      39.023  21.535  26.015  1.00  0.00     0.117 C 
BRANCH   2   3
ATOM      3  N   UNL A   1      38.295  22.523  25.213  1.00  0.00    -0.356 N 
ATOM      4  C   UNL A   1      36.970  22.628  24.860  1.00  0.00     0.225 C 
ATOM      5  O   UNL A   1      36.589  23.711  24.396  1.00  0.00    -0.275 OA
ATOM      6  H   UNL A   1      38.861  23.248  24.861  1.00  0.00     0.163 HD
BRANCH   4   7
ATOM      7  C   UNL A   1      35.949  21.501  25.043  1.00  0.00     0.154 C 
BRANCH   7   8
ATOM      8  C   UNL A   1      34.754  21.951  25.827  1.00  0.00     0.032 A 
ATOM      9  C   UNL A   1      31.114  22.460  26.040  1.00  0.00     0.065 C 
ATOM     10  C   UNL A   1      32.591  22.429  26.212  1.00  0.00     0.020 A 
ATOM     11  C   UNL A   1      33.351  23.107  27.149  1.00  0.00     0.023 A 
ATOM     12  N   UNL A   1      33.451  21.610  25.494  1.00  0.00    -0.318 N 
ATOM     13  C   UNL A   1      34.701  22.774  26.937  1.00  0.00     0.024 A 
BRANCH  12  14
ATOM     14  C   UNL A   1      33.087  20.608  24.563  1.00  0.00     0.046 A 
ATOM     15  C   UNL A   1      32.601  20.985  23.301  1.00  0.00     0.029 A 
ATOM     16  C   UNL A   1      33.146  19.262  24.935  1.00  0.00     0.029 A 
ATOM     17  C   UNL A   1      32.184  19.999  22.405  1.00  0.00     0.041 A 
ATOM     18  C   UNL A   1      32.703  18.286  24.042  1.00  0.00     0.041 A 
ATOM     19  C   UNL A   1      32.230  18.662  22.787  1.00  0.00     0.123 A 
ATOM     20  F   UNL A   1      31.801  17.719  21.937  1.00  0.00    -0.207 F 
ENDBRANCH  12  14
ENDBRANCH   7   8
ENDBRANCH   4   7
ENDBRANCH   2   3
ENDBRANCH   1   2
BRANCH   1  21
ATOM     21  C   UNL A   1      41.780  21.941  26.149  1.00  0.00     0.118 C 
BRANCH  21  22
ATOM     22  N   UNL A   1      42.324  23.284  25.710  1.00  0.00    -0.352 N 
ATOM     23  C   UNL A   1      42.219  24.677  25.954  1.00  0.00     0.251 C 
ATOM     24  H   UNL A   1      42.991  23.138  25.000  1.00  0.00     0.163 HD
ATOM     25  O   UNL A   1      42.835  25.362  25.123  1.00  0.00    -0.269 OA
BRANCH  23  26
ATOM     26  C   UNL A   1      41.505  25.459  27.065  1.00  0.00     0.039 A 
ATOM     27  C   UNL A   1      42.019  26.583  27.798  1.00  0.00     0.014 A 
ATOM     28  C   UNL A   1      40.337  25.030  27.589  1.00  0.00     0.014 A 
ATOM     29  C   UNL A   1      41.266  27.392  28.855  1.00  0.00     0.010 A 
ATOM     30  C   UNL A   1      39.712  25.799  28.652  1.00  0.00     0.010 A 
ATOM     31  C   UNL A   1      39.985  27.058  29.320  1.00  0.00    -0.014 A 
BRANCH  31  32
ATOM     32  C   UNL A   1      38.616  28.143  29.671  1.00  0.00     0.031 A 
ATOM     33  C   UNL A   1      38.442  27.854  31.152  1.00  0.00     0.074 A 
ATOM     34  C   UNL A   1      37.848  29.330  29.294  1.00  0.00     0.049 A 
ATOM     35  N   UNL A   1      39.557  27.711  31.813  1.00  0.00    -0.248 NA
ATOM     36  C   UNL A   1      37.414  28.327  32.064  1.00  0.00     0.031 C 
ATOM     37  C   UNL A   1      37.800  30.204  28.081  1.00  0.00     0.029 A 
ATOM     38  N   UNL A   1      36.918  30.158  30.100  1.00  0.00    -0.354 N 
ATOM     39  C   UNL A   1      39.620  28.910  32.428  1.00  0.00     0.074 A 
ATOM     40  C   UNL A   1      38.217  29.036  32.885  1.00  0.00     0.031 C 
ATOM     41  C   UNL A   1      36.916  31.273  28.194  1.00  0.00     0.029 A 
ATOM     42  C   UNL A   1      36.287  31.364  29.528  1.00  0.00     0.049 A 
ATOM     43  H   UNL A   1      36.719  29.899  31.029  1.00  0.00     0.167 HD
ATOM     44  C   UNL A   1      40.559  29.900  32.215  1.00  0.00     0.034 A 
ATOM     45  C   UNL A   1      35.505  32.363  30.215  1.00  0.00     0.034 A 
ATOM     46  C   UNL A   1      40.528  30.850  33.271  1.00  0.00     0.049 A 
ATOM     47  C   UNL A   1      36.473  32.525  31.312  1.00  0.00     0.074 A 
ATOM     48  C   UNL A   1      40.063  30.900  34.569  1.00  0.00     0.029 A 
ATOM     49  N   UNL A   1      40.996  32.112  33.020  1.00  0.00    -0.354 N 
ATOM     50  N   UNL A   1      37.471  33.335  31.167  1.00  0.00    -0.248 NA
ATOM     51  C   UNL A   1      36.177  32.054  32.663  1.00  0.00     0.031 C 
ATOM     52  C   UNL A   1      39.678  32.267  34.741  1.00  0.00     0.029 A 
ATOM     53  C   UNL A   1      40.004  32.900  33.539  1.00  0.00     0.049 A 
ATOM     54  H   UNL A   1      41.833  32.385  32.579  1.00  0.00     0.167 HD
ATOM     55  C   UNL A   1      38.048  33.380  32.398  1.00  0.00     0.074 A 
ATOM     56  C   UNL A   1      37.120  32.736  33.315  1.00  0.00     0.031 C 
ATOM     57  C   UNL A   1      39.353  33.687  32.533  1.00  0.00     0.034 A 
BRANCH  44  58
ATOM     58  C   UNL A   1      41.667  30.114  31.048  1.00  0.00     0.023 A 
ATOM     59  C   UNL A   1      43.050  29.681  31.009  1.00  0.00     0.031 A 
ATOM     60  C   UNL A   1      41.276  30.841  29.909  1.00  0.00     0.131 A 
ATOM     61  C   UNL A   1      43.964  30.183  30.031  1.00  0.00     0.055 A 
ATOM     62  C   UNL A   1      42.137  31.140  28.841  1.00  0.00     0.041 A 
ATOM     63  F   UNL A   1      40.020  31.299  29.804  1.00  0.00    -0.206 F 
ATOM     64  C   UNL A   1      43.492  30.856  28.914  1.00  0.00     0.022 A 
BRANCH  61  65
ATOM     65  S   UNL A   1      45.799  30.201  30.285  1.00  0.00     0.124 S 
ATOM     66  O   UNL A   1      46.226  31.290  29.410  1.00  0.00    -0.237 OA
ATOM     67  O   UNL A   1      45.947  30.440  31.715  1.00  0.00    -0.237 OA
ATOM     68  O   UNL A   1      46.219  28.876  29.828  1.00  0.00    -0.744 OA
ENDBRANCH  61  65
ENDBRANCH  44  58
BRANCH  45  69
ATOM     69  C   UNL A   1      34.496  33.740  30.528  1.00  0.00     0.023 A 
ATOM     70  C   UNL A   1      34.407  34.646  31.621  1.00  0.00     0.031 A 
ATOM     71  C   UNL A   1      33.751  34.326  29.404  1.00  0.00     0.131 A 
ATOM     72  C   UNL A   1      33.764  35.971  31.463  1.00  0.00     0.055 A 
ATOM     73  C   UNL A   1      33.362  35.658  29.184  1.00  0.00     0.041 A 
ATOM     74  F   UNL A   1      33.117  33.570  28.505  1.00  0.00    -0.206 F 
ATOM     75  C   UNL A   1      33.377  36.511  30.232  1.00  0.00     0.022 A 
BRANCH  72  76
ATOM     76  S   UNL A   1      33.210  37.059  32.840  1.00  0.00     0.124 S 
ATOM     77  O   UNL A   1      34.115  36.670  33.915  1.00  0.00    -0.237 OA
ATOM     78  O   UNL A   1      33.386  38.404  32.297  1.00  0.00    -0.237 OA
ATOM     79  O   UNL A   1      31.817  36.656  33.045  1.00  0.00    -0.744 OA
ENDBRANCH  72  76
ENDBRANCH  45  69
BRANCH  57  80
ATOM     80  C   UNL A   1      39.995  34.139  31.230  1.00  0.00     0.023 A 
ATOM     81  C   UNL A   1      41.376  34.097  31.055  1.00  0.00     0.031 A 
ATOM     82  C   UNL A   1      39.224  34.718  30.189  1.00  0.00     0.131 A 
ATOM     83  C   UNL A   1      41.946  34.633  29.884  1.00  0.00     0.055 A 
ATOM     84  C   UNL A   1      39.786  35.247  29.027  1.00  0.00     0.041 A 
ATOM     85  F   UNL A   1      37.891  34.808  30.317  1.00  0.00    -0.206 F 
ATOM     86  C   UNL A   1      41.165  35.208  28.872  1.00  0.00     0.022 A 
BRANCH  83  87
ATOM     87  S   UNL A   1      43.748  34.567  29.707  1.00  0.00     0.124 S 
ATOM     88  O   UNL A   1      43.913  34.146  28.320  1.00  0.00    -0.237 OA
ATOM     89  O   UNL A   1      44.133  35.947  29.996  1.00  0.00    -0.237 OA
ATOM     90  O   UNL A   1      44.168  33.590  30.709  1.00  0.00    -0.744 OA
ENDBRANCH  83  87
ENDBRANCH  57  80
ENDBRANCH  31  32
ENDBRANCH  23  26
ENDBRANCH  21  22
ENDBRANCH   1  21
TORSDOF 15
ENDMDL
MODEL 2
REMARK VINA RESULT:     -13.5      5.635      8.810
REMARK SMILES Cc1ccc(CC(=O)NCCCNC(=O)c2ccc(-c3c4nc(c(-c5cc(S(=O)(=O)[O-])ccc5F)c5ccc([nH]5)c(-c5cc(S(=O)(=O)[O-])ccc5F)c5nc(c(-c6cc(S(=O)(=O)[O-])ccc6F)c6ccc3[nH]6)C=C5)C=C4)cc2)n1-c1ccc(F)cc1
REMARK SMILES IDX 11 1 10 2 9 3 7 4 8 5 6 7 5 8 1 9 2 10 3 11 79 12 4 13 80 14
REMARK SMILES IDX 81 15 86 16 82 17 85 18 83 19 84 20 12 21 13 22 14 23 15 25
REMARK SMILES IDX 16 26 17 27 78 28 18 29 77 30 19 31 20 32 21 33 71 34 22 35
REMARK SMILES IDX 76 36 70 37 72 38 23 39 75 40 69 41 68 42 24 44 56 45 36 46
REMARK SMILES IDX 55 47 37 48 40 49 54 50 73 51 38 52 39 53 53 55 74 56 41 57
REMARK SMILES IDX 25 58 26 59 34 60 27 61 33 62 35 63 32 64 28 65 29 66 30 67
REMARK SMILES IDX 31 68 57 69 58 70 66 71 59 72 65 73 67 74 64 75 60 76 61 77
REMARK SMILES IDX 62 78 63 79 42 80 43 81 51 82 44 83 50 84 52 85 49 86 45 87
REMARK SMILES IDX 46 88 47 89 48 90
REMARK H PARENT 9 6 13 24 72 43 40 54
REMARK Flexibility Score: inf
ROOT
ATOM      1  C   UNL A   1      34.905  21.624  26.664  1.00  0.00     0.042 C 
ENDROOT
BRANCH   1   2
ATOM      2  C   UNL A   1      33.453  21.399  26.100  1.00  0.00     0.117 C 
BRANCH   2   3
ATOM      3  N   UNL A   1      32.328  21.944  26.866  1.00  0.00    -0.356 N 
ATOM      4  C   UNL A   1      31.779  23.204  26.929  1.00  0.00     0.225 C 
ATOM      5  O   UNL A   1      30.667  23.314  27.461  1.00  0.00    -0.275 OA
ATOM      6  H   UNL A   1      31.880  21.284  27.443  1.00  0.00     0.163 HD
BRANCH   4   7
ATOM      7  C   UNL A   1      32.451  24.454  26.351  1.00  0.00     0.154 C 
BRANCH   7   8
ATOM      8  C   UNL A   1      31.773  24.923  25.100  1.00  0.00     0.032 A 
ATOM      9  C   UNL A   1      29.977  27.566  23.272  1.00  0.00     0.065 C 
ATOM     10  C   UNL A   1      30.610  26.318  23.775  1.00  0.00     0.020 A 
ATOM     11  C   UNL A   1      30.511  25.044  23.244  1.00  0.00     0.023 A 
ATOM     12  N   UNL A   1      31.504  26.259  24.834  1.00  0.00    -0.318 N 
ATOM     13  C   UNL A   1      31.276  24.178  24.048  1.00  0.00     0.024 A 
BRANCH  12  14
ATOM     14  C   UNL A   1      32.044  27.354  25.549  1.00  0.00     0.046 A 
ATOM     15  C   UNL A   1      33.309  27.851  25.195  1.00  0.00     0.029 A 
ATOM     16  C   UNL A   1      31.348  27.879  26.641  1.00  0.00     0.029 A 
ATOM     17  C   UNL A   1      33.869  28.890  25.938  1.00  0.00     0.041 A 
ATOM     18  C   UNL A   1      31.928  28.901  27.393  1.00  0.00     0.041 A 
ATOM     19  C   UNL A   1      33.179  29.399  27.035  1.00  0.00     0.123 A 
ATOM     20  F   UNL A   1      33.732  30.377  27.765  1.00  0.00    -0.207 F 
ENDBRANCH  12  14
ENDBRANCH   7   8
ENDBRANCH   4   7
ENDBRANCH   2   3
ENDBRANCH   1   2
BRANCH   1  21
ATOM     21  C   UNL A   1      35.930  22.682  26.041  1.00  0.00     0.118 C 
BRANCH  21  22
ATOM     22  N   UNL A   1      37.353  22.173  25.949  1.00  0.00    -0.352 N 
ATOM     23  C   UNL A   1      38.697  22.531  26.224  1.00  0.00     0.251 C 
ATOM     24  H   UNL A   1      37.341  21.270  25.558  1.00  0.00     0.163 HD
ATOM     25  O   UNL A   1      39.517  21.725  25.758  1.00  0.00    -0.269 OA
BRANCH  23  26
ATOM     26  C   UNL A   1      39.292  23.711  27.005  1.00  0.00     0.039 A 
ATOM     27  C   UNL A   1      40.506  23.714  27.773  1.00  0.00     0.014 A 
ATOM     28  C   UNL A   1      38.602  24.857  27.182  1.00  0.00     0.014 A 
ATOM     29  C   UNL A   1      41.117  24.920  28.489  1.00  0.00     0.010 A 
ATOM     30  C   UNL A   1      39.203  25.937  27.945  1.00  0.00     0.010 A 
ATOM     31  C   UNL A   1      40.493  26.174  28.568  1.00  0.00    -0.014 A 
BRANCH  31  32
ATOM     32  C   UNL A   1      41.226  27.789  28.407  1.00  0.00     0.031 A 
ATOM     33  C   UNL A   1      41.227  28.210  29.867  1.00  0.00     0.074 A 
ATOM     34  C   UNL A   1      42.058  28.698  27.619  1.00  0.00     0.049 A 
ATOM     35  N   UNL A   1      41.529  27.259  30.707  1.00  0.00    -0.248 NA
ATOM     36  C   UNL A   1      41.595  29.488  30.453  1.00  0.00     0.031 C 
ATOM     37  C   UNL A   1      42.607  28.675  26.228  1.00  0.00     0.029 A 
ATOM     38  N   UNL A   1      42.764  29.938  28.026  1.00  0.00    -0.354 N 
ATOM     39  C   UNL A   1      42.805  27.593  30.990  1.00  0.00     0.074 A 
ATOM     40  C   UNL A   1      42.650  29.055  31.174  1.00  0.00     0.031 C 
ATOM     41  C   UNL A   1      43.403  29.774  25.920  1.00  0.00     0.029 A 
ATOM     42  C   UNL A   1      43.608  30.679  27.069  1.00  0.00     0.049 A 
ATOM     43  H   UNL A   1      42.667  30.271  28.948  1.00  0.00     0.167 HD
ATOM     44  C   UNL A   1      43.938  26.871  30.674  1.00  0.00     0.034 A 
ATOM     45  C   UNL A   1      44.488  31.790  27.341  1.00  0.00     0.034 A 
ATOM     46  C   UNL A   1      45.049  27.335  31.428  1.00  0.00     0.049 A 
ATOM     47  C   UNL A   1      45.132  31.140  28.494  1.00  0.00     0.074 A 
ATOM     48  C   UNL A   1      45.252  28.067  32.579  1.00  0.00     0.029 A 
ATOM     49  N   UNL A   1      46.307  27.111  30.931  1.00  0.00    -0.354 N 
ATOM     50  N   UNL A   1      46.126  30.336  28.300  1.00  0.00    -0.248 NA
ATOM     51  C   UNL A   1      44.901  31.609  29.858  1.00  0.00     0.031 C 
ATOM     52  C   UNL A   1      46.473  28.770  32.326  1.00  0.00     0.029 A 
ATOM     53  C   UNL A   1      46.896  28.339  31.066  1.00  0.00     0.049 A 
ATOM     54  H   UNL A   1      46.689  26.279  30.570  1.00  0.00     0.167 HD
ATOM     55  C   UNL A   1      46.585  30.061  29.550  1.00  0.00     0.074 A 
ATOM     56  C   UNL A   1      45.931  31.001  30.447  1.00  0.00     0.031 C 
ATOM     57  C   UNL A   1      47.247  28.915  29.801  1.00  0.00     0.034 A 
BRANCH  44  58
ATOM     58  C   UNL A   1      44.182  25.612  29.679  1.00  0.00     0.023 A 
ATOM     59  C   UNL A   1      44.361  25.604  28.239  1.00  0.00     0.031 A 
ATOM     60  C   UNL A   1      44.201  24.327  30.251  1.00  0.00     0.131 A 
ATOM     61  C   UNL A   1      44.293  24.393  27.483  1.00  0.00     0.055 A 
ATOM     62  C   UNL A   1      44.359  23.145  29.511  1.00  0.00     0.041 A 
ATOM     63  F   UNL A   1      44.055  24.182  31.576  1.00  0.00    -0.206 F 
ATOM     64  C   UNL A   1      44.359  23.165  28.124  1.00  0.00     0.022 A 
BRANCH  61  65
ATOM     65  S   UNL A   1      43.873  24.356  25.679  1.00  0.00     0.124 S 
ATOM     66  O   UNL A   1      42.943  25.475  25.551  1.00  0.00    -0.237 OA
ATOM     67  O   UNL A   1      45.162  24.523  25.021  1.00  0.00    -0.237 OA
ATOM     68  O   UNL A   1      43.248  23.044  25.503  1.00  0.00    -0.744 OA
ENDBRANCH  61  65
ENDBRANCH  44  58
BRANCH  45  69
ATOM     69  C   UNL A   1      45.583  33.118  27.123  1.00  0.00     0.023 A 
ATOM     70  C   UNL A   1      46.892  33.214  26.573  1.00  0.00     0.031 A 
ATOM     71  C   UNL A   1      45.053  34.484  27.246  1.00  0.00     0.131 A 
ATOM     72  C   UNL A   1      47.436  34.516  26.122  1.00  0.00     0.055 A 
ATOM     73  C   UNL A   1      45.462  35.666  26.606  1.00  0.00     0.041 A 
ATOM     74  F   UNL A   1      44.205  34.829  28.218  1.00  0.00    -0.206 F 
ATOM     75  C   UNL A   1      46.679  35.687  26.017  1.00  0.00     0.022 A 
BRANCH  72  76
ATOM     76  S   UNL A   1      49.210  34.871  25.786  1.00  0.00     0.124 S 
ATOM     77  O   UNL A   1      49.125  35.794  24.661  1.00  0.00    -0.237 OA
ATOM     78  O   UNL A   1      49.686  35.430  27.050  1.00  0.00    -0.237 OA
ATOM     79  O   UNL A   1      49.757  33.555  25.451  1.00  0.00    -0.744 OA
ENDBRANCH  72  76
ENDBRANCH  45  69
BRANCH  57  80
ATOM     80  C   UNL A   1      47.563  28.122  28.542  1.00  0.00     0.023 A 
ATOM     81  C   UNL A   1      47.083  28.524  27.297  1.00  0.00     0.031 A 
ATOM     82  C   UNL A   1      48.266  26.890  28.602  1.00  0.00     0.131 A 
ATOM     83  C   UNL A   1      47.295  27.703  26.172  1.00  0.00     0.055 A 
ATOM     84  C   UNL A   1      48.478  26.078  27.488  1.00  0.00     0.041 A 
ATOM     85  F   UNL A   1      48.727  26.443  29.780  1.00  0.00    -0.206 F 
ATOM     86  C   UNL A   1      47.984  26.486  26.258  1.00  0.00     0.022 A 
BRANCH  83  87
ATOM     87  S   UNL A   1      46.640  28.261  24.577  1.00  0.00     0.124 S 
ATOM     88  O   UNL A   1      46.516  29.702  24.775  1.00  0.00    -0.237 OA
ATOM     89  O   UNL A   1      47.691  27.841  23.653  1.00  0.00    -0.237 OA
ATOM     90  O   UNL A   1      45.377  27.540  24.440  1.00  0.00    -0.744 OA
ENDBRANCH  83  87
ENDBRANCH  57  80
ENDBRANCH  31  32
ENDBRANCH  23  26
ENDBRANCH  21  22
ENDBRANCH   1  21
TORSDOF 15
ENDMDL
MODEL 3
REMARK VINA RESULT:     -12.9      5.148     11.570
REMARK SMILES Cc1ccc(CC(=O)NCCCNC(=O)c2ccc(-c3c4nc(c(-c5cc(S(=O)(=O)[O-])ccc5F)c5ccc([nH]5)c(-c5cc(S(=O)(=O)[O-])ccc5F)c5nc(c(-c6cc(S(=O)(=O)[O-])ccc6F)c6ccc3[nH]6)C=C5)C=C4)cc2)n1-c1ccc(F)cc1
REMARK SMILES IDX 11 1 10 2 9 3 7 4 8 5 6 7 5 8 1 9 2 10 3 11 79 12 4 13 80 14
REMARK SMILES IDX 81 15 86 16 82 17 85 18 83 19 84 20 12 21 13 22 14 23 15 25
REMARK SMILES IDX 16 26 17 27 78 28 18 29 77 30 19 31 20 32 21 33 71 34 22 35
REMARK SMILES IDX 76 36 70 37 72 38 23 39 75 40 69 41 68 42 24 44 56 45 36 46
REMARK SMILES IDX 55 47 37 48 40 49 54 50 73 51 38 52 39 53 53 55 74 56 41 57
REMARK SMILES IDX 25 58 26 59 34 60 27 61 33 62 35 63 32 64 28 65 29 66 30 67
REMARK SMILES IDX 31 68 57 69 58 70 66 71 59 72 65 73 67 74 64 75 60 76 61 77
REMARK SMILES IDX 62 78 63 79 42 80 43 81 51 82 44 83 50 84 52 85 49 86 45 87
REMARK SMILES IDX 46 88 47 89 48 90
REMARK H PARENT 9 6 13 24 72 43 40 54
REMARK Flexibility Score: inf
ROOT
ATOM      1  C   UNL A   1      39.733  33.006  38.630  1.00  0.00     0.042 C 
ENDROOT
BRANCH   1   2
ATOM      2  C   UNL A   1      38.343  32.796  37.923  1.00  0.00     0.117 C 
BRANCH   2   3
ATOM      3  N   UNL A   1      38.151  31.573  37.137  1.00  0.00    -0.356 N 
ATOM      4  C   UNL A   1      38.283  31.310  35.794  1.00  0.00     0.225 C 
ATOM      5  O   UNL A   1      38.314  30.122  35.447  1.00  0.00    -0.275 OA
ATOM      6  H   UNL A   1      37.876  30.793  37.672  1.00  0.00     0.163 HD
BRANCH   4   7
ATOM      7  C   UNL A   1      38.427  32.397  34.725  1.00  0.00     0.154 C 
BRANCH   7   8
ATOM      8  C   UNL A   1      37.107  33.013  34.373  1.00  0.00     0.032 A 
ATOM      9  C   UNL A   1      34.734  34.170  31.807  1.00  0.00     0.065 C 
ATOM     10  C   UNL A   1      35.506  33.857  33.039  1.00  0.00     0.020 A 
ATOM     11  C   UNL A   1      35.284  34.328  34.321  1.00  0.00     0.023 A 
ATOM     12  N   UNL A   1      36.543  32.937  33.108  1.00  0.00    -0.318 N 
ATOM     13  C   UNL A   1      36.259  33.765  35.166  1.00  0.00     0.024 A 
BRANCH  12  14
ATOM     14  C   UNL A   1      36.981  32.076  32.074  1.00  0.00     0.046 A 
ATOM     15  C   UNL A   1      37.897  32.552  31.122  1.00  0.00     0.029 A 
ATOM     16  C   UNL A   1      36.444  30.790  31.970  1.00  0.00     0.029 A 
ATOM     17  C   UNL A   1      38.282  31.724  30.067  1.00  0.00     0.041 A 
ATOM     18  C   UNL A   1      36.816  29.978  30.898  1.00  0.00     0.041 A 
ATOM     19  C   UNL A   1      37.732  30.450  29.960  1.00  0.00     0.123 A 
ATOM     20  F   UNL A   1      38.080  29.666  28.930  1.00  0.00    -0.207 F 
ENDBRANCH  12  14
ENDBRANCH   7   8
ENDBRANCH   4   7
ENDBRANCH   2   3
ENDBRANCH   1   2
BRANCH   1  21
ATOM     21  C   UNL A   1      40.450  34.431  38.742  1.00  0.00     0.118 C 
BRANCH  21  22
ATOM     22  N   UNL A   1      40.092  35.385  37.622  1.00  0.00    -0.352 N 
ATOM     23  C   UNL A   1      40.303  35.631  36.241  1.00  0.00     0.251 C 
ATOM     24  H   UNL A   1      39.502  36.086  37.981  1.00  0.00     0.163 HD
ATOM     25  O   UNL A   1      39.856  36.728  35.872  1.00  0.00    -0.269 OA
BRANCH  23  26
ATOM     26  C   UNL A   1      40.955  34.774  35.148  1.00  0.00     0.039 A 
ATOM     27  C   UNL A   1      41.912  33.718  35.333  1.00  0.00     0.014 A 
ATOM     28  C   UNL A   1      40.801  35.067  33.839  1.00  0.00     0.014 A 
ATOM     29  C   UNL A   1      42.499  32.830  34.234  1.00  0.00     0.010 A 
ATOM     30  C   UNL A   1      41.455  34.234  32.844  1.00  0.00     0.010 A 
ATOM     31  C   UNL A   1      42.244  33.016  32.867  1.00  0.00    -0.014 A 
BRANCH  31  32
ATOM     32  C   UNL A   1      41.931  31.782  31.621  1.00  0.00     0.031 A 
ATOM     33  C   UNL A   1      42.983  32.184  30.602  1.00  0.00     0.074 A 
ATOM     34  C   UNL A   1      41.385  30.465  31.292  1.00  0.00     0.049 A 
ATOM     35  N   UNL A   1      44.124  32.551  31.114  1.00  0.00    -0.248 NA
ATOM     36  C   UNL A   1      43.216  31.656  29.268  1.00  0.00     0.031 C 
ATOM     37  C   UNL A   1      40.520  29.480  32.012  1.00  0.00     0.029 A 
ATOM     38  N   UNL A   1      41.646  29.592  30.122  1.00  0.00    -0.354 N 
ATOM     39  C   UNL A   1      44.853  31.440  30.884  1.00  0.00     0.074 A 
ATOM     40  C   UNL A   1      44.449  31.155  29.488  1.00  0.00     0.031 C 
ATOM     41  C   UNL A   1      40.286  28.310  31.297  1.00  0.00     0.029 A 
ATOM     42  C   UNL A   1      41.023  28.257  30.018  1.00  0.00     0.049 A 
ATOM     43  H   UNL A   1      42.242  29.907  29.404  1.00  0.00     0.167 HD
ATOM     44  C   UNL A   1      45.373  30.581  31.833  1.00  0.00     0.034 A 
ATOM     45  C   UNL A   1      41.299  27.226  29.047  1.00  0.00     0.034 A 
ATOM     46  C   UNL A   1      46.364  29.743  31.254  1.00  0.00     0.049 A 
ATOM     47  C   UNL A   1      42.760  27.313  29.206  1.00  0.00     0.074 A 
ATOM     48  C   UNL A   1      47.159  29.752  30.127  1.00  0.00     0.029 A 
ATOM     49  N   UNL A   1      46.632  28.544  31.860  1.00  0.00    -0.354 N 
ATOM     50  N   UNL A   1      43.340  26.648  30.152  1.00  0.00    -0.248 NA
ATOM     51  C   UNL A   1      43.608  27.864  28.152  1.00  0.00     0.031 C 
ATOM     52  C   UNL A   1      47.303  28.366  29.801  1.00  0.00     0.029 A 
ATOM     53  C   UNL A   1      46.619  27.674  30.803  1.00  0.00     0.049 A 
ATOM     54  H   UNL A   1      46.793  28.356  32.813  1.00  0.00     0.167 HD
ATOM     55  C   UNL A   1      44.668  26.806  29.909  1.00  0.00     0.074 A 
ATOM     56  C   UNL A   1      44.779  27.393  28.582  1.00  0.00     0.031 C 
ATOM     57  C   UNL A   1      45.565  26.708  30.909  1.00  0.00     0.034 A 
BRANCH  44  58
ATOM     58  C   UNL A   1      45.091  30.419  33.423  1.00  0.00     0.023 A 
ATOM     59  C   UNL A   1      44.082  29.626  34.098  1.00  0.00     0.031 A 
ATOM     60  C   UNL A   1      45.903  31.158  34.303  1.00  0.00     0.131 A 
ATOM     61  C   UNL A   1      43.795  29.806  35.487  1.00  0.00     0.055 A 
ATOM     62  C   UNL A   1      45.748  31.152  35.698  1.00  0.00     0.041 A 
ATOM     63  F   UNL A   1      46.885  31.932  33.819  1.00  0.00    -0.206 F 
ATOM     64  C   UNL A   1      44.669  30.516  36.295  1.00  0.00     0.022 A 
BRANCH  61  65
ATOM     65  S   UNL A   1      42.170  29.341  36.246  1.00  0.00     0.124 S 
ATOM     66  O   UNL A   1      41.320  29.148  35.074  1.00  0.00    -0.237 OA
ATOM     67  O   UNL A   1      42.478  28.140  37.012  1.00  0.00    -0.237 OA
ATOM     68  O   UNL A   1      41.819  30.516  37.044  1.00  0.00    -0.744 OA
ENDBRANCH  61  65
ENDBRANCH  44  58
BRANCH  45  69
ATOM     69  C   UNL A   1      41.206  25.753  28.134  1.00  0.00     0.023 A 
ATOM     70  C   UNL A   1      41.660  24.428  28.385  1.00  0.00     0.031 A 
ATOM     71  C   UNL A   1      40.269  25.694  27.002  1.00  0.00     0.131 A 
ATOM     72  C   UNL A   1      41.093  23.276  27.647  1.00  0.00     0.055 A 
ATOM     73  C   UNL A   1      39.563  24.598  26.480  1.00  0.00     0.041 A 
ATOM     74  F   UNL A   1      40.141  26.703  26.137  1.00  0.00    -0.206 F 
ATOM     75  C   UNL A   1      39.972  23.354  26.815  1.00  0.00     0.022 A 
BRANCH  72  76
ATOM     76  S   UNL A   1      41.840  21.596  27.555  1.00  0.00     0.124 S 
ATOM     77  O   UNL A   1      40.746  20.753  28.023  1.00  0.00    -0.237 OA
ATOM     78  O   UNL A   1      42.202  21.467  26.145  1.00  0.00    -0.237 OA
ATOM     79  O   UNL A   1      42.975  21.684  28.476  1.00  0.00    -0.744 OA
ENDBRANCH  72  76
ENDBRANCH  45  69
BRANCH  57  80
ATOM     80  C   UNL A   1      44.949  26.230  32.215  1.00  0.00     0.023 A 
ATOM     81  C   UNL A   1      45.383  25.059  32.831  1.00  0.00     0.031 A 
ATOM     82  C   UNL A   1      43.842  26.902  32.798  1.00  0.00     0.131 A 
ATOM     83  C   UNL A   1      44.712  24.585  33.976  1.00  0.00     0.055 A 
ATOM     84  C   UNL A   1      43.178  26.434  33.932  1.00  0.00     0.041 A 
ATOM     85  F   UNL A   1      43.367  28.020  32.230  1.00  0.00    -0.206 F 
ATOM     86  C   UNL A   1      43.615  25.260  34.528  1.00  0.00     0.022 A 
BRANCH  83  87
ATOM     87  S   UNL A   1      45.304  23.050  34.734  1.00  0.00     0.124 S 
ATOM     88  O   UNL A   1      44.112  22.555  35.415  1.00  0.00    -0.237 OA
ATOM     89  O   UNL A   1      45.729  22.278  33.568  1.00  0.00    -0.237 OA
ATOM     90  O   UNL A   1      46.389  23.483  35.612  1.00  0.00    -0.744 OA
ENDBRANCH  83  87
ENDBRANCH  57  80
ENDBRANCH  31  32
ENDBRANCH  23  26
ENDBRANCH  21  22
ENDBRANCH   1  21
TORSDOF 15
ENDMDL
