MODEL 1
REMARK VINA RESULT:     -12.2      0.000      0.000
REMARK SMILES CC1(C)C(NC(=O)[C@@H]2CCC[C@@H](C(=O)NCCCNC(=O)c3ccc(-c4c5nc(c(-c6cc(S(=O)(=O)[O-])ccc6F)c6ccc([nH]6)c(-c6cc(S(=O)(=O)[O-])ccc6F)c6nc(c(-c7cc(S(=O)(=O)[O-])ccc7F)c7ccc4[nH]7)C=C6)C=C5)cc3)C2)C1(C)C
REMARK SMILES IDX 17 1 16 2 15 3 13 4 14 5 12 7 8 8 9 9 85 10 10 11 11 12 6 13
REMARK SMILES IDX 5 14 7 16 4 17 1 18 2 19 3 20 86 21 87 22 88 23 18 24 19 25
REMARK SMILES IDX 20 26 21 28 22 29 23 30 84 31 24 32 83 33 25 34 26 35 27 36
REMARK SMILES IDX 77 37 28 38 82 39 76 40 78 41 29 42 81 43 75 44 74 45 30 47
REMARK SMILES IDX 62 48 42 49 61 50 43 51 46 52 60 53 79 54 44 55 45 56 59 58
REMARK SMILES IDX 80 59 47 60 31 61 32 62 40 63 33 64 39 65 41 66 38 67 34 68
REMARK SMILES IDX 35 69 36 70 37 71 63 72 64 73 72 74 65 75 71 76 73 77 70 78
REMARK SMILES IDX 66 79 67 80 68 81 69 82 48 83 49 84 57 85 50 86 56 87 58 88
REMARK SMILES IDX 55 89 51 90 52 91 53 92 54 93
REMARK H PARENT 15 6 5 15 19 27 78 46 46 57
REMARK Flexibility Score: inf
ROOT
ATOM      1  C   UNL A   1      37.706  20.113  24.736  1.00  0.00     0.042 C 
ENDROOT
BRANCH   1   2
ATOM      2  C   UNL A   1      36.267  20.461  25.109  1.00  0.00     0.117 C 
BRANCH   2   3
ATOM      3  N   UNL A   1      35.892  21.766  24.598  1.00  0.00    -0.356 N 
ATOM      4  C   UNL A   1      34.698  22.212  24.125  1.00  0.00     0.223 C 
ATOM      5  O   UNL A   1      34.689  23.314  23.573  1.00  0.00    -0.275 OA
ATOM      6  H   UNL A   1      36.616  22.433  24.593  1.00  0.00     0.163 HD
BRANCH   4   7
ATOM      7  C   UNL A   1      33.420  21.406  24.379  1.00  0.00     0.079 C 
ATOM      8  C   UNL A   1      32.136  23.301  25.460  1.00  0.00     0.079 C 
ATOM      9  C   UNL A   1      31.113  23.283  24.317  1.00  0.00     0.013 C 
ATOM     10  C   UNL A   1      32.733  21.902  25.666  1.00  0.00     0.027 C 
ATOM     11  C   UNL A   1      31.730  22.796  23.014  1.00  0.00     0.002 C 
ATOM     12  C   UNL A   1      32.466  21.466  23.175  1.00  0.00     0.013 C 
BRANCH   8  13
ATOM     13  C   UNL A   1      31.477  23.890  26.706  1.00  0.00     0.223 C 
ATOM     14  N   UNL A   1      31.670  25.233  26.960  1.00  0.00    -0.352 N 
ATOM     15  H   UNL A   1      31.147  25.616  27.700  1.00  0.00     0.163 HD
ATOM     16  O   UNL A   1      30.753  23.227  27.448  1.00  0.00    -0.275 OA
BRANCH  14  17
ATOM     17  C   UNL A   1      32.546  26.130  26.270  1.00  0.00     0.094 C 
ATOM     18  C   UNL A   1      33.060  27.029  23.952  1.00  0.00     0.014 C 
ATOM     19  C   UNL A   1      32.119  27.044  25.143  1.00  0.00    -0.007 C 
ATOM     20  C   UNL A   1      30.675  27.118  24.705  1.00  0.00     0.014 C 
ATOM     21  C   UNL A   1      32.544  27.622  26.516  1.00  0.00    -0.007 C 
ATOM     22  C   UNL A   1      33.904  28.262  26.707  1.00  0.00     0.014 C 
ATOM     23  C   UNL A   1      31.519  28.218  27.458  1.00  0.00     0.014 C 
ENDBRANCH  14  17
ENDBRANCH   8  13
ENDBRANCH   4   7
ENDBRANCH   2   3
ENDBRANCH   1   2
BRANCH   1  24
ATOM     24  C   UNL A   1      38.742  20.527  25.782  1.00  0.00     0.118 C 
BRANCH  24  25
ATOM     25  N   UNL A   1      39.774  19.519  25.983  1.00  0.00    -0.352 N 
ATOM     26  C   UNL A   1      41.118  19.662  26.217  1.00  0.00     0.251 C 
ATOM     27  H   UNL A   1      39.457  18.589  25.945  1.00  0.00     0.163 HD
ATOM     28  O   UNL A   1      41.842  18.667  26.159  1.00  0.00    -0.269 OA
BRANCH  26  29
ATOM     29  C   UNL A   1      41.703  20.989  26.509  1.00  0.00     0.039 A 
ATOM     30  C   UNL A   1      41.821  21.916  25.470  1.00  0.00     0.014 A 
ATOM     31  C   UNL A   1      42.154  21.316  27.790  1.00  0.00     0.014 A 
ATOM     32  C   UNL A   1      42.329  23.191  25.731  1.00  0.00     0.010 A 
ATOM     33  C   UNL A   1      42.584  22.613  28.065  1.00  0.00     0.010 A 
ATOM     34  C   UNL A   1      42.678  23.565  27.039  1.00  0.00    -0.014 A 
BRANCH  34  35
ATOM     35  C   UNL A   1      43.136  24.947  27.346  1.00  0.00     0.031 A 
ATOM     36  C   UNL A   1      42.198  25.940  27.973  1.00  0.00     0.074 A 
ATOM     37  C   UNL A   1      44.382  25.326  27.000  1.00  0.00     0.049 A 
ATOM     38  N   UNL A   1      42.391  27.204  28.251  1.00  0.00    -0.248 NA
ATOM     39  C   UNL A   1      40.849  25.452  28.297  1.00  0.00     0.031 C 
ATOM     40  C   UNL A   1      45.370  24.471  26.339  1.00  0.00     0.029 A 
ATOM     41  N   UNL A   1      45.028  26.529  27.142  1.00  0.00    -0.354 N 
ATOM     42  C   UNL A   1      41.189  27.665  28.777  1.00  0.00     0.074 A 
ATOM     43  C   UNL A   1      40.254  26.562  28.701  1.00  0.00     0.031 C 
ATOM     44  C   UNL A   1      46.500  25.169  26.150  1.00  0.00     0.029 A 
ATOM     45  C   UNL A   1      46.303  26.535  26.626  1.00  0.00     0.049 A 
ATOM     46  H   UNL A   1      44.617  27.314  27.572  1.00  0.00     0.167 HD
ATOM     47  C   UNL A   1      40.899  28.885  29.299  1.00  0.00     0.034 A 
ATOM     48  C   UNL A   1      47.208  27.530  26.526  1.00  0.00     0.034 A 
ATOM     49  C   UNL A   1      41.845  29.975  29.356  1.00  0.00     0.049 A 
ATOM     50  C   UNL A   1      46.861  28.888  27.076  1.00  0.00     0.074 A 
ATOM     51  C   UNL A   1      41.679  31.234  29.906  1.00  0.00     0.029 A 
ATOM     52  N   UNL A   1      43.130  29.945  28.824  1.00  0.00    -0.354 N 
ATOM     53  N   UNL A   1      45.741  29.293  27.630  1.00  0.00    -0.248 NA
ATOM     54  C   UNL A   1      47.903  29.918  27.000  1.00  0.00     0.031 C 
ATOM     55  C   UNL A   1      42.826  31.988  29.634  1.00  0.00     0.029 A 
ATOM     56  C   UNL A   1      43.750  31.175  28.997  1.00  0.00     0.049 A 
ATOM     57  H   UNL A   1      43.541  29.163  28.388  1.00  0.00     0.167 HD
ATOM     58  C   UNL A   1      45.952  30.621  27.989  1.00  0.00     0.074 A 
ATOM     59  C   UNL A   1      47.313  30.940  27.604  1.00  0.00     0.031 C 
ATOM     60  C   UNL A   1      45.100  31.494  28.586  1.00  0.00     0.034 A 
BRANCH  47  61
ATOM     61  C   UNL A   1      39.492  29.098  29.814  1.00  0.00     0.023 A 
ATOM     62  C   UNL A   1      38.556  29.872  29.103  1.00  0.00     0.031 A 
ATOM     63  C   UNL A   1      39.097  28.581  31.060  1.00  0.00     0.131 A 
ATOM     64  C   UNL A   1      37.324  30.199  29.689  1.00  0.00     0.055 A 
ATOM     65  C   UNL A   1      37.827  28.824  31.591  1.00  0.00     0.041 A 
ATOM     66  F   UNL A   1      39.946  27.850  31.800  1.00  0.00    -0.206 F 
ATOM     67  C   UNL A   1      36.941  29.657  30.917  1.00  0.00     0.022 A 
BRANCH  64  68
ATOM     68  S   UNL A   1      36.324  31.502  28.917  1.00  0.00     0.124 S 
ATOM     69  O   UNL A   1      35.246  31.662  29.890  1.00  0.00    -0.237 OA
ATOM     70  O   UNL A   1      37.268  32.609  28.821  1.00  0.00    -0.237 OA
ATOM     71  O   UNL A   1      35.918  30.913  27.642  1.00  0.00    -0.744 OA
ENDBRANCH  64  68
ENDBRANCH  47  61
BRANCH  48  72
ATOM     72  C   UNL A   1      48.514  27.278  25.852  1.00  0.00     0.023 A 
ATOM     73  C   UNL A   1      48.672  27.456  24.469  1.00  0.00     0.031 A 
ATOM     74  C   UNL A   1      49.631  26.854  26.596  1.00  0.00     0.131 A 
ATOM     75  C   UNL A   1      49.913  27.184  23.868  1.00  0.00     0.055 A 
ATOM     76  C   UNL A   1      50.875  26.634  26.002  1.00  0.00     0.041 A 
ATOM     77  F   UNL A   1      49.534  26.674  27.923  1.00  0.00    -0.206 F 
ATOM     78  C   UNL A   1      51.018  26.792  24.627  1.00  0.00     0.022 A 
BRANCH  75  79
ATOM     79  S   UNL A   1      50.051  27.297  22.063  1.00  0.00     0.124 S 
ATOM     80  O   UNL A   1      49.925  28.734  21.846  1.00  0.00    -0.237 OA
ATOM     81  O   UNL A   1      51.370  26.725  21.822  1.00  0.00    -0.237 OA
ATOM     82  O   UNL A   1      48.928  26.493  21.585  1.00  0.00    -0.744 OA
ENDBRANCH  75  79
ENDBRANCH  48  72
BRANCH  60  83
ATOM     83  C   UNL A   1      45.633  32.875  28.892  1.00  0.00     0.023 A 
ATOM     84  C   UNL A   1      45.483  33.947  27.993  1.00  0.00     0.031 A 
ATOM     85  C   UNL A   1      46.310  33.122  30.101  1.00  0.00     0.131 A 
ATOM     86  C   UNL A   1      46.052  35.195  28.288  1.00  0.00     0.055 A 
ATOM     87  C   UNL A   1      46.813  34.383  30.420  1.00  0.00     0.041 A 
ATOM     88  F   UNL A   1      46.489  32.138  30.996  1.00  0.00    -0.206 F 
ATOM     89  C   UNL A   1      46.699  35.425  29.506  1.00  0.00     0.022 A 
BRANCH  86  90
ATOM     90  S   UNL A   1      46.032  36.486  27.015  1.00  0.00     0.124 S 
ATOM     91  O   UNL A   1      44.612  36.814  26.939  1.00  0.00    -0.237 OA
ATOM     92  O   UNL A   1      46.893  37.512  27.596  1.00  0.00    -0.237 OA
ATOM     93  O   UNL A   1      46.577  35.815  25.837  1.00  0.00    -0.744 OA
ENDBRANCH  86  90
ENDBRANCH  60  83
ENDBRANCH  34  35
ENDBRANCH  26  29
ENDBRANCH  24  25
ENDBRANCH   1  24
TORSDOF 15
ENDMDL
MODEL 2
REMARK VINA RESULT:     -12.2      6.116     11.365
REMARK SMILES CC1(C)C(NC(=O)[C@@H]2CCC[C@@H](C(=O)NCCCNC(=O)c3ccc(-c4c5nc(c(-c6cc(S(=O)(=O)[O-])ccc6F)c6ccc([nH]6)c(-c6cc(S(=O)(=O)[O-])ccc6F)c6nc(c(-c7cc(S(=O)(=O)[O-])ccc7F)c7ccc4[nH]7)C=C6)C=C5)cc3)C2)C1(C)C
REMARK SMILES IDX 17 1 16 2 15 3 13 4 14 5 12 7 8 8 9 9 85 10 10 11 11 12 6 13
REMARK SMILES IDX 5 14 7 16 4 17 1 18 2 19 3 20 86 21 87 22 88 23 18 24 19 25
REMARK SMILES IDX 20 26 21 28 22 29 23 30 84 31 24 32 83 33 25 34 26 35 27 36
REMARK SMILES IDX 77 37 28 38 82 39 76 40 78 41 29 42 81 43 75 44 74 45 30 47
REMARK SMILES IDX 62 48 42 49 61 50 43 51 46 52 60 53 79 54 44 55 45 56 59 58
REMARK SMILES IDX 80 59 47 60 31 61 32 62 40 63 33 64 39 65 41 66 38 67 34 68
REMARK SMILES IDX 35 69 36 70 37 71 63 72 64 73 72 74 65 75 71 76 73 77 70 78
REMARK SMILES IDX 66 79 67 80 68 81 69 82 48 83 49 84 57 85 50 86 56 87 58 88
REMARK SMILES IDX 55 89 51 90 52 91 53 92 54 93
REMARK H PARENT 15 6 5 15 19 27 78 46 46 57
REMARK Flexibility Score: inf
ROOT
ATOM      1  C   UNL A   1      31.661  31.411  26.694  1.00  0.00     0.042 C 
ENDROOT
BRANCH   1   2
ATOM      2  C   UNL A   1      31.879  30.351  25.617  1.00  0.00     0.117 C 
BRANCH   2   3
ATOM      3  N   UNL A   1      31.976  29.025  26.195  1.00  0.00    -0.356 N 
ATOM      4  C   UNL A   1      31.393  27.857  25.814  1.00  0.00     0.223 C 
ATOM      5  O   UNL A   1      31.489  26.903  26.588  1.00  0.00    -0.275 OA
ATOM      6  H   UNL A   1      32.556  28.960  26.988  1.00  0.00     0.163 HD
BRANCH   4   7
ATOM      7  C   UNL A   1      30.746  27.736  24.431  1.00  0.00     0.079 C 
ATOM      8  C   UNL A   1      32.413  26.062  23.518  1.00  0.00     0.079 C 
ATOM      9  C   UNL A   1      31.306  25.008  23.383  1.00  0.00     0.013 C 
ATOM     10  C   UNL A   1      31.830  27.473  23.366  1.00  0.00     0.027 C 
ATOM     11  C   UNL A   1      30.199  25.216  24.407  1.00  0.00     0.002 C 
ATOM     12  C   UNL A   1      29.662  26.647  24.407  1.00  0.00     0.013 C 
BRANCH   8  13
ATOM     13  C   UNL A   1      33.531  25.736  22.531  1.00  0.00     0.223 C 
ATOM     14  N   UNL A   1      34.566  24.937  22.974  1.00  0.00    -0.352 N 
ATOM     15  H   UNL A   1      35.215  24.647  22.293  1.00  0.00     0.163 HD
ATOM     16  O   UNL A   1      33.512  26.116  21.361  1.00  0.00    -0.275 OA
BRANCH  14  17
ATOM     17  C   UNL A   1      34.803  24.486  24.311  1.00  0.00     0.094 C 
ATOM     18  C   UNL A   1      33.694  23.234  26.221  1.00  0.00     0.014 C 
ATOM     19  C   UNL A   1      34.350  23.149  24.855  1.00  0.00    -0.007 C 
ATOM     20  C   UNL A   1      33.653  22.144  23.969  1.00  0.00     0.014 C 
ATOM     21  C   UNL A   1      35.855  23.452  24.648  1.00  0.00    -0.007 C 
ATOM     22  C   UNL A   1      36.754  23.784  25.823  1.00  0.00     0.014 C 
ATOM     23  C   UNL A   1      36.633  22.792  23.530  1.00  0.00     0.014 C 
ENDBRANCH  14  17
ENDBRANCH   8  13
ENDBRANCH   4   7
ENDBRANCH   2   3
ENDBRANCH   1   2
BRANCH   1  24
ATOM     24  C   UNL A   1      32.932  32.156  27.106  1.00  0.00     0.118 C 
BRANCH  24  25
ATOM     25  N   UNL A   1      32.678  33.541  27.478  1.00  0.00    -0.352 N 
ATOM     26  C   UNL A   1      33.228  34.306  28.475  1.00  0.00     0.251 C 
ATOM     27  H   UNL A   1      32.004  34.000  26.927  1.00  0.00     0.163 HD
ATOM     28  O   UNL A   1      32.721  35.398  28.737  1.00  0.00    -0.269 OA
BRANCH  26  29
ATOM     29  C   UNL A   1      34.395  33.826  29.246  1.00  0.00     0.039 A 
ATOM     30  C   UNL A   1      34.182  32.960  30.321  1.00  0.00     0.014 A 
ATOM     31  C   UNL A   1      35.692  34.240  28.930  1.00  0.00     0.014 A 
ATOM     32  C   UNL A   1      35.272  32.458  31.036  1.00  0.00     0.010 A 
ATOM     33  C   UNL A   1      36.782  33.676  29.592  1.00  0.00     0.010 A 
ATOM     34  C   UNL A   1      36.585  32.780  30.653  1.00  0.00    -0.014 A 
BRANCH  34  35
ATOM     35  C   UNL A   1      37.756  32.183  31.350  1.00  0.00     0.031 A 
ATOM     36  C   UNL A   1      38.522  31.051  30.722  1.00  0.00     0.074 A 
ATOM     37  C   UNL A   1      38.091  32.619  32.580  1.00  0.00     0.049 A 
ATOM     38  N   UNL A   1      39.523  30.359  31.202  1.00  0.00    -0.248 NA
ATOM     39  C   UNL A   1      38.076  30.620  29.389  1.00  0.00     0.031 C 
ATOM     40  C   UNL A   1      37.394  33.674  33.318  1.00  0.00     0.029 A 
ATOM     41  N   UNL A   1      39.091  32.223  33.433  1.00  0.00    -0.354 N 
ATOM     42  C   UNL A   1      39.824  29.407  30.234  1.00  0.00     0.074 A 
ATOM     43  C   UNL A   1      38.844  29.564  29.180  1.00  0.00     0.031 C 
ATOM     44  C   UNL A   1      37.998  33.854  34.503  1.00  0.00     0.029 A 
ATOM     45  C   UNL A   1      39.090  32.894  34.634  1.00  0.00     0.049 A 
ATOM     46  H   UNL A   1      39.747  31.524  33.208  1.00  0.00     0.167 HD
ATOM     47  C   UNL A   1      40.838  28.503  30.215  1.00  0.00     0.034 A 
ATOM     48  C   UNL A   1      39.864  32.743  35.728  1.00  0.00     0.034 A 
ATOM     49  C   UNL A   1      41.799  28.356  31.283  1.00  0.00     0.049 A 
ATOM     50  C   UNL A   1      40.962  31.713  35.707  1.00  0.00     0.074 A 
ATOM     51  C   UNL A   1      42.894  27.513  31.349  1.00  0.00     0.029 A 
ATOM     52  N   UNL A   1      41.768  29.055  32.485  1.00  0.00    -0.354 N 
ATOM     53  N   UNL A   1      41.276  30.861  34.757  1.00  0.00    -0.248 NA
ATOM     54  C   UNL A   1      41.817  31.633  36.897  1.00  0.00     0.031 C 
ATOM     55  C   UNL A   1      43.472  27.640  32.617  1.00  0.00     0.029 A 
ATOM     56  C   UNL A   1      42.799  28.632  33.313  1.00  0.00     0.049 A 
ATOM     57  H   UNL A   1      41.109  29.750  32.716  1.00  0.00     0.167 HD
ATOM     58  C   UNL A   1      42.381  30.157  35.229  1.00  0.00     0.074 A 
ATOM     59  C   UNL A   1      42.687  30.700  36.538  1.00  0.00     0.031 C 
ATOM     60  C   UNL A   1      43.082  29.159  34.631  1.00  0.00     0.034 A 
BRANCH  47  61
ATOM     61  C   UNL A   1      40.925  27.591  29.009  1.00  0.00     0.023 A 
ATOM     62  C   UNL A   1      41.865  27.810  27.985  1.00  0.00     0.031 A 
ATOM     63  C   UNL A   1      40.019  26.529  28.845  1.00  0.00     0.131 A 
ATOM     64  C   UNL A   1      41.803  27.060  26.802  1.00  0.00     0.055 A 
ATOM     65  C   UNL A   1      40.031  25.717  27.708  1.00  0.00     0.041 A 
ATOM     66  F   UNL A   1      39.084  26.276  29.774  1.00  0.00    -0.206 F 
ATOM     67  C   UNL A   1      40.911  25.995  26.666  1.00  0.00     0.022 A 
BRANCH  64  68
ATOM     68  S   UNL A   1      42.764  27.630  25.371  1.00  0.00     0.124 S 
ATOM     69  O   UNL A   1      42.849  26.412  24.569  1.00  0.00    -0.237 OA
ATOM     70  O   UNL A   1      41.926  28.694  24.832  1.00  0.00    -0.237 OA
ATOM     71  O   UNL A   1      44.029  28.066  25.960  1.00  0.00    -0.744 OA
ENDBRANCH  64  68
ENDBRANCH  47  61
BRANCH  48  72
ATOM     72  C   UNL A   1      39.603  33.572  36.939  1.00  0.00     0.023 A 
ATOM     73  C   UNL A   1      38.963  33.040  38.069  1.00  0.00     0.031 A 
ATOM     74  C   UNL A   1      40.000  34.922  36.980  1.00  0.00     0.131 A 
ATOM     75  C   UNL A   1      38.713  33.861  39.181  1.00  0.00     0.055 A 
ATOM     76  C   UNL A   1      39.796  35.720  38.107  1.00  0.00     0.041 A 
ATOM     77  F   UNL A   1      40.622  35.478  35.928  1.00  0.00    -0.206 F 
ATOM     78  C   UNL A   1      39.141  35.191  39.214  1.00  0.00     0.022 A 
BRANCH  75  79
ATOM     79  S   UNL A   1      37.768  33.181  40.572  1.00  0.00     0.124 S 
ATOM     80  O   UNL A   1      37.704  34.325  41.474  1.00  0.00    -0.237 OA
ATOM     81  O   UNL A   1      36.516  32.798  39.931  1.00  0.00    -0.237 OA
ATOM     82  O   UNL A   1      38.596  32.068  41.033  1.00  0.00    -0.744 OA
ENDBRANCH  75  79
ENDBRANCH  48  72
BRANCH  60  83
ATOM     83  C   UNL A   1      44.274  28.610  35.380  1.00  0.00     0.023 A 
ATOM     84  C   UNL A   1      44.145  27.587  36.337  1.00  0.00     0.031 A 
ATOM     85  C   UNL A   1      45.561  29.125  35.138  1.00  0.00     0.131 A 
ATOM     86  C   UNL A   1      45.270  27.155  37.057  1.00  0.00     0.055 A 
ATOM     87  C   UNL A   1      46.686  28.643  35.807  1.00  0.00     0.041 A 
ATOM     88  F   UNL A   1      45.746  30.107  34.240  1.00  0.00    -0.206 F 
ATOM     89  C   UNL A   1      46.543  27.663  36.783  1.00  0.00     0.022 A 
BRANCH  86  90
ATOM     90  S   UNL A   1      45.033  25.997  38.432  1.00  0.00     0.124 S 
ATOM     91  O   UNL A   1      44.272  26.805  39.380  1.00  0.00    -0.237 OA
ATOM     92  O   UNL A   1      44.305  24.903  37.798  1.00  0.00    -0.237 OA
ATOM     93  O   UNL A   1      46.396  25.675  38.848  1.00  0.00    -0.744 OA
ENDBRANCH  86  90
ENDBRANCH  60  83
ENDBRANCH  34  35
ENDBRANCH  26  29
ENDBRANCH  24  25
ENDBRANCH   1  24
TORSDOF 15
ENDMDL
MODEL 3
REMARK VINA RESULT:     -12.1      5.260      8.537
REMARK SMILES CC1(C)C(NC(=O)[C@@H]2CCC[C@@H](C(=O)NCCCNC(=O)c3ccc(-c4c5nc(c(-c6cc(S(=O)(=O)[O-])ccc6F)c6ccc([nH]6)c(-c6cc(S(=O)(=O)[O-])ccc6F)c6nc(c(-c7cc(S(=O)(=O)[O-])ccc7F)c7ccc4[nH]7)C=C6)C=C5)cc3)C2)C1(C)C
REMARK SMILES IDX 17 1 16 2 15 3 13 4 14 5 12 7 8 8 9 9 85 10 10 11 11 12 6 13
REMARK SMILES IDX 5 14 7 16 4 17 1 18 2 19 3 20 86 21 87 22 88 23 18 24 19 25
REMARK SMILES IDX 20 26 21 28 22 29 23 30 84 31 24 32 83 33 25 34 26 35 27 36
REMARK SMILES IDX 77 37 28 38 82 39 76 40 78 41 29 42 81 43 75 44 74 45 30 47
REMARK SMILES IDX 62 48 42 49 61 50 43 51 46 52 60 53 79 54 44 55 45 56 59 58
REMARK SMILES IDX 80 59 47 60 31 61 32 62 40 63 33 64 39 65 41 66 38 67 34 68
REMARK SMILES IDX 35 69 36 70 37 71 63 72 64 73 72 74 65 75 71 76 73 77 70 78
REMARK SMILES IDX 66 79 67 80 68 81 69 82 48 83 49 84 57 85 50 86 56 87 58 88
REMARK SMILES IDX 55 89 51 90 52 91 53 92 54 93
REMARK H PARENT 15 6 5 15 19 27 78 46 46 57
REMARK Flexibility Score: inf
ROOT
ATOM      1  C   UNL A   1      33.355  28.585  27.273  1.00  0.00     0.042 C 
ENDROOT
BRANCH   1   2
ATOM      2  C   UNL A   1      31.849  28.333  27.260  1.00  0.00     0.117 C 
BRANCH   2   3
ATOM      3  N   UNL A   1      31.553  26.920  27.130  1.00  0.00    -0.356 N 
ATOM      4  C   UNL A   1      30.875  26.252  26.159  1.00  0.00     0.223 C 
ATOM      5  O   UNL A   1      30.600  25.071  26.378  1.00  0.00    -0.275 OA
ATOM      6  H   UNL A   1      31.898  26.355  27.858  1.00  0.00     0.163 HD
BRANCH   4   7
ATOM      7  C   UNL A   1      30.577  26.935  24.821  1.00  0.00     0.079 C 
ATOM      8  C   UNL A   1      32.343  25.689  23.502  1.00  0.00     0.079 C 
ATOM      9  C   UNL A   1      31.259  25.031  22.637  1.00  0.00     0.013 C 
ATOM     10  C   UNL A   1      31.873  27.063  23.996  1.00  0.00     0.027 C 
ATOM     11  C   UNL A   1      29.947  24.879  23.395  1.00  0.00     0.002 C 
ATOM     12  C   UNL A   1      29.486  26.188  24.036  1.00  0.00     0.013 C 
BRANCH   8  13
ATOM     13  C   UNL A   1      33.653  25.720  22.716  1.00  0.00     0.223 C 
ATOM     14  N   UNL A   1      34.732  25.039  23.241  1.00  0.00    -0.352 N 
ATOM     15  H   UNL A   1      35.529  24.977  22.667  1.00  0.00     0.163 HD
ATOM     16  O   UNL A   1      33.757  26.281  21.626  1.00  0.00    -0.275 OA
BRANCH  14  17
ATOM     17  C   UNL A   1      34.825  24.416  24.526  1.00  0.00     0.094 C 
ATOM     18  C   UNL A   1      33.494  22.995  26.156  1.00  0.00     0.014 C 
ATOM     19  C   UNL A   1      34.273  23.046  24.854  1.00  0.00    -0.007 C 
ATOM     20  C   UNL A   1      33.626  22.192  23.789  1.00  0.00     0.014 C 
ATOM     21  C   UNL A   1      35.801  23.300  24.823  1.00  0.00    -0.007 C 
ATOM     22  C   UNL A   1      36.596  23.441  26.105  1.00  0.00     0.014 C 
ATOM     23  C   UNL A   1      36.657  22.745  23.704  1.00  0.00     0.014 C 
ENDBRANCH  14  17
ENDBRANCH   8  13
ENDBRANCH   4   7
ENDBRANCH   2   3
ENDBRANCH   1   2
BRANCH   1  24
ATOM     24  C   UNL A   1      33.798  29.776  26.421  1.00  0.00     0.118 C 
BRANCH  24  25
ATOM     25  N   UNL A   1      33.710  31.043  27.134  1.00  0.00    -0.352 N 
ATOM     26  C   UNL A   1      34.469  31.533  28.166  1.00  0.00     0.251 C 
ATOM     27  H   UNL A   1      32.992  31.641  26.827  1.00  0.00     0.163 HD
ATOM     28  O   UNL A   1      34.093  32.550  28.752  1.00  0.00    -0.269 OA
BRANCH  26  29
ATOM     29  C   UNL A   1      35.707  30.846  28.593  1.00  0.00     0.039 A 
ATOM     30  C   UNL A   1      36.910  31.172  27.962  1.00  0.00     0.014 A 
ATOM     31  C   UNL A   1      35.687  29.868  29.591  1.00  0.00     0.014 A 
ATOM     32  C   UNL A   1      38.099  30.568  28.377  1.00  0.00     0.010 A 
ATOM     33  C   UNL A   1      36.883  29.327  30.059  1.00  0.00     0.010 A 
ATOM     34  C   UNL A   1      38.103  29.669  29.456  1.00  0.00    -0.014 A 
BRANCH  34  35
ATOM     35  C   UNL A   1      39.374  29.087  29.966  1.00  0.00     0.031 A 
ATOM     36  C   UNL A   1      40.083  29.711  31.136  1.00  0.00     0.074 A 
ATOM     37  C   UNL A   1      39.922  28.031  29.334  1.00  0.00     0.049 A 
ATOM     38  N   UNL A   1      41.230  29.390  31.678  1.00  0.00    -0.248 NA
ATOM     39  C   UNL A   1      39.430  30.874  31.754  1.00  0.00     0.031 C 
ATOM     40  C   UNL A   1      39.357  27.368  28.156  1.00  0.00     0.029 A 
ATOM     41  N   UNL A   1      41.081  27.337  29.580  1.00  0.00    -0.354 N 
ATOM     42  C   UNL A   1      41.440  30.314  32.697  1.00  0.00     0.074 A 
ATOM     43  C   UNL A   1      40.338  31.252  32.638  1.00  0.00     0.031 C 
ATOM     44  C   UNL A   1      40.159  26.355  27.795  1.00  0.00     0.029 A 
ATOM     45  C   UNL A   1      41.321  26.326  28.679  1.00  0.00     0.049 A 
ATOM     46  H   UNL A   1      41.683  27.543  30.331  1.00  0.00     0.167 HD
ATOM     47  C   UNL A   1      42.442  30.360  33.612  1.00  0.00     0.034 A 
ATOM     48  C   UNL A   1      42.366  25.482  28.560  1.00  0.00     0.034 A 
ATOM     49  C   UNL A   1      43.538  29.419  33.647  1.00  0.00     0.049 A 
ATOM     50  C   UNL A   1      43.488  25.568  29.560  1.00  0.00     0.074 A 
ATOM     51  C   UNL A   1      44.579  29.339  34.555  1.00  0.00     0.029 A 
ATOM     52  N   UNL A   1      43.748  28.406  32.717  1.00  0.00    -0.354 N 
ATOM     53  N   UNL A   1      43.642  26.407  30.558  1.00  0.00    -0.248 NA
ATOM     54  C   UNL A   1      44.570  24.585  29.425  1.00  0.00     0.031 C 
ATOM     55  C   UNL A   1      45.458  28.337  34.130  1.00  0.00     0.029 A 
ATOM     56  C   UNL A   1      44.922  27.724  33.008  1.00  0.00     0.049 A 
ATOM     57  H   UNL A   1      43.150  28.201  31.962  1.00  0.00     0.167 HD
ATOM     58  C   UNL A   1      44.829  26.039  31.185  1.00  0.00     0.074 A 
ATOM     59  C   UNL A   1      45.339  24.891  30.461  1.00  0.00     0.031 C 
ATOM     60  C   UNL A   1      45.439  26.596  32.264  1.00  0.00     0.034 A 
BRANCH  47  61
ATOM     61  C   UNL A   1      42.403  31.488  34.621  1.00  0.00     0.023 A 
ATOM     62  C   UNL A   1      41.484  31.491  35.687  1.00  0.00     0.031 A 
ATOM     63  C   UNL A   1      43.244  32.605  34.483  1.00  0.00     0.131 A 
ATOM     64  C   UNL A   1      41.351  32.629  36.497  1.00  0.00     0.055 A 
ATOM     65  C   UNL A   1      43.178  33.692  35.358  1.00  0.00     0.041 A 
ATOM     66  F   UNL A   1      44.131  32.676  33.477  1.00  0.00    -0.206 F 
ATOM     67  C   UNL A   1      42.210  33.720  36.358  1.00  0.00     0.022 A 
BRANCH  64  68
ATOM     68  S   UNL A   1      39.907  32.742  37.591  1.00  0.00     0.124 S 
ATOM     69  O   UNL A   1      39.113  31.598  37.150  1.00  0.00    -0.237 OA
ATOM     70  O   UNL A   1      40.506  32.633  38.916  1.00  0.00    -0.237 OA
ATOM     71  O   UNL A   1      39.334  34.048  37.269  1.00  0.00    -0.744 OA
ENDBRANCH  64  68
ENDBRANCH  47  61
BRANCH  48  72
ATOM     72  C   UNL A   1      42.405  24.507  27.433  1.00  0.00     0.023 A 
ATOM     73  C   UNL A   1      41.659  23.318  27.465  1.00  0.00     0.031 A 
ATOM     74  C   UNL A   1      43.198  24.758  26.298  1.00  0.00     0.131 A 
ATOM     75  C   UNL A   1      41.742  22.413  26.394  1.00  0.00     0.055 A 
ATOM     76  C   UNL A   1      43.238  23.880  25.214  1.00  0.00     0.041 A 
ATOM     77  F   UNL A   1      43.926  25.883  26.215  1.00  0.00    -0.206 F 
ATOM     78  C   UNL A   1      42.512  22.694  25.263  1.00  0.00     0.022 A 
BRANCH  75  79
ATOM     79  S   UNL A   1      40.870  20.828  26.523  1.00  0.00     0.124 S 
ATOM     80  O   UNL A   1      39.566  21.160  25.959  1.00  0.00    -0.237 OA
ATOM     81  O   UNL A   1      41.712  19.951  25.718  1.00  0.00    -0.237 OA
ATOM     82  O   UNL A   1      40.877  20.551  27.958  1.00  0.00    -0.744 OA
ENDBRANCH  75  79
ENDBRANCH  48  72
BRANCH  60  83
ATOM     83  C   UNL A   1      46.714  25.944  32.747  1.00  0.00     0.023 A 
ATOM     84  C   UNL A   1      46.704  24.890  33.678  1.00  0.00     0.031 A 
ATOM     85  C   UNL A   1      47.961  26.392  32.274  1.00  0.00     0.131 A 
ATOM     86  C   UNL A   1      47.915  24.360  34.150  1.00  0.00     0.055 A 
ATOM     87  C   UNL A   1      49.160  25.815  32.695  1.00  0.00     0.041 A 
ATOM     88  F   UNL A   1      48.035  27.399  31.389  1.00  0.00    -0.206 F 
ATOM     89  C   UNL A   1      49.142  24.803  33.648  1.00  0.00     0.022 A 
BRANCH  86  90
ATOM     90  S   UNL A   1      47.872  23.159  35.508  1.00  0.00     0.124 S 
ATOM     91  O   UNL A   1      49.096  22.398  35.278  1.00  0.00    -0.237 OA
ATOM     92  O   UNL A   1      47.868  24.020  36.687  1.00  0.00    -0.237 OA
ATOM     93  O   UNL A   1      46.631  22.423  35.275  1.00  0.00    -0.744 OA
ENDBRANCH  86  90
ENDBRANCH  60  83
ENDBRANCH  34  35
ENDBRANCH  26  29
ENDBRANCH  24  25
ENDBRANCH   1  24
TORSDOF 15
ENDMDL
