MODEL 1
REMARK VINA RESULT:     -11.1      0.000      0.000
REMARK SMILES COc1cc(C[N@H+]2CCC[C@@](O)(CO)C2)cc(Cl)c1OCC(=O)NCCCNC(=O)c1ccc(-c2c3nc(c(-c4cc(S(=O)(=O)[O-])ccc4F)c4ccc([nH]4)c(-c4cc(S(=O)(=O)[O-])ccc4F)c4nc(c(-c5cc(S(=O)(=O)[O-])ccc5F)c5ccc2[nH]5)C=C4)C=C3)cc1
REMARK SMILES IDX 22 1 23 2 24 3 21 5 20 6 19 7 3 8 4 9 5 10 17 11 16 12 18 13
REMARK SMILES IDX 2 14 1 15 6 16 7 17 8 18 15 19 9 21 11 22 10 23 13 24 14 25
REMARK SMILES IDX 12 27 25 29 26 30 27 31 28 32 29 33 30 35 31 36 32 37 93 38
REMARK SMILES IDX 33 39 92 40 34 41 35 42 36 43 86 44 37 45 91 46 85 47 87 48
REMARK SMILES IDX 38 49 90 50 84 51 83 52 39 54 71 55 51 56 70 57 52 58 55 59
REMARK SMILES IDX 69 60 88 61 53 62 54 63 68 65 89 66 56 67 40 68 41 69 49 70
REMARK SMILES IDX 42 71 48 72 50 73 47 74 43 75 44 76 45 77 46 78 72 79 73 80
REMARK SMILES IDX 81 81 74 82 80 83 82 84 79 85 75 86 76 87 77 88 78 89 57 90
REMARK SMILES IDX 58 91 66 92 59 93 65 94 67 95 64 96 60 97 61 98 62 99 63 100
REMARK H PARENT 24 4 7 20 14 26 12 28 28 34 87 53 55 64
REMARK Flexibility Score: inf
ROOT
ATOM      1  C   UNL A   1      34.048  19.493  24.830  1.00  0.00     0.257 C 
ATOM      2  O   UNL A   1      33.457  18.440  24.574  1.00  0.00    -0.271 OA
ATOM      3  N   UNL A   1      35.393  19.400  25.017  1.00  0.00    -0.353 N 
ATOM      4  H   UNL A   1      35.729  18.489  25.177  1.00  0.00     0.163 HD
ENDROOT
BRANCH   1   5
ATOM      5  C   UNL A   1      33.313  20.853  24.827  1.00  0.00     0.329 C 
BRANCH   5   6
ATOM      6  O   UNL A   1      33.495  21.850  25.809  1.00  0.00    -0.478 OA
BRANCH   6   7
ATOM      7  C   UNL A   1      32.988  23.118  25.729  1.00  0.00     0.180 A 
ATOM      8  C   UNL A   1      33.956  24.089  25.381  1.00  0.00     0.162 A 
ATOM      9  C   UNL A   1      33.703  25.466  25.504  1.00  0.00     0.060 A 
ATOM     10  C   UNL A   1      32.493  25.904  26.048  1.00  0.00     0.012 A 
ATOM     11  C   UNL A   1      31.702  23.586  26.013  1.00  0.00     0.087 A 
ATOM     12  C   UNL A   1      31.477  24.959  26.215  1.00  0.00     0.034 A 
ATOM     13  Cl  UNL A   1      30.272  22.629  26.045  1.00  0.00    -0.080 Cl
BRANCH   8  14
ATOM     14  O   UNL A   1      35.130  23.659  24.801  1.00  0.00    -0.493 OA
ATOM     15  C   UNL A   1      35.111  23.701  23.377  1.00  0.00     0.278 C 
ENDBRANCH   8  14
BRANCH  10  16
ATOM     16  C   UNL A   1      32.271  27.337  26.475  1.00  0.00     0.299 C 
BRANCH  16  17
ATOM     17  N   UNL A   1      32.272  28.314  25.395  1.00  0.00    -0.329 N 
ATOM     18  C   UNL A   1      33.506  28.968  24.993  1.00  0.00     0.262 C 
ATOM     19  C   UNL A   1      31.229  28.275  24.378  1.00  0.00     0.300 C 
ATOM     20  H   UNL A   1      31.902  29.007  26.045  1.00  0.00     0.348 HD
ATOM     21  C   UNL A   1      34.028  28.519  23.624  1.00  0.00     0.065 C 
ATOM     22  C   UNL A   1      31.678  27.845  22.959  1.00  0.00     0.136 C 
ATOM     23  C   UNL A   1      32.946  28.604  22.546  1.00  0.00     0.049 C 
BRANCH  22  24
ATOM     24  C   UNL A   1      31.897  26.334  22.867  1.00  0.00     0.197 C 
BRANCH  24  25
ATOM     25  O   UNL A   1      32.890  26.023  21.887  1.00  0.00    -0.393 OA
ATOM     26  H   UNL A   1      33.667  25.641  22.324  1.00  0.00     0.210 HD
ENDBRANCH  24  25
ENDBRANCH  22  24
BRANCH  22  27
ATOM     27  O   UNL A   1      30.628  28.164  22.035  1.00  0.00    -0.382 OA
ATOM     28  H   UNL A   1      30.396  29.101  22.123  1.00  0.00     0.211 HD
ENDBRANCH  22  27
ENDBRANCH  16  17
ENDBRANCH  10  16
ENDBRANCH   6   7
ENDBRANCH   5   6
ENDBRANCH   1   5
BRANCH   3  29
ATOM     29  C   UNL A   1      36.404  20.435  25.018  1.00  0.00     0.117 C 
BRANCH  29  30
ATOM     30  C   UNL A   1      37.798  19.884  24.759  1.00  0.00     0.042 C 
BRANCH  30  31
ATOM     31  C   UNL A   1      38.873  20.265  25.778  1.00  0.00     0.118 C 
BRANCH  31  32
ATOM     32  N   UNL A   1      39.935  19.280  25.912  1.00  0.00    -0.352 N 
ATOM     33  C   UNL A   1      41.279  19.441  26.171  1.00  0.00     0.251 C 
ATOM     34  H   UNL A   1      39.646  18.346  25.801  1.00  0.00     0.163 HD
ATOM     35  O   UNL A   1      42.013  18.459  26.118  1.00  0.00    -0.269 OA
BRANCH  33  36
ATOM     36  C   UNL A   1      41.848  20.777  26.470  1.00  0.00     0.039 A 
ATOM     37  C   UNL A   1      42.070  21.663  25.411  1.00  0.00     0.014 A 
ATOM     38  C   UNL A   1      42.184  21.160  27.771  1.00  0.00     0.014 A 
ATOM     39  C   UNL A   1      42.549  22.953  25.666  1.00  0.00     0.010 A 
ATOM     40  C   UNL A   1      42.579  22.473  28.032  1.00  0.00     0.010 A 
ATOM     41  C   UNL A   1      42.765  23.386  26.984  1.00  0.00    -0.014 A 
BRANCH  41  42
ATOM     42  C   UNL A   1      43.176  24.787  27.279  1.00  0.00     0.031 A 
ATOM     43  C   UNL A   1      42.220  25.737  27.950  1.00  0.00     0.074 A 
ATOM     44  C   UNL A   1      44.393  25.221  26.894  1.00  0.00     0.049 A 
ATOM     45  N   UNL A   1      42.374  27.005  28.236  1.00  0.00    -0.248 NA
ATOM     46  C   UNL A   1      40.907  25.194  28.322  1.00  0.00     0.031 C 
ATOM     47  C   UNL A   1      45.402  24.409  26.209  1.00  0.00     0.029 A 
ATOM     48  N   UNL A   1      44.992  26.451  27.018  1.00  0.00    -0.354 N 
ATOM     49  C   UNL A   1      41.174  27.416  28.809  1.00  0.00     0.074 A 
ATOM     50  C   UNL A   1      40.284  26.274  28.767  1.00  0.00     0.031 C 
ATOM     51  C   UNL A   1      46.503  25.150  26.010  1.00  0.00     0.029 A 
ATOM     52  C   UNL A   1      46.265  26.505  26.499  1.00  0.00     0.049 A 
ATOM     53  H   UNL A   1      44.550  27.223  27.441  1.00  0.00     0.167 HD
ATOM     54  C   UNL A   1      40.852  28.624  29.338  1.00  0.00     0.034 A 
ATOM     55  C   UNL A   1      47.138  27.528  26.413  1.00  0.00     0.034 A 
ATOM     56  C   UNL A   1      41.754  29.750  29.374  1.00  0.00     0.049 A 
ATOM     57  C   UNL A   1      46.736  28.877  26.957  1.00  0.00     0.074 A 
ATOM     58  C   UNL A   1      41.551  30.998  29.938  1.00  0.00     0.029 A 
ATOM     59  N   UNL A   1      43.024  29.776  28.809  1.00  0.00    -0.354 N 
ATOM     60  N   UNL A   1      45.619  29.233  27.547  1.00  0.00    -0.248 NA
ATOM     61  C   UNL A   1      47.720  29.961  26.828  1.00  0.00     0.031 C 
ATOM     62  C   UNL A   1      42.657  31.802  29.639  1.00  0.00     0.029 A 
ATOM     63  C   UNL A   1      43.594  31.030  28.971  1.00  0.00     0.049 A 
ATOM     64  H   UNL A   1      43.455  29.014  28.358  1.00  0.00     0.167 HD
ATOM     65  C   UNL A   1      45.782  30.572  27.893  1.00  0.00     0.074 A 
ATOM     66  C   UNL A   1      47.110  30.953  27.458  1.00  0.00     0.031 C 
ATOM     67  C   UNL A   1      44.916  31.407  28.523  1.00  0.00     0.034 A 
BRANCH  54  68
ATOM     68  C   UNL A   1      39.451  28.791  29.885  1.00  0.00     0.023 A 
ATOM     69  C   UNL A   1      38.397  29.274  29.090  1.00  0.00     0.031 A 
ATOM     70  C   UNL A   1      39.173  28.502  31.233  1.00  0.00     0.131 A 
ATOM     71  C   UNL A   1      37.147  29.541  29.667  1.00  0.00     0.055 A 
ATOM     72  C   UNL A   1      37.900  28.680  31.779  1.00  0.00     0.041 A 
ATOM     73  F   UNL A   1      40.140  28.059  32.052  1.00  0.00    -0.206 F 
ATOM     74  C   UNL A   1      36.882  29.221  31.000  1.00  0.00     0.022 A 
BRANCH  71  75
ATOM     75  S   UNL A   1      35.930  30.478  28.699  1.00  0.00     0.124 S 
ATOM     76  O   UNL A   1      35.321  31.320  29.727  1.00  0.00    -0.237 OA
ATOM     77  O   UNL A   1      36.767  31.166  27.723  1.00  0.00    -0.237 OA
ATOM     78  O   UNL A   1      35.055  29.442  28.155  1.00  0.00    -0.744 OA
ENDBRANCH  71  75
ENDBRANCH  54  68
BRANCH  55  79
ATOM     79  C   UNL A   1      48.479  27.332  25.788  1.00  0.00     0.023 A 
ATOM     80  C   UNL A   1      48.664  27.518  24.408  1.00  0.00     0.031 A 
ATOM     81  C   UNL A   1      49.584  26.911  26.548  1.00  0.00     0.131 A 
ATOM     82  C   UNL A   1      49.907  27.235  23.823  1.00  0.00     0.055 A 
ATOM     83  C   UNL A   1      50.836  26.689  25.971  1.00  0.00     0.041 A 
ATOM     84  F   UNL A   1      49.465  26.720  27.872  1.00  0.00    -0.206 F 
ATOM     85  C   UNL A   1      50.999  26.837  24.597  1.00  0.00     0.022 A 
BRANCH  82  86
ATOM     86  S   UNL A   1      50.053  27.308  22.017  1.00  0.00     0.124 S 
ATOM     87  O   UNL A   1      49.778  28.716  21.754  1.00  0.00    -0.237 OA
ATOM     88  O   UNL A   1      51.429  26.871  21.805  1.00  0.00    -0.237 OA
ATOM     89  O   UNL A   1      49.028  26.375  21.555  1.00  0.00    -0.744 OA
ENDBRANCH  82  86
ENDBRANCH  55  79
BRANCH  67  90
ATOM     90  C   UNL A   1      45.404  32.806  28.825  1.00  0.00     0.023 A 
ATOM     91  C   UNL A   1      45.056  33.907  28.022  1.00  0.00     0.031 A 
ATOM     92  C   UNL A   1      46.243  33.037  29.930  1.00  0.00     0.131 A 
ATOM     93  C   UNL A   1      45.593  35.173  28.299  1.00  0.00     0.055 A 
ATOM     94  C   UNL A   1      46.718  34.311  30.243  1.00  0.00     0.041 A 
ATOM     95  F   UNL A   1      46.614  32.024  30.730  1.00  0.00    -0.206 F 
ATOM     96  C   UNL A   1      46.406  35.386  29.416  1.00  0.00     0.022 A 
BRANCH  93  97
ATOM     97  S   UNL A   1      45.304  36.521  27.120  1.00  0.00     0.124 S 
ATOM     98  O   UNL A   1      45.345  37.695  27.985  1.00  0.00    -0.237 OA
ATOM     99  O   UNL A   1      46.422  36.372  26.194  1.00  0.00    -0.237 OA
ATOM    100  O   UNL A   1      43.990  36.210  26.558  1.00  0.00    -0.744 OA
ENDBRANCH  93  97
ENDBRANCH  67  90
ENDBRANCH  41  42
ENDBRANCH  33  36
ENDBRANCH  31  32
ENDBRANCH  30  31
ENDBRANCH  29  30
ENDBRANCH   3  29
TORSDOF 21
ENDMDL
MODEL 2
REMARK VINA RESULT:     -10.9      1.384      2.147
REMARK SMILES COc1cc(C[N@H+]2CCC[C@@](O)(CO)C2)cc(Cl)c1OCC(=O)NCCCNC(=O)c1ccc(-c2c3nc(c(-c4cc(S(=O)(=O)[O-])ccc4F)c4ccc([nH]4)c(-c4cc(S(=O)(=O)[O-])ccc4F)c4nc(c(-c5cc(S(=O)(=O)[O-])ccc5F)c5ccc2[nH]5)C=C4)C=C3)cc1
REMARK SMILES IDX 22 1 23 2 24 3 21 5 20 6 19 7 3 8 4 9 5 10 17 11 16 12 18 13
REMARK SMILES IDX 2 14 1 15 6 16 7 17 8 18 15 19 9 21 11 22 10 23 13 24 14 25
REMARK SMILES IDX 12 27 25 29 26 30 27 31 28 32 29 33 30 35 31 36 32 37 93 38
REMARK SMILES IDX 33 39 92 40 34 41 35 42 36 43 86 44 37 45 91 46 85 47 87 48
REMARK SMILES IDX 38 49 90 50 84 51 83 52 39 54 71 55 51 56 70 57 52 58 55 59
REMARK SMILES IDX 69 60 88 61 53 62 54 63 68 65 89 66 56 67 40 68 41 69 49 70
REMARK SMILES IDX 42 71 48 72 50 73 47 74 43 75 44 76 45 77 46 78 72 79 73 80
REMARK SMILES IDX 81 81 74 82 80 83 82 84 79 85 75 86 76 87 77 88 78 89 57 90
REMARK SMILES IDX 58 91 66 92 59 93 65 94 67 95 64 96 60 97 61 98 62 99 63 100
REMARK H PARENT 24 4 7 20 14 26 12 28 28 34 87 53 55 64
REMARK Flexibility Score: inf
ROOT
ATOM      1  C   UNL A   1      34.498  21.172  26.226  1.00  0.00     0.257 C 
ATOM      2  O   UNL A   1      34.336  21.473  27.413  1.00  0.00    -0.271 OA
ATOM      3  N   UNL A   1      35.783  21.145  25.780  1.00  0.00    -0.353 N 
ATOM      4  H   UNL A   1      36.435  21.601  26.359  1.00  0.00     0.163 HD
ENDROOT
BRANCH   1   5
ATOM      5  C   UNL A   1      33.310  20.743  25.334  1.00  0.00     0.329 C 
BRANCH   5   6
ATOM      6  O   UNL A   1      32.576  21.630  24.518  1.00  0.00    -0.478 OA
BRANCH   6   7
ATOM      7  C   UNL A   1      32.425  22.967  24.767  1.00  0.00     0.180 A 
ATOM      8  C   UNL A   1      31.222  23.280  25.443  1.00  0.00     0.162 A 
ATOM      9  C   UNL A   1      30.757  24.601  25.555  1.00  0.00     0.060 A 
ATOM     10  C   UNL A   1      31.454  25.638  24.929  1.00  0.00     0.012 A 
ATOM     11  C   UNL A   1      33.231  24.043  24.388  1.00  0.00     0.087 A 
ATOM     12  C   UNL A   1      32.726  25.355  24.427  1.00  0.00     0.034 A 
ATOM     13  Cl  UNL A   1      34.893  23.945  23.950  1.00  0.00    -0.080 Cl
BRANCH   8  14
ATOM     14  O   UNL A   1      30.561  22.264  26.099  1.00  0.00    -0.493 OA
ATOM     15  C   UNL A   1      29.619  22.727  27.062  1.00  0.00     0.278 C 
ENDBRANCH   8  14
BRANCH  10  16
ATOM     16  C   UNL A   1      30.865  27.021  24.763  1.00  0.00     0.299 C 
BRANCH  16  17
ATOM     17  N   UNL A   1      30.080  27.222  23.553  1.00  0.00    -0.329 N 
ATOM     18  C   UNL A   1      28.661  26.914  23.535  1.00  0.00     0.262 C 
ATOM     19  C   UNL A   1      30.521  28.186  22.553  1.00  0.00     0.300 C 
ATOM     20  H   UNL A   1      30.461  26.351  23.183  1.00  0.00     0.348 HD
ATOM     21  C   UNL A   1      27.760  28.151  23.464  1.00  0.00     0.065 C 
ATOM     22  C   UNL A   1      29.653  29.460  22.407  1.00  0.00     0.136 C 
ATOM     23  C   UNL A   1      28.166  29.088  22.326  1.00  0.00     0.049 C 
BRANCH  22  24
ATOM     24  C   UNL A   1      29.903  30.450  23.546  1.00  0.00     0.197 C 
BRANCH  24  25
ATOM     25  O   UNL A   1      29.414  31.750  23.207  1.00  0.00    -0.393 OA
ATOM     26  H   UNL A   1      30.080  32.218  22.680  1.00  0.00     0.210 HD
ENDBRANCH  24  25
ENDBRANCH  22  24
BRANCH  22  27
ATOM     27  O   UNL A   1      30.027  30.128  21.194  1.00  0.00    -0.382 OA
ATOM     28  H   UNL A   1      30.950  29.919  20.982  1.00  0.00     0.211 HD
ENDBRANCH  22  27
ENDBRANCH  16  17
ENDBRANCH  10  16
ENDBRANCH   6   7
ENDBRANCH   5   6
ENDBRANCH   1   5
BRANCH   3  29
ATOM     29  C   UNL A   1      36.338  20.550  24.584  1.00  0.00     0.117 C 
BRANCH  29  30
ATOM     30  C   UNL A   1      37.472  19.583  24.890  1.00  0.00     0.042 C 
BRANCH  30  31
ATOM     31  C   UNL A   1      38.501  20.056  25.917  1.00  0.00     0.118 C 
BRANCH  31  32
ATOM     32  N   UNL A   1      39.725  19.270  25.932  1.00  0.00    -0.352 N 
ATOM     33  C   UNL A   1      41.033  19.653  26.137  1.00  0.00     0.251 C 
ATOM     34  H   UNL A   1      39.598  18.308  25.770  1.00  0.00     0.163 HD
ATOM     35  O   UNL A   1      41.923  18.823  25.982  1.00  0.00    -0.269 OA
BRANCH  33  36
ATOM     36  C   UNL A   1      41.376  21.049  26.501  1.00  0.00     0.039 A 
ATOM     37  C   UNL A   1      42.073  21.278  27.693  1.00  0.00     0.014 A 
ATOM     38  C   UNL A   1      41.005  22.131  25.701  1.00  0.00     0.014 A 
ATOM     39  C   UNL A   1      42.465  22.577  28.035  1.00  0.00     0.010 A 
ATOM     40  C   UNL A   1      41.470  23.413  26.000  1.00  0.00     0.010 A 
ATOM     41  C   UNL A   1      42.207  23.652  27.169  1.00  0.00    -0.014 A 
BRANCH  41  42
ATOM     42  C   UNL A   1      42.706  25.022  27.469  1.00  0.00     0.031 A 
ATOM     43  C   UNL A   1      41.834  26.008  28.200  1.00  0.00     0.074 A 
ATOM     44  C   UNL A   1      43.926  25.399  27.035  1.00  0.00     0.049 A 
ATOM     45  N   UNL A   1      42.070  27.261  28.501  1.00  0.00    -0.248 NA
ATOM     46  C   UNL A   1      40.512  25.528  28.624  1.00  0.00     0.031 C 
ATOM     47  C   UNL A   1      44.858  24.548  26.290  1.00  0.00     0.029 A 
ATOM     48  N   UNL A   1      44.595  26.593  27.153  1.00  0.00    -0.354 N 
ATOM     49  C   UNL A   1      40.920  27.723  29.136  1.00  0.00     0.074 A 
ATOM     50  C   UNL A   1      39.969  26.631  29.116  1.00  0.00     0.031 C 
ATOM     51  C   UNL A   1      45.987  25.234  26.053  1.00  0.00     0.029 A 
ATOM     52  C   UNL A   1      45.844  26.589  26.575  1.00  0.00     0.049 A 
ATOM     53  H   UNL A   1      44.216  27.379  27.608  1.00  0.00     0.167 HD
ATOM     54  C   UNL A   1      40.689  28.936  29.700  1.00  0.00     0.034 A 
ATOM     55  C   UNL A   1      46.766  27.567  26.466  1.00  0.00     0.034 A 
ATOM     56  C   UNL A   1      41.650  30.012  29.713  1.00  0.00     0.049 A 
ATOM     57  C   UNL A   1      46.463  28.923  27.052  1.00  0.00     0.074 A 
ATOM     58  C   UNL A   1      41.541  31.258  30.307  1.00  0.00     0.029 A 
ATOM     59  N   UNL A   1      42.893  29.982  29.090  1.00  0.00    -0.354 N 
ATOM     60  N   UNL A   1      45.395  29.327  27.699  1.00  0.00    -0.248 NA
ATOM     61  C   UNL A   1      47.496  29.956  26.896  1.00  0.00     0.031 C 
ATOM     62  C   UNL A   1      42.674  32.007  29.971  1.00  0.00     0.029 A 
ATOM     63  C   UNL A   1      43.537  31.200  29.247  1.00  0.00     0.049 A 
ATOM     64  H   UNL A   1      43.261  29.207  28.606  1.00  0.00     0.167 HD
ATOM     65  C   UNL A   1      45.645  30.648  28.061  1.00  0.00     0.074 A 
ATOM     66  C   UNL A   1      46.971  30.967  27.570  1.00  0.00     0.031 C 
ATOM     67  C   UNL A   1      44.855  31.515  28.744  1.00  0.00     0.034 A 
BRANCH  54  68
ATOM     68  C   UNL A   1      39.325  29.166  30.315  1.00  0.00     0.023 A 
ATOM     69  C   UNL A   1      38.325  29.897  29.649  1.00  0.00     0.031 A 
ATOM     70  C   UNL A   1      39.032  28.682  31.602  1.00  0.00     0.131 A 
ATOM     71  C   UNL A   1      37.124  30.203  30.305  1.00  0.00     0.055 A 
ATOM     72  C   UNL A   1      37.797  28.908  32.213  1.00  0.00     0.041 A 
ATOM     73  F   UNL A   1      39.950  27.995  32.301  1.00  0.00    -0.206 F 
ATOM     74  C   UNL A   1      36.841  29.690  31.572  1.00  0.00     0.022 A 
BRANCH  71  75
ATOM     75  S   UNL A   1      36.015  31.427  29.553  1.00  0.00     0.124 S 
ATOM     76  O   UNL A   1      36.967  32.414  29.046  1.00  0.00    -0.237 OA
ATOM     77  O   UNL A   1      35.314  30.640  28.545  1.00  0.00    -0.237 OA
ATOM     78  O   UNL A   1      35.196  31.882  30.674  1.00  0.00    -0.744 OA
ENDBRANCH  71  75
ENDBRANCH  54  68
BRANCH  55  79
ATOM     79  C   UNL A   1      48.065  27.312  25.777  1.00  0.00     0.023 A 
ATOM     80  C   UNL A   1      48.206  27.550  24.400  1.00  0.00     0.031 A 
ATOM     81  C   UNL A   1      49.168  26.784  26.469  1.00  0.00     0.131 A 
ATOM     82  C   UNL A   1      49.404  27.214  23.749  1.00  0.00     0.055 A 
ATOM     83  C   UNL A   1      50.378  26.507  25.830  1.00  0.00     0.041 A 
ATOM     84  F   UNL A   1      49.090  26.540  27.787  1.00  0.00    -0.206 F 
ATOM     85  C   UNL A   1      50.496  26.709  24.458  1.00  0.00     0.022 A 
BRANCH  82  86
ATOM     86  S   UNL A   1      49.482  27.361  21.944  1.00  0.00     0.124 S 
ATOM     87  O   UNL A   1      48.909  26.090  21.518  1.00  0.00    -0.237 OA
ATOM     88  O   UNL A   1      48.668  28.548  21.700  1.00  0.00    -0.237 OA
ATOM     89  O   UNL A   1      50.910  27.524  21.678  1.00  0.00    -0.744 OA
ENDBRANCH  82  86
ENDBRANCH  55  79
BRANCH  67  90
ATOM     90  C   UNL A   1      45.430  32.881  29.047  1.00  0.00     0.023 A 
ATOM     91  C   UNL A   1      45.141  34.005  28.254  1.00  0.00     0.031 A 
ATOM     92  C   UNL A   1      46.295  33.053  30.143  1.00  0.00     0.131 A 
ATOM     93  C   UNL A   1      45.757  35.235  28.531  1.00  0.00     0.055 A 
ATOM     94  C   UNL A   1      46.851  34.295  30.456  1.00  0.00     0.041 A 
ATOM     95  F   UNL A   1      46.614  32.015  30.933  1.00  0.00    -0.206 F 
ATOM     96  C   UNL A   1      46.594  35.391  29.639  1.00  0.00     0.022 A 
BRANCH  93  97
ATOM     97  S   UNL A   1      45.536  36.605  27.363  1.00  0.00     0.124 S 
ATOM     98  O   UNL A   1      45.669  37.769  28.231  1.00  0.00    -0.237 OA
ATOM     99  O   UNL A   1      46.625  36.387  26.415  1.00  0.00    -0.237 OA
ATOM    100  O   UNL A   1      44.195  36.383  26.823  1.00  0.00    -0.744 OA
ENDBRANCH  93  97
ENDBRANCH  67  90
ENDBRANCH  41  42
ENDBRANCH  33  36
ENDBRANCH  31  32
ENDBRANCH  30  31
ENDBRANCH  29  30
ENDBRANCH   3  29
TORSDOF 21
ENDMDL
MODEL 3
REMARK VINA RESULT:     -10.8      1.992      2.295
REMARK SMILES COc1cc(C[N@H+]2CCC[C@@](O)(CO)C2)cc(Cl)c1OCC(=O)NCCCNC(=O)c1ccc(-c2c3nc(c(-c4cc(S(=O)(=O)[O-])ccc4F)c4ccc([nH]4)c(-c4cc(S(=O)(=O)[O-])ccc4F)c4nc(c(-c5cc(S(=O)(=O)[O-])ccc5F)c5ccc2[nH]5)C=C4)C=C3)cc1
REMARK SMILES IDX 22 1 23 2 24 3 21 5 20 6 19 7 3 8 4 9 5 10 17 11 16 12 18 13
REMARK SMILES IDX 2 14 1 15 6 16 7 17 8 18 15 19 9 21 11 22 10 23 13 24 14 25
REMARK SMILES IDX 12 27 25 29 26 30 27 31 28 32 29 33 30 35 31 36 32 37 93 38
REMARK SMILES IDX 33 39 92 40 34 41 35 42 36 43 86 44 37 45 91 46 85 47 87 48
REMARK SMILES IDX 38 49 90 50 84 51 83 52 39 54 71 55 51 56 70 57 52 58 55 59
REMARK SMILES IDX 69 60 88 61 53 62 54 63 68 65 89 66 56 67 40 68 41 69 49 70
REMARK SMILES IDX 42 71 48 72 50 73 47 74 43 75 44 76 45 77 46 78 72 79 73 80
REMARK SMILES IDX 81 81 74 82 80 83 82 84 79 85 75 86 76 87 77 88 78 89 57 90
REMARK SMILES IDX 58 91 66 92 59 93 65 94 67 95 64 96 60 97 61 98 62 99 63 100
REMARK H PARENT 24 4 7 20 14 26 12 28 28 34 87 53 55 64
REMARK Flexibility Score: inf
ROOT
ATOM      1  C   UNL A   1      34.377  19.469  24.680  1.00  0.00     0.257 C 
ATOM      2  O   UNL A   1      33.871  18.423  24.264  1.00  0.00    -0.271 OA
ATOM      3  N   UNL A   1      35.686  19.404  25.046  1.00  0.00    -0.353 N 
ATOM      4  H   UNL A   1      36.036  18.495  25.181  1.00  0.00     0.163 HD
ENDROOT
BRANCH   1   5
ATOM      5  C   UNL A   1      33.591  20.801  24.678  1.00  0.00     0.329 C 
BRANCH   5   6
ATOM      6  O   UNL A   1      33.607  21.728  25.741  1.00  0.00    -0.478 OA
BRANCH   6   7
ATOM      7  C   UNL A   1      33.098  22.995  25.673  1.00  0.00     0.180 A 
ATOM      8  C   UNL A   1      34.054  23.966  25.294  1.00  0.00     0.162 A 
ATOM      9  C   UNL A   1      33.803  25.343  25.420  1.00  0.00     0.060 A 
ATOM     10  C   UNL A   1      32.609  25.781  25.999  1.00  0.00     0.012 A 
ATOM     11  C   UNL A   1      31.820  23.463  25.993  1.00  0.00     0.087 A 
ATOM     12  C   UNL A   1      31.599  24.837  26.198  1.00  0.00     0.034 A 
ATOM     13  Cl  UNL A   1      30.392  22.505  26.070  1.00  0.00    -0.080 Cl
BRANCH   8  14
ATOM     14  O   UNL A   1      35.211  23.535  24.681  1.00  0.00    -0.493 OA
ATOM     15  C   UNL A   1      36.397  24.044  25.283  1.00  0.00     0.278 C 
ENDBRANCH   8  14
BRANCH  10  16
ATOM     16  C   UNL A   1      32.399  27.216  26.428  1.00  0.00     0.299 C 
BRANCH  16  17
ATOM     17  N   UNL A   1      32.304  28.182  25.342  1.00  0.00    -0.329 N 
ATOM     18  C   UNL A   1      33.452  28.993  24.975  1.00  0.00     0.262 C 
ATOM     19  C   UNL A   1      31.308  28.001  24.294  1.00  0.00     0.300 C 
ATOM     20  H   UNL A   1      31.824  28.820  25.976  1.00  0.00     0.348 HD
ATOM     21  C   UNL A   1      34.072  28.614  23.626  1.00  0.00     0.065 C 
ATOM     22  C   UNL A   1      31.855  27.631  22.893  1.00  0.00     0.136 C 
ATOM     23  C   UNL A   1      33.023  28.552  22.514  1.00  0.00     0.049 C 
BRANCH  22  24
ATOM     24  C   UNL A   1      32.276  26.163  22.817  1.00  0.00     0.197 C 
BRANCH  24  25
ATOM     25  O   UNL A   1      31.202  25.349  22.341  1.00  0.00    -0.393 OA
ATOM     26  H   UNL A   1      31.545  24.480  22.082  1.00  0.00     0.210 HD
ENDBRANCH  24  25
ENDBRANCH  22  24
BRANCH  22  27
ATOM     27  O   UNL A   1      30.803  27.806  21.934  1.00  0.00    -0.382 OA
ATOM     28  H   UNL A   1      31.176  27.788  21.039  1.00  0.00     0.211 HD
ENDBRANCH  22  27
ENDBRANCH  16  17
ENDBRANCH  10  16
ENDBRANCH   6   7
ENDBRANCH   5   6
ENDBRANCH   1   5
BRANCH   3  29
ATOM     29  C   UNL A   1      36.642  20.467  25.267  1.00  0.00     0.117 C 
BRANCH  29  30
ATOM     30  C   UNL A   1      38.043  20.092  24.807  1.00  0.00     0.042 C 
BRANCH  30  31
ATOM     31  C   UNL A   1      39.183  20.450  25.762  1.00  0.00     0.118 C 
BRANCH  31  32
ATOM     32  N   UNL A   1      40.195  19.412  25.889  1.00  0.00    -0.352 N 
ATOM     33  C   UNL A   1      41.550  19.506  26.123  1.00  0.00     0.251 C 
ATOM     34  H   UNL A   1      39.856  18.494  25.794  1.00  0.00     0.163 HD
ATOM     35  O   UNL A   1      42.231  18.487  26.068  1.00  0.00    -0.269 OA
BRANCH  33  36
ATOM     36  C   UNL A   1      42.193  20.814  26.397  1.00  0.00     0.039 A 
ATOM     37  C   UNL A   1      42.488  21.654  25.317  1.00  0.00     0.014 A 
ATOM     38  C   UNL A   1      42.527  21.213  27.692  1.00  0.00     0.014 A 
ATOM     39  C   UNL A   1      43.038  22.920  25.547  1.00  0.00     0.010 A 
ATOM     40  C   UNL A   1      42.996  22.507  27.925  1.00  0.00     0.010 A 
ATOM     41  C   UNL A   1      43.255  23.377  26.856  1.00  0.00    -0.014 A 
BRANCH  41  42
ATOM     42  C   UNL A   1      43.745  24.759  27.121  1.00  0.00     0.031 A 
ATOM     43  C   UNL A   1      42.819  25.799  27.693  1.00  0.00     0.074 A 
ATOM     44  C   UNL A   1      45.010  25.093  26.795  1.00  0.00     0.049 A 
ATOM     45  N   UNL A   1      43.044  27.065  27.938  1.00  0.00    -0.248 NA
ATOM     46  C   UNL A   1      41.451  25.362  28.004  1.00  0.00     0.031 C 
ATOM     47  C   UNL A   1      45.999  24.186  26.208  1.00  0.00     0.029 A 
ATOM     48  N   UNL A   1      45.684  26.284  26.908  1.00  0.00    -0.354 N 
ATOM     49  C   UNL A   1      41.843  27.580  28.418  1.00  0.00     0.074 A 
ATOM     50  C   UNL A   1      40.880  26.500  28.366  1.00  0.00     0.031 C 
ATOM     51  C   UNL A   1      47.158  24.842  26.049  1.00  0.00     0.029 A 
ATOM     52  C   UNL A   1      46.987  26.230  26.467  1.00  0.00     0.049 A 
ATOM     53  H   UNL A   1      45.273  27.102  27.272  1.00  0.00     0.167 HD
ATOM     54  C   UNL A   1      41.575  28.829  28.878  1.00  0.00     0.034 A 
ATOM     55  C   UNL A   1      47.932  27.188  26.396  1.00  0.00     0.034 A 
ATOM     56  C   UNL A   1      42.549  29.893  28.926  1.00  0.00     0.049 A 
ATOM     57  C   UNL A   1      47.594  28.582  26.860  1.00  0.00     0.074 A 
ATOM     58  C   UNL A   1      42.401  31.175  29.426  1.00  0.00     0.029 A 
ATOM     59  N   UNL A   1      43.849  29.809  28.440  1.00  0.00    -0.354 N 
ATOM     60  N   UNL A   1      46.471  29.038  27.365  1.00  0.00    -0.248 NA
ATOM     61  C   UNL A   1      48.656  29.592  26.750  1.00  0.00     0.031 C 
ATOM     62  C   UNL A   1      43.576  31.889  29.165  1.00  0.00     0.029 A 
ATOM     63  C   UNL A   1      44.495  31.027  28.588  1.00  0.00     0.049 A 
ATOM     64  H   UNL A   1      44.252  29.000  28.048  1.00  0.00     0.167 HD
ATOM     65  C   UNL A   1      46.706  30.377  27.668  1.00  0.00     0.074 A 
ATOM     66  C   UNL A   1      48.081  30.649  27.301  1.00  0.00     0.031 C 
ATOM     67  C   UNL A   1      45.864  31.295  28.209  1.00  0.00     0.034 A 
BRANCH  54  68
ATOM     68  C   UNL A   1      40.160  29.114  29.330  1.00  0.00     0.023 A 
ATOM     69  C   UNL A   1      39.789  29.062  30.686  1.00  0.00     0.031 A 
ATOM     70  C   UNL A   1      39.155  29.404  28.390  1.00  0.00     0.131 A 
ATOM     71  C   UNL A   1      38.442  29.201  31.052  1.00  0.00     0.055 A 
ATOM     72  C   UNL A   1      37.832  29.636  28.770  1.00  0.00     0.041 A 
ATOM     73  F   UNL A   1      39.438  29.447  27.078  1.00  0.00    -0.206 F 
ATOM     74  C   UNL A   1      37.464  29.516  30.106  1.00  0.00     0.022 A 
BRANCH  71  75
ATOM     75  S   UNL A   1      37.961  28.787  32.752  1.00  0.00     0.124 S 
ATOM     76  O   UNL A   1      38.983  29.490  33.527  1.00  0.00    -0.237 OA
ATOM     77  O   UNL A   1      36.610  29.329  32.839  1.00  0.00    -0.237 OA
ATOM     78  O   UNL A   1      38.056  27.329  32.790  1.00  0.00    -0.744 OA
ENDBRANCH  71  75
ENDBRANCH  54  68
BRANCH  55  79
ATOM     79  C   UNL A   1      49.291  26.875  25.864  1.00  0.00     0.023 A 
ATOM     80  C   UNL A   1      50.360  26.609  26.735  1.00  0.00     0.031 A 
ATOM     81  C   UNL A   1      49.555  26.884  24.484  1.00  0.00     0.131 A 
ATOM     82  C   UNL A   1      51.651  26.412  26.221  1.00  0.00     0.055 A 
ATOM     83  C   UNL A   1      50.829  26.629  23.973  1.00  0.00     0.041 A 
ATOM     84  F   UNL A   1      48.570  27.130  23.605  1.00  0.00    -0.206 F 
ATOM     85  C   UNL A   1      51.890  26.404  24.845  1.00  0.00     0.022 A 
BRANCH  82  86
ATOM     86  S   UNL A   1      53.034  26.257  27.384  1.00  0.00     0.124 S 
ATOM     87  O   UNL A   1      53.659  25.019  26.937  1.00  0.00    -0.237 OA
ATOM     88  O   UNL A   1      53.782  27.484  27.132  1.00  0.00    -0.237 OA
ATOM     89  O   UNL A   1      52.375  26.189  28.688  1.00  0.00    -0.744 OA
ENDBRANCH  82  86
ENDBRANCH  55  79
BRANCH  67  90
ATOM     90  C   UNL A   1      46.429  32.670  28.485  1.00  0.00     0.023 A 
ATOM     91  C   UNL A   1      46.394  33.698  27.526  1.00  0.00     0.031 A 
ATOM     92  C   UNL A   1      47.025  32.950  29.728  1.00  0.00     0.131 A 
ATOM     93  C   UNL A   1      46.997  34.934  27.802  1.00  0.00     0.055 A 
ATOM     94  C   UNL A   1      47.562  34.205  30.023  1.00  0.00     0.041 A 
ATOM     95  F   UNL A   1      47.094  32.007  30.681  1.00  0.00    -0.206 F 
ATOM     96  C   UNL A   1      47.563  35.200  29.052  1.00  0.00     0.022 A 
BRANCH  93  97
ATOM     97  S   UNL A   1      47.129  36.158  26.470  1.00  0.00     0.124 S 
ATOM     98  O   UNL A   1      46.121  35.689  25.525  1.00  0.00    -0.237 OA
ATOM     99  O   UNL A   1      46.824  37.407  27.161  1.00  0.00    -0.237 OA
ATOM    100  O   UNL A   1      48.513  36.025  26.017  1.00  0.00    -0.744 OA
ENDBRANCH  93  97
ENDBRANCH  67  90
ENDBRANCH  41  42
ENDBRANCH  33  36
ENDBRANCH  31  32
ENDBRANCH  30  31
ENDBRANCH  29  30
ENDBRANCH   3  29
TORSDOF 21
ENDMDL
