MODEL 1
REMARK VINA RESULT:     -12.9      0.000      0.000
REMARK SMILES CCN(c1cccc(C)c1)c1nc(OCC(=O)NCCCNC(=O)c2ccc(-c3c4nc(c(-c5cc(S(=O)(=O)[O-])ccc5F)c5ccc([nH]5)c(-c5cc(S(=O)(=O)[O-])ccc5F)c5nc(c(-c6cc(S(=O)(=O)[O-])ccc6F)c6ccc3[nH]6)C=C5)C=C4)cc2)cc(-c2ccc(C)cc2)n1
REMARK SMILES IDX 19 1 18 2 16 3 17 4 15 6 14 7 13 8 11 9 12 10 97 11 89 12
REMARK SMILES IDX 88 13 3 14 2 15 1 16 4 17 5 18 10 19 6 20 8 21 7 22 9 23
REMARK SMILES IDX 90 24 91 25 96 26 92 27 95 28 93 29 94 30 20 31 21 32 22 33
REMARK SMILES IDX 23 34 24 36 25 37 26 38 87 39 27 40 86 41 28 42 29 43 30 44
REMARK SMILES IDX 80 45 31 46 85 47 79 48 81 49 32 50 84 51 78 52 77 53 33 55
REMARK SMILES IDX 65 56 45 57 64 58 46 59 49 60 63 61 82 62 47 63 48 64 62 66
REMARK SMILES IDX 83 67 50 68 34 69 35 70 43 71 36 72 42 73 44 74 41 75 37 76
REMARK SMILES IDX 38 77 39 78 40 79 66 80 67 81 75 82 68 83 74 84 76 85 73 86
REMARK SMILES IDX 69 87 70 88 71 89 72 90 51 91 52 92 60 93 53 94 59 95 61 96
REMARK SMILES IDX 58 97 54 98 55 99 56 100 57 101
REMARK H PARENT 18 5 22 35 81 54 49 65
REMARK Flexibility Score: inf
ROOT
ATOM      1  C   UNL A   1      35.418  22.745  25.647  1.00  0.00     0.117 C 
ENDROOT
BRANCH   1   2
ATOM      2  N   UNL A   1      34.727  22.475  26.897  1.00  0.00    -0.353 N 
ATOM      3  C   UNL A   1      33.445  22.782  27.250  1.00  0.00     0.258 C 
ATOM      4  O   UNL A   1      33.016  22.532  28.379  1.00  0.00    -0.271 OA
ATOM      5  H   UNL A   1      35.255  22.007  27.582  1.00  0.00     0.163 HD
BRANCH   3   6
ATOM      6  C   UNL A   1      32.524  23.428  26.208  1.00  0.00     0.331 C 
BRANCH   6   7
ATOM      7  O   UNL A   1      31.662  24.464  26.643  1.00  0.00    -0.467 OA
BRANCH   7   8
ATOM      8  C   UNL A   1      31.885  25.723  26.162  1.00  0.00     0.219 A 
ATOM      9  C   UNL A   1      31.458  27.114  24.367  1.00  0.00     0.233 A 
ATOM     10  N   UNL A   1      31.279  25.933  24.984  1.00  0.00    -0.177 NA
ATOM     11  N   UNL A   1      32.185  28.104  24.905  1.00  0.00    -0.212 NA
ATOM     12  C   UNL A   1      32.737  27.890  26.115  1.00  0.00     0.080 A 
ATOM     13  C   UNL A   1      32.612  26.696  26.789  1.00  0.00     0.097 A 
BRANCH   9  14
ATOM     14  N   UNL A   1      30.821  27.313  23.126  1.00  0.00    -0.311 N 
BRANCH  14  15
ATOM     15  C   UNL A   1      31.358  26.514  22.019  1.00  0.00     0.122 C 
ATOM     16  C   UNL A   1      32.880  26.534  21.946  1.00  0.00     0.028 C 
ENDBRANCH  14  15
BRANCH  14  17
ATOM     17  C   UNL A   1      29.678  28.111  22.944  1.00  0.00     0.044 A 
ATOM     18  C   UNL A   1      28.398  27.733  23.373  1.00  0.00     0.026 A 
ATOM     19  C   UNL A   1      29.798  29.372  22.328  1.00  0.00     0.029 A 
ATOM     20  C   UNL A   1      27.292  28.570  23.189  1.00  0.00     0.002 A 
ATOM     21  C   UNL A   1      28.699  30.222  22.132  1.00  0.00    -0.049 A 
ATOM     22  C   UNL A   1      27.439  29.808  22.566  1.00  0.00     0.003 A 
ATOM     23  C   UNL A   1      28.899  31.550  21.466  1.00  0.00     0.044 C 
ENDBRANCH  14  17
ENDBRANCH   9  14
BRANCH  12  24
ATOM     24  C   UNL A   1      33.432  29.023  26.734  1.00  0.00     0.000 A 
ATOM     25  C   UNL A   1      32.755  30.221  27.011  1.00  0.00     0.010 A 
ATOM     26  C   UNL A   1      34.813  28.969  26.977  1.00  0.00     0.010 A 
ATOM     27  C   UNL A   1      33.442  31.341  27.482  1.00  0.00     0.004 A 
ATOM     28  C   UNL A   1      35.505  30.093  27.437  1.00  0.00     0.004 A 
ATOM     29  C   UNL A   1      34.826  31.291  27.683  1.00  0.00    -0.051 A 
ATOM     30  C   UNL A   1      35.581  32.510  28.121  1.00  0.00     0.044 C 
ENDBRANCH  12  24
ENDBRANCH   7   8
ENDBRANCH   6   7
ENDBRANCH   3   6
ENDBRANCH   1   2
BRANCH   1  31
ATOM     31  C   UNL A   1      36.882  22.328  25.695  1.00  0.00     0.042 C 
BRANCH  31  32
ATOM     32  C   UNL A   1      37.854  23.502  25.783  1.00  0.00     0.118 C 
BRANCH  32  33
ATOM     33  N   UNL A   1      39.184  23.128  26.273  1.00  0.00    -0.352 N 
ATOM     34  C   UNL A   1      40.061  23.865  27.055  1.00  0.00     0.251 C 
ATOM     35  H   UNL A   1      39.496  22.232  26.012  1.00  0.00     0.163 HD
ATOM     36  O   UNL A   1      41.133  23.416  27.419  1.00  0.00    -0.269 OA
BRANCH  34  37
ATOM     37  C   UNL A   1      39.615  25.192  27.542  1.00  0.00     0.039 A 
ATOM     38  C   UNL A   1      40.044  26.320  26.834  1.00  0.00     0.014 A 
ATOM     39  C   UNL A   1      39.001  25.320  28.783  1.00  0.00     0.014 A 
ATOM     40  C   UNL A   1      40.077  27.553  27.480  1.00  0.00     0.010 A 
ATOM     41  C   UNL A   1      39.113  26.523  29.455  1.00  0.00     0.010 A 
ATOM     42  C   UNL A   1      39.713  27.620  28.827  1.00  0.00    -0.014 A 
BRANCH  42  43
ATOM     43  C   UNL A   1      40.079  28.744  29.683  1.00  0.00     0.031 A 
ATOM     44  C   UNL A   1      39.095  29.777  30.054  1.00  0.00     0.074 A 
ATOM     45  C   UNL A   1      41.344  28.860  30.145  1.00  0.00     0.049 A 
ATOM     46  N   UNL A   1      39.399  31.015  30.267  1.00  0.00    -0.248 NA
ATOM     47  C   UNL A   1      37.671  29.498  30.187  1.00  0.00     0.031 C 
ATOM     48  C   UNL A   1      41.832  29.787  31.161  1.00  0.00     0.029 A 
ATOM     49  N   UNL A   1      42.496  28.315  29.588  1.00  0.00    -0.354 N 
ATOM     50  C   UNL A   1      38.301  31.618  30.830  1.00  0.00     0.074 A 
ATOM     51  C   UNL A   1      37.229  30.655  30.691  1.00  0.00     0.031 C 
ATOM     52  C   UNL A   1      43.154  29.951  30.997  1.00  0.00     0.029 A 
ATOM     53  C   UNL A   1      43.536  29.236  29.794  1.00  0.00     0.049 A 
ATOM     54  H   UNL A   1      42.568  27.445  29.134  1.00  0.00     0.167 HD
ATOM     55  C   UNL A   1      38.431  32.803  31.489  1.00  0.00     0.034 A 
ATOM     56  C   UNL A   1      44.245  29.755  28.750  1.00  0.00     0.034 A 
ATOM     57  C   UNL A   1      39.812  33.276  31.513  1.00  0.00     0.049 A 
ATOM     58  C   UNL A   1      44.183  31.261  28.663  1.00  0.00     0.074 A 
ATOM     59  C   UNL A   1      40.805  33.217  32.477  1.00  0.00     0.029 A 
ATOM     60  N   UNL A   1      40.432  33.675  30.336  1.00  0.00    -0.354 N 
ATOM     61  N   UNL A   1      43.320  31.997  29.305  1.00  0.00    -0.248 NA
ATOM     62  C   UNL A   1      45.069  32.052  27.819  1.00  0.00     0.031 C 
ATOM     63  C   UNL A   1      42.036  33.558  31.865  1.00  0.00     0.029 A 
ATOM     64  C   UNL A   1      41.789  33.848  30.534  1.00  0.00     0.049 A 
ATOM     65  H   UNL A   1      39.969  33.815  29.478  1.00  0.00     0.167 HD
ATOM     66  C   UNL A   1      43.485  33.317  28.957  1.00  0.00     0.074 A 
ATOM     67  C   UNL A   1      44.617  33.298  28.048  1.00  0.00     0.031 C 
ATOM     68  C   UNL A   1      42.654  34.290  29.444  1.00  0.00     0.034 A 
BRANCH  55  69
ATOM     69  C   UNL A   1      37.350  33.357  32.385  1.00  0.00     0.023 A 
ATOM     70  C   UNL A   1      36.182  33.905  31.816  1.00  0.00     0.031 A 
ATOM     71  C   UNL A   1      37.424  33.401  33.789  1.00  0.00     0.131 A 
ATOM     72  C   UNL A   1      35.220  34.557  32.607  1.00  0.00     0.055 A 
ATOM     73  C   UNL A   1      36.498  34.102  34.573  1.00  0.00     0.041 A 
ATOM     74  F   UNL A   1      38.383  32.741  34.457  1.00  0.00    -0.206 F 
ATOM     75  C   UNL A   1      35.396  34.701  33.979  1.00  0.00     0.022 A 
BRANCH  72  76
ATOM     76  S   UNL A   1      33.725  35.211  31.813  1.00  0.00     0.124 S 
ATOM     77  O   UNL A   1      33.994  36.644  31.772  1.00  0.00    -0.237 OA
ATOM     78  O   UNL A   1      33.729  34.517  30.530  1.00  0.00    -0.237 OA
ATOM     79  O   UNL A   1      32.654  34.811  32.725  1.00  0.00    -0.744 OA
ENDBRANCH  72  76
ENDBRANCH  55  69
BRANCH  56  80
ATOM     80  C   UNL A   1      44.357  28.821  27.594  1.00  0.00     0.023 A 
ATOM     81  C   UNL A   1      45.146  27.669  27.792  1.00  0.00     0.031 A 
ATOM     82  C   UNL A   1      43.427  28.808  26.548  1.00  0.00     0.131 A 
ATOM     83  C   UNL A   1      44.843  26.486  27.108  1.00  0.00     0.055 A 
ATOM     84  C   UNL A   1      43.202  27.649  25.793  1.00  0.00     0.041 A 
ATOM     85  F   UNL A   1      42.632  29.865  26.325  1.00  0.00    -0.206 F 
ATOM     86  C   UNL A   1      43.875  26.465  26.105  1.00  0.00     0.022 A 
BRANCH  83  87
ATOM     87  S   UNL A   1      45.498  24.942  27.797  1.00  0.00     0.124 S 
ATOM     88  O   UNL A   1      46.543  25.414  28.696  1.00  0.00    -0.237 OA
ATOM     89  O   UNL A   1      44.316  24.367  28.442  1.00  0.00    -0.237 OA
ATOM     90  O   UNL A   1      45.962  24.195  26.632  1.00  0.00    -0.744 OA
ENDBRANCH  83  87
ENDBRANCH  56  80
BRANCH  68  91
ATOM     91  C   UNL A   1      42.606  35.750  29.024  1.00  0.00     0.023 A 
ATOM     92  C   UNL A   1      43.401  36.758  29.589  1.00  0.00     0.031 A 
ATOM     93  C   UNL A   1      41.761  36.177  27.964  1.00  0.00     0.131 A 
ATOM     94  C   UNL A   1      43.298  38.100  29.171  1.00  0.00     0.055 A 
ATOM     95  C   UNL A   1      41.710  37.497  27.504  1.00  0.00     0.041 A 
ATOM     96  F   UNL A   1      40.949  35.328  27.317  1.00  0.00    -0.206 F 
ATOM     97  C   UNL A   1      42.472  38.474  28.117  1.00  0.00     0.022 A 
BRANCH  94  98
ATOM     98  S   UNL A   1      44.239  39.355  30.078  1.00  0.00     0.124 S 
ATOM     99  O   UNL A   1      45.573  38.762  30.115  1.00  0.00    -0.237 OA
ATOM    100  O   UNL A   1      44.094  40.532  29.228  1.00  0.00    -0.237 OA
ATOM    101  O   UNL A   1      43.559  39.433  31.369  1.00  0.00    -0.744 OA
ENDBRANCH  94  98
ENDBRANCH  68  91
ENDBRANCH  42  43
ENDBRANCH  34  37
ENDBRANCH  32  33
ENDBRANCH  31  32
ENDBRANCH   1  31
TORSDOF 19
ENDMDL
MODEL 2
REMARK VINA RESULT:     -12.3      1.776      2.065
REMARK SMILES CCN(c1cccc(C)c1)c1nc(OCC(=O)NCCCNC(=O)c2ccc(-c3c4nc(c(-c5cc(S(=O)(=O)[O-])ccc5F)c5ccc([nH]5)c(-c5cc(S(=O)(=O)[O-])ccc5F)c5nc(c(-c6cc(S(=O)(=O)[O-])ccc6F)c6ccc3[nH]6)C=C5)C=C4)cc2)cc(-c2ccc(C)cc2)n1
REMARK SMILES IDX 19 1 18 2 16 3 17 4 15 6 14 7 13 8 11 9 12 10 97 11 89 12
REMARK SMILES IDX 88 13 3 14 2 15 1 16 4 17 5 18 10 19 6 20 8 21 7 22 9 23
REMARK SMILES IDX 90 24 91 25 96 26 92 27 95 28 93 29 94 30 20 31 21 32 22 33
REMARK SMILES IDX 23 34 24 36 25 37 26 38 87 39 27 40 86 41 28 42 29 43 30 44
REMARK SMILES IDX 80 45 31 46 85 47 79 48 81 49 32 50 84 51 78 52 77 53 33 55
REMARK SMILES IDX 65 56 45 57 64 58 46 59 49 60 63 61 82 62 47 63 48 64 62 66
REMARK SMILES IDX 83 67 50 68 34 69 35 70 43 71 36 72 42 73 44 74 41 75 37 76
REMARK SMILES IDX 38 77 39 78 40 79 66 80 67 81 75 82 68 83 74 84 76 85 73 86
REMARK SMILES IDX 69 87 70 88 71 89 72 90 51 91 52 92 60 93 53 94 59 95 61 96
REMARK SMILES IDX 58 97 54 98 55 99 56 100 57 101
REMARK H PARENT 18 5 22 35 81 54 49 65
REMARK Flexibility Score: inf
ROOT
ATOM      1  C   UNL A   1      35.417  22.065  25.771  1.00  0.00     0.117 C 
ENDROOT
BRANCH   1   2
ATOM      2  N   UNL A   1      34.710  22.112  24.502  1.00  0.00    -0.353 N 
ATOM      3  C   UNL A   1      33.437  22.529  24.246  1.00  0.00     0.258 C 
ATOM      4  O   UNL A   1      32.956  22.456  23.112  1.00  0.00    -0.271 OA
ATOM      5  H   UNL A   1      35.219  21.799  23.720  1.00  0.00     0.163 HD
BRANCH   3   6
ATOM      6  C   UNL A   1      32.605  23.118  25.393  1.00  0.00     0.331 C 
BRANCH   6   7
ATOM      7  O   UNL A   1      33.189  24.151  26.167  1.00  0.00    -0.467 OA
BRANCH   7   8
ATOM      8  C   UNL A   1      32.965  25.441  25.781  1.00  0.00     0.219 A 
ATOM      9  C   UNL A   1      31.888  26.732  24.195  1.00  0.00     0.233 A 
ATOM     10  N   UNL A   1      32.152  25.522  24.717  1.00  0.00    -0.177 NA
ATOM     11  N   UNL A   1      32.374  27.865  24.725  1.00  0.00    -0.212 NA
ATOM     12  C   UNL A   1      33.142  27.763  25.826  1.00  0.00     0.080 A 
ATOM     13  C   UNL A   1      33.468  26.554  26.396  1.00  0.00     0.097 A 
BRANCH   9  14
ATOM     14  N   UNL A   1      31.040  26.796  23.073  1.00  0.00    -0.311 N 
BRANCH  14  15
ATOM     15  C   UNL A   1      31.375  25.866  21.989  1.00  0.00     0.122 C 
ATOM     16  C   UNL A   1      32.705  26.182  21.315  1.00  0.00     0.028 C 
ENDBRANCH  14  15
BRANCH  14  17
ATOM     17  C   UNL A   1      29.879  27.585  23.004  1.00  0.00     0.044 A 
ATOM     18  C   UNL A   1      28.650  27.198  23.556  1.00  0.00     0.026 A 
ATOM     19  C   UNL A   1      29.929  28.848  22.382  1.00  0.00     0.029 A 
ATOM     20  C   UNL A   1      27.524  28.027  23.481  1.00  0.00     0.002 A 
ATOM     21  C   UNL A   1      28.809  29.690  22.295  1.00  0.00    -0.049 A 
ATOM     22  C   UNL A   1      27.601  29.266  22.850  1.00  0.00     0.003 A 
ATOM     23  C   UNL A   1      28.934  31.020  21.615  1.00  0.00     0.044 C 
ENDBRANCH  14  17
ENDBRANCH   9  14
BRANCH  12  24
ATOM     24  C   UNL A   1      33.567  29.019  26.454  1.00  0.00     0.000 A 
ATOM     25  C   UNL A   1      34.830  29.134  27.053  1.00  0.00     0.010 A 
ATOM     26  C   UNL A   1      32.682  30.103  26.553  1.00  0.00     0.010 A 
ATOM     27  C   UNL A   1      35.186  30.284  27.761  1.00  0.00     0.004 A 
ATOM     28  C   UNL A   1      33.032  31.251  27.272  1.00  0.00     0.004 A 
ATOM     29  C   UNL A   1      34.283  31.345  27.890  1.00  0.00    -0.051 A 
ATOM     30  C   UNL A   1      34.633  32.553  28.708  1.00  0.00     0.044 C 
ENDBRANCH  12  24
ENDBRANCH   7   8
ENDBRANCH   6   7
ENDBRANCH   3   6
ENDBRANCH   1   2
BRANCH   1  31
ATOM     31  C   UNL A   1      36.884  21.691  25.602  1.00  0.00     0.042 C 
BRANCH  31  32
ATOM     32  C   UNL A   1      37.830  22.889  25.615  1.00  0.00     0.118 C 
BRANCH  32  33
ATOM     33  N   UNL A   1      39.229  22.529  25.861  1.00  0.00    -0.352 N 
ATOM     34  C   UNL A   1      40.232  23.287  26.449  1.00  0.00     0.251 C 
ATOM     35  H   UNL A   1      39.493  21.627  25.571  1.00  0.00     0.163 HD
ATOM     36  O   UNL A   1      41.355  22.848  26.619  1.00  0.00    -0.269 OA
BRANCH  34  37
ATOM     37  C   UNL A   1      39.876  24.626  26.974  1.00  0.00     0.039 A 
ATOM     38  C   UNL A   1      40.332  25.743  26.266  1.00  0.00     0.014 A 
ATOM     39  C   UNL A   1      39.322  24.764  28.242  1.00  0.00     0.014 A 
ATOM     40  C   UNL A   1      40.456  26.961  26.927  1.00  0.00     0.010 A 
ATOM     41  C   UNL A   1      39.525  25.948  28.927  1.00  0.00     0.010 A 
ATOM     42  C   UNL A   1      40.153  27.024  28.290  1.00  0.00    -0.014 A 
BRANCH  42  43
ATOM     43  C   UNL A   1      40.612  28.113  29.146  1.00  0.00     0.031 A 
ATOM     44  C   UNL A   1      39.719  29.225  29.518  1.00  0.00     0.074 A 
ATOM     45  C   UNL A   1      41.883  28.121  29.608  1.00  0.00     0.049 A 
ATOM     46  N   UNL A   1      40.126  30.432  29.731  1.00  0.00    -0.248 NA
ATOM     47  C   UNL A   1      38.277  29.066  29.651  1.00  0.00     0.031 C 
ATOM     48  C   UNL A   1      42.448  29.004  30.624  1.00  0.00     0.029 A 
ATOM     49  N   UNL A   1      42.985  27.482  29.051  1.00  0.00    -0.354 N 
ATOM     50  C   UNL A   1      39.083  31.126  30.294  1.00  0.00     0.074 A 
ATOM     51  C   UNL A   1      37.934  30.257  30.155  1.00  0.00     0.031 C 
ATOM     52  C   UNL A   1      43.778  29.056  30.460  1.00  0.00     0.029 A 
ATOM     53  C   UNL A   1      44.099  28.312  29.257  1.00  0.00     0.049 A 
ATOM     54  H   UNL A   1      42.984  26.609  28.596  1.00  0.00     0.167 HD
ATOM     55  C   UNL A   1      39.312  32.295  30.954  1.00  0.00     0.034 A 
ATOM     56  C   UNL A   1      44.848  28.770  28.213  1.00  0.00     0.034 A 
ATOM     57  C   UNL A   1      40.728  32.650  30.977  1.00  0.00     0.049 A 
ATOM     58  C   UNL A   1      44.914  30.275  28.126  1.00  0.00     0.074 A 
ATOM     59  C   UNL A   1      41.713  32.508  31.942  1.00  0.00     0.029 A 
ATOM     60  N   UNL A   1      41.379  32.997  29.800  1.00  0.00    -0.354 N 
ATOM     61  N   UNL A   1      44.116  31.082  28.768  1.00  0.00    -0.248 NA
ATOM     62  C   UNL A   1      45.863  30.990  27.281  1.00  0.00     0.031 C 
ATOM     63  C   UNL A   1      42.969  32.745  31.328  1.00  0.00     0.029 A 
ATOM     64  C   UNL A   1      42.747  33.054  29.998  1.00  0.00     0.049 A 
ATOM     65  H   UNL A   1      40.930  33.175  28.943  1.00  0.00     0.167 HD
ATOM     66  C   UNL A   1      44.391  32.383  28.421  1.00  0.00     0.074 A 
ATOM     67  C   UNL A   1      45.517  32.269  27.512  1.00  0.00     0.031 C 
ATOM     68  C   UNL A   1      43.645  33.422  28.908  1.00  0.00     0.034 A 
BRANCH  55  69
ATOM     69  C   UNL A   1      38.282  32.938  31.850  1.00  0.00     0.023 A 
ATOM     70  C   UNL A   1      38.352  32.753  33.245  1.00  0.00     0.031 A 
ATOM     71  C   UNL A   1      37.201  33.713  31.390  1.00  0.00     0.131 A 
ATOM     72  C   UNL A   1      37.335  33.215  34.098  1.00  0.00     0.055 A 
ATOM     73  C   UNL A   1      36.155  34.123  32.229  1.00  0.00     0.041 A 
ATOM     74  F   UNL A   1      37.132  34.126  30.116  1.00  0.00    -0.206 F 
ATOM     75  C   UNL A   1      36.210  33.859  33.590  1.00  0.00     0.022 A 
BRANCH  72  76
ATOM     76  S   UNL A   1      37.506  32.969  35.887  1.00  0.00     0.124 S 
ATOM     77  O   UNL A   1      36.273  33.554  36.403  1.00  0.00    -0.237 OA
ATOM     78  O   UNL A   1      37.625  31.520  35.989  1.00  0.00    -0.237 OA
ATOM     79  O   UNL A   1      38.723  33.711  36.216  1.00  0.00    -0.744 OA
ENDBRANCH  72  76
ENDBRANCH  55  69
BRANCH  56  80
ATOM     80  C   UNL A   1      44.881  27.830  27.056  1.00  0.00     0.023 A 
ATOM     81  C   UNL A   1      45.728  26.709  27.182  1.00  0.00     0.031 A 
ATOM     82  C   UNL A   1      43.854  27.774  26.107  1.00  0.00     0.131 A 
ATOM     83  C   UNL A   1      45.403  25.510  26.537  1.00  0.00     0.055 A 
ATOM     84  C   UNL A   1      43.600  26.601  25.384  1.00  0.00     0.041 A 
ATOM     85  F   UNL A   1      43.003  28.800  25.957  1.00  0.00    -0.206 F 
ATOM     86  C   UNL A   1      44.343  25.445  25.635  1.00  0.00     0.022 A 
BRANCH  83  87
ATOM     87  S   UNL A   1      46.179  23.997  27.167  1.00  0.00     0.124 S 
ATOM     88  O   UNL A   1      45.130  23.425  28.002  1.00  0.00    -0.237 OA
ATOM     89  O   UNL A   1      46.478  23.267  25.933  1.00  0.00    -0.237 OA
ATOM     90  O   UNL A   1      47.362  24.468  27.880  1.00  0.00    -0.744 OA
ENDBRANCH  83  87
ENDBRANCH  56  80
BRANCH  68  91
ATOM     91  C   UNL A   1      43.720  34.882  28.488  1.00  0.00     0.023 A 
ATOM     92  C   UNL A   1      44.150  35.921  29.326  1.00  0.00     0.031 A 
ATOM     93  C   UNL A   1      43.396  35.277  27.163  1.00  0.00     0.131 A 
ATOM     94  C   UNL A   1      44.180  37.259  28.887  1.00  0.00     0.055 A 
ATOM     95  C   UNL A   1      43.491  36.596  26.707  1.00  0.00     0.041 A 
ATOM     96  F   UNL A   1      42.979  34.397  26.241  1.00  0.00    -0.206 F 
ATOM     97  C   UNL A   1      43.872  37.603  27.575  1.00  0.00     0.022 A 
BRANCH  94  98
ATOM     98  S   UNL A   1      44.584  38.549  30.093  1.00  0.00     0.124 S 
ATOM     99  O   UNL A   1      46.042  38.472  30.139  1.00  0.00    -0.237 OA
ATOM    100  O   UNL A   1      44.035  39.747  29.467  1.00  0.00    -0.237 OA
ATOM    101  O   UNL A   1      43.901  38.114  31.309  1.00  0.00    -0.744 OA
ENDBRANCH  94  98
ENDBRANCH  68  91
ENDBRANCH  42  43
ENDBRANCH  34  37
ENDBRANCH  32  33
ENDBRANCH  31  32
ENDBRANCH   1  31
TORSDOF 19
ENDMDL
MODEL 3
REMARK VINA RESULT:     -12.0      3.667     10.197
REMARK SMILES CCN(c1cccc(C)c1)c1nc(OCC(=O)NCCCNC(=O)c2ccc(-c3c4nc(c(-c5cc(S(=O)(=O)[O-])ccc5F)c5ccc([nH]5)c(-c5cc(S(=O)(=O)[O-])ccc5F)c5nc(c(-c6cc(S(=O)(=O)[O-])ccc6F)c6ccc3[nH]6)C=C5)C=C4)cc2)cc(-c2ccc(C)cc2)n1
REMARK SMILES IDX 19 1 18 2 16 3 17 4 15 6 14 7 13 8 11 9 12 10 97 11 89 12
REMARK SMILES IDX 88 13 3 14 2 15 1 16 4 17 5 18 10 19 6 20 8 21 7 22 9 23
REMARK SMILES IDX 90 24 91 25 96 26 92 27 95 28 93 29 94 30 20 31 21 32 22 33
REMARK SMILES IDX 23 34 24 36 25 37 26 38 87 39 27 40 86 41 28 42 29 43 30 44
REMARK SMILES IDX 80 45 31 46 85 47 79 48 81 49 32 50 84 51 78 52 77 53 33 55
REMARK SMILES IDX 65 56 45 57 64 58 46 59 49 60 63 61 82 62 47 63 48 64 62 66
REMARK SMILES IDX 83 67 50 68 34 69 35 70 43 71 36 72 42 73 44 74 41 75 37 76
REMARK SMILES IDX 38 77 39 78 40 79 66 80 67 81 75 82 68 83 74 84 76 85 73 86
REMARK SMILES IDX 69 87 70 88 71 89 72 90 51 91 52 92 60 93 53 94 59 95 61 96
REMARK SMILES IDX 58 97 54 98 55 99 56 100 57 101
REMARK H PARENT 18 5 22 35 81 54 49 65
REMARK Flexibility Score: inf
ROOT
ATOM      1  C   UNL A   1      34.003  33.784  28.345  1.00  0.00     0.117 C 
ENDROOT
BRANCH   1   2
ATOM      2  N   UNL A   1      35.029  32.758  28.250  1.00  0.00    -0.353 N 
ATOM      3  C   UNL A   1      34.906  31.458  27.855  1.00  0.00     0.258 C 
ATOM      4  O   UNL A   1      35.870  30.689  27.880  1.00  0.00    -0.271 OA
ATOM      5  H   UNL A   1      35.936  33.039  28.507  1.00  0.00     0.163 HD
BRANCH   3   6
ATOM      6  C   UNL A   1      33.545  30.963  27.349  1.00  0.00     0.331 C 
BRANCH   6   7
ATOM      7  O   UNL A   1      33.354  29.564  27.236  1.00  0.00    -0.467 OA
BRANCH   7   8
ATOM      8  C   UNL A   1      32.516  29.112  26.258  1.00  0.00     0.219 A 
ATOM      9  C   UNL A   1      31.742  27.190  25.234  1.00  0.00     0.233 A 
ATOM     10  N   UNL A   1      32.486  27.773  26.191  1.00  0.00    -0.177 NA
ATOM     11  N   UNL A   1      30.997  27.897  24.372  1.00  0.00    -0.212 NA
ATOM     12  C   UNL A   1      30.998  29.238  24.495  1.00  0.00     0.080 A 
ATOM     13  C   UNL A   1      31.755  29.898  25.437  1.00  0.00     0.097 A 
BRANCH   9  14
ATOM     14  N   UNL A   1      31.730  25.783  25.173  1.00  0.00    -0.311 N 
BRANCH  14  15
ATOM     15  C   UNL A   1      30.510  25.150  25.686  1.00  0.00     0.122 C 
ATOM     16  C   UNL A   1      30.780  23.861  26.454  1.00  0.00     0.028 C 
ENDBRANCH  14  15
BRANCH  14  17
ATOM     17  C   UNL A   1      32.733  25.011  24.560  1.00  0.00     0.044 A 
ATOM     18  C   UNL A   1      32.602  24.451  23.282  1.00  0.00     0.026 A 
ATOM     19  C   UNL A   1      33.954  24.796  25.229  1.00  0.00     0.029 A 
ATOM     20  C   UNL A   1      33.637  23.706  22.704  1.00  0.00     0.002 A 
ATOM     21  C   UNL A   1      35.000  24.048  24.666  1.00  0.00    -0.049 A 
ATOM     22  C   UNL A   1      34.830  23.501  23.395  1.00  0.00     0.003 A 
ATOM     23  C   UNL A   1      36.272  23.857  25.436  1.00  0.00     0.044 C 
ENDBRANCH  14  17
ENDBRANCH   9  14
BRANCH  12  24
ATOM     24  C   UNL A   1      30.090  29.984  23.618  1.00  0.00     0.000 A 
ATOM     25  C   UNL A   1      29.871  29.579  22.293  1.00  0.00     0.010 A 
ATOM     26  C   UNL A   1      29.493  31.176  24.056  1.00  0.00     0.010 A 
ATOM     27  C   UNL A   1      29.108  30.358  21.421  1.00  0.00     0.004 A 
ATOM     28  C   UNL A   1      28.739  31.964  23.181  1.00  0.00     0.004 A 
ATOM     29  C   UNL A   1      28.550  31.566  21.854  1.00  0.00    -0.051 A 
ATOM     30  C   UNL A   1      27.789  32.442  20.904  1.00  0.00     0.044 C 
ENDBRANCH  12  24
ENDBRANCH   7   8
ENDBRANCH   6   7
ENDBRANCH   3   6
ENDBRANCH   1   2
BRANCH   1  31
ATOM     31  C   UNL A   1      34.252  34.744  29.501  1.00  0.00     0.042 C 
BRANCH  31  32
ATOM     32  C   UNL A   1      34.270  34.067  30.870  1.00  0.00     0.118 C 
BRANCH  32  33
ATOM     33  N   UNL A   1      35.116  34.752  31.852  1.00  0.00    -0.352 N 
ATOM     34  C   UNL A   1      36.410  34.449  32.246  1.00  0.00     0.251 C 
ATOM     35  H   UNL A   1      34.709  35.534  32.290  1.00  0.00     0.163 HD
ATOM     36  O   UNL A   1      37.012  35.127  33.059  1.00  0.00    -0.269 OA
BRANCH  34  37
ATOM     37  C   UNL A   1      37.101  33.328  31.566  1.00  0.00     0.039 A 
ATOM     38  C   UNL A   1      37.141  32.095  32.226  1.00  0.00     0.014 A 
ATOM     39  C   UNL A   1      37.882  33.558  30.439  1.00  0.00     0.014 A 
ATOM     40  C   UNL A   1      38.141  31.183  31.899  1.00  0.00     0.010 A 
ATOM     41  C   UNL A   1      38.928  32.694  30.170  1.00  0.00     0.010 A 
ATOM     42  C   UNL A   1      39.097  31.541  30.945  1.00  0.00    -0.014 A 
BRANCH  42  43
ATOM     43  C   UNL A   1      40.376  30.850  30.819  1.00  0.00     0.031 A 
ATOM     44  C   UNL A   1      40.495  29.589  30.065  1.00  0.00     0.074 A 
ATOM     45  C   UNL A   1      41.481  31.360  31.406  1.00  0.00     0.049 A 
ATOM     46  N   UNL A   1      41.335  28.653  30.361  1.00  0.00    -0.248 NA
ATOM     47  C   UNL A   1      39.645  29.269  28.926  1.00  0.00     0.031 C 
ATOM     48  C   UNL A   1      42.862  30.924  31.219  1.00  0.00     0.029 A 
ATOM     49  N   UNL A   1      41.533  32.222  32.496  1.00  0.00    -0.354 N 
ATOM     50  C   UNL A   1      41.343  27.762  29.315  1.00  0.00     0.074 A 
ATOM     51  C   UNL A   1      40.223  28.147  28.483  1.00  0.00     0.031 C 
ATOM     52  C   UNL A   1      43.582  31.299  32.287  1.00  0.00     0.029 A 
ATOM     53  C   UNL A   1      42.664  31.874  33.253  1.00  0.00     0.049 A 
ATOM     54  H   UNL A   1      40.895  32.943  32.699  1.00  0.00     0.167 HD
ATOM     55  C   UNL A   1      42.373  26.882  29.171  1.00  0.00     0.034 A 
ATOM     56  C   UNL A   1      42.561  31.515  34.565  1.00  0.00     0.034 A 
ATOM     57  C   UNL A   1      43.387  27.041  30.208  1.00  0.00     0.049 A 
ATOM     58  C   UNL A   1      43.090  30.133  34.860  1.00  0.00     0.074 A 
ATOM     59  C   UNL A   1      44.615  27.685  30.227  1.00  0.00     0.029 A 
ATOM     60  N   UNL A   1      43.089  26.727  31.529  1.00  0.00    -0.354 N 
ATOM     61  N   UNL A   1      43.345  29.235  33.950  1.00  0.00    -0.248 NA
ATOM     62  C   UNL A   1      43.343  29.642  36.210  1.00  0.00     0.031 C 
ATOM     63  C   UNL A   1      45.042  27.781  31.575  1.00  0.00     0.029 A 
ATOM     64  C   UNL A   1      44.087  27.176  32.374  1.00  0.00     0.049 A 
ATOM     65  H   UNL A   1      42.279  26.253  31.822  1.00  0.00     0.167 HD
ATOM     66  C   UNL A   1      43.747  28.066  34.549  1.00  0.00     0.074 A 
ATOM     67  C   UNL A   1      43.759  28.387  35.965  1.00  0.00     0.031 C 
ATOM     68  C   UNL A   1      44.010  26.942  33.812  1.00  0.00     0.034 A 
BRANCH  55  69
ATOM     69  C   UNL A   1      42.603  26.103  27.899  1.00  0.00     0.023 A 
ATOM     70  C   UNL A   1      42.135  24.777  27.795  1.00  0.00     0.031 A 
ATOM     71  C   UNL A   1      43.296  26.595  26.778  1.00  0.00     0.131 A 
ATOM     72  C   UNL A   1      42.452  23.973  26.687  1.00  0.00     0.055 A 
ATOM     73  C   UNL A   1      43.665  25.780  25.700  1.00  0.00     0.041 A 
ATOM     74  F   UNL A   1      43.616  27.894  26.672  1.00  0.00    -0.206 F 
ATOM     75  C   UNL A   1      43.258  24.454  25.659  1.00  0.00     0.022 A 
BRANCH  72  76
ATOM     76  S   UNL A   1      41.789  22.286  26.604  1.00  0.00     0.124 S 
ATOM     77  O   UNL A   1      42.259  21.704  27.857  1.00  0.00    -0.237 OA
ATOM     78  O   UNL A   1      40.354  22.524  26.501  1.00  0.00    -0.237 OA
ATOM     79  O   UNL A   1      42.410  21.737  25.399  1.00  0.00    -0.744 OA
ENDBRANCH  72  76
ENDBRANCH  55  69
BRANCH  56  80
ATOM     80  C   UNL A   1      41.427  32.181  35.267  1.00  0.00     0.023 A 
ATOM     81  C   UNL A   1      41.660  33.493  35.731  1.00  0.00     0.031 A 
ATOM     82  C   UNL A   1      40.100  31.765  35.110  1.00  0.00     0.131 A 
ATOM     83  C   UNL A   1      40.602  34.406  35.810  1.00  0.00     0.055 A 
ATOM     84  C   UNL A   1      39.035  32.658  35.294  1.00  0.00     0.041 A 
ATOM     85  F   UNL A   1      39.816  30.538  34.651  1.00  0.00    -0.206 F 
ATOM     86  C   UNL A   1      39.286  33.999  35.596  1.00  0.00     0.022 A 
BRANCH  83  87
ATOM     87  S   UNL A   1      41.033  36.166  35.859  1.00  0.00     0.124 S 
ATOM     88  O   UNL A   1      39.736  36.815  35.720  1.00  0.00    -0.237 OA
ATOM     89  O   UNL A   1      41.669  36.291  37.173  1.00  0.00    -0.237 OA
ATOM     90  O   UNL A   1      41.949  36.345  34.737  1.00  0.00    -0.744 OA
ENDBRANCH  83  87
ENDBRANCH  56  80
BRANCH  68  91
ATOM     91  C   UNL A   1      44.295  25.545  34.339  1.00  0.00     0.023 A 
ATOM     92  C   UNL A   1      45.582  25.009  34.490  1.00  0.00     0.031 A 
ATOM     93  C   UNL A   1      43.239  24.698  34.769  1.00  0.00     0.131 A 
ATOM     94  C   UNL A   1      45.785  23.698  34.966  1.00  0.00     0.055 A 
ATOM     95  C   UNL A   1      43.445  23.422  35.306  1.00  0.00     0.041 A 
ATOM     96  F   UNL A   1      41.954  25.073  34.698  1.00  0.00    -0.206 F 
ATOM     97  C   UNL A   1      44.725  22.906  35.395  1.00  0.00     0.022 A 
BRANCH  94  98
ATOM     98  S   UNL A   1      47.471  23.034  34.962  1.00  0.00     0.124 S 
ATOM     99  O   UNL A   1      47.838  23.138  36.372  1.00  0.00    -0.237 OA
ATOM    100  O   UNL A   1      47.274  21.679  34.460  1.00  0.00    -0.237 OA
ATOM    101  O   UNL A   1      48.195  23.931  34.065  1.00  0.00    -0.744 OA
ENDBRANCH  94  98
ENDBRANCH  68  91
ENDBRANCH  42  43
ENDBRANCH  34  37
ENDBRANCH  32  33
ENDBRANCH  31  32
ENDBRANCH   1  31
TORSDOF 19
ENDMDL
