MODEL 1
REMARK VINA RESULT:     -11.3      0.000      0.000
REMARK SMILES CN(CCS(C)(=O)=O)C(=O)N1CCC(C(=O)NCCCNC(=O)c2ccc(-c3c4nc(c(-c5cc(S(=O)(=O)[O-])ccc5F)c5ccc([nH]5)c(-c5cc(S(=O)(=O)[O-])ccc5F)c5nc(c(-c6cc(S(=O)(=O)[O-])ccc6F)c6ccc3[nH]6)C=C5)C=C4)cc2)CC1
REMARK SMILES IDX 18 1 17 2 15 3 16 4 14 6 9 7 10 8 11 9 12 10 88 11 13 12
REMARK SMILES IDX 87 13 2 14 1 15 3 16 4 17 5 18 6 19 7 20 8 21 19 22 20 23
REMARK SMILES IDX 21 24 22 25 23 27 24 28 25 29 86 30 26 31 85 32 27 33 28 34
REMARK SMILES IDX 29 35 79 36 30 37 84 38 78 39 80 40 31 41 83 42 77 43 76 44
REMARK SMILES IDX 32 46 64 47 44 48 63 49 45 50 48 51 62 52 81 53 46 54 47 55
REMARK SMILES IDX 61 57 82 58 49 59 33 60 34 61 42 62 35 63 41 64 43 65 40 66
REMARK SMILES IDX 36 67 37 68 38 69 39 70 65 71 66 72 74 73 67 74 73 75 75 76
REMARK SMILES IDX 72 77 68 78 69 79 70 80 71 81 50 82 51 83 59 84 52 85 58 86
REMARK SMILES IDX 60 87 57 88 53 89 54 90 55 91 56 92
REMARK H PARENT 17 5 21 26 80 45 48 56
REMARK Flexibility Score: inf
ROOT
ATOM      1  C   UNL A   1      31.702  30.506  26.029  1.00  0.00     0.117 C 
ENDROOT
BRANCH   1   2
ATOM      2  N   UNL A   1      33.039  30.017  26.330  1.00  0.00    -0.356 N 
ATOM      3  C   UNL A   1      33.594  28.791  26.144  1.00  0.00     0.223 C 
ATOM      4  O   UNL A   1      34.746  28.603  26.540  1.00  0.00    -0.275 OA
ATOM      5  H   UNL A   1      33.640  30.684  26.733  1.00  0.00     0.163 HD
BRANCH   3   6
ATOM      6  C   UNL A   1      32.841  27.693  25.414  1.00  0.00     0.082 C 
ATOM      7  C   UNL A   1      33.597  24.018  23.299  1.00  0.00     0.319 C 
ATOM      8  O   UNL A   1      33.996  24.126  22.143  1.00  0.00    -0.248 OA
ATOM      9  N   UNL A   1      33.129  25.104  24.032  1.00  0.00    -0.325 N 
ATOM     10  C   UNL A   1      32.673  26.296  23.337  1.00  0.00     0.122 C 
ATOM     11  C   UNL A   1      33.208  25.125  25.475  1.00  0.00     0.122 C 
ATOM     12  C   UNL A   1      33.234  27.566  23.946  1.00  0.00     0.035 C 
ATOM     13  C   UNL A   1      32.881  26.402  26.226  1.00  0.00     0.035 C 
BRANCH   7  14
ATOM     14  N   UNL A   1      33.580  22.778  23.954  1.00  0.00    -0.327 N 
ATOM     15  C   UNL A   1      34.877  22.299  24.412  1.00  0.00     0.148 C 
BRANCH  14  16
ATOM     16  C   UNL A   1      32.605  21.748  23.554  1.00  0.00     0.137 C 
BRANCH  16  17
ATOM     17  C   UNL A   1      32.231  20.738  24.636  1.00  0.00     0.158 C 
BRANCH  17  18
ATOM     18  S   UNL A   1      32.772  19.033  24.466  1.00  0.00     0.149 S 
ATOM     19  C   UNL A   1      32.308  18.393  22.858  1.00  0.00     0.158 C 
ATOM     20  O   UNL A   1      34.224  19.049  24.489  1.00  0.00    -0.229 OA
ATOM     21  O   UNL A   1      32.061  18.247  25.460  1.00  0.00    -0.229 OA
ENDBRANCH  17  18
ENDBRANCH  16  17
ENDBRANCH  14  16
ENDBRANCH   7  14
ENDBRANCH   3   6
ENDBRANCH   1   2
BRANCH   1  22
ATOM     22  C   UNL A   1      31.508  31.931  26.517  1.00  0.00     0.042 C 
BRANCH  22  23
ATOM     23  C   UNL A   1      32.804  32.577  26.974  1.00  0.00     0.118 C 
BRANCH  23  24
ATOM     24  N   UNL A   1      32.590  33.899  27.545  1.00  0.00    -0.352 N 
ATOM     25  C   UNL A   1      33.188  34.479  28.640  1.00  0.00     0.251 C 
ATOM     26  H   UNL A   1      31.925  34.457  27.081  1.00  0.00     0.163 HD
ATOM     27  O   UNL A   1      32.732  35.511  29.110  1.00  0.00    -0.269 OA
BRANCH  25  28
ATOM     28  C   UNL A   1      34.363  33.820  29.254  1.00  0.00     0.039 A 
ATOM     29  C   UNL A   1      35.639  34.321  28.994  1.00  0.00     0.014 A 
ATOM     30  C   UNL A   1      34.195  32.728  30.106  1.00  0.00     0.014 A 
ATOM     31  C   UNL A   1      36.741  33.767  29.650  1.00  0.00     0.010 A 
ATOM     32  C   UNL A   1      35.274  32.253  30.840  1.00  0.00     0.010 A 
ATOM     33  C   UNL A   1      36.563  32.753  30.606  1.00  0.00    -0.014 A 
BRANCH  33  34
ATOM     34  C   UNL A   1      37.709  32.165  31.347  1.00  0.00     0.031 A 
ATOM     35  C   UNL A   1      38.498  31.046  30.718  1.00  0.00     0.074 A 
ATOM     36  C   UNL A   1      37.988  32.578  32.598  1.00  0.00     0.049 A 
ATOM     37  N   UNL A   1      39.452  30.313  31.232  1.00  0.00    -0.248 NA
ATOM     38  C   UNL A   1      38.130  30.674  29.343  1.00  0.00     0.031 C 
ATOM     39  C   UNL A   1      37.262  33.619  33.330  1.00  0.00     0.029 A 
ATOM     40  N   UNL A   1      38.953  32.166  33.482  1.00  0.00    -0.354 N 
ATOM     41  C   UNL A   1      39.775  29.377  30.253  1.00  0.00     0.074 A 
ATOM     42  C   UNL A   1      38.864  29.591  29.150  1.00  0.00     0.031 C 
ATOM     43  C   UNL A   1      37.827  33.784  34.537  1.00  0.00     0.029 A 
ATOM     44  C   UNL A   1      38.923  32.832  34.686  1.00  0.00     0.049 A 
ATOM     45  H   UNL A   1      39.607  31.460  33.274  1.00  0.00     0.167 HD
ATOM     46  C   UNL A   1      40.761  28.446  30.261  1.00  0.00     0.034 A 
ATOM     47  C   UNL A   1      39.688  32.684  35.786  1.00  0.00     0.034 A 
ATOM     48  C   UNL A   1      41.681  28.273  31.357  1.00  0.00     0.049 A 
ATOM     49  C   UNL A   1      40.784  31.649  35.770  1.00  0.00     0.074 A 
ATOM     50  C   UNL A   1      42.754  27.405  31.455  1.00  0.00     0.029 A 
ATOM     51  N   UNL A   1      41.636  28.986  32.550  1.00  0.00    -0.354 N 
ATOM     52  N   UNL A   1      41.106  30.801  34.820  1.00  0.00    -0.248 NA
ATOM     53  C   UNL A   1      41.626  31.559  36.969  1.00  0.00     0.031 C 
ATOM     54  C   UNL A   1      43.323  27.554  32.725  1.00  0.00     0.029 A 
ATOM     55  C   UNL A   1      42.651  28.564  33.395  1.00  0.00     0.049 A 
ATOM     56  H   UNL A   1      40.981  29.689  32.762  1.00  0.00     0.167 HD
ATOM     57  C   UNL A   1      42.211  30.100  35.298  1.00  0.00     0.074 A 
ATOM     58  C   UNL A   1      42.505  30.635  36.612  1.00  0.00     0.031 C 
ATOM     59  C   UNL A   1      42.923  29.109  34.704  1.00  0.00     0.034 A 
BRANCH  46  60
ATOM     60  C   UNL A   1      40.873  27.545  29.053  1.00  0.00     0.023 A 
ATOM     61  C   UNL A   1      41.821  27.780  28.042  1.00  0.00     0.031 A 
ATOM     62  C   UNL A   1      39.991  26.464  28.886  1.00  0.00     0.131 A 
ATOM     63  C   UNL A   1      41.807  27.006  26.872  1.00  0.00     0.055 A 
ATOM     64  C   UNL A   1      40.040  25.641  27.758  1.00  0.00     0.041 A 
ATOM     65  F   UNL A   1      39.049  26.200  29.806  1.00  0.00    -0.206 F 
ATOM     66  C   UNL A   1      40.941  25.921  26.734  1.00  0.00     0.022 A 
BRANCH  63  67
ATOM     67  S   UNL A   1      42.830  27.540  25.472  1.00  0.00     0.124 S 
ATOM     68  O   UNL A   1      44.116  27.782  26.122  1.00  0.00    -0.237 OA
ATOM     69  O   UNL A   1      42.771  26.388  24.581  1.00  0.00    -0.237 OA
ATOM     70  O   UNL A   1      42.148  28.740  24.988  1.00  0.00    -0.744 OA
ENDBRANCH  63  67
ENDBRANCH  46  60
BRANCH  47  71
ATOM     71  C   UNL A   1      39.456  33.531  36.991  1.00  0.00     0.023 A 
ATOM     72  C   UNL A   1      40.248  34.664  37.239  1.00  0.00     0.031 A 
ATOM     73  C   UNL A   1      38.466  33.200  37.932  1.00  0.00     0.131 A 
ATOM     74  C   UNL A   1      40.070  35.396  38.423  1.00  0.00     0.055 A 
ATOM     75  C   UNL A   1      38.259  33.961  39.084  1.00  0.00     0.041 A 
ATOM     76  F   UNL A   1      37.676  32.131  37.740  1.00  0.00    -0.206 F 
ATOM     77  C   UNL A   1      39.073  35.060  39.341  1.00  0.00     0.022 A 
BRANCH  74  78
ATOM     78  S   UNL A   1      41.222  36.750  38.786  1.00  0.00     0.124 S 
ATOM     79  O   UNL A   1      41.840  36.973  37.484  1.00  0.00    -0.237 OA
ATOM     80  O   UNL A   1      40.320  37.796  39.256  1.00  0.00    -0.237 OA
ATOM     81  O   UNL A   1      42.101  36.183  39.807  1.00  0.00    -0.744 OA
ENDBRANCH  74  78
ENDBRANCH  47  71
BRANCH  59  82
ATOM     82  C   UNL A   1      44.119  28.582  35.455  1.00  0.00     0.023 A 
ATOM     83  C   UNL A   1      44.004  27.544  36.396  1.00  0.00     0.031 A 
ATOM     84  C   UNL A   1      45.391  29.137  35.231  1.00  0.00     0.131 A 
ATOM     85  C   UNL A   1      45.133  27.130  37.119  1.00  0.00     0.055 A 
ATOM     86  C   UNL A   1      46.521  28.682  35.911  1.00  0.00     0.041 A 
ATOM     87  F   UNL A   1      45.557  30.131  34.344  1.00  0.00    -0.206 F 
ATOM     88  C   UNL A   1      46.393  27.681  36.870  1.00  0.00     0.022 A 
BRANCH  85  89
ATOM     89  S   UNL A   1      44.917  25.921  38.453  1.00  0.00     0.124 S 
ATOM     90  O   UNL A   1      46.296  25.671  38.861  1.00  0.00    -0.237 OA
ATOM     91  O   UNL A   1      44.092  26.654  39.408  1.00  0.00    -0.237 OA
ATOM     92  O   UNL A   1      44.252  24.799  37.794  1.00  0.00    -0.744 OA
ENDBRANCH  85  89
ENDBRANCH  59  82
ENDBRANCH  33  34
ENDBRANCH  25  28
ENDBRANCH  23  24
ENDBRANCH  22  23
ENDBRANCH   1  22
TORSDOF 17
ENDMDL
MODEL 2
REMARK VINA RESULT:     -11.1      5.762      8.895
REMARK SMILES CN(CCS(C)(=O)=O)C(=O)N1CCC(C(=O)NCCCNC(=O)c2ccc(-c3c4nc(c(-c5cc(S(=O)(=O)[O-])ccc5F)c5ccc([nH]5)c(-c5cc(S(=O)(=O)[O-])ccc5F)c5nc(c(-c6cc(S(=O)(=O)[O-])ccc6F)c6ccc3[nH]6)C=C5)C=C4)cc2)CC1
REMARK SMILES IDX 18 1 17 2 15 3 16 4 14 6 9 7 10 8 11 9 12 10 88 11 13 12
REMARK SMILES IDX 87 13 2 14 1 15 3 16 4 17 5 18 6 19 7 20 8 21 19 22 20 23
REMARK SMILES IDX 21 24 22 25 23 27 24 28 25 29 86 30 26 31 85 32 27 33 28 34
REMARK SMILES IDX 29 35 79 36 30 37 84 38 78 39 80 40 31 41 83 42 77 43 76 44
REMARK SMILES IDX 32 46 64 47 44 48 63 49 45 50 48 51 62 52 81 53 46 54 47 55
REMARK SMILES IDX 61 57 82 58 49 59 33 60 34 61 42 62 35 63 41 64 43 65 40 66
REMARK SMILES IDX 36 67 37 68 38 69 39 70 65 71 66 72 74 73 67 74 73 75 75 76
REMARK SMILES IDX 72 77 68 78 69 79 70 80 71 81 50 82 51 83 59 84 52 85 58 86
REMARK SMILES IDX 60 87 57 88 53 89 54 90 55 91 56 92
REMARK H PARENT 17 5 21 26 80 45 48 56
REMARK Flexibility Score: inf
ROOT
ATOM      1  C   UNL A   1      34.323  22.943  25.375  1.00  0.00     0.117 C 
ENDROOT
BRANCH   1   2
ATOM      2  N   UNL A   1      33.563  21.716  25.194  1.00  0.00    -0.356 N 
ATOM      3  C   UNL A   1      32.221  21.511  25.123  1.00  0.00     0.223 C 
ATOM      4  O   UNL A   1      31.810  20.353  25.023  1.00  0.00    -0.275 OA
ATOM      5  H   UNL A   1      34.108  20.902  25.109  1.00  0.00     0.163 HD
BRANCH   3   6
ATOM      6  C   UNL A   1      31.250  22.678  25.106  1.00  0.00     0.082 C 
ATOM      7  C   UNL A   1      31.258  26.971  24.757  1.00  0.00     0.319 C 
ATOM      8  O   UNL A   1      31.558  27.600  25.769  1.00  0.00    -0.248 OA
ATOM      9  N   UNL A   1      31.026  25.600  24.773  1.00  0.00    -0.325 N 
ATOM     10  C   UNL A   1      30.685  24.943  26.025  1.00  0.00     0.122 C 
ATOM     11  C   UNL A   1      31.242  24.789  23.596  1.00  0.00     0.122 C 
ATOM     12  C   UNL A   1      31.482  23.671  26.240  1.00  0.00     0.035 C 
ATOM     13  C   UNL A   1      31.177  23.277  23.705  1.00  0.00     0.035 C 
BRANCH   7  14
ATOM     14  N   UNL A   1      31.122  27.607  23.515  1.00  0.00    -0.327 N 
ATOM     15  C   UNL A   1      32.299  28.329  23.053  1.00  0.00     0.148 C 
BRANCH  14  16
ATOM     16  C   UNL A   1      29.816  28.154  23.108  1.00  0.00     0.137 C 
BRANCH  16  17
ATOM     17  C   UNL A   1      29.635  29.655  23.315  1.00  0.00     0.158 C 
BRANCH  17  18
ATOM     18  S   UNL A   1      28.273  30.494  22.498  1.00  0.00     0.149 S 
ATOM     19  C   UNL A   1      28.665  32.226  22.259  1.00  0.00     0.158 C 
ATOM     20  O   UNL A   1      28.163  29.920  21.168  1.00  0.00    -0.229 OA
ATOM     21  O   UNL A   1      27.125  30.434  23.387  1.00  0.00    -0.229 OA
ENDBRANCH  17  18
ENDBRANCH  16  17
ENDBRANCH  14  16
ENDBRANCH   7  14
ENDBRANCH   3   6
ENDBRANCH   1   2
BRANCH   1  22
ATOM     22  C   UNL A   1      35.633  22.684  26.100  1.00  0.00     0.042 C 
BRANCH  22  23
ATOM     23  C   UNL A   1      36.814  22.564  25.152  1.00  0.00     0.118 C 
BRANCH  23  24
ATOM     24  N   UNL A   1      37.722  21.492  25.536  1.00  0.00    -0.352 N 
ATOM     25  C   UNL A   1      38.974  21.575  26.100  1.00  0.00     0.251 C 
ATOM     26  H   UNL A   1      37.393  20.580  25.368  1.00  0.00     0.163 HD
ATOM     27  O   UNL A   1      39.686  20.585  26.155  1.00  0.00    -0.269 OA
BRANCH  25  28
ATOM     28  C   UNL A   1      39.450  22.882  26.609  1.00  0.00     0.039 A 
ATOM     29  C   UNL A   1      40.413  22.911  27.617  1.00  0.00     0.014 A 
ATOM     30  C   UNL A   1      38.964  24.071  26.063  1.00  0.00     0.014 A 
ATOM     31  C   UNL A   1      40.939  24.138  28.029  1.00  0.00     0.010 A 
ATOM     32  C   UNL A   1      39.566  25.278  26.393  1.00  0.00     0.010 A 
ATOM     33  C   UNL A   1      40.548  25.328  27.394  1.00  0.00    -0.014 A 
BRANCH  33  34
ATOM     34  C   UNL A   1      41.112  26.647  27.783  1.00  0.00     0.031 A 
ATOM     35  C   UNL A   1      42.547  26.963  27.453  1.00  0.00     0.074 A 
ATOM     36  C   UNL A   1      40.367  27.517  28.491  1.00  0.00     0.049 A 
ATOM     37  N   UNL A   1      43.271  27.995  27.801  1.00  0.00    -0.248 NA
ATOM     38  C   UNL A   1      43.276  25.959  26.663  1.00  0.00     0.031 C 
ATOM     39  C   UNL A   1      38.980  27.301  28.913  1.00  0.00     0.029 A 
ATOM     40  N   UNL A   1      40.673  28.757  28.991  1.00  0.00    -0.354 N 
ATOM     41  C   UNL A   1      44.545  27.748  27.298  1.00  0.00     0.074 A 
ATOM     42  C   UNL A   1      44.509  26.436  26.688  1.00  0.00     0.031 C 
ATOM     43  C   UNL A   1      38.548  28.383  29.580  1.00  0.00     0.029 A 
ATOM     44  C   UNL A   1      39.637  29.351  29.675  1.00  0.00     0.049 A 
ATOM     45  H   UNL A   1      41.552  29.184  28.870  1.00  0.00     0.167 HD
ATOM     46  C   UNL A   1      45.636  28.553  27.315  1.00  0.00     0.034 A 
ATOM     47  C   UNL A   1      39.577  30.537  30.312  1.00  0.00     0.034 A 
ATOM     48  C   UNL A   1      45.641  29.871  27.898  1.00  0.00     0.049 A 
ATOM     49  C   UNL A   1      40.798  31.421  30.312  1.00  0.00     0.074 A 
ATOM     50  C   UNL A   1      46.666  30.800  27.926  1.00  0.00     0.029 A 
ATOM     51  N   UNL A   1      44.563  30.450  28.559  1.00  0.00    -0.354 N 
ATOM     52  N   UNL A   1      41.983  31.193  29.794  1.00  0.00    -0.248 NA
ATOM     53  C   UNL A   1      40.671  32.726  30.972  1.00  0.00     0.031 C 
ATOM     54  C   UNL A   1      46.227  31.916  28.648  1.00  0.00     0.029 A 
ATOM     55  C   UNL A   1      44.905  31.715  29.011  1.00  0.00     0.049 A 
ATOM     56  H   UNL A   1      43.684  30.024  28.684  1.00  0.00     0.167 HD
ATOM     57  C   UNL A   1      42.731  32.342  30.038  1.00  0.00     0.074 A 
ATOM     58  C   UNL A   1      41.858  33.263  30.737  1.00  0.00     0.031 C 
ATOM     59  C   UNL A   1      44.020  32.615  29.711  1.00  0.00     0.034 A 
BRANCH  46  60
ATOM     60  C   UNL A   1      46.905  28.013  26.699  1.00  0.00     0.023 A 
ATOM     61  C   UNL A   1      47.177  28.154  25.326  1.00  0.00     0.031 A 
ATOM     62  C   UNL A   1      47.836  27.310  27.483  1.00  0.00     0.131 A 
ATOM     63  C   UNL A   1      48.297  27.523  24.764  1.00  0.00     0.055 A 
ATOM     64  C   UNL A   1      48.996  26.760  26.932  1.00  0.00     0.041 A 
ATOM     65  F   UNL A   1      47.624  27.124  28.795  1.00  0.00    -0.206 F 
ATOM     66  C   UNL A   1      49.223  26.850  25.562  1.00  0.00     0.022 A 
BRANCH  63  67
ATOM     67  S   UNL A   1      48.438  27.464  22.956  1.00  0.00     0.124 S 
ATOM     68  O   UNL A   1      48.394  26.025  22.705  1.00  0.00    -0.237 OA
ATOM     69  O   UNL A   1      47.271  28.223  22.523  1.00  0.00    -0.237 OA
ATOM     70  O   UNL A   1      49.729  28.097  22.692  1.00  0.00    -0.744 OA
ENDBRANCH  63  67
ENDBRANCH  46  60
BRANCH  47  71
ATOM     71  C   UNL A   1      38.325  30.966  30.999  1.00  0.00     0.023 A 
ATOM     72  C   UNL A   1      37.304  31.623  30.293  1.00  0.00     0.031 A 
ATOM     73  C   UNL A   1      38.146  30.762  32.378  1.00  0.00     0.131 A 
ATOM     74  C   UNL A   1      36.173  32.097  30.976  1.00  0.00     0.055 A 
ATOM     75  C   UNL A   1      36.995  31.190  33.044  1.00  0.00     0.041 A 
ATOM     76  F   UNL A   1      39.087  30.133  33.099  1.00  0.00    -0.206 F 
ATOM     77  C   UNL A   1      36.006  31.874  32.344  1.00  0.00     0.022 A 
BRANCH  74  78
ATOM     78  S   UNL A   1      34.958  33.086  30.061  1.00  0.00     0.124 S 
ATOM     79  O   UNL A   1      34.436  32.111  29.110  1.00  0.00    -0.237 OA
ATOM     80  O   UNL A   1      34.046  33.502  31.121  1.00  0.00    -0.237 OA
ATOM     81  O   UNL A   1      35.763  34.158  29.479  1.00  0.00    -0.744 OA
ENDBRANCH  74  78
ENDBRANCH  47  71
BRANCH  59  82
ATOM     82  C   UNL A   1      44.537  33.987  30.061  1.00  0.00     0.023 A 
ATOM     83  C   UNL A   1      44.436  35.067  29.167  1.00  0.00     0.031 A 
ATOM     84  C   UNL A   1      45.150  34.212  31.306  1.00  0.00     0.131 A 
ATOM     85  C   UNL A   1      44.989  36.310  29.509  1.00  0.00     0.055 A 
ATOM     86  C   UNL A   1      45.646  35.465  31.665  1.00  0.00     0.041 A 
ATOM     87  F   UNL A   1      45.272  33.215  32.197  1.00  0.00    -0.206 F 
ATOM     88  C   UNL A   1      45.579  36.520  30.759  1.00  0.00     0.022 A 
BRANCH  85  89
ATOM     89  S   UNL A   1      45.007  37.628  28.264  1.00  0.00     0.124 S 
ATOM     90  O   UNL A   1      44.447  36.951  27.098  1.00  0.00    -0.237 OA
ATOM     91  O   UNL A   1      44.161  38.647  28.876  1.00  0.00    -0.237 OA
ATOM     92  O   UNL A   1      46.421  37.980  28.157  1.00  0.00    -0.744 OA
ENDBRANCH  85  89
ENDBRANCH  59  82
ENDBRANCH  33  34
ENDBRANCH  25  28
ENDBRANCH  23  24
ENDBRANCH  22  23
ENDBRANCH   1  22
TORSDOF 17
ENDMDL
MODEL 3
REMARK VINA RESULT:     -11.1      6.423     11.505
REMARK SMILES CN(CCS(C)(=O)=O)C(=O)N1CCC(C(=O)NCCCNC(=O)c2ccc(-c3c4nc(c(-c5cc(S(=O)(=O)[O-])ccc5F)c5ccc([nH]5)c(-c5cc(S(=O)(=O)[O-])ccc5F)c5nc(c(-c6cc(S(=O)(=O)[O-])ccc6F)c6ccc3[nH]6)C=C5)C=C4)cc2)CC1
REMARK SMILES IDX 18 1 17 2 15 3 16 4 14 6 9 7 10 8 11 9 12 10 88 11 13 12
REMARK SMILES IDX 87 13 2 14 1 15 3 16 4 17 5 18 6 19 7 20 8 21 19 22 20 23
REMARK SMILES IDX 21 24 22 25 23 27 24 28 25 29 86 30 26 31 85 32 27 33 28 34
REMARK SMILES IDX 29 35 79 36 30 37 84 38 78 39 80 40 31 41 83 42 77 43 76 44
REMARK SMILES IDX 32 46 64 47 44 48 63 49 45 50 48 51 62 52 81 53 46 54 47 55
REMARK SMILES IDX 61 57 82 58 49 59 33 60 34 61 42 62 35 63 41 64 43 65 40 66
REMARK SMILES IDX 36 67 37 68 38 69 39 70 65 71 66 72 74 73 67 74 73 75 75 76
REMARK SMILES IDX 72 77 68 78 69 79 70 80 71 81 50 82 51 83 59 84 52 85 58 86
REMARK SMILES IDX 60 87 57 88 53 89 54 90 55 91 56 92
REMARK H PARENT 17 5 21 26 80 45 48 56
REMARK Flexibility Score: inf
ROOT
ATOM      1  C   UNL A   1      36.770  20.910  24.937  1.00  0.00     0.117 C 
ENDROOT
BRANCH   1   2
ATOM      2  N   UNL A   1      37.146  22.111  25.666  1.00  0.00    -0.356 N 
ATOM      3  C   UNL A   1      36.470  23.275  25.857  1.00  0.00     0.223 C 
ATOM      4  O   UNL A   1      37.032  24.183  26.473  1.00  0.00    -0.275 OA
ATOM      5  H   UNL A   1      38.033  22.076  26.088  1.00  0.00     0.163 HD
BRANCH   3   6
ATOM      6  C   UNL A   1      35.038  23.436  25.382  1.00  0.00     0.082 C 
ATOM      7  C   UNL A   1      31.751  26.203  25.692  1.00  0.00     0.319 C 
ATOM      8  O   UNL A   1      31.104  26.167  26.736  1.00  0.00    -0.248 OA
ATOM      9  N   UNL A   1      32.709  25.245  25.374  1.00  0.00    -0.325 N 
ATOM     10  C   UNL A   1      32.666  23.945  26.023  1.00  0.00     0.122 C 
ATOM     11  C   UNL A   1      33.823  25.557  24.509  1.00  0.00     0.122 C 
ATOM     12  C   UNL A   1      34.029  23.509  26.524  1.00  0.00     0.035 C 
ATOM     13  C   UNL A   1      34.952  24.556  24.350  1.00  0.00     0.035 C 
BRANCH   7  14
ATOM     14  N   UNL A   1      31.555  27.218  24.745  1.00  0.00    -0.327 N 
ATOM     15  C   UNL A   1      31.874  28.564  25.200  1.00  0.00     0.148 C 
BRANCH  14  16
ATOM     16  C   UNL A   1      30.469  27.102  23.756  1.00  0.00     0.137 C 
BRANCH  16  17
ATOM     17  C   UNL A   1      30.470  28.151  22.648  1.00  0.00     0.158 C 
BRANCH  17  18
ATOM     18  S   UNL A   1      29.162  29.382  22.607  1.00  0.00     0.149 S 
ATOM     19  C   UNL A   1      27.593  28.635  23.043  1.00  0.00     0.158 C 
ATOM     20  O   UNL A   1      29.456  30.342  23.657  1.00  0.00    -0.229 OA
ATOM     21  O   UNL A   1      29.046  29.853  21.237  1.00  0.00    -0.229 OA
ENDBRANCH  17  18
ENDBRANCH  16  17
ENDBRANCH  14  16
ENDBRANCH   7  14
ENDBRANCH   3   6
ENDBRANCH   1   2
BRANCH   1  22
ATOM     22  C   UNL A   1      37.855  19.849  25.016  1.00  0.00     0.042 C 
BRANCH  22  23
ATOM     23  C   UNL A   1      39.102  20.337  25.732  1.00  0.00     0.118 C 
BRANCH  23  24
ATOM     24  N   UNL A   1      40.093  19.283  25.896  1.00  0.00    -0.352 N 
ATOM     25  C   UNL A   1      41.453  19.390  26.075  1.00  0.00     0.251 C 
ATOM     26  H   UNL A   1      39.740  18.365  25.877  1.00  0.00     0.163 HD
ATOM     27  O   UNL A   1      42.162  18.400  25.975  1.00  0.00    -0.269 OA
BRANCH  25  28
ATOM     28  C   UNL A   1      42.041  20.719  26.357  1.00  0.00     0.039 A 
ATOM     29  C   UNL A   1      42.281  21.598  25.301  1.00  0.00     0.014 A 
ATOM     30  C   UNL A   1      42.324  21.101  27.670  1.00  0.00     0.014 A 
ATOM     31  C   UNL A   1      42.740  22.888  25.572  1.00  0.00     0.010 A 
ATOM     32  C   UNL A   1      42.673  22.416  27.945  1.00  0.00     0.010 A 
ATOM     33  C   UNL A   1      42.904  23.321  26.898  1.00  0.00    -0.014 A 
BRANCH  33  34
ATOM     34  C   UNL A   1      43.358  24.698  27.223  1.00  0.00     0.031 A 
ATOM     35  C   UNL A   1      42.402  25.654  27.886  1.00  0.00     0.074 A 
ATOM     36  C   UNL A   1      44.589  25.106  26.858  1.00  0.00     0.049 A 
ATOM     37  N   UNL A   1      42.549  26.927  28.148  1.00  0.00    -0.248 NA
ATOM     38  C   UNL A   1      41.086  25.113  28.262  1.00  0.00     0.031 C 
ATOM     39  C   UNL A   1      45.585  24.285  26.166  1.00  0.00     0.029 A 
ATOM     40  N   UNL A   1      45.210  26.320  27.010  1.00  0.00    -0.354 N 
ATOM     41  C   UNL A   1      41.336  27.342  28.691  1.00  0.00     0.074 A 
ATOM     42  C   UNL A   1      40.445  26.203  28.649  1.00  0.00     0.031 C 
ATOM     43  C   UNL A   1      46.701  25.008  25.981  1.00  0.00     0.029 A 
ATOM     44  C   UNL A   1      46.487  26.357  26.498  1.00  0.00     0.049 A 
ATOM     45  H   UNL A   1      44.783  27.092  27.446  1.00  0.00     0.167 HD
ATOM     46  C   UNL A   1      41.006  28.553  29.205  1.00  0.00     0.034 A 
ATOM     47  C   UNL A   1      47.378  27.366  26.445  1.00  0.00     0.034 A 
ATOM     48  C   UNL A   1      41.921  29.665  29.268  1.00  0.00     0.049 A 
ATOM     49  C   UNL A   1      46.994  28.702  27.030  1.00  0.00     0.074 A 
ATOM     50  C   UNL A   1      41.719  30.919  29.818  1.00  0.00     0.029 A 
ATOM     51  N   UNL A   1      43.216  29.656  28.764  1.00  0.00    -0.354 N 
ATOM     52  N   UNL A   1      45.859  29.067  27.580  1.00  0.00    -0.248 NA
ATOM     53  C   UNL A   1      48.015  29.756  26.998  1.00  0.00     0.031 C 
ATOM     54  C   UNL A   1      42.870  31.684  29.597  1.00  0.00     0.029 A 
ATOM     55  C   UNL A   1      43.817  30.887  28.974  1.00  0.00     0.049 A 
ATOM     56  H   UNL A   1      43.644  28.886  28.324  1.00  0.00     0.167 HD
ATOM     57  C   UNL A   1      46.043  30.385  27.989  1.00  0.00     0.074 A 
ATOM     58  C   UNL A   1      47.401  30.743  27.633  1.00  0.00     0.031 C 
ATOM     59  C   UNL A   1      45.173  31.224  28.607  1.00  0.00     0.034 A 
BRANCH  46  60
ATOM     60  C   UNL A   1      39.596  28.726  29.719  1.00  0.00     0.023 A 
ATOM     61  C   UNL A   1      38.561  29.194  28.890  1.00  0.00     0.031 A 
ATOM     62  C   UNL A   1      39.290  28.463  31.065  1.00  0.00     0.131 A 
ATOM     63  C   UNL A   1      37.297  29.471  29.432  1.00  0.00     0.055 A 
ATOM     64  C   UNL A   1      38.005  28.657  31.580  1.00  0.00     0.041 A 
ATOM     65  F   UNL A   1      40.238  28.034  31.913  1.00  0.00    -0.206 F 
ATOM     66  C   UNL A   1      37.004  29.181  30.766  1.00  0.00     0.022 A 
BRANCH  63  67
ATOM     67  S   UNL A   1      36.095  30.364  28.409  1.00  0.00     0.124 S 
ATOM     68  O   UNL A   1      36.971  31.169  27.561  1.00  0.00    -0.237 OA
ATOM     69  O   UNL A   1      35.381  29.282  27.743  1.00  0.00    -0.237 OA
ATOM     70  O   UNL A   1      35.313  31.123  29.383  1.00  0.00    -0.744 OA
ENDBRANCH  63  67
ENDBRANCH  46  60
BRANCH  47  71
ATOM     71  C   UNL A   1      48.718  27.163  25.823  1.00  0.00     0.023 A 
ATOM     72  C   UNL A   1      48.938  27.465  24.469  1.00  0.00     0.031 A 
ATOM     73  C   UNL A   1      49.789  26.628  26.561  1.00  0.00     0.131 A 
ATOM     74  C   UNL A   1      50.182  27.184  23.882  1.00  0.00     0.055 A 
ATOM     75  C   UNL A   1      51.039  26.398  25.985  1.00  0.00     0.041 A 
ATOM     76  F   UNL A   1      49.634  26.329  27.861  1.00  0.00    -0.206 F 
ATOM     77  C   UNL A   1      51.237  26.664  24.634  1.00  0.00     0.022 A 
BRANCH  74  78
ATOM     78  S   UNL A   1      50.373  27.431  22.095  1.00  0.00     0.124 S 
ATOM     79  O   UNL A   1      51.779  27.099  21.896  1.00  0.00    -0.237 OA
ATOM     80  O   UNL A   1      49.406  26.481  21.553  1.00  0.00    -0.237 OA
ATOM     81  O   UNL A   1      50.030  28.839  21.908  1.00  0.00    -0.744 OA
ENDBRANCH  74  78
ENDBRANCH  47  71
BRANCH  59  82
ATOM     82  C   UNL A   1      45.689  32.589  28.983  1.00  0.00     0.023 A 
ATOM     83  C   UNL A   1      45.541  33.697  28.130  1.00  0.00     0.031 A 
ATOM     84  C   UNL A   1      46.350  32.779  30.209  1.00  0.00     0.131 A 
ATOM     85  C   UNL A   1      46.094  34.934  28.492  1.00  0.00     0.055 A 
ATOM     86  C   UNL A   1      46.847  34.025  30.590  1.00  0.00     0.041 A 
ATOM     87  F   UNL A   1      46.519  31.754  31.060  1.00  0.00    -0.206 F 
ATOM     88  C   UNL A   1      46.732  35.109  29.723  1.00  0.00     0.022 A 
BRANCH  85  89
ATOM     89  S   UNL A   1      46.047  36.293  27.293  1.00  0.00     0.124 S 
ATOM     90  O   UNL A   1      47.087  35.900  26.347  1.00  0.00    -0.237 OA
ATOM     91  O   UNL A   1      44.676  36.225  26.797  1.00  0.00    -0.237 OA
ATOM     92  O   UNL A   1      46.356  37.473  28.098  1.00  0.00    -0.744 OA
ENDBRANCH  85  89
ENDBRANCH  59  82
ENDBRANCH  33  34
ENDBRANCH  25  28
ENDBRANCH  23  24
ENDBRANCH  22  23
ENDBRANCH   1  22
TORSDOF 17
ENDMDL
