MODEL 1
REMARK VINA RESULT:     -10.8      0.000      0.000
REMARK SMILES CC[NH+](CC)C[C@H](C)NC(=O)N[C@H]1C=C[C@@H](C(=O)NCCCNC(=O)c2ccc(-c3c4nc(c(-c5cc(S(=O)(=O)[O-])ccc5F)c5ccc([nH]5)c(-c5cc(S(=O)(=O)[O-])ccc5F)c5nc(c(-c6cc(S(=O)(=O)[O-])ccc6F)c6ccc3[nH]6)C=C5)C=C4)cc2)C1
REMARK SMILES IDX 20 1 19 2 17 3 18 4 16 6 13 7 14 8 89 9 15 10 12 11 9 12
REMARK SMILES IDX 10 13 11 15 7 17 8 18 6 19 3 20 2 22 1 23 4 24 5 25 21 26
REMARK SMILES IDX 22 27 23 28 24 29 25 31 26 32 27 33 88 34 28 35 87 36 29 37
REMARK SMILES IDX 30 38 31 39 81 40 32 41 86 42 80 43 82 44 33 45 85 46 79 47
REMARK SMILES IDX 78 48 34 50 66 51 46 52 65 53 47 54 50 55 64 56 83 57 48 58
REMARK SMILES IDX 49 59 63 61 84 62 51 63 35 64 36 65 44 66 37 67 43 68 45 69
REMARK SMILES IDX 42 70 38 71 39 72 40 73 41 74 67 75 68 76 76 77 69 78 75 79
REMARK SMILES IDX 77 80 74 81 70 82 71 83 72 84 73 85 52 86 53 87 61 88 54 89
REMARK SMILES IDX 60 90 62 91 59 92 55 93 56 94 57 95 58 96
REMARK H PARENT 19 5 9 14 12 16 3 21 23 30 82 49 50 60
REMARK Flexibility Score: inf
ROOT
ATOM      1  C   UNL A   1      37.302  20.514  24.867  1.00  0.00     0.117 C 
ENDROOT
BRANCH   1   2
ATOM      2  N   UNL A   1      35.952  19.965  24.875  1.00  0.00    -0.356 N 
ATOM      3  C   UNL A   1      34.733  20.541  25.083  1.00  0.00     0.227 C 
ATOM      4  O   UNL A   1      33.743  19.805  25.024  1.00  0.00    -0.274 OA
ATOM      5  H   UNL A   1      35.911  18.998  24.697  1.00  0.00     0.163 HD
BRANCH   3   6
ATOM      6  C   UNL A   1      34.551  22.044  25.308  1.00  0.00     0.103 C 
ATOM      7  C   UNL A   1      32.895  23.462  26.485  1.00  0.00     0.107 C 
ATOM      8  C   UNL A   1      34.020  23.017  27.340  1.00  0.00    -0.006 C 
ATOM      9  C   UNL A   1      33.109  22.573  25.235  1.00  0.00     0.047 C 
ATOM     10  C   UNL A   1      34.979  22.352  26.698  1.00  0.00    -0.016 C 
BRANCH   7  11
ATOM     11  N   UNL A   1      31.602  23.234  27.092  1.00  0.00    -0.332 N 
ATOM     12  N   UNL A   1      29.943  24.645  26.133  1.00  0.00    -0.330 N 
ATOM     13  C   UNL A   1      30.345  23.627  26.891  1.00  0.00     0.315 C 
ATOM     14  H   UNL A   1      28.978  24.807  26.245  1.00  0.00     0.165 HD
ATOM     15  O   UNL A   1      29.468  23.017  27.511  1.00  0.00    -0.249 OA
ATOM     16  H   UNL A   1      31.668  22.622  27.860  1.00  0.00     0.165 HD
BRANCH  12  17
ATOM     17  C   UNL A   1      30.524  25.590  25.183  1.00  0.00     0.135 C 
ATOM     18  C   UNL A   1      29.451  25.957  24.152  1.00  0.00     0.037 C 
BRANCH  17  19
ATOM     19  C   UNL A   1      31.127  26.900  25.816  1.00  0.00     0.287 C 
BRANCH  19  20
ATOM     20  N   UNL A   1      31.829  27.905  25.025  1.00  0.00    -0.334 N 
ATOM     21  H   UNL A   1      31.562  27.502  24.127  1.00  0.00     0.348 HD
BRANCH  20  22
ATOM     22  C   UNL A   1      31.239  29.222  24.893  1.00  0.00     0.258 C 
ATOM     23  C   UNL A   1      31.933  30.225  25.809  1.00  0.00     0.071 C 
ENDBRANCH  20  22
BRANCH  20  24
ATOM     24  C   UNL A   1      33.279  27.815  24.883  1.00  0.00     0.258 C 
ATOM     25  C   UNL A   1      34.023  26.813  25.754  1.00  0.00     0.071 C 
ENDBRANCH  20  24
ENDBRANCH  19  20
ENDBRANCH  17  19
ENDBRANCH  12  17
ENDBRANCH   7  11
ENDBRANCH   3   6
ENDBRANCH   1   2
BRANCH   1  26
ATOM     26  C   UNL A   1      38.344  19.466  25.217  1.00  0.00     0.042 C 
BRANCH  26  27
ATOM     27  C   UNL A   1      39.442  20.003  26.118  1.00  0.00     0.118 C 
BRANCH  27  28
ATOM     28  N   UNL A   1      40.634  19.168  26.104  1.00  0.00    -0.352 N 
ATOM     29  C   UNL A   1      41.959  19.542  26.184  1.00  0.00     0.251 C 
ATOM     30  H   UNL A   1      40.473  18.200  26.025  1.00  0.00     0.163 HD
ATOM     31  O   UNL A   1      42.835  18.713  25.982  1.00  0.00    -0.269 OA
BRANCH  29  32
ATOM     32  C   UNL A   1      42.301  20.952  26.478  1.00  0.00     0.039 A 
ATOM     33  C   UNL A   1      42.555  21.325  27.800  1.00  0.00     0.014 A 
ATOM     34  C   UNL A   1      42.398  21.895  25.452  1.00  0.00     0.014 A 
ATOM     35  C   UNL A   1      42.979  22.628  28.079  1.00  0.00     0.010 A 
ATOM     36  C   UNL A   1      42.917  23.156  25.719  1.00  0.00     0.010 A 
ATOM     37  C   UNL A   1      43.204  23.540  27.036  1.00  0.00    -0.014 A 
BRANCH  37  38
ATOM     38  C   UNL A   1      43.720  24.910  27.297  1.00  0.00     0.031 A 
ATOM     39  C   UNL A   1      42.803  25.957  27.868  1.00  0.00     0.074 A 
ATOM     40  C   UNL A   1      44.982  25.228  26.951  1.00  0.00     0.049 A 
ATOM     41  N   UNL A   1      43.025  27.229  28.079  1.00  0.00    -0.248 NA
ATOM     42  C   UNL A   1      41.440  25.522  28.209  1.00  0.00     0.031 C 
ATOM     43  C   UNL A   1      45.951  24.312  26.344  1.00  0.00     0.029 A 
ATOM     44  N   UNL A   1      45.667  26.413  27.052  1.00  0.00    -0.354 N 
ATOM     45  C   UNL A   1      41.825  27.749  28.556  1.00  0.00     0.074 A 
ATOM     46  C   UNL A   1      40.863  26.668  28.531  1.00  0.00     0.031 C 
ATOM     47  C   UNL A   1      47.111  24.960  26.155  1.00  0.00     0.029 A 
ATOM     48  C   UNL A   1      46.958  26.347  26.581  1.00  0.00     0.049 A 
ATOM     49  H   UNL A   1      45.271  27.234  27.425  1.00  0.00     0.167 HD
ATOM     50  C   UNL A   1      41.559  29.003  28.999  1.00  0.00     0.034 A 
ATOM     51  C   UNL A   1      47.908  27.300  26.496  1.00  0.00     0.034 A 
ATOM     52  C   UNL A   1      42.538  30.061  29.034  1.00  0.00     0.049 A 
ATOM     53  C   UNL A   1      47.587  28.690  26.981  1.00  0.00     0.074 A 
ATOM     54  C   UNL A   1      42.401  31.349  29.521  1.00  0.00     0.029 A 
ATOM     55  N   UNL A   1      43.839  29.956  28.554  1.00  0.00    -0.354 N 
ATOM     56  N   UNL A   1      46.464  29.154  27.478  1.00  0.00    -0.248 NA
ATOM     57  C   UNL A   1      48.667  29.682  26.901  1.00  0.00     0.031 C 
ATOM     58  C   UNL A   1      43.593  32.041  29.276  1.00  0.00     0.029 A 
ATOM     59  C   UNL A   1      44.502  31.165  28.705  1.00  0.00     0.049 A 
ATOM     60  H   UNL A   1      44.232  29.142  28.164  1.00  0.00     0.167 HD
ATOM     61  C   UNL A   1      46.713  30.486  27.796  1.00  0.00     0.074 A 
ATOM     62  C   UNL A   1      48.095  30.745  27.447  1.00  0.00     0.031 C 
ATOM     63  C   UNL A   1      45.877  31.411  28.335  1.00  0.00     0.034 A 
BRANCH  50  64
ATOM     64  C   UNL A   1      40.146  29.288  29.456  1.00  0.00     0.023 A 
ATOM     65  C   UNL A   1      39.825  29.435  30.819  1.00  0.00     0.031 A 
ATOM     66  C   UNL A   1      39.096  29.360  28.525  1.00  0.00     0.131 A 
ATOM     67  C   UNL A   1      38.484  29.549  31.216  1.00  0.00     0.055 A 
ATOM     68  C   UNL A   1      37.772  29.568  28.921  1.00  0.00     0.041 A 
ATOM     69  F   UNL A   1      39.332  29.209  27.212  1.00  0.00    -0.206 F 
ATOM     70  C   UNL A   1      37.457  29.643  30.275  1.00  0.00     0.022 A 
BRANCH  67  71
ATOM     71  S   UNL A   1      38.092  29.399  32.980  1.00  0.00     0.124 S 
ATOM     72  O   UNL A   1      39.425  29.352  33.576  1.00  0.00    -0.237 OA
ATOM     73  O   UNL A   1      37.320  30.610  33.237  1.00  0.00    -0.237 OA
ATOM     74  O   UNL A   1      37.339  28.149  33.059  1.00  0.00    -0.744 OA
ENDBRANCH  67  71
ENDBRANCH  50  64
BRANCH  51  75
ATOM     75  C   UNL A   1      49.248  26.977  25.931  1.00  0.00     0.023 A 
ATOM     76  C   UNL A   1      49.621  27.430  24.657  1.00  0.00     0.031 A 
ATOM     77  C   UNL A   1      50.167  26.190  26.648  1.00  0.00     0.131 A 
ATOM     78  C   UNL A   1      50.865  27.063  24.120  1.00  0.00     0.055 A 
ATOM     79  C   UNL A   1      51.423  25.867  26.129  1.00  0.00     0.041 A 
ATOM     80  F   UNL A   1      49.862  25.736  27.874  1.00  0.00    -0.206 F 
ATOM     81  C   UNL A   1      51.773  26.295  24.853  1.00  0.00     0.022 A 
BRANCH  78  82
ATOM     82  S   UNL A   1      51.254  27.550  22.416  1.00  0.00     0.124 S 
ATOM     83  O   UNL A   1      50.777  28.928  22.384  1.00  0.00    -0.237 OA
ATOM     84  O   UNL A   1      52.701  27.369  22.372  1.00  0.00    -0.237 OA
ATOM     85  O   UNL A   1      50.486  26.604  21.609  1.00  0.00    -0.744 OA
ENDBRANCH  78  82
ENDBRANCH  51  75
BRANCH  63  86
ATOM     86  C   UNL A   1      46.456  32.776  28.613  1.00  0.00     0.023 A 
ATOM     87  C   UNL A   1      47.003  33.107  29.865  1.00  0.00     0.031 A 
ATOM     88  C   UNL A   1      46.446  33.764  27.612  1.00  0.00     0.131 A 
ATOM     89  C   UNL A   1      47.469  34.409  30.102  1.00  0.00     0.055 A 
ATOM     90  C   UNL A   1      46.966  35.040  27.836  1.00  0.00     0.041 A 
ATOM     91  F   UNL A   1      45.933  33.504  26.399  1.00  0.00    -0.206 F 
ATOM     92  C   UNL A   1      47.469  35.372  29.089  1.00  0.00     0.022 A 
BRANCH  89  93
ATOM     93  S   UNL A   1      47.993  34.856  31.779  1.00  0.00     0.124 S 
ATOM     94  O   UNL A   1      48.514  36.205  31.586  1.00  0.00    -0.237 OA
ATOM     95  O   UNL A   1      46.748  34.756  32.533  1.00  0.00    -0.237 OA
ATOM     96  O   UNL A   1      48.997  33.845  32.106  1.00  0.00    -0.744 OA
ENDBRANCH  89  93
ENDBRANCH  63  86
ENDBRANCH  37  38
ENDBRANCH  29  32
ENDBRANCH  27  28
ENDBRANCH  26  27
ENDBRANCH   1  26
TORSDOF 19
ENDMDL
MODEL 2
REMARK VINA RESULT:     -10.8      1.930      2.622
REMARK SMILES CC[NH+](CC)C[C@H](C)NC(=O)N[C@H]1C=C[C@@H](C(=O)NCCCNC(=O)c2ccc(-c3c4nc(c(-c5cc(S(=O)(=O)[O-])ccc5F)c5ccc([nH]5)c(-c5cc(S(=O)(=O)[O-])ccc5F)c5nc(c(-c6cc(S(=O)(=O)[O-])ccc6F)c6ccc3[nH]6)C=C5)C=C4)cc2)C1
REMARK SMILES IDX 20 1 19 2 17 3 18 4 16 6 13 7 14 8 89 9 15 10 12 11 9 12
REMARK SMILES IDX 10 13 11 15 7 17 8 18 6 19 3 20 2 22 1 23 4 24 5 25 21 26
REMARK SMILES IDX 22 27 23 28 24 29 25 31 26 32 27 33 88 34 28 35 87 36 29 37
REMARK SMILES IDX 30 38 31 39 81 40 32 41 86 42 80 43 82 44 33 45 85 46 79 47
REMARK SMILES IDX 78 48 34 50 66 51 46 52 65 53 47 54 50 55 64 56 83 57 48 58
REMARK SMILES IDX 49 59 63 61 84 62 51 63 35 64 36 65 44 66 37 67 43 68 45 69
REMARK SMILES IDX 42 70 38 71 39 72 40 73 41 74 67 75 68 76 76 77 69 78 75 79
REMARK SMILES IDX 77 80 74 81 70 82 71 83 72 84 73 85 52 86 53 87 61 88 54 89
REMARK SMILES IDX 60 90 62 91 59 92 55 93 56 94 57 95 58 96
REMARK H PARENT 19 5 9 14 12 16 3 21 23 30 82 49 50 60
REMARK Flexibility Score: inf
ROOT
ATOM      1  C   UNL A   1      37.228  20.557  24.888  1.00  0.00     0.117 C 
ENDROOT
BRANCH   1   2
ATOM      2  N   UNL A   1      37.690  21.906  25.192  1.00  0.00    -0.356 N 
ATOM      3  C   UNL A   1      37.027  23.092  25.316  1.00  0.00     0.227 C 
ATOM      4  O   UNL A   1      37.703  24.090  25.589  1.00  0.00    -0.274 OA
ATOM      5  H   UNL A   1      38.661  21.974  25.334  1.00  0.00     0.163 HD
BRANCH   3   6
ATOM      6  C   UNL A   1      35.506  23.210  25.206  1.00  0.00     0.103 C 
ATOM      7  C   UNL A   1      33.930  24.888  24.290  1.00  0.00     0.107 C 
ATOM      8  C   UNL A   1      34.371  23.875  23.302  1.00  0.00    -0.006 C 
ATOM      9  C   UNL A   1      34.912  24.607  25.453  1.00  0.00     0.047 C 
ATOM     10  C   UNL A   1      35.125  22.898  23.803  1.00  0.00    -0.016 C 
BRANCH   7  11
ATOM     11  N   UNL A   1      34.052  26.244  23.799  1.00  0.00    -0.332 N 
ATOM     12  N   UNL A   1      32.915  27.776  25.221  1.00  0.00    -0.330 N 
ATOM     13  C   UNL A   1      33.739  27.468  24.221  1.00  0.00     0.315 C 
ATOM     14  H   UNL A   1      32.755  28.748  25.257  1.00  0.00     0.165 HD
ATOM     15  O   UNL A   1      34.222  28.412  23.589  1.00  0.00    -0.249 OA
ATOM     16  H   UNL A   1      34.484  26.268  22.915  1.00  0.00     0.165 HD
BRANCH  12  17
ATOM     17  C   UNL A   1      32.183  27.087  26.279  1.00  0.00     0.135 C 
ATOM     18  C   UNL A   1      32.140  28.000  27.509  1.00  0.00     0.037 C 
BRANCH  17  19
ATOM     19  C   UNL A   1      30.723  26.629  25.903  1.00  0.00     0.287 C 
BRANCH  19  20
ATOM     20  N   UNL A   1      30.421  25.887  24.685  1.00  0.00    -0.334 N 
ATOM     21  H   UNL A   1      31.340  26.036  24.269  1.00  0.00     0.348 HD
BRANCH  20  22
ATOM     22  C   UNL A   1      30.404  24.438  24.739  1.00  0.00     0.258 C 
ATOM     23  C   UNL A   1      30.660  23.838  23.361  1.00  0.00     0.071 C 
ENDBRANCH  20  22
BRANCH  20  24
ATOM     24  C   UNL A   1      29.607  26.516  23.650  1.00  0.00     0.258 C 
ATOM     25  C   UNL A   1      29.800  28.004  23.393  1.00  0.00     0.071 C 
ENDBRANCH  20  24
ENDBRANCH  19  20
ENDBRANCH  17  19
ENDBRANCH  12  17
ENDBRANCH   7  11
ENDBRANCH   3   6
ENDBRANCH   1   2
BRANCH   1  26
ATOM     26  C   UNL A   1      38.334  19.529  25.043  1.00  0.00     0.042 C 
BRANCH  26  27
ATOM     27  C   UNL A   1      39.433  19.981  25.988  1.00  0.00     0.118 C 
BRANCH  27  28
ATOM     28  N   UNL A   1      40.622  19.146  25.902  1.00  0.00    -0.352 N 
ATOM     29  C   UNL A   1      41.950  19.515  25.955  1.00  0.00     0.251 C 
ATOM     30  H   UNL A   1      40.456  18.182  25.791  1.00  0.00     0.163 HD
ATOM     31  O   UNL A   1      42.817  18.692  25.693  1.00  0.00    -0.269 OA
BRANCH  29  32
ATOM     32  C   UNL A   1      42.305  20.911  26.293  1.00  0.00     0.039 A 
ATOM     33  C   UNL A   1      42.596  21.233  27.621  1.00  0.00     0.014 A 
ATOM     34  C   UNL A   1      42.378  21.892  25.301  1.00  0.00     0.014 A 
ATOM     35  C   UNL A   1      43.032  22.523  27.938  1.00  0.00     0.010 A 
ATOM     36  C   UNL A   1      42.908  23.142  25.602  1.00  0.00     0.010 A 
ATOM     37  C   UNL A   1      43.232  23.474  26.924  1.00  0.00    -0.014 A 
BRANCH  37  38
ATOM     38  C   UNL A   1      43.760  24.831  27.224  1.00  0.00     0.031 A 
ATOM     39  C   UNL A   1      42.846  25.878  27.800  1.00  0.00     0.074 A 
ATOM     40  C   UNL A   1      45.032  25.141  26.907  1.00  0.00     0.049 A 
ATOM     41  N   UNL A   1      43.079  27.143  28.042  1.00  0.00    -0.248 NA
ATOM     42  C   UNL A   1      41.471  25.453  28.107  1.00  0.00     0.031 C 
ATOM     43  C   UNL A   1      46.000  24.226  26.298  1.00  0.00     0.029 A 
ATOM     44  N   UNL A   1      45.729  26.315  27.044  1.00  0.00    -0.354 N 
ATOM     45  C   UNL A   1      41.878  27.667  28.508  1.00  0.00     0.074 A 
ATOM     46  C   UNL A   1      40.903  26.599  28.444  1.00  0.00     0.031 C 
ATOM     47  C   UNL A   1      47.172  24.863  26.143  1.00  0.00     0.029 A 
ATOM     48  C   UNL A   1      47.027  26.243  26.596  1.00  0.00     0.049 A 
ATOM     49  H   UNL A   1      45.337  27.132  27.428  1.00  0.00     0.167 HD
ATOM     50  C   UNL A   1      41.618  28.914  28.973  1.00  0.00     0.034 A 
ATOM     51  C   UNL A   1      47.991  27.184  26.547  1.00  0.00     0.034 A 
ATOM     52  C   UNL A   1      42.609  29.960  29.047  1.00  0.00     0.049 A 
ATOM     53  C   UNL A   1      47.678  28.568  27.056  1.00  0.00     0.074 A 
ATOM     54  C   UNL A   1      42.479  31.238  29.559  1.00  0.00     0.029 A 
ATOM     55  N   UNL A   1      43.917  29.848  28.589  1.00  0.00    -0.354 N 
ATOM     56  N   UNL A   1      46.552  29.036  27.543  1.00  0.00    -0.248 NA
ATOM     57  C   UNL A   1      48.772  29.548  27.016  1.00  0.00     0.031 C 
ATOM     58  C   UNL A   1      43.684  31.920  29.351  1.00  0.00     0.029 A 
ATOM     59  C   UNL A   1      44.593  31.045  28.777  1.00  0.00     0.049 A 
ATOM     60  H   UNL A   1      44.307  29.038  28.189  1.00  0.00     0.167 HD
ATOM     61  C   UNL A   1      46.811  30.358  27.893  1.00  0.00     0.074 A 
ATOM     62  C   UNL A   1      48.202  30.606  27.574  1.00  0.00     0.031 C 
ATOM     63  C   UNL A   1      45.977  31.282  28.436  1.00  0.00     0.034 A 
BRANCH  50  64
ATOM     64  C   UNL A   1      40.202  29.208  29.411  1.00  0.00     0.023 A 
ATOM     65  C   UNL A   1      39.825  29.178  30.767  1.00  0.00     0.031 A 
ATOM     66  C   UNL A   1      39.200  29.467  28.459  1.00  0.00     0.131 A 
ATOM     67  C   UNL A   1      38.475  29.307  31.124  1.00  0.00     0.055 A 
ATOM     68  C   UNL A   1      37.871  29.687  28.830  1.00  0.00     0.041 A 
ATOM     69  F   UNL A   1      39.489  29.489  27.149  1.00  0.00    -0.206 F 
ATOM     70  C   UNL A   1      37.498  29.588  30.167  1.00  0.00     0.022 A 
BRANCH  67  71
ATOM     71  S   UNL A   1      37.994  28.931  32.832  1.00  0.00     0.124 S 
ATOM     72  O   UNL A   1      38.057  27.471  32.841  1.00  0.00    -0.237 OA
ATOM     73  O   UNL A   1      39.020  29.619  33.608  1.00  0.00    -0.237 OA
ATOM     74  O   UNL A   1      36.648  29.490  32.941  1.00  0.00    -0.744 OA
ENDBRANCH  67  71
ENDBRANCH  50  64
BRANCH  51  75
ATOM     75  C   UNL A   1      49.336  26.857  25.999  1.00  0.00     0.023 A 
ATOM     76  C   UNL A   1      49.746  27.348  24.751  1.00  0.00     0.031 A 
ATOM     77  C   UNL A   1      50.225  26.027  26.707  1.00  0.00     0.131 A 
ATOM     78  C   UNL A   1      50.994  26.977  24.227  1.00  0.00     0.055 A 
ATOM     79  C   UNL A   1      51.486  25.700  26.203  1.00  0.00     0.041 A 
ATOM     80  F   UNL A   1      49.885  25.536  27.909  1.00  0.00    -0.206 F 
ATOM     81  C   UNL A   1      51.872  26.166  24.951  1.00  0.00     0.022 A 
BRANCH  78  82
ATOM     82  S   UNL A   1      51.428  27.517  22.551  1.00  0.00     0.124 S 
ATOM     83  O   UNL A   1      52.848  27.188  22.491  1.00  0.00    -0.237 OA
ATOM     84  O   UNL A   1      50.543  26.698  21.729  1.00  0.00    -0.237 OA
ATOM     85  O   UNL A   1      51.118  28.945  22.563  1.00  0.00    -0.744 OA
ENDBRANCH  78  82
ENDBRANCH  51  75
BRANCH  63  86
ATOM     86  C   UNL A   1      46.567  32.633  28.753  1.00  0.00     0.023 A 
ATOM     87  C   UNL A   1      46.570  33.679  27.813  1.00  0.00     0.031 A 
ATOM     88  C   UNL A   1      47.149  32.872  30.011  1.00  0.00     0.131 A 
ATOM     89  C   UNL A   1      47.191  34.898  28.126  1.00  0.00     0.055 A 
ATOM     90  C   UNL A   1      47.711  34.107  30.337  1.00  0.00     0.041 A 
ATOM     91  F   UNL A   1      47.177  31.908  30.946  1.00  0.00    -0.206 F 
ATOM     92  C   UNL A   1      47.746  35.124  29.389  1.00  0.00     0.022 A 
BRANCH  89  93
ATOM     93  S   UNL A   1      47.343  36.157  26.829  1.00  0.00     0.124 S 
ATOM     94  O   UNL A   1      46.477  37.218  27.333  1.00  0.00    -0.237 OA
ATOM     95  O   UNL A   1      48.773  36.443  26.838  1.00  0.00    -0.237 OA
ATOM     96  O   UNL A   1      46.855  35.475  25.631  1.00  0.00    -0.744 OA
ENDBRANCH  89  93
ENDBRANCH  63  86
ENDBRANCH  37  38
ENDBRANCH  29  32
ENDBRANCH  27  28
ENDBRANCH  26  27
ENDBRANCH   1  26
TORSDOF 19
ENDMDL
MODEL 3
REMARK VINA RESULT:     -10.8      2.216      7.876
REMARK SMILES CC[NH+](CC)C[C@H](C)NC(=O)N[C@H]1C=C[C@@H](C(=O)NCCCNC(=O)c2ccc(-c3c4nc(c(-c5cc(S(=O)(=O)[O-])ccc5F)c5ccc([nH]5)c(-c5cc(S(=O)(=O)[O-])ccc5F)c5nc(c(-c6cc(S(=O)(=O)[O-])ccc6F)c6ccc3[nH]6)C=C5)C=C4)cc2)C1
REMARK SMILES IDX 20 1 19 2 17 3 18 4 16 6 13 7 14 8 89 9 15 10 12 11 9 12
REMARK SMILES IDX 10 13 11 15 7 17 8 18 6 19 3 20 2 22 1 23 4 24 5 25 21 26
REMARK SMILES IDX 22 27 23 28 24 29 25 31 26 32 27 33 88 34 28 35 87 36 29 37
REMARK SMILES IDX 30 38 31 39 81 40 32 41 86 42 80 43 82 44 33 45 85 46 79 47
REMARK SMILES IDX 78 48 34 50 66 51 46 52 65 53 47 54 50 55 64 56 83 57 48 58
REMARK SMILES IDX 49 59 63 61 84 62 51 63 35 64 36 65 44 66 37 67 43 68 45 69
REMARK SMILES IDX 42 70 38 71 39 72 40 73 41 74 67 75 68 76 76 77 69 78 75 79
REMARK SMILES IDX 77 80 74 81 70 82 71 83 72 84 73 85 52 86 53 87 61 88 54 89
REMARK SMILES IDX 60 90 62 91 59 92 55 93 56 94 57 95 58 96
REMARK H PARENT 19 5 9 14 12 16 3 21 23 30 82 49 50 60
REMARK Flexibility Score: inf
ROOT
ATOM      1  C   UNL A   1      37.512  20.097  24.715  1.00  0.00     0.117 C 
ENDROOT
BRANCH   1   2
ATOM      2  N   UNL A   1      36.171  19.535  24.818  1.00  0.00    -0.356 N 
ATOM      3  C   UNL A   1      34.948  20.114  24.988  1.00  0.00     0.227 C 
ATOM      4  O   UNL A   1      33.969  19.362  25.037  1.00  0.00    -0.274 OA
ATOM      5  H   UNL A   1      36.142  18.553  24.753  1.00  0.00     0.163 HD
BRANCH   3   6
ATOM      6  C   UNL A   1      34.746  21.630  25.044  1.00  0.00     0.103 C 
ATOM      7  C   UNL A   1      33.130  23.154  26.141  1.00  0.00     0.107 C 
ATOM      8  C   UNL A   1      34.312  22.831  26.973  1.00  0.00    -0.006 C 
ATOM      9  C   UNL A   1      33.292  22.125  24.995  1.00  0.00     0.047 C 
ATOM     10  C   UNL A   1      35.247  22.109  26.359  1.00  0.00    -0.016 C 
BRANCH   7  11
ATOM     11  N   UNL A   1      31.879  22.981  26.847  1.00  0.00    -0.332 N 
ATOM     12  N   UNL A   1      30.181  24.380  25.941  1.00  0.00    -0.330 N 
ATOM     13  C   UNL A   1      30.618  23.390  26.716  1.00  0.00     0.315 C 
ATOM     14  H   UNL A   1      29.230  24.567  26.112  1.00  0.00     0.165 HD
ATOM     15  O   UNL A   1      29.777  22.827  27.424  1.00  0.00    -0.249 OA
ATOM     16  H   UNL A   1      31.989  22.403  27.637  1.00  0.00     0.165 HD
BRANCH  12  17
ATOM     17  C   UNL A   1      30.710  25.267  24.908  1.00  0.00     0.135 C 
ATOM     18  C   UNL A   1      30.445  24.627  23.541  1.00  0.00     0.037 C 
BRANCH  17  19
ATOM     19  C   UNL A   1      30.145  26.738  24.928  1.00  0.00     0.287 C 
BRANCH  19  20
ATOM     20  N   UNL A   1      30.399  27.692  23.854  1.00  0.00    -0.334 N 
ATOM     21  H   UNL A   1      30.785  26.995  23.217  1.00  0.00     0.348 HD
BRANCH  20  22
ATOM     22  C   UNL A   1      29.279  28.160  23.062  1.00  0.00     0.258 C 
ATOM     23  C   UNL A   1      29.159  29.680  23.133  1.00  0.00     0.071 C 
ENDBRANCH  20  22
BRANCH  20  24
ATOM     24  C   UNL A   1      31.558  28.574  23.942  1.00  0.00     0.258 C 
ATOM     25  C   UNL A   1      32.577  28.533  22.813  1.00  0.00     0.071 C 
ENDBRANCH  20  24
ENDBRANCH  19  20
ENDBRANCH  17  19
ENDBRANCH  12  17
ENDBRANCH   7  11
ENDBRANCH   3   6
ENDBRANCH   1   2
BRANCH   1  26
ATOM     26  C   UNL A   1      38.559  19.192  25.339  1.00  0.00     0.042 C 
BRANCH  26  27
ATOM     27  C   UNL A   1      39.587  19.954  26.157  1.00  0.00     0.118 C 
BRANCH  27  28
ATOM     28  N   UNL A   1      40.897  19.322  26.135  1.00  0.00    -0.352 N 
ATOM     29  C   UNL A   1      42.143  19.899  26.257  1.00  0.00     0.251 C 
ATOM     30  H   UNL A   1      40.895  18.344  26.016  1.00  0.00     0.163 HD
ATOM     31  O   UNL A   1      43.144  19.229  26.042  1.00  0.00    -0.269 OA
BRANCH  29  32
ATOM     32  C   UNL A   1      42.251  21.332  26.613  1.00  0.00     0.039 A 
ATOM     33  C   UNL A   1      42.573  21.681  27.926  1.00  0.00     0.014 A 
ATOM     34  C   UNL A   1      42.061  22.326  25.649  1.00  0.00     0.014 A 
ATOM     35  C   UNL A   1      42.778  23.026  28.252  1.00  0.00     0.010 A 
ATOM     36  C   UNL A   1      42.365  23.648  25.950  1.00  0.00     0.010 A 
ATOM     37  C   UNL A   1      42.717  24.014  27.257  1.00  0.00    -0.014 A 
BRANCH  37  38
ATOM     38  C   UNL A   1      42.998  25.442  27.560  1.00  0.00     0.031 A 
ATOM     39  C   UNL A   1      44.385  25.989  27.363  1.00  0.00     0.074 A 
ATOM     40  C   UNL A   1      42.029  26.219  28.083  1.00  0.00     0.049 A 
ATOM     41  N   UNL A   1      44.861  27.172  27.657  1.00  0.00    -0.248 NA
ATOM     42  C   UNL A   1      45.381  25.067  26.795  1.00  0.00     0.031 C 
ATOM     43  C   UNL A   1      40.658  25.788  28.366  1.00  0.00     0.029 A 
ATOM     44  N   UNL A   1      42.051  27.533  28.477  1.00  0.00    -0.354 N 
ATOM     45  C   UNL A   1      46.213  27.128  27.331  1.00  0.00     0.074 A 
ATOM     46  C   UNL A   1      46.492  25.779  26.887  1.00  0.00     0.031 C 
ATOM     47  C   UNL A   1      39.964  26.826  28.860  1.00  0.00     0.029 A 
ATOM     48  C   UNL A   1      40.849  27.981  28.973  1.00  0.00     0.049 A 
ATOM     49  H   UNL A   1      42.852  28.102  28.413  1.00  0.00     0.167 HD
ATOM     50  C   UNL A   1      47.130  28.127  27.371  1.00  0.00     0.034 A 
ATOM     51  C   UNL A   1      40.500  29.184  29.471  1.00  0.00     0.034 A 
ATOM     52  C   UNL A   1      46.828  29.471  27.800  1.00  0.00     0.049 A 
ATOM     53  C   UNL A   1      41.537  30.277  29.520  1.00  0.00     0.074 A 
ATOM     54  C   UNL A   1      47.657  30.578  27.821  1.00  0.00     0.029 A 
ATOM     55  N   UNL A   1      45.596  29.889  28.290  1.00  0.00    -0.354 N 
ATOM     56  N   UNL A   1      42.800  30.236  29.159  1.00  0.00    -0.248 NA
ATOM     57  C   UNL A   1      41.099  31.580  30.036  1.00  0.00     0.031 C 
ATOM     58  C   UNL A   1      46.949  31.646  28.384  1.00  0.00     0.029 A 
ATOM     59  C   UNL A   1      45.654  31.229  28.646  1.00  0.00     0.049 A 
ATOM     60  H   UNL A   1      44.798  29.319  28.372  1.00  0.00     0.167 HD
ATOM     61  C   UNL A   1      43.297  31.517  29.379  1.00  0.00     0.074 A 
ATOM     62  C   UNL A   1      42.197  32.308  29.890  1.00  0.00     0.031 C 
ATOM     63  C   UNL A   1      44.550  31.999  29.171  1.00  0.00     0.034 A 
BRANCH  50  64
ATOM     64  C   UNL A   1      48.544  27.783  26.962  1.00  0.00     0.023 A 
ATOM     65  C   UNL A   1      49.010  28.005  25.652  1.00  0.00     0.031 A 
ATOM     66  C   UNL A   1      49.424  27.176  27.875  1.00  0.00     0.131 A 
ATOM     67  C   UNL A   1      50.275  27.537  25.268  1.00  0.00     0.055 A 
ATOM     68  C   UNL A   1      50.718  26.796  27.510  1.00  0.00     0.041 A 
ATOM     69  F   UNL A   1      49.035  26.919  29.134  1.00  0.00    -0.206 F 
ATOM     70  C   UNL A   1      51.144  26.958  26.195  1.00  0.00     0.022 A 
BRANCH  67  71
ATOM     71  S   UNL A   1      50.698  27.543  23.504  1.00  0.00     0.124 S 
ATOM     72  O   UNL A   1      50.898  28.968  23.253  1.00  0.00    -0.237 OA
ATOM     73  O   UNL A   1      51.897  26.713  23.464  1.00  0.00    -0.237 OA
ATOM     74  O   UNL A   1      49.516  26.966  22.867  1.00  0.00    -0.744 OA
ENDBRANCH  67  71
ENDBRANCH  50  64
BRANCH  51  75
ATOM     75  C   UNL A   1      39.114  29.423  29.961  1.00  0.00     0.023 A 
ATOM     76  C   UNL A   1      38.177  30.106  29.171  1.00  0.00     0.031 A 
ATOM     77  C   UNL A   1      38.713  28.992  31.239  1.00  0.00     0.131 A 
ATOM     78  C   UNL A   1      36.896  30.372  29.677  1.00  0.00     0.055 A 
ATOM     79  C   UNL A   1      37.421  29.218  31.720  1.00  0.00     0.041 A 
ATOM     80  F   UNL A   1      39.568  28.329  32.032  1.00  0.00    -0.206 F 
ATOM     81  C   UNL A   1      36.508  29.922  30.942  1.00  0.00     0.022 A 
BRANCH  78  82
ATOM     82  S   UNL A   1      35.761  31.379  28.683  1.00  0.00     0.124 S 
ATOM     83  O   UNL A   1      35.239  30.396  27.740  1.00  0.00    -0.237 OA
ATOM     84  O   UNL A   1      34.823  31.863  29.691  1.00  0.00    -0.237 OA
ATOM     85  O   UNL A   1      36.631  32.400  28.103  1.00  0.00    -0.744 OA
ENDBRANCH  78  82
ENDBRANCH  51  75
BRANCH  63  86
ATOM     86  C   UNL A   1      44.776  33.462  29.462  1.00  0.00     0.023 A 
ATOM     87  C   UNL A   1      44.566  34.452  28.485  1.00  0.00     0.031 A 
ATOM     88  C   UNL A   1      45.223  33.868  30.732  1.00  0.00     0.131 A 
ATOM     89  C   UNL A   1      44.855  35.794  28.778  1.00  0.00     0.055 A 
ATOM     90  C   UNL A   1      45.451  35.211  31.034  1.00  0.00     0.041 A 
ATOM     91  F   UNL A   1      45.444  32.965  31.700  1.00  0.00    -0.206 F 
ATOM     92  C   UNL A   1      45.279  36.181  30.052  1.00  0.00     0.022 A 
BRANCH  89  93
ATOM     93  S   UNL A   1      44.753  37.018  27.444  1.00  0.00     0.124 S 
ATOM     94  O   UNL A   1      45.863  36.622  26.583  1.00  0.00    -0.237 OA
ATOM     95  O   UNL A   1      43.416  36.785  26.907  1.00  0.00    -0.237 OA
ATOM     96  O   UNL A   1      44.929  38.294  28.135  1.00  0.00    -0.744 OA
ENDBRANCH  89  93
ENDBRANCH  63  86
ENDBRANCH  37  38
ENDBRANCH  29  32
ENDBRANCH  27  28
ENDBRANCH  26  27
ENDBRANCH   1  26
TORSDOF 19
ENDMDL
