MODEL 1
REMARK VINA RESULT:     -11.5      0.000      0.000
REMARK SMILES C/C=C(\C)[C@@H]1C=C[C@@H]2C[C@H](C)C[C@H](C)[C@@H]2[C@@H]1C(=O)C1=C(NCCCNC(=O)c2ccc(-c3c4nc(c(-c5cc(S(=O)(=O)[O-])ccc5F)c5ccc([nH]5)c(-c5cc(S(=O)(=O)[O-])ccc5F)c5nc(c(-c6cc(S(=O)(=O)[O-])ccc6F)c6ccc3[nH]6)C=C5)C=C4)cc2)[C@H](C[C@](C)(O)C(=O)[O-])NC1=O
REMARK SMILES IDX 23 1 22 2 21 3 20 5 19 6 100 7 91 8 99 9 101 10 17 12 18 13
REMARK SMILES IDX 16 14 5 15 6 16 7 17 15 18 8 19 13 20 9 21 12 22 14 23 10 24
REMARK SMILES IDX 11 25 3 26 1 27 2 28 4 29 92 30 93 31 94 32 95 33 96 35
REMARK SMILES IDX 97 36 98 37 24 38 25 39 26 40 27 42 28 43 29 44 90 45 30 46
REMARK SMILES IDX 89 47 31 48 32 49 33 50 83 51 34 52 88 53 82 54 84 55 35 56
REMARK SMILES IDX 87 57 81 58 80 59 36 61 68 62 48 63 67 64 49 65 52 66 66 67
REMARK SMILES IDX 85 68 50 69 51 70 65 72 86 73 53 74 37 75 38 76 46 77 39 78
REMARK SMILES IDX 45 79 47 80 44 81 40 82 41 83 42 84 43 85 69 86 70 87 78 88
REMARK SMILES IDX 71 89 77 90 79 91 76 92 72 93 73 94 74 95 75 96 54 97 55 98
REMARK SMILES IDX 63 99 56 100 62 101 64 102 61 103 57 104 58 105 59 106
REMARK SMILES IDX 60 107
REMARK H PARENT 21 4 99 11 95 34 25 41 84 60 52 71
REMARK Flexibility Score: inf
ROOT
ATOM      1  C   UNL A   1      34.580  28.671  26.763  1.00  0.00     0.042 C 
ENDROOT
BRANCH   1   2
ATOM      2  C   UNL A   1      34.094  28.547  25.326  1.00  0.00     0.114 C 
BRANCH   2   3
ATOM      3  N   UNL A   1      34.045  27.158  24.912  1.00  0.00    -0.386 N 
ATOM      4  H   UNL A   1      34.312  26.506  25.600  1.00  0.00     0.160 HD
BRANCH   3   5
ATOM      5  C   UNL A   1      33.675  26.613  23.693  1.00  0.00     0.050 C 
ATOM      6  C   UNL A   1      33.834  25.377  23.136  1.00  0.00     0.104 C 
ATOM      7  C   UNL A   1      33.221  25.516  21.784  1.00  0.00     0.257 C 
ATOM      8  C   UNL A   1      32.772  27.509  22.828  1.00  0.00     0.133 C 
ATOM      9  N   UNL A   1      32.815  26.807  21.608  1.00  0.00    -0.343 N 
ATOM     10  O   UNL A   1      32.981  24.696  20.924  1.00  0.00    -0.269 OA
ATOM     11  H   UNL A   1      32.580  27.199  20.736  1.00  0.00     0.164 HD
BRANCH   6  12
ATOM     12  C   UNL A   1      34.138  24.133  23.933  1.00  0.00     0.174 C 
ATOM     13  O   UNL A   1      34.359  23.112  23.258  1.00  0.00    -0.294 OA
BRANCH  12  14
ATOM     14  C   UNL A   1      34.193  23.955  25.491  1.00  0.00     0.076 C 
ATOM     15  C   UNL A   1      35.231  22.953  26.044  1.00  0.00     0.048 C 
ATOM     16  C   UNL A   1      34.696  21.543  25.894  1.00  0.00    -0.022 C 
ATOM     17  C   UNL A   1      33.371  21.277  25.784  1.00  0.00    -0.027 C 
ATOM     18  C   UNL A   1      32.863  23.640  26.277  1.00  0.00     0.010 C 
ATOM     19  C   UNL A   1      32.261  22.321  25.800  1.00  0.00     0.016 C 
ATOM     20  C   UNL A   1      31.757  24.686  26.464  1.00  0.00    -0.010 C 
ATOM     21  C   UNL A   1      31.461  22.523  24.491  1.00  0.00     0.011 C 
ATOM     22  C   UNL A   1      31.029  25.016  25.177  1.00  0.00     0.007 C 
ATOM     23  C   UNL A   1      32.240  25.928  27.208  1.00  0.00     0.008 C 
ATOM     24  C   UNL A   1      30.529  23.761  24.441  1.00  0.00    -0.013 C 
ATOM     25  C   UNL A   1      30.225  24.141  22.984  1.00  0.00     0.007 C 
BRANCH  15  26
ATOM     26  C   UNL A   1      36.682  23.284  25.685  1.00  0.00    -0.070 C 
ATOM     27  C   UNL A   1      38.897  24.510  26.030  1.00  0.00     0.035 C 
ATOM     28  C   UNL A   1      37.497  24.098  26.388  1.00  0.00    -0.031 C 
ATOM     29  C   UNL A   1      37.096  22.686  24.346  1.00  0.00     0.040 C 
ENDBRANCH  15  26
ENDBRANCH  12  14
ENDBRANCH   6  12
BRANCH   8  30
ATOM     30  C   UNL A   1      31.365  27.533  23.471  1.00  0.00     0.072 C 
BRANCH  30  31
ATOM     31  C   UNL A   1      30.370  28.621  23.032  1.00  0.00     0.103 C 
ATOM     32  C   UNL A   1      28.950  28.100  22.852  1.00  0.00     0.049 C 
BRANCH  31  33
ATOM     33  O   UNL A   1      30.803  29.092  21.741  1.00  0.00    -0.384 OA
ATOM     34  H   UNL A   1      31.041  30.030  21.803  1.00  0.00     0.211 HD
ENDBRANCH  31  33
BRANCH  31  35
ATOM     35  C   UNL A   1      30.386  29.807  24.009  1.00  0.00     0.073 C 
ATOM     36  O   UNL A   1      31.181  29.997  24.915  1.00  0.00    -0.547 OA
ATOM     37  O   UNL A   1      29.438  30.727  23.716  1.00  0.00    -0.547 OA
ENDBRANCH  31  35
ENDBRANCH  30  31
ENDBRANCH   8  30
ENDBRANCH   3   5
ENDBRANCH   2   3
ENDBRANCH   1   2
BRANCH   1  38
ATOM     38  C   UNL A   1      33.555  29.223  27.746  1.00  0.00     0.118 C 
BRANCH  38  39
ATOM     39  N   UNL A   1      33.638  30.666  27.878  1.00  0.00    -0.352 N 
ATOM     40  C   UNL A   1      34.574  31.455  28.502  1.00  0.00     0.251 C 
ATOM     41  H   UNL A   1      32.902  31.162  27.452  1.00  0.00     0.163 HD
ATOM     42  O   UNL A   1      34.307  32.640  28.691  1.00  0.00    -0.269 OA
BRANCH  40  43
ATOM     43  C   UNL A   1      35.877  30.910  28.956  1.00  0.00     0.039 A 
ATOM     44  C   UNL A   1      37.038  31.326  28.294  1.00  0.00     0.014 A 
ATOM     45  C   UNL A   1      35.971  29.940  29.958  1.00  0.00     0.014 A 
ATOM     46  C   UNL A   1      38.284  30.802  28.657  1.00  0.00     0.010 A 
ATOM     47  C   UNL A   1      37.222  29.474  30.372  1.00  0.00     0.010 A 
ATOM     48  C   UNL A   1      38.391  29.886  29.715  1.00  0.00    -0.014 A 
BRANCH  48  49
ATOM     49  C   UNL A   1      39.712  29.323  30.113  1.00  0.00     0.031 A 
ATOM     50  C   UNL A   1      40.500  29.957  31.229  1.00  0.00     0.074 A 
ATOM     51  C   UNL A   1      40.219  28.266  29.450  1.00  0.00     0.049 A 
ATOM     52  N   UNL A   1      41.693  29.655  31.679  1.00  0.00    -0.248 NA
ATOM     53  C   UNL A   1      39.876  31.101  31.910  1.00  0.00     0.031 C 
ATOM     54  C   UNL A   1      39.568  27.577  28.334  1.00  0.00     0.029 A 
ATOM     55  N   UNL A   1      41.402  27.587  29.612  1.00  0.00    -0.354 N 
ATOM     56  C   UNL A   1      41.967  30.578  32.683  1.00  0.00     0.074 A 
ATOM     57  C   UNL A   1      40.839  31.485  32.733  1.00  0.00     0.031 C 
ATOM     58  C   UNL A   1      40.350  26.563  27.926  1.00  0.00     0.029 A 
ATOM     59  C   UNL A   1      41.575  26.554  28.720  1.00  0.00     0.049 A 
ATOM     60  H   UNL A   1      42.065  27.818  30.302  1.00  0.00     0.167 HD
ATOM     61  C   UNL A   1      43.047  30.652  33.503  1.00  0.00     0.034 A 
ATOM     62  C   UNL A   1      42.607  25.702  28.551  1.00  0.00     0.034 A 
ATOM     63  C   UNL A   1      44.157  29.730  33.455  1.00  0.00     0.049 A 
ATOM     64  C   UNL A   1      43.805  25.813  29.459  1.00  0.00     0.074 A 
ATOM     65  C   UNL A   1      45.273  29.681  34.273  1.00  0.00     0.029 A 
ATOM     66  N   UNL A   1      44.295  28.697  32.538  1.00  0.00    -0.354 N 
ATOM     67  N   UNL A   1      44.030  26.669  30.430  1.00  0.00    -0.248 NA
ATOM     68  C   UNL A   1      44.883  24.836  29.255  1.00  0.00     0.031 C 
ATOM     69  C   UNL A   1      46.113  28.662  33.811  1.00  0.00     0.029 A 
ATOM     70  C   UNL A   1      45.490  28.025  32.751  1.00  0.00     0.049 A 
ATOM     71  H   UNL A   1      43.640  28.473  31.837  1.00  0.00     0.167 HD
ATOM     72  C   UNL A   1      45.262  26.311  30.971  1.00  0.00     0.074 A 
ATOM     73  C   UNL A   1      45.724  25.158  30.227  1.00  0.00     0.031 C 
ATOM     74  C   UNL A   1      45.946  26.882  31.995  1.00  0.00     0.034 A 
BRANCH  61  75
ATOM     75  C   UNL A   1      43.087  31.788  34.499  1.00  0.00     0.023 A 
ATOM     76  C   UNL A   1      42.599  31.640  35.809  1.00  0.00     0.031 A 
ATOM     77  C   UNL A   1      43.596  33.045  34.125  1.00  0.00     0.131 A 
ATOM     78  C   UNL A   1      42.555  32.747  36.670  1.00  0.00     0.055 A 
ATOM     79  C   UNL A   1      43.626  34.121  35.016  1.00  0.00     0.041 A 
ATOM     80  F   UNL A   1      44.059  33.254  32.883  1.00  0.00    -0.206 F 
ATOM     81  C   UNL A   1      43.088  33.980  36.291  1.00  0.00     0.022 A 
BRANCH  78  82
ATOM     82  S   UNL A   1      41.653  32.589  38.236  1.00  0.00     0.124 S 
ATOM     83  O   UNL A   1      40.309  32.252  37.769  1.00  0.00    -0.237 OA
ATOM     84  O   UNL A   1      42.380  31.523  38.913  1.00  0.00    -0.237 OA
ATOM     85  O   UNL A   1      41.781  33.914  38.840  1.00  0.00    -0.744 OA
ENDBRANCH  78  82
ENDBRANCH  61  75
BRANCH  62  86
ATOM     86  C   UNL A   1      42.565  24.674  27.472  1.00  0.00     0.023 A 
ATOM     87  C   UNL A   1      41.853  23.476  27.642  1.00  0.00     0.031 A 
ATOM     88  C   UNL A   1      43.269  24.860  26.269  1.00  0.00     0.131 A 
ATOM     89  C   UNL A   1      41.896  22.491  26.643  1.00  0.00     0.055 A 
ATOM     90  C   UNL A   1      43.267  23.898  25.258  1.00  0.00     0.041 A 
ATOM     91  F   UNL A   1      43.959  25.991  26.055  1.00  0.00    -0.206 F 
ATOM     92  C   UNL A   1      42.588  22.698  25.447  1.00  0.00     0.022 A 
BRANCH  89  93
ATOM     93  S   UNL A   1      41.094  20.896  26.962  1.00  0.00     0.124 S 
ATOM     94  O   UNL A   1      39.914  20.981  26.109  1.00  0.00    -0.237 OA
ATOM     95  O   UNL A   1      42.123  19.951  26.542  1.00  0.00    -0.237 OA
ATOM     96  O   UNL A   1      40.829  20.929  28.399  1.00  0.00    -0.744 OA
ENDBRANCH  89  93
ENDBRANCH  62  86
BRANCH  74  97
ATOM     97  C   UNL A   1      47.247  26.231  32.397  1.00  0.00     0.023 A 
ATOM     98  C   UNL A   1      47.299  25.213  33.365  1.00  0.00     0.031 A 
ATOM     99  C   UNL A   1      48.455  26.647  31.809  1.00  0.00     0.131 A 
ATOM    100  C   UNL A   1      48.538  24.681  33.754  1.00  0.00     0.055 A 
ATOM    101  C   UNL A   1      49.679  26.075  32.159  1.00  0.00     0.041 A 
ATOM    102  F   UNL A   1      48.464  27.617  30.880  1.00  0.00    -0.206 F 
ATOM    103  C   UNL A   1      49.726  25.095  33.146  1.00  0.00     0.022 A 
BRANCH 100 104
ATOM    104  S   UNL A   1      48.586  23.499  35.129  1.00  0.00     0.124 S 
ATOM    105  O   UNL A   1      48.790  22.232  34.433  1.00  0.00    -0.237 OA
ATOM    106  O   UNL A   1      49.715  23.982  35.917  1.00  0.00    -0.237 OA
ATOM    107  O   UNL A   1      47.278  23.655  35.761  1.00  0.00    -0.744 OA
ENDBRANCH 100 104
ENDBRANCH  74  97
ENDBRANCH  48  49
ENDBRANCH  40  43
ENDBRANCH  38  39
ENDBRANCH   1  38
TORSDOF 20
ENDMDL
MODEL 2
REMARK VINA RESULT:     -10.8      1.975      3.130
REMARK SMILES C/C=C(\C)[C@@H]1C=C[C@@H]2C[C@H](C)C[C@H](C)[C@@H]2[C@@H]1C(=O)C1=C(NCCCNC(=O)c2ccc(-c3c4nc(c(-c5cc(S(=O)(=O)[O-])ccc5F)c5ccc([nH]5)c(-c5cc(S(=O)(=O)[O-])ccc5F)c5nc(c(-c6cc(S(=O)(=O)[O-])ccc6F)c6ccc3[nH]6)C=C5)C=C4)cc2)[C@H](C[C@](C)(O)C(=O)[O-])NC1=O
REMARK SMILES IDX 23 1 22 2 21 3 20 5 19 6 100 7 91 8 99 9 101 10 17 12 18 13
REMARK SMILES IDX 16 14 5 15 6 16 7 17 15 18 8 19 13 20 9 21 12 22 14 23 10 24
REMARK SMILES IDX 11 25 3 26 1 27 2 28 4 29 92 30 93 31 94 32 95 33 96 35
REMARK SMILES IDX 97 36 98 37 24 38 25 39 26 40 27 42 28 43 29 44 90 45 30 46
REMARK SMILES IDX 89 47 31 48 32 49 33 50 83 51 34 52 88 53 82 54 84 55 35 56
REMARK SMILES IDX 87 57 81 58 80 59 36 61 68 62 48 63 67 64 49 65 52 66 66 67
REMARK SMILES IDX 85 68 50 69 51 70 65 72 86 73 53 74 37 75 38 76 46 77 39 78
REMARK SMILES IDX 45 79 47 80 44 81 40 82 41 83 42 84 43 85 69 86 70 87 78 88
REMARK SMILES IDX 71 89 77 90 79 91 76 92 72 93 73 94 74 95 75 96 54 97 55 98
REMARK SMILES IDX 63 99 56 100 62 101 64 102 61 103 57 104 58 105 59 106
REMARK SMILES IDX 60 107
REMARK H PARENT 21 4 99 11 95 34 25 41 84 60 52 71
REMARK Flexibility Score: inf
ROOT
ATOM      1  C   UNL A   1      34.083  27.561  26.292  1.00  0.00     0.042 C 
ENDROOT
BRANCH   1   2
ATOM      2  C   UNL A   1      33.767  27.897  24.841  1.00  0.00     0.114 C 
BRANCH   2   3
ATOM      3  N   UNL A   1      33.890  26.725  23.997  1.00  0.00    -0.386 N 
ATOM      4  H   UNL A   1      34.808  26.507  23.715  1.00  0.00     0.160 HD
BRANCH   3   5
ATOM      5  C   UNL A   1      32.909  25.865  23.531  1.00  0.00     0.050 C 
ATOM      6  C   UNL A   1      32.601  24.564  23.803  1.00  0.00     0.104 C 
ATOM      7  C   UNL A   1      31.445  24.277  22.907  1.00  0.00     0.257 C 
ATOM      8  C   UNL A   1      31.844  26.521  22.635  1.00  0.00     0.133 C 
ATOM      9  N   UNL A   1      31.196  25.375  22.134  1.00  0.00    -0.343 N 
ATOM     10  O   UNL A   1      30.706  23.319  22.830  1.00  0.00    -0.269 OA
ATOM     11  H   UNL A   1      30.633  25.367  21.326  1.00  0.00     0.164 HD
BRANCH   6  12
ATOM     12  C   UNL A   1      33.064  23.836  25.040  1.00  0.00     0.174 C 
ATOM     13  O   UNL A   1      33.995  24.380  25.660  1.00  0.00    -0.294 OA
BRANCH  12  14
ATOM     14  C   UNL A   1      32.539  22.481  25.635  1.00  0.00     0.076 C 
ATOM     15  C   UNL A   1      31.708  22.563  26.935  1.00  0.00     0.048 C 
ATOM     16  C   UNL A   1      32.641  22.730  28.117  1.00  0.00    -0.022 C 
ATOM     17  C   UNL A   1      33.943  22.353  28.074  1.00  0.00    -0.027 C 
ATOM     18  C   UNL A   1      33.557  21.301  25.876  1.00  0.00     0.010 C 
ATOM     19  C   UNL A   1      34.634  21.721  26.872  1.00  0.00     0.016 C 
ATOM     20  C   UNL A   1      34.188  20.516  24.718  1.00  0.00    -0.010 C 
ATOM     21  C   UNL A   1      35.736  22.554  26.173  1.00  0.00     0.011 C 
ATOM     22  C   UNL A   1      35.180  21.335  23.918  1.00  0.00     0.007 C 
ATOM     23  C   UNL A   1      33.148  19.821  23.843  1.00  0.00     0.008 C 
ATOM     24  C   UNL A   1      36.235  22.018  24.806  1.00  0.00    -0.013 C 
ATOM     25  C   UNL A   1      36.891  23.148  23.997  1.00  0.00     0.007 C 
BRANCH  15  26
ATOM     26  C   UNL A   1      30.433  23.403  26.817  1.00  0.00    -0.070 C 
ATOM     27  C   UNL A   1      29.159  25.562  26.322  1.00  0.00     0.035 C 
ATOM     28  C   UNL A   1      30.372  24.678  26.380  1.00  0.00    -0.031 C 
ATOM     29  C   UNL A   1      29.213  22.682  27.378  1.00  0.00     0.040 C 
ENDBRANCH  15  26
ENDBRANCH  12  14
ENDBRANCH   6  12
BRANCH   8  30
ATOM     30  C   UNL A   1      30.934  27.393  23.533  1.00  0.00     0.072 C 
BRANCH  30  31
ATOM     31  C   UNL A   1      30.619  28.832  23.091  1.00  0.00     0.103 C 
ATOM     32  C   UNL A   1      31.607  29.378  22.069  1.00  0.00     0.049 C 
BRANCH  31  33
ATOM     33  O   UNL A   1      30.731  29.667  24.260  1.00  0.00    -0.384 OA
ATOM     34  H   UNL A   1      30.537  30.587  24.020  1.00  0.00     0.211 HD
ENDBRANCH  31  33
BRANCH  31  35
ATOM     35  C   UNL A   1      29.182  28.940  22.557  1.00  0.00     0.073 C 
ATOM     36  O   UNL A   1      28.800  29.620  21.618  1.00  0.00    -0.547 OA
ATOM     37  O   UNL A   1      28.331  28.106  23.197  1.00  0.00    -0.547 OA
ENDBRANCH  31  35
ENDBRANCH  30  31
ENDBRANCH   8  30
ENDBRANCH   3   5
ENDBRANCH   2   3
ENDBRANCH   1   2
BRANCH   1  38
ATOM     38  C   UNL A   1      33.402  28.452  27.324  1.00  0.00     0.118 C 
BRANCH  38  39
ATOM     39  N   UNL A   1      33.606  29.864  27.056  1.00  0.00    -0.352 N 
ATOM     40  C   UNL A   1      34.612  30.713  27.450  1.00  0.00     0.251 C 
ATOM     41  H   UNL A   1      32.910  30.283  26.502  1.00  0.00     0.163 HD
ATOM     42  O   UNL A   1      34.447  31.922  27.304  1.00  0.00    -0.269 OA
BRANCH  40  43
ATOM     43  C   UNL A   1      35.870  30.206  28.052  1.00  0.00     0.039 A 
ATOM     44  C   UNL A   1      37.030  30.212  27.269  1.00  0.00     0.014 A 
ATOM     45  C   UNL A   1      35.913  29.652  29.335  1.00  0.00     0.014 A 
ATOM     46  C   UNL A   1      38.229  29.701  27.779  1.00  0.00     0.010 A 
ATOM     47  C   UNL A   1      37.125  29.210  29.871  1.00  0.00     0.010 A 
ATOM     48  C   UNL A   1      38.294  29.213  29.094  1.00  0.00    -0.014 A 
BRANCH  48  49
ATOM     49  C   UNL A   1      39.564  28.668  29.650  1.00  0.00     0.031 A 
ATOM     50  C   UNL A   1      40.254  29.369  30.791  1.00  0.00     0.074 A 
ATOM     51  C   UNL A   1      40.117  27.566  29.107  1.00  0.00     0.049 A 
ATOM     52  N   UNL A   1      41.395  29.089  31.370  1.00  0.00    -0.248 NA
ATOM     53  C   UNL A   1      39.584  30.560  31.335  1.00  0.00     0.031 C 
ATOM     54  C   UNL A   1      39.563  26.810  27.982  1.00  0.00     0.029 A 
ATOM     55  N   UNL A   1      41.270  26.891  29.423  1.00  0.00    -0.354 N 
ATOM     56  C   UNL A   1      41.587  30.075  32.333  1.00  0.00     0.074 A 
ATOM     57  C   UNL A   1      40.472  30.991  32.218  1.00  0.00     0.031 C 
ATOM     58  C   UNL A   1      40.366  25.766  27.717  1.00  0.00     0.029 A 
ATOM     59  C   UNL A   1      41.512  25.800  28.620  1.00  0.00     0.049 A 
ATOM     60  H   UNL A   1      41.869  27.163  30.156  1.00  0.00     0.167 HD
ATOM     61  C   UNL A   1      42.587  30.195  33.243  1.00  0.00     0.034 A 
ATOM     62  C   UNL A   1      42.544  24.931  28.605  1.00  0.00     0.034 A 
ATOM     63  C   UNL A   1      43.685  29.263  33.360  1.00  0.00     0.049 A 
ATOM     64  C   UNL A   1      43.653  25.094  29.612  1.00  0.00     0.074 A 
ATOM     65  C   UNL A   1      44.718  29.261  34.280  1.00  0.00     0.029 A 
ATOM     66  N   UNL A   1      43.894  28.171  32.529  1.00  0.00    -0.354 N 
ATOM     67  N   UNL A   1      43.799  26.010  30.542  1.00  0.00    -0.248 NA
ATOM     68  C   UNL A   1      44.732  24.098  29.574  1.00  0.00     0.031 C 
ATOM     69  C   UNL A   1      45.585  28.207  33.966  1.00  0.00     0.029 A 
ATOM     70  C   UNL A   1      45.054  27.507  32.896  1.00  0.00     0.049 A 
ATOM     71  H   UNL A   1      43.303  27.906  31.786  1.00  0.00     0.167 HD
ATOM     72  C   UNL A   1      44.970  25.681  31.219  1.00  0.00     0.074 A 
ATOM     73  C   UNL A   1      45.483  24.477  30.598  1.00  0.00     0.031 C 
ATOM     74  C   UNL A   1      45.564  26.313  32.263  1.00  0.00     0.034 A 
BRANCH  61  75
ATOM     75  C   UNL A   1      42.550  31.393  34.163  1.00  0.00     0.023 A 
ATOM     76  C   UNL A   1      41.761  31.408  35.327  1.00  0.00     0.031 A 
ATOM     77  C   UNL A   1      43.292  32.548  33.858  1.00  0.00     0.131 A 
ATOM     78  C   UNL A   1      41.669  32.578  36.096  1.00  0.00     0.055 A 
ATOM     79  C   UNL A   1      43.261  33.681  34.675  1.00  0.00     0.041 A 
ATOM     80  F   UNL A   1      44.049  32.602  32.751  1.00  0.00    -0.206 F 
ATOM     81  C   UNL A   1      42.433  33.706  35.793  1.00  0.00     0.022 A 
BRANCH  78  82
ATOM     82  S   UNL A   1      40.421  32.652  37.411  1.00  0.00     0.124 S 
ATOM     83  O   UNL A   1      39.475  31.626  36.977  1.00  0.00    -0.237 OA
ATOM     84  O   UNL A   1      41.200  32.341  38.603  1.00  0.00    -0.237 OA
ATOM     85  O   UNL A   1      39.921  34.024  37.332  1.00  0.00    -0.744 OA
ENDBRANCH  78  82
ENDBRANCH  61  75
BRANCH  62  86
ATOM     86  C   UNL A   1      42.588  23.835  27.596  1.00  0.00     0.023 A 
ATOM     87  C   UNL A   1      43.603  23.786  26.626  1.00  0.00     0.031 A 
ATOM     88  C   UNL A   1      41.593  22.843  27.563  1.00  0.00     0.131 A 
ATOM     89  C   UNL A   1      43.576  22.790  25.638  1.00  0.00     0.055 A 
ATOM     90  C   UNL A   1      41.599  21.825  26.609  1.00  0.00     0.041 A 
ATOM     91  F   UNL A   1      40.605  22.842  28.471  1.00  0.00    -0.206 F 
ATOM     92  C   UNL A   1      42.588  21.801  25.629  1.00  0.00     0.022 A 
BRANCH  89  93
ATOM     93  S   UNL A   1      44.812  22.848  24.312  1.00  0.00     0.124 S 
ATOM     94  O   UNL A   1      45.115  24.273  24.251  1.00  0.00    -0.237 OA
ATOM     95  O   UNL A   1      45.866  21.991  24.844  1.00  0.00    -0.237 OA
ATOM     96  O   UNL A   1      44.097  22.311  23.157  1.00  0.00    -0.744 OA
ENDBRANCH  89  93
ENDBRANCH  62  86
BRANCH  74  97
ATOM     97  C   UNL A   1      46.812  25.681  32.826  1.00  0.00     0.023 A 
ATOM     98  C   UNL A   1      48.076  25.886  32.243  1.00  0.00     0.031 A 
ATOM     99  C   UNL A   1      46.733  24.849  33.957  1.00  0.00     0.131 A 
ATOM    100  C   UNL A   1      49.200  25.226  32.762  1.00  0.00     0.055 A 
ATOM    101  C   UNL A   1      47.864  24.240  34.503  1.00  0.00     0.041 A 
ATOM    102  F   UNL A   1      45.552  24.617  34.553  1.00  0.00    -0.206 F 
ATOM    103  C   UNL A   1      49.105  24.417  33.897  1.00  0.00     0.022 A 
BRANCH 100 104
ATOM    104  S   UNL A   1      50.779  25.371  31.882  1.00  0.00     0.124 S 
ATOM    105  O   UNL A   1      50.401  25.013  30.518  1.00  0.00    -0.237 OA
ATOM    106  O   UNL A   1      51.131  26.770  32.099  1.00  0.00    -0.237 OA
ATOM    107  O   UNL A   1      51.640  24.403  32.559  1.00  0.00    -0.744 OA
ENDBRANCH 100 104
ENDBRANCH  74  97
ENDBRANCH  48  49
ENDBRANCH  40  43
ENDBRANCH  38  39
ENDBRANCH   1  38
TORSDOF 20
ENDMDL
MODEL 3
REMARK VINA RESULT:     -10.6      2.319      7.775
REMARK SMILES C/C=C(\C)[C@@H]1C=C[C@@H]2C[C@H](C)C[C@H](C)[C@@H]2[C@@H]1C(=O)C1=C(NCCCNC(=O)c2ccc(-c3c4nc(c(-c5cc(S(=O)(=O)[O-])ccc5F)c5ccc([nH]5)c(-c5cc(S(=O)(=O)[O-])ccc5F)c5nc(c(-c6cc(S(=O)(=O)[O-])ccc6F)c6ccc3[nH]6)C=C5)C=C4)cc2)[C@H](C[C@](C)(O)C(=O)[O-])NC1=O
REMARK SMILES IDX 23 1 22 2 21 3 20 5 19 6 100 7 91 8 99 9 101 10 17 12 18 13
REMARK SMILES IDX 16 14 5 15 6 16 7 17 15 18 8 19 13 20 9 21 12 22 14 23 10 24
REMARK SMILES IDX 11 25 3 26 1 27 2 28 4 29 92 30 93 31 94 32 95 33 96 35
REMARK SMILES IDX 97 36 98 37 24 38 25 39 26 40 27 42 28 43 29 44 90 45 30 46
REMARK SMILES IDX 89 47 31 48 32 49 33 50 83 51 34 52 88 53 82 54 84 55 35 56
REMARK SMILES IDX 87 57 81 58 80 59 36 61 68 62 48 63 67 64 49 65 52 66 66 67
REMARK SMILES IDX 85 68 50 69 51 70 65 72 86 73 53 74 37 75 38 76 46 77 39 78
REMARK SMILES IDX 45 79 47 80 44 81 40 82 41 83 42 84 43 85 69 86 70 87 78 88
REMARK SMILES IDX 71 89 77 90 79 91 76 92 72 93 73 94 74 95 75 96 54 97 55 98
REMARK SMILES IDX 63 99 56 100 62 101 64 102 61 103 57 104 58 105 59 106
REMARK SMILES IDX 60 107
REMARK H PARENT 21 4 99 11 95 34 25 41 84 60 52 71
REMARK Flexibility Score: inf
ROOT
ATOM      1  C   UNL A   1      33.281  27.432  26.489  1.00  0.00     0.042 C 
ENDROOT
BRANCH   1   2
ATOM      2  C   UNL A   1      33.691  27.940  25.115  1.00  0.00     0.114 C 
BRANCH   2   3
ATOM      3  N   UNL A   1      33.857  26.843  24.183  1.00  0.00    -0.386 N 
ATOM      4  H   UNL A   1      34.780  26.692  23.874  1.00  0.00     0.160 HD
BRANCH   3   5
ATOM      5  C   UNL A   1      32.911  25.973  23.665  1.00  0.00     0.050 C 
ATOM      6  C   UNL A   1      32.646  24.650  23.870  1.00  0.00     0.104 C 
ATOM      7  C   UNL A   1      31.509  24.368  22.948  1.00  0.00     0.257 C 
ATOM      8  C   UNL A   1      31.833  26.635  22.788  1.00  0.00     0.133 C 
ATOM      9  N   UNL A   1      31.231  25.493  22.226  1.00  0.00    -0.343 N 
ATOM     10  O   UNL A   1      30.805  23.390  22.816  1.00  0.00    -0.269 OA
ATOM     11  H   UNL A   1      30.676  25.505  21.412  1.00  0.00     0.164 HD
BRANCH   6  12
ATOM     12  C   UNL A   1      33.121  23.879  25.076  1.00  0.00     0.174 C 
ATOM     13  O   UNL A   1      34.069  24.394  25.695  1.00  0.00    -0.294 OA
BRANCH  12  14
ATOM     14  C   UNL A   1      32.590  22.514  25.639  1.00  0.00     0.076 C 
ATOM     15  C   UNL A   1      31.730  22.572  26.921  1.00  0.00     0.048 C 
ATOM     16  C   UNL A   1      32.637  22.725  28.126  1.00  0.00    -0.022 C 
ATOM     17  C   UNL A   1      33.941  22.355  28.105  1.00  0.00    -0.027 C 
ATOM     18  C   UNL A   1      33.609  21.335  25.884  1.00  0.00     0.010 C 
ATOM     19  C   UNL A   1      34.662  21.745  26.909  1.00  0.00     0.016 C 
ATOM     20  C   UNL A   1      34.268  20.571  24.728  1.00  0.00    -0.010 C 
ATOM     21  C   UNL A   1      35.774  22.593  26.247  1.00  0.00     0.011 C 
ATOM     22  C   UNL A   1      35.274  21.406  23.963  1.00  0.00     0.007 C 
ATOM     23  C   UNL A   1      33.251  19.884  23.819  1.00  0.00     0.008 C 
ATOM     24  C   UNL A   1      36.306  22.081  24.883  1.00  0.00    -0.013 C 
ATOM     25  C   UNL A   1      36.973  23.226  24.106  1.00  0.00     0.007 C 
BRANCH  15  26
ATOM     26  C   UNL A   1      30.454  23.407  26.789  1.00  0.00    -0.070 C 
ATOM     27  C   UNL A   1      29.181  25.568  26.303  1.00  0.00     0.035 C 
ATOM     28  C   UNL A   1      30.397  24.690  26.373  1.00  0.00    -0.031 C 
ATOM     29  C   UNL A   1      29.225  22.670  27.307  1.00  0.00     0.040 C 
ENDBRANCH  15  26
ENDBRANCH  12  14
ENDBRANCH   6  12
BRANCH   8  30
ATOM     30  C   UNL A   1      30.885  27.431  23.717  1.00  0.00     0.072 C 
BRANCH  30  31
ATOM     31  C   UNL A   1      29.880  28.409  23.085  1.00  0.00     0.103 C 
ATOM     32  C   UNL A   1      28.434  27.942  23.196  1.00  0.00     0.049 C 
BRANCH  31  33
ATOM     33  O   UNL A   1      30.185  28.475  21.678  1.00  0.00    -0.384 OA
ATOM     34  H   UNL A   1      31.135  28.328  21.546  1.00  0.00     0.211 HD
ENDBRANCH  31  33
BRANCH  31  35
ATOM     35  C   UNL A   1      30.035  29.818  23.679  1.00  0.00     0.073 C 
ATOM     36  O   UNL A   1      30.669  30.125  24.675  1.00  0.00    -0.547 OA
ATOM     37  O   UNL A   1      29.444  30.765  22.915  1.00  0.00    -0.547 OA
ENDBRANCH  31  35
ENDBRANCH  30  31
ENDBRANCH   8  30
ENDBRANCH   3   5
ENDBRANCH   2   3
ENDBRANCH   1   2
BRANCH   1  38
ATOM     38  C   UNL A   1      32.561  28.449  27.366  1.00  0.00     0.118 C 
BRANCH  38  39
ATOM     39  N   UNL A   1      32.563  29.780  26.784  1.00  0.00    -0.352 N 
ATOM     40  C   UNL A   1      33.390  30.853  27.011  1.00  0.00     0.251 C 
ATOM     41  H   UNL A   1      31.856  29.939  26.119  1.00  0.00     0.163 HD
ATOM     42  O   UNL A   1      33.050  31.953  26.579  1.00  0.00    -0.269 OA
BRANCH  40  43
ATOM     43  C   UNL A   1      34.659  30.716  27.767  1.00  0.00     0.039 A 
ATOM     44  C   UNL A   1      35.524  31.815  27.816  1.00  0.00     0.014 A 
ATOM     45  C   UNL A   1      35.051  29.510  28.354  1.00  0.00     0.014 A 
ATOM     46  C   UNL A   1      36.753  31.717  28.477  1.00  0.00     0.010 A 
ATOM     47  C   UNL A   1      36.243  29.434  29.078  1.00  0.00     0.010 A 
ATOM     48  C   UNL A   1      37.117  30.531  29.134  1.00  0.00    -0.014 A 
BRANCH  48  49
ATOM     49  C   UNL A   1      38.421  30.413  29.844  1.00  0.00     0.031 A 
ATOM     50  C   UNL A   1      39.563  29.660  29.213  1.00  0.00     0.074 A 
ATOM     51  C   UNL A   1      38.570  30.951  31.070  1.00  0.00     0.049 A 
ATOM     52  N   UNL A   1      40.751  29.394  29.696  1.00  0.00    -0.248 NA
ATOM     53  C   UNL A   1      39.327  29.110  27.870  1.00  0.00     0.031 C 
ATOM     54  C   UNL A   1      37.534  31.683  31.803  1.00  0.00     0.029 A 
ATOM     55  N   UNL A   1      39.647  30.964  31.922  1.00  0.00    -0.354 N 
ATOM     56  C   UNL A   1      41.396  28.633  28.725  1.00  0.00     0.074 A 
ATOM     57  C   UNL A   1      40.444  28.434  27.653  1.00  0.00     0.031 C 
ATOM     58  C   UNL A   1      38.033  32.088  32.983  1.00  0.00     0.029 A 
ATOM     59  C   UNL A   1      39.407  31.611  33.111  1.00  0.00     0.049 A 
ATOM     60  H   UNL A   1      40.511  30.547  31.701  1.00  0.00     0.167 HD
ATOM     61  C   UNL A   1      42.670  28.163  28.718  1.00  0.00     0.034 A 
ATOM     62  C   UNL A   1      40.197  31.793  34.189  1.00  0.00     0.034 A 
ATOM     63  C   UNL A   1      43.615  28.384  29.787  1.00  0.00     0.049 A 
ATOM     64  C   UNL A   1      41.602  31.245  34.168  1.00  0.00     0.074 A 
ATOM     65  C   UNL A   1      44.943  28.000  29.856  1.00  0.00     0.029 A 
ATOM     66  N   UNL A   1      43.334  29.046  30.975  1.00  0.00    -0.354 N 
ATOM     67  N   UNL A   1      42.209  30.562  33.224  1.00  0.00    -0.248 NA
ATOM     68  C   UNL A   1      42.430  31.504  35.352  1.00  0.00     0.031 C 
ATOM     69  C   UNL A   1      45.445  28.372  31.109  1.00  0.00     0.029 A 
ATOM     70  C   UNL A   1      44.453  29.054  31.794  1.00  0.00     0.049 A 
ATOM     71  H   UNL A   1      42.465  29.451  31.203  1.00  0.00     0.167 HD
ATOM     72  C   UNL A   1      43.501  30.338  33.691  1.00  0.00     0.074 A 
ATOM     73  C   UNL A   1      43.588  30.967  34.993  1.00  0.00     0.031 C 
ATOM     74  C   UNL A   1      44.525  29.675  33.095  1.00  0.00     0.034 A 
BRANCH  61  75
ATOM     75  C   UNL A   1      43.099  27.338  27.527  1.00  0.00     0.023 A 
ATOM     76  C   UNL A   1      42.908  25.945  27.484  1.00  0.00     0.031 A 
ATOM     77  C   UNL A   1      43.732  27.948  26.429  1.00  0.00     0.131 A 
ATOM     78  C   UNL A   1      43.416  25.201  26.408  1.00  0.00     0.055 A 
ATOM     79  C   UNL A   1      44.161  27.211  25.323  1.00  0.00     0.041 A 
ATOM     80  F   UNL A   1      43.960  29.271  26.419  1.00  0.00    -0.206 F 
ATOM     81  C   UNL A   1      44.019  25.827  25.316  1.00  0.00     0.022 A 
BRANCH  78  82
ATOM     82  S   UNL A   1      43.413  23.391  26.531  1.00  0.00     0.124 S 
ATOM     83  O   UNL A   1      42.677  23.182  27.777  1.00  0.00    -0.237 OA
ATOM     84  O   UNL A   1      42.725  22.993  25.309  1.00  0.00    -0.237 OA
ATOM     85  O   UNL A   1      44.833  23.049  26.590  1.00  0.00    -0.744 OA
ENDBRANCH  78  82
ENDBRANCH  61  75
BRANCH  62  86
ATOM     86  C   UNL A   1      39.681  32.513  35.388  1.00  0.00     0.023 A 
ATOM     87  C   UNL A   1      39.995  33.863  35.611  1.00  0.00     0.031 A 
ATOM     88  C   UNL A   1      38.897  31.849  36.348  1.00  0.00     0.131 A 
ATOM     89  C   UNL A   1      39.564  34.495  36.787  1.00  0.00     0.055 A 
ATOM     90  C   UNL A   1      38.428  32.497  37.491  1.00  0.00     0.041 A 
ATOM     91  F   UNL A   1      38.564  30.560  36.178  1.00  0.00    -0.206 F 
ATOM     92  C   UNL A   1      38.772  33.825  37.723  1.00  0.00     0.022 A 
BRANCH  89  93
ATOM     93  S   UNL A   1      40.117  36.191  37.115  1.00  0.00     0.124 S 
ATOM     94  O   UNL A   1      41.506  35.979  37.508  1.00  0.00    -0.237 OA
ATOM     95  O   UNL A   1      39.907  36.833  35.822  1.00  0.00    -0.237 OA
ATOM     96  O   UNL A   1      39.227  36.639  38.183  1.00  0.00    -0.744 OA
ENDBRANCH  89  93
ENDBRANCH  62  86
BRANCH  74  97
ATOM     97  C   UNL A   1      45.841  29.644  33.832  1.00  0.00     0.023 A 
ATOM     98  C   UNL A   1      46.162  28.614  34.734  1.00  0.00     0.031 A 
ATOM     99  C   UNL A   1      46.784  30.668  33.636  1.00  0.00     0.131 A 
ATOM    100  C   UNL A   1      47.370  28.659  35.446  1.00  0.00     0.055 A 
ATOM    101  C   UNL A   1      48.009  30.679  34.305  1.00  0.00     0.041 A 
ATOM    102  F   UNL A   1      46.530  31.678  32.788  1.00  0.00    -0.206 F 
ATOM    103  C   UNL A   1      48.302  29.676  35.225  1.00  0.00     0.022 A 
BRANCH 100 104
ATOM    104  S   UNL A   1      47.674  27.414  36.729  1.00  0.00     0.124 S 
ATOM    105  O   UNL A   1      46.693  26.387  36.394  1.00  0.00    -0.237 OA
ATOM    106  O   UNL A   1      49.071  27.061  36.499  1.00  0.00    -0.237 OA
ATOM    107  O   UNL A   1      47.414  28.135  37.975  1.00  0.00    -0.744 OA
ENDBRANCH 100 104
ENDBRANCH  74  97
ENDBRANCH  48  49
ENDBRANCH  40  43
ENDBRANCH  38  39
ENDBRANCH   1  38
TORSDOF 20
ENDMDL
