MODEL 1
REMARK VINA RESULT:     -12.7      0.000      0.000
REMARK SMILES Cc1cc(O[C@@H](C)C(=O)NCCC(=O)NCCCNC(=O)c2ccc(-c3c4nc(c(-c5cc(S(=O)(=O)[O-])ccc5F)c5ccc([nH]5)c(-c5cc(S(=O)(=O)[O-])ccc5F)c5nc(c(-c6cc(S(=O)(=O)[O-])ccc6F)c6ccc3[nH]6)C=C5)C=C4)cc2)c2c3c(c(=O)oc2c1)CCCC3
REMARK SMILES IDX 16 1 15 2 13 3 14 4 12 6 11 7 10 8 8 9 9 10 6 12 7 13 5 14
REMARK SMILES IDX 4 15 1 16 2 17 3 18 92 19 91 20 85 21 90 22 86 23 88 24
REMARK SMILES IDX 87 25 96 26 89 27 93 28 95 29 94 30 17 31 18 32 19 33 20 34
REMARK SMILES IDX 21 36 22 37 23 38 84 39 24 40 83 41 25 42 26 43 27 44 77 45
REMARK SMILES IDX 28 46 82 47 76 48 78 49 29 50 81 51 75 52 74 53 30 55 62 56
REMARK SMILES IDX 42 57 61 58 43 59 46 60 60 61 79 62 44 63 45 64 59 66 80 67
REMARK SMILES IDX 47 68 31 69 32 70 40 71 33 72 39 73 41 74 38 75 34 76 35 77
REMARK SMILES IDX 36 78 37 79 63 80 64 81 72 82 65 83 71 84 73 85 70 86 66 87
REMARK SMILES IDX 67 88 68 89 69 90 48 91 49 92 57 93 50 94 56 95 58 96 55 97
REMARK SMILES IDX 51 98 52 99 53 100 54 101
REMARK H PARENT 15 5 10 11 19 35 78 54 46 65
REMARK Flexibility Score: inf
ROOT
ATOM      1  C   UNL A   1      34.388  21.462  25.676  1.00  0.00     0.117 C 
ENDROOT
BRANCH   1   2
ATOM      2  N   UNL A   1      33.347  21.754  24.709  1.00  0.00    -0.356 N 
ATOM      3  C   UNL A   1      32.722  22.939  24.485  1.00  0.00     0.221 C 
ATOM      4  O   UNL A   1      31.687  22.950  23.816  1.00  0.00    -0.275 OA
ATOM      5  H   UNL A   1      33.058  21.001  24.144  1.00  0.00     0.163 HD
BRANCH   3   6
ATOM      6  C   UNL A   1      33.319  24.219  25.021  1.00  0.00     0.121 C 
BRANCH   6   7
ATOM      7  C   UNL A   1      34.409  24.832  24.141  1.00  0.00     0.126 C 
BRANCH   7   8
ATOM      8  N   UNL A   1      33.994  25.047  22.762  1.00  0.00    -0.352 N 
ATOM      9  C   UNL A   1      33.030  25.799  22.180  1.00  0.00     0.260 C 
ATOM     10  O   UNL A   1      32.553  25.319  21.141  1.00  0.00    -0.271 OA
ATOM     11  H   UNL A   1      34.530  24.536  22.114  1.00  0.00     0.163 HD
BRANCH   9  12
ATOM     12  C   UNL A   1      32.627  27.233  22.618  1.00  0.00     0.258 C 
ATOM     13  C   UNL A   1      33.724  28.240  22.278  1.00  0.00     0.064 C 
BRANCH  12  14
ATOM     14  O   UNL A   1      31.814  27.577  23.723  1.00  0.00    -0.480 OA
BRANCH  14  15
ATOM     15  C   UNL A   1      30.912  28.587  23.786  1.00  0.00     0.132 A 
ATOM     16  C   UNL A   1      27.782  29.784  21.970  1.00  0.00     0.044 C 
ATOM     17  C   UNL A   1      28.910  29.718  22.957  1.00  0.00    -0.044 A 
ATOM     18  C   UNL A   1      29.726  28.583  23.045  1.00  0.00     0.050 A 
ATOM     19  C   UNL A   1      29.237  30.830  23.722  1.00  0.00     0.051 A 
ATOM     20  C   UNL A   1      30.337  30.773  24.581  1.00  0.00     0.142 A 
ATOM     21  C   UNL A   1      31.189  29.665  24.661  1.00  0.00     0.063 A 
ATOM     22  O   UNL A   1      30.528  31.925  25.360  1.00  0.00    -0.422 OA
ATOM     23  C   UNL A   1      32.271  29.715  25.686  1.00  0.00    -0.023 A 
ATOM     24  C   UNL A   1      31.479  31.973  26.357  1.00  0.00     0.339 A 
ATOM     25  C   UNL A   1      32.368  30.794  26.491  1.00  0.00     0.042 A 
ATOM     26  C   UNL A   1      33.194  28.530  25.883  1.00  0.00     0.037 C 
ATOM     27  O   UNL A   1      31.575  32.948  27.095  1.00  0.00    -0.246 OA
ATOM     28  C   UNL A   1      33.368  30.913  27.617  1.00  0.00     0.043 C 
ATOM     29  C   UNL A   1      33.952  28.515  27.214  1.00  0.00     0.005 C 
ATOM     30  C   UNL A   1      34.495  29.888  27.558  1.00  0.00     0.005 C 
ENDBRANCH  14  15
ENDBRANCH  12  14
ENDBRANCH   9  12
ENDBRANCH   7   8
ENDBRANCH   6   7
ENDBRANCH   3   6
ENDBRANCH   1   2
BRANCH   1  31
ATOM     31  C   UNL A   1      35.614  20.907  24.969  1.00  0.00     0.042 C 
BRANCH  31  32
ATOM     32  C   UNL A   1      36.921  21.493  25.462  1.00  0.00     0.118 C 
BRANCH  32  33
ATOM     33  N   UNL A   1      37.949  20.487  25.649  1.00  0.00    -0.352 N 
ATOM     34  C   UNL A   1      39.258  20.632  26.044  1.00  0.00     0.251 C 
ATOM     35  H   UNL A   1      37.667  19.561  25.467  1.00  0.00     0.163 HD
ATOM     36  O   UNL A   1      40.029  19.682  25.932  1.00  0.00    -0.269 OA
BRANCH  34  37
ATOM     37  C   UNL A   1      39.738  21.935  26.557  1.00  0.00     0.039 A 
ATOM     38  C   UNL A   1      39.192  23.129  26.091  1.00  0.00     0.014 A 
ATOM     39  C   UNL A   1      40.769  21.966  27.500  1.00  0.00     0.014 A 
ATOM     40  C   UNL A   1      39.823  24.333  26.376  1.00  0.00     0.010 A 
ATOM     41  C   UNL A   1      41.302  23.195  27.905  1.00  0.00     0.010 A 
ATOM     42  C   UNL A   1      40.874  24.389  27.303  1.00  0.00    -0.014 A 
BRANCH  42  43
ATOM     43  C   UNL A   1      41.480  25.707  27.641  1.00  0.00     0.031 A 
ATOM     44  C   UNL A   1      42.852  26.084  27.148  1.00  0.00     0.074 A 
ATOM     45  C   UNL A   1      40.760  26.589  28.366  1.00  0.00     0.049 A 
ATOM     46  N   UNL A   1      43.524  27.188  27.354  1.00  0.00    -0.248 NA
ATOM     47  C   UNL A   1      43.570  25.095  26.328  1.00  0.00     0.031 C 
ATOM     48  C   UNL A   1      39.419  26.333  28.896  1.00  0.00     0.029 A 
ATOM     49  N   UNL A   1      41.029  27.876  28.759  1.00  0.00    -0.354 N 
ATOM     50  C   UNL A   1      44.749  27.016  26.718  1.00  0.00     0.074 A 
ATOM     51  C   UNL A   1      44.743  25.686  26.152  1.00  0.00     0.031 C 
ATOM     52  C   UNL A   1      38.952  27.447  29.472  1.00  0.00     0.029 A 
ATOM     53  C   UNL A   1      39.996  28.466  29.452  1.00  0.00     0.049 A 
ATOM     54  H   UNL A   1      41.878  28.334  28.563  1.00  0.00     0.167 HD
ATOM     55  C   UNL A   1      45.774  27.896  26.605  1.00  0.00     0.034 A 
ATOM     56  C   UNL A   1      39.898  29.680  30.032  1.00  0.00     0.034 A 
ATOM     57  C   UNL A   1      45.748  29.227  27.158  1.00  0.00     0.049 A 
ATOM     58  C   UNL A   1      41.058  30.629  29.918  1.00  0.00     0.074 A 
ATOM     59  C   UNL A   1      46.725  30.203  27.079  1.00  0.00     0.029 A 
ATOM     60  N   UNL A   1      44.697  29.776  27.882  1.00  0.00    -0.354 N 
ATOM     61  N   UNL A   1      42.198  30.459  29.289  1.00  0.00    -0.248 NA
ATOM     62  C   UNL A   1      40.929  31.930  30.584  1.00  0.00     0.031 C 
ATOM     63  C   UNL A   1      46.300  31.309  27.814  1.00  0.00     0.029 A 
ATOM     64  C   UNL A   1      45.015  31.065  28.276  1.00  0.00     0.049 A 
ATOM     65  H   UNL A   1      43.850  29.316  28.085  1.00  0.00     0.167 HD
ATOM     66  C   UNL A   1      42.913  31.638  29.466  1.00  0.00     0.074 A 
ATOM     67  C   UNL A   1      42.066  32.523  30.239  1.00  0.00     0.031 C 
ATOM     68  C   UNL A   1      44.159  31.953  29.030  1.00  0.00     0.034 A 
BRANCH  55  69
ATOM     69  C   UNL A   1      47.018  27.472  25.858  1.00  0.00     0.023 A 
ATOM     70  C   UNL A   1      47.184  27.832  24.506  1.00  0.00     0.031 A 
ATOM     71  C   UNL A   1      47.971  26.612  26.434  1.00  0.00     0.131 A 
ATOM     72  C   UNL A   1      48.255  27.309  23.769  1.00  0.00     0.055 A 
ATOM     73  C   UNL A   1      49.065  26.135  25.709  1.00  0.00     0.041 A 
ATOM     74  F   UNL A   1      47.860  26.230  27.717  1.00  0.00    -0.206 F 
ATOM     75  C   UNL A   1      49.202  26.472  24.366  1.00  0.00     0.022 A 
BRANCH  72  76
ATOM     76  S   UNL A   1      48.416  27.629  21.990  1.00  0.00     0.124 S 
ATOM     77  O   UNL A   1      47.132  28.257  21.682  1.00  0.00    -0.237 OA
ATOM     78  O   UNL A   1      49.572  28.521  21.945  1.00  0.00    -0.237 OA
ATOM     79  O   UNL A   1      48.616  26.307  21.411  1.00  0.00    -0.744 OA
ENDBRANCH  72  76
ENDBRANCH  55  69
BRANCH  56  80
ATOM     80  C   UNL A   1      38.626  30.046  30.725  1.00  0.00     0.023 A 
ATOM     81  C   UNL A   1      37.737  30.975  30.154  1.00  0.00     0.031 A 
ATOM     82  C   UNL A   1      38.357  29.590  32.026  1.00  0.00     0.131 A 
ATOM     83  C   UNL A   1      36.683  31.493  30.918  1.00  0.00     0.055 A 
ATOM     84  C   UNL A   1      37.254  30.044  32.752  1.00  0.00     0.041 A 
ATOM     85  F   UNL A   1      39.182  28.713  32.620  1.00  0.00    -0.206 F 
ATOM     86  C   UNL A   1      36.424  31.019  32.206  1.00  0.00     0.022 A 
BRANCH  83  87
ATOM     87  S   UNL A   1      35.721  32.915  30.326  1.00  0.00     0.124 S 
ATOM     88  O   UNL A   1      34.369  32.568  30.756  1.00  0.00    -0.237 OA
ATOM     89  O   UNL A   1      36.349  34.017  31.048  1.00  0.00    -0.237 OA
ATOM     90  O   UNL A   1      35.946  32.909  28.885  1.00  0.00    -0.744 OA
ENDBRANCH  83  87
ENDBRANCH  56  80
BRANCH  68  91
ATOM     91  C   UNL A   1      44.714  33.321  29.348  1.00  0.00     0.023 A 
ATOM     92  C   UNL A   1      44.653  34.339  28.376  1.00  0.00     0.031 A 
ATOM     93  C   UNL A   1      45.445  33.566  30.522  1.00  0.00     0.131 A 
ATOM     94  C   UNL A   1      45.358  35.533  28.570  1.00  0.00     0.055 A 
ATOM     95  C   UNL A   1      46.100  34.781  30.737  1.00  0.00     0.041 A 
ATOM     96  F   UNL A   1      45.544  32.625  31.474  1.00  0.00    -0.206 F 
ATOM     97  C   UNL A   1      46.073  35.763  29.750  1.00  0.00     0.022 A 
BRANCH  94  98
ATOM     98  S   UNL A   1      45.463  36.781  27.258  1.00  0.00     0.124 S 
ATOM     99  O   UNL A   1      45.943  35.990  26.126  1.00  0.00    -0.237 OA
ATOM    100  O   UNL A   1      44.081  37.239  27.159  1.00  0.00    -0.237 OA
ATOM    101  O   UNL A   1      46.414  37.760  27.778  1.00  0.00    -0.744 OA
ENDBRANCH  94  98
ENDBRANCH  68  91
ENDBRANCH  42  43
ENDBRANCH  34  37
ENDBRANCH  32  33
ENDBRANCH  31  32
ENDBRANCH   1  31
TORSDOF 18
ENDMDL
MODEL 2
REMARK VINA RESULT:     -11.8      0.986      7.297
REMARK SMILES Cc1cc(O[C@@H](C)C(=O)NCCC(=O)NCCCNC(=O)c2ccc(-c3c4nc(c(-c5cc(S(=O)(=O)[O-])ccc5F)c5ccc([nH]5)c(-c5cc(S(=O)(=O)[O-])ccc5F)c5nc(c(-c6cc(S(=O)(=O)[O-])ccc6F)c6ccc3[nH]6)C=C5)C=C4)cc2)c2c3c(c(=O)oc2c1)CCCC3
REMARK SMILES IDX 16 1 15 2 13 3 14 4 12 6 11 7 10 8 8 9 9 10 6 12 7 13 5 14
REMARK SMILES IDX 4 15 1 16 2 17 3 18 92 19 91 20 85 21 90 22 86 23 88 24
REMARK SMILES IDX 87 25 96 26 89 27 93 28 95 29 94 30 17 31 18 32 19 33 20 34
REMARK SMILES IDX 21 36 22 37 23 38 84 39 24 40 83 41 25 42 26 43 27 44 77 45
REMARK SMILES IDX 28 46 82 47 76 48 78 49 29 50 81 51 75 52 74 53 30 55 62 56
REMARK SMILES IDX 42 57 61 58 43 59 46 60 60 61 79 62 44 63 45 64 59 66 80 67
REMARK SMILES IDX 47 68 31 69 32 70 40 71 33 72 39 73 41 74 38 75 34 76 35 77
REMARK SMILES IDX 36 78 37 79 63 80 64 81 72 82 65 83 71 84 73 85 70 86 66 87
REMARK SMILES IDX 67 88 68 89 69 90 48 91 49 92 57 93 50 94 56 95 58 96 55 97
REMARK SMILES IDX 51 98 52 99 53 100 54 101
REMARK H PARENT 15 5 10 11 19 35 78 54 46 65
REMARK Flexibility Score: inf
ROOT
ATOM      1  C   UNL A   1      34.767  21.889  25.905  1.00  0.00     0.117 C 
ENDROOT
BRANCH   1   2
ATOM      2  N   UNL A   1      33.583  21.091  25.644  1.00  0.00    -0.356 N 
ATOM      3  C   UNL A   1      32.338  21.525  25.319  1.00  0.00     0.221 C 
ATOM      4  O   UNL A   1      31.395  20.735  25.391  1.00  0.00    -0.275 OA
ATOM      5  H   UNL A   1      33.698  20.115  25.710  1.00  0.00     0.163 HD
BRANCH   3   6
ATOM      6  C   UNL A   1      32.134  22.943  24.842  1.00  0.00     0.121 C 
BRANCH   6   7
ATOM      7  C   UNL A   1      31.366  23.070  23.527  1.00  0.00     0.126 C 
BRANCH   7   8
ATOM      8  N   UNL A   1      31.930  24.054  22.614  1.00  0.00    -0.352 N 
ATOM      9  C   UNL A   1      31.668  25.360  22.365  1.00  0.00     0.260 C 
ATOM     10  O   UNL A   1      31.861  25.712  21.192  1.00  0.00    -0.271 OA
ATOM     11  H   UNL A   1      32.658  23.694  22.060  1.00  0.00     0.163 HD
BRANCH   9  12
ATOM     12  C   UNL A   1      31.321  26.424  23.440  1.00  0.00     0.258 C 
ATOM     13  C   UNL A   1      30.015  26.078  24.154  1.00  0.00     0.064 C 
BRANCH  12  14
ATOM     14  O   UNL A   1      31.635  27.802  23.392  1.00  0.00    -0.480 OA
BRANCH  14  15
ATOM     15  C   UNL A   1      30.787  28.838  23.602  1.00  0.00     0.132 A 
ATOM     16  C   UNL A   1      27.659  30.371  22.056  1.00  0.00     0.044 C 
ATOM     17  C   UNL A   1      28.817  30.145  22.983  1.00  0.00    -0.044 A 
ATOM     18  C   UNL A   1      29.578  28.971  22.914  1.00  0.00     0.050 A 
ATOM     19  C   UNL A   1      29.225  31.148  23.851  1.00  0.00     0.051 A 
ATOM     20  C   UNL A   1      30.350  30.947  24.653  1.00  0.00     0.142 A 
ATOM     21  C   UNL A   1      31.149  29.799  24.577  1.00  0.00     0.063 A 
ATOM     22  O   UNL A   1      30.626  31.994  25.545  1.00  0.00    -0.422 OA
ATOM     23  C   UNL A   1      32.267  29.686  25.557  1.00  0.00    -0.023 A 
ATOM     24  C   UNL A   1      31.612  31.889  26.502  1.00  0.00     0.339 A 
ATOM     25  C   UNL A   1      32.446  30.663  26.471  1.00  0.00     0.042 A 
ATOM     26  C   UNL A   1      33.137  28.445  25.585  1.00  0.00     0.037 C 
ATOM     27  O   UNL A   1      31.783  32.770  27.337  1.00  0.00    -0.246 OA
ATOM     28  C   UNL A   1      33.490  30.610  27.561  1.00  0.00     0.043 C 
ATOM     29  C   UNL A   1      33.940  28.248  26.875  1.00  0.00     0.005 C 
ATOM     30  C   UNL A   1      34.562  29.549  27.344  1.00  0.00     0.005 C 
ENDBRANCH  14  15
ENDBRANCH  12  14
ENDBRANCH   9  12
ENDBRANCH   7   8
ENDBRANCH   6   7
ENDBRANCH   3   6
ENDBRANCH   1   2
BRANCH   1  31
ATOM     31  C   UNL A   1      35.781  21.695  24.789  1.00  0.00     0.042 C 
BRANCH  31  32
ATOM     32  C   UNL A   1      37.154  22.250  25.107  1.00  0.00     0.118 C 
BRANCH  32  33
ATOM     33  N   UNL A   1      38.091  21.222  25.518  1.00  0.00    -0.352 N 
ATOM     34  C   UNL A   1      39.320  21.345  26.123  1.00  0.00     0.251 C 
ATOM     35  H   UNL A   1      37.804  20.297  25.338  1.00  0.00     0.163 HD
ATOM     36  O   UNL A   1      40.056  20.364  26.193  1.00  0.00    -0.269 OA
BRANCH  34  37
ATOM     37  C   UNL A   1      39.762  22.657  26.645  1.00  0.00     0.039 A 
ATOM     38  C   UNL A   1      39.255  23.842  26.116  1.00  0.00     0.014 A 
ATOM     39  C   UNL A   1      40.719  22.708  27.662  1.00  0.00     0.014 A 
ATOM     40  C   UNL A   1      39.864  25.051  26.423  1.00  0.00     0.010 A 
ATOM     41  C   UNL A   1      41.222  23.944  28.082  1.00  0.00     0.010 A 
ATOM     42  C   UNL A   1      40.842  25.126  27.425  1.00  0.00    -0.014 A 
BRANCH  42  43
ATOM     43  C   UNL A   1      41.424  26.450  27.781  1.00  0.00     0.031 A 
ATOM     44  C   UNL A   1      40.638  27.458  28.578  1.00  0.00     0.074 A 
ATOM     45  C   UNL A   1      42.694  26.724  27.417  1.00  0.00     0.049 A 
ATOM     46  N   UNL A   1      40.995  28.655  28.968  1.00  0.00    -0.248 NA
ATOM     47  C   UNL A   1      39.272  27.084  28.980  1.00  0.00     0.031 C 
ATOM     48  C   UNL A   1      43.552  25.822  26.646  1.00  0.00     0.029 A 
ATOM     49  N   UNL A   1      43.497  27.810  27.664  1.00  0.00    -0.354 N 
ATOM     50  C   UNL A   1      39.894  29.187  29.632  1.00  0.00     0.074 A 
ATOM     51  C   UNL A   1      38.844  28.198  29.559  1.00  0.00     0.031 C 
ATOM     52  C   UNL A   1      44.777  26.352  26.550  1.00  0.00     0.029 A 
ATOM     53  C   UNL A   1      44.769  27.679  27.157  1.00  0.00     0.049 A 
ATOM     54  H   UNL A   1      43.191  28.606  28.156  1.00  0.00     0.167 HD
ATOM     55  C   UNL A   1      39.782  30.384  30.258  1.00  0.00     0.034 A 
ATOM     56  C   UNL A   1      45.814  28.533  27.152  1.00  0.00     0.034 A 
ATOM     57  C   UNL A   1      40.853  31.346  30.340  1.00  0.00     0.049 A 
ATOM     58  C   UNL A   1      45.657  29.865  27.830  1.00  0.00     0.074 A 
ATOM     59  C   UNL A   1      40.848  32.577  30.971  1.00  0.00     0.029 A 
ATOM     60  N   UNL A   1      42.116  31.190  29.785  1.00  0.00    -0.354 N 
ATOM     61  N   UNL A   1      44.617  30.340  28.477  1.00  0.00    -0.248 NA
ATOM     62  C   UNL A   1      46.803  30.781  27.783  1.00  0.00     0.031 C 
ATOM     63  C   UNL A   1      42.075  33.194  30.737  1.00  0.00     0.029 A 
ATOM     64  C   UNL A   1      42.887  32.314  30.039  1.00  0.00     0.049 A 
ATOM     65  H   UNL A   1      42.421  30.398  29.286  1.00  0.00     0.167 HD
ATOM     66  C   UNL A   1      44.991  31.600  28.931  1.00  0.00     0.074 A 
ATOM     67  C   UNL A   1      46.361  31.802  28.507  1.00  0.00     0.031 C 
ATOM     68  C   UNL A   1      44.261  32.504  29.631  1.00  0.00     0.034 A 
BRANCH  55  69
ATOM     69  C   UNL A   1      38.468  30.740  30.916  1.00  0.00     0.023 A 
ATOM     70  C   UNL A   1      37.578  31.625  30.276  1.00  0.00     0.031 A 
ATOM     71  C   UNL A   1      38.152  30.313  32.218  1.00  0.00     0.131 A 
ATOM     72  C   UNL A   1      36.437  32.079  30.951  1.00  0.00     0.055 A 
ATOM     73  C   UNL A   1      36.987  30.729  32.867  1.00  0.00     0.041 A 
ATOM     74  F   UNL A   1      38.967  29.475  32.879  1.00  0.00    -0.206 F 
ATOM     75  C   UNL A   1      36.131  31.627  32.237  1.00  0.00     0.022 A 
BRANCH  72  76
ATOM     76  S   UNL A   1      35.349  33.333  30.218  1.00  0.00     0.124 S 
ATOM     77  O   UNL A   1      35.536  34.460  31.130  1.00  0.00    -0.237 OA
ATOM     78  O   UNL A   1      35.933  33.504  28.890  1.00  0.00    -0.237 OA
ATOM     79  O   UNL A   1      34.028  32.717  30.252  1.00  0.00    -0.744 OA
ENDBRANCH  72  76
ENDBRANCH  55  69
BRANCH  56  80
ATOM     80  C   UNL A   1      47.094  28.101  26.515  1.00  0.00     0.023 A 
ATOM     81  C   UNL A   1      47.281  28.218  25.124  1.00  0.00     0.031 A 
ATOM     82  C   UNL A   1      48.080  27.433  27.259  1.00  0.00     0.131 A 
ATOM     83  C   UNL A   1      48.372  27.589  24.511  1.00  0.00     0.055 A 
ATOM     84  C   UNL A   1      49.212  26.883  26.653  1.00  0.00     0.041 A 
ATOM     85  F   UNL A   1      47.942  27.284  28.585  1.00  0.00    -0.206 F 
ATOM     86  C   UNL A   1      49.349  26.938  25.270  1.00  0.00     0.022 A 
BRANCH  83  87
ATOM     87  S   UNL A   1      48.467  27.451  22.704  1.00  0.00     0.124 S 
ATOM     88  O   UNL A   1      49.772  28.041  22.421  1.00  0.00    -0.237 OA
ATOM     89  O   UNL A   1      48.374  26.006  22.513  1.00  0.00    -0.237 OA
ATOM     90  O   UNL A   1      47.314  28.213  22.238  1.00  0.00    -0.744 OA
ENDBRANCH  83  87
ENDBRANCH  56  80
BRANCH  68  91
ATOM     91  C   UNL A   1      44.907  33.813  30.020  1.00  0.00     0.023 A 
ATOM     92  C   UNL A   1      44.881  34.896  29.120  1.00  0.00     0.031 A 
ATOM     93  C   UNL A   1      45.683  33.935  31.185  1.00  0.00     0.131 A 
ATOM     94  C   UNL A   1      45.663  36.030  29.370  1.00  0.00     0.055 A 
ATOM     95  C   UNL A   1      46.415  35.092  31.459  1.00  0.00     0.041 A 
ATOM     96  F   UNL A   1      45.750  32.927  32.070  1.00  0.00    -0.206 F 
ATOM     97  C   UNL A   1      46.422  36.138  30.540  1.00  0.00     0.022 A 
BRANCH  94  98
ATOM     98  S   UNL A   1      45.809  37.355  28.140  1.00  0.00     0.124 S 
ATOM     99  O   UNL A   1      44.749  37.009  27.195  1.00  0.00    -0.237 OA
ATOM    100  O   UNL A   1      45.563  38.548  28.944  1.00  0.00    -0.237 OA
ATOM    101  O   UNL A   1      47.168  37.212  27.627  1.00  0.00    -0.744 OA
ENDBRANCH  94  98
ENDBRANCH  68  91
ENDBRANCH  42  43
ENDBRANCH  34  37
ENDBRANCH  32  33
ENDBRANCH  31  32
ENDBRANCH   1  31
TORSDOF 18
ENDMDL
MODEL 3
REMARK VINA RESULT:     -11.8      2.077      2.688
REMARK SMILES Cc1cc(O[C@@H](C)C(=O)NCCC(=O)NCCCNC(=O)c2ccc(-c3c4nc(c(-c5cc(S(=O)(=O)[O-])ccc5F)c5ccc([nH]5)c(-c5cc(S(=O)(=O)[O-])ccc5F)c5nc(c(-c6cc(S(=O)(=O)[O-])ccc6F)c6ccc3[nH]6)C=C5)C=C4)cc2)c2c3c(c(=O)oc2c1)CCCC3
REMARK SMILES IDX 16 1 15 2 13 3 14 4 12 6 11 7 10 8 8 9 9 10 6 12 7 13 5 14
REMARK SMILES IDX 4 15 1 16 2 17 3 18 92 19 91 20 85 21 90 22 86 23 88 24
REMARK SMILES IDX 87 25 96 26 89 27 93 28 95 29 94 30 17 31 18 32 19 33 20 34
REMARK SMILES IDX 21 36 22 37 23 38 84 39 24 40 83 41 25 42 26 43 27 44 77 45
REMARK SMILES IDX 28 46 82 47 76 48 78 49 29 50 81 51 75 52 74 53 30 55 62 56
REMARK SMILES IDX 42 57 61 58 43 59 46 60 60 61 79 62 44 63 45 64 59 66 80 67
REMARK SMILES IDX 47 68 31 69 32 70 40 71 33 72 39 73 41 74 38 75 34 76 35 77
REMARK SMILES IDX 36 78 37 79 63 80 64 81 72 82 65 83 71 84 73 85 70 86 66 87
REMARK SMILES IDX 67 88 68 89 69 90 48 91 49 92 57 93 50 94 56 95 58 96 55 97
REMARK SMILES IDX 51 98 52 99 53 100 54 101
REMARK H PARENT 15 5 10 11 19 35 78 54 46 65
REMARK Flexibility Score: inf
ROOT
ATOM      1  C   UNL A   1      37.217  21.622  25.120  1.00  0.00     0.117 C 
ENDROOT
BRANCH   1   2
ATOM      2  N   UNL A   1      35.925  21.211  24.603  1.00  0.00    -0.356 N 
ATOM      3  C   UNL A   1      34.694  21.611  25.015  1.00  0.00     0.221 C 
ATOM      4  O   UNL A   1      33.707  20.971  24.649  1.00  0.00    -0.275 OA
ATOM      5  H   UNL A   1      35.943  20.564  23.861  1.00  0.00     0.163 HD
BRANCH   3   6
ATOM      6  C   UNL A   1      34.551  22.844  25.875  1.00  0.00     0.121 C 
BRANCH   6   7
ATOM      7  C   UNL A   1      33.520  23.855  25.375  1.00  0.00     0.126 C 
BRANCH   7   8
ATOM      8  N   UNL A   1      33.900  24.510  24.132  1.00  0.00    -0.352 N 
ATOM      9  C   UNL A   1      33.224  25.241  23.213  1.00  0.00     0.260 C 
ATOM     10  O   UNL A   1      33.639  25.124  22.050  1.00  0.00    -0.271 OA
ATOM     11  H   UNL A   1      34.852  24.398  23.912  1.00  0.00     0.163 HD
BRANCH   9  12
ATOM     12  C   UNL A   1      32.129  26.292  23.536  1.00  0.00     0.258 C 
ATOM     13  C   UNL A   1      30.743  25.647  23.571  1.00  0.00     0.064 C 
BRANCH  12  14
ATOM     14  O   UNL A   1      32.148  27.662  23.187  1.00  0.00    -0.480 OA
BRANCH  14  15
ATOM     15  C   UNL A   1      31.155  28.564  23.377  1.00  0.00     0.132 A 
ATOM     16  C   UNL A   1      27.898  29.667  21.731  1.00  0.00     0.044 C 
ATOM     17  C   UNL A   1      29.042  29.590  22.699  1.00  0.00    -0.044 A 
ATOM     18  C   UNL A   1      29.964  28.537  22.645  1.00  0.00     0.050 A 
ATOM     19  C   UNL A   1      29.273  30.626  23.594  1.00  0.00     0.051 A 
ATOM     20  C   UNL A   1      30.386  30.572  24.435  1.00  0.00     0.142 A 
ATOM     21  C   UNL A   1      31.341  29.550  24.377  1.00  0.00     0.063 A 
ATOM     22  O   UNL A   1      30.478  31.633  25.350  1.00  0.00    -0.422 OA
ATOM     23  C   UNL A   1      32.428  29.579  25.396  1.00  0.00    -0.023 A 
ATOM     24  C   UNL A   1      31.434  31.651  26.342  1.00  0.00     0.339 A 
ATOM     25  C   UNL A   1      32.434  30.556  26.328  1.00  0.00     0.042 A 
ATOM     26  C   UNL A   1      33.463  28.473  25.443  1.00  0.00     0.037 C 
ATOM     27  O   UNL A   1      31.449  32.533  27.194  1.00  0.00    -0.246 OA
ATOM     28  C   UNL A   1      33.434  30.632  27.456  1.00  0.00     0.043 C 
ATOM     29  C   UNL A   1      34.239  28.369  26.760  1.00  0.00     0.005 C 
ATOM     30  C   UNL A   1      34.654  29.736  27.268  1.00  0.00     0.005 C 
ENDBRANCH  14  15
ENDBRANCH  12  14
ENDBRANCH   9  12
ENDBRANCH   7   8
ENDBRANCH   6   7
ENDBRANCH   3   6
ENDBRANCH   1   2
BRANCH   1  31
ATOM     31  C   UNL A   1      38.162  20.433  25.164  1.00  0.00     0.042 C 
BRANCH  31  32
ATOM     32  C   UNL A   1      39.309  20.599  26.140  1.00  0.00     0.118 C 
BRANCH  32  33
ATOM     33  N   UNL A   1      40.289  19.535  26.037  1.00  0.00    -0.352 N 
ATOM     34  C   UNL A   1      41.662  19.606  26.001  1.00  0.00     0.251 C 
ATOM     35  H   UNL A   1      39.916  18.625  25.987  1.00  0.00     0.163 HD
ATOM     36  O   UNL A   1      42.308  18.608  25.692  1.00  0.00    -0.269 OA
BRANCH  34  37
ATOM     37  C   UNL A   1      42.347  20.886  26.292  1.00  0.00     0.039 A 
ATOM     38  C   UNL A   1      42.650  21.251  27.602  1.00  0.00     0.014 A 
ATOM     39  C   UNL A   1      42.670  21.749  25.241  1.00  0.00     0.014 A 
ATOM     40  C   UNL A   1      43.044  22.552  27.882  1.00  0.00     0.010 A 
ATOM     41  C   UNL A   1      43.215  23.007  25.518  1.00  0.00     0.010 A 
ATOM     42  C   UNL A   1      43.354  23.445  26.845  1.00  0.00    -0.014 A 
BRANCH  42  43
ATOM     43  C   UNL A   1      43.845  24.811  27.180  1.00  0.00     0.031 A 
ATOM     44  C   UNL A   1      45.272  25.213  26.914  1.00  0.00     0.074 A 
ATOM     45  C   UNL A   1      42.977  25.709  27.690  1.00  0.00     0.049 A 
ATOM     46  N   UNL A   1      45.858  26.359  27.149  1.00  0.00    -0.248 NA
ATOM     47  C   UNL A   1      46.160  24.201  26.320  1.00  0.00     0.031 C 
ATOM     48  C   UNL A   1      41.570  25.431  27.987  1.00  0.00     0.029 A 
ATOM     49  N   UNL A   1      43.127  27.033  28.020  1.00  0.00    -0.354 N 
ATOM     50  C   UNL A   1      47.185  26.198  26.761  1.00  0.00     0.074 A 
ATOM     51  C   UNL A   1      47.326  24.832  26.312  1.00  0.00     0.031 C 
ATOM     52  C   UNL A   1      40.970  26.562  28.377  1.00  0.00     0.029 A 
ATOM     53  C   UNL A   1      41.966  27.624  28.465  1.00  0.00     0.049 A 
ATOM     54  H   UNL A   1      43.983  27.514  27.945  1.00  0.00     0.167 HD
ATOM     55  C   UNL A   1      48.185  27.113  26.765  1.00  0.00     0.034 A 
ATOM     56  C   UNL A   1      41.724  28.871  28.919  1.00  0.00     0.034 A 
ATOM     57  C   UNL A   1      48.014  28.479  27.195  1.00  0.00     0.049 A 
ATOM     58  C   UNL A   1      42.855  29.862  28.940  1.00  0.00     0.074 A 
ATOM     59  C   UNL A   1      48.958  29.491  27.216  1.00  0.00     0.029 A 
ATOM     60  N   UNL A   1      46.832  29.030  27.671  1.00  0.00    -0.354 N 
ATOM     61  N   UNL A   1      44.096  29.698  28.543  1.00  0.00    -0.248 NA
ATOM     62  C   UNL A   1      42.564  31.201  29.464  1.00  0.00     0.031 C 
ATOM     63  C   UNL A   1      48.370  30.626  27.771  1.00  0.00     0.029 A 
ATOM     64  C   UNL A   1      47.031  30.358  28.011  1.00  0.00     0.049 A 
ATOM     65  H   UNL A   1      45.977  28.548  27.754  1.00  0.00     0.167 HD
ATOM     66  C   UNL A   1      44.728  30.920  28.751  1.00  0.00     0.074 A 
ATOM     67  C   UNL A   1      43.725  31.818  29.285  1.00  0.00     0.031 C 
ATOM     68  C   UNL A   1      46.022  31.258  28.524  1.00  0.00     0.034 A 
BRANCH  55  69
ATOM     69  C   UNL A   1      49.557  26.694  26.292  1.00  0.00     0.023 A 
ATOM     70  C   UNL A   1      50.036  27.133  25.042  1.00  0.00     0.031 A 
ATOM     71  C   UNL A   1      50.336  25.766  27.007  1.00  0.00     0.131 A 
ATOM     72  C   UNL A   1      51.236  26.620  24.531  1.00  0.00     0.055 A 
ATOM     73  C   UNL A   1      51.557  25.296  26.518  1.00  0.00     0.041 A 
ATOM     74  F   UNL A   1      49.926  25.307  28.202  1.00  0.00    -0.206 F 
ATOM     75  C   UNL A   1      52.004  25.713  25.267  1.00  0.00     0.022 A 
BRANCH  72  76
ATOM     76  S   UNL A   1      51.806  27.046  22.863  1.00  0.00     0.124 S 
ATOM     77  O   UNL A   1      52.345  28.389  23.065  1.00  0.00    -0.237 OA
ATOM     78  O   UNL A   1      52.800  26.008  22.606  1.00  0.00    -0.237 OA
ATOM     79  O   UNL A   1      50.598  26.977  22.049  1.00  0.00    -0.744 OA
ENDBRANCH  72  76
ENDBRANCH  55  69
BRANCH  56  80
ATOM     80  C   UNL A   1      40.336  29.228  29.338  1.00  0.00     0.023 A 
ATOM     81  C   UNL A   1      39.953  29.158  30.691  1.00  0.00     0.031 A 
ATOM     82  C   UNL A   1      39.341  29.495  28.384  1.00  0.00     0.131 A 
ATOM     83  C   UNL A   1      38.599  29.252  31.039  1.00  0.00     0.055 A 
ATOM     84  C   UNL A   1      38.004  29.675  28.746  1.00  0.00     0.041 A 
ATOM     85  F   UNL A   1      39.653  29.559  27.080  1.00  0.00    -0.206 F 
ATOM     86  C   UNL A   1      37.624  29.529  30.076  1.00  0.00     0.022 A 
BRANCH  83  87
ATOM     87  S   UNL A   1      38.043  28.850  32.720  1.00  0.00     0.124 S 
ATOM     88  O   UNL A   1      36.680  29.372  32.723  1.00  0.00    -0.237 OA
ATOM     89  O   UNL A   1      38.162  27.395  32.730  1.00  0.00    -0.237 OA
ATOM     90  O   UNL A   1      38.992  29.555  33.574  1.00  0.00    -0.744 OA
ENDBRANCH  83  87
ENDBRANCH  56  80
BRANCH  68  91
ATOM     91  C   UNL A   1      46.466  32.671  28.826  1.00  0.00     0.023 A 
ATOM     92  C   UNL A   1      46.501  33.625  27.790  1.00  0.00     0.031 A 
ATOM     93  C   UNL A   1      47.008  33.023  30.073  1.00  0.00     0.131 A 
ATOM     94  C   UNL A   1      47.119  34.863  28.002  1.00  0.00     0.055 A 
ATOM     95  C   UNL A   1      47.570  34.281  30.297  1.00  0.00     0.041 A 
ATOM     96  F   UNL A   1      47.008  32.146  31.089  1.00  0.00    -0.206 F 
ATOM     97  C   UNL A   1      47.644  35.200  29.254  1.00  0.00     0.022 A 
BRANCH  94  98
ATOM     98  S   UNL A   1      47.359  36.035  26.638  1.00  0.00     0.124 S 
ATOM     99  O   UNL A   1      47.560  35.139  25.501  1.00  0.00    -0.237 OA
ATOM    100  O   UNL A   1      46.098  36.769  26.639  1.00  0.00    -0.237 OA
ATOM    101  O   UNL A   1      48.534  36.804  27.037  1.00  0.00    -0.744 OA
ENDBRANCH  94  98
ENDBRANCH  68  91
ENDBRANCH  42  43
ENDBRANCH  34  37
ENDBRANCH  32  33
ENDBRANCH  31  32
ENDBRANCH   1  31
TORSDOF 18
ENDMDL
