MODEL 1
REMARK VINA RESULT:     -13.3      0.000      0.000
REMARK SMILES O=C(Cn1cc(/C=C2\SC(N3CCOCC3)=[NH+]C2=O)c2ccccc21)NCCCNC(=O)c1ccc(-c2c3nc(c(-c4cc(S(=O)(=O)[O-])ccc4F)c4ccc([nH]4)c(-c4cc(S(=O)(=O)[O-])ccc4F)c4nc(c(-c5cc(S(=O)(=O)[O-])ccc5F)c5ccc2[nH]5)C=C4)C=C3)cc1
REMARK SMILES IDX 28 1 27 2 26 3 1 4 2 5 3 7 4 8 5 9 25 10 6 11 20 12 24 13
REMARK SMILES IDX 21 14 23 15 22 16 7 17 8 18 9 19 18 20 10 21 17 22 19 23
REMARK SMILES IDX 11 24 12 26 16 27 13 28 15 29 14 30 29 31 30 32 31 33 32 35
REMARK SMILES IDX 33 36 34 37 95 38 35 39 94 40 36 41 37 42 38 43 88 44 39 45
REMARK SMILES IDX 93 46 87 47 89 48 40 49 92 50 86 51 85 52 41 54 73 55 53 56
REMARK SMILES IDX 72 57 54 58 57 59 71 60 90 61 55 62 56 63 70 65 91 66 58 67
REMARK SMILES IDX 42 68 43 69 51 70 44 71 50 72 52 73 49 74 45 75 46 76 47 77
REMARK SMILES IDX 48 78 74 79 75 80 83 81 76 82 82 83 84 84 81 85 77 86 78 87
REMARK SMILES IDX 79 88 80 89 59 90 60 91 68 92 61 93 67 94 69 95 66 96 62 97
REMARK SMILES IDX 63 98 64 99 65 100
REMARK H PARENT 26 6 17 25 30 34 89 53 57 64
REMARK Flexibility Score: inf
ROOT
ATOM      1  C   UNL A   1      34.372  33.440  27.731  1.00  0.00     0.042 C 
ENDROOT
BRANCH   1   2
ATOM      2  C   UNL A   1      34.242  32.035  28.324  1.00  0.00     0.117 C 
BRANCH   2   3
ATOM      3  N   UNL A   1      34.330  30.981  27.327  1.00  0.00    -0.354 N 
ATOM      4  O   UNL A   1      32.078  30.816  26.878  1.00  0.00    -0.273 OA
ATOM      5  C   UNL A   1      33.236  30.479  26.646  1.00  0.00     0.239 C 
ATOM      6  H   UNL A   1      35.218  30.604  27.126  1.00  0.00     0.163 HD
BRANCH   5   7
ATOM      7  C   UNL A   1      33.558  29.399  25.628  1.00  0.00     0.222 C 
BRANCH   7   8
ATOM      8  N   UNL A   1      32.448  28.481  25.409  1.00  0.00    -0.337 N 
ATOM      9  C   UNL A   1      32.135  27.455  26.265  1.00  0.00     0.095 A 
ATOM     10  C   UNL A   1      31.521  28.539  24.386  1.00  0.00     0.049 A 
ATOM     11  C   UNL A   1      31.049  26.786  25.747  1.00  0.00     0.001 A 
ATOM     12  C   UNL A   1      30.643  27.460  24.564  1.00  0.00     0.007 A 
ATOM     13  C   UNL A   1      31.376  29.438  23.317  1.00  0.00     0.027 A 
ATOM     14  C   UNL A   1      29.594  27.274  23.640  1.00  0.00     0.011 A 
ATOM     15  C   UNL A   1      30.316  29.241  22.426  1.00  0.00     0.002 A 
ATOM     16  C   UNL A   1      29.438  28.173  22.580  1.00  0.00     0.001 A 
BRANCH  11  17
ATOM     17  C   UNL A   1      30.474  25.629  26.349  1.00  0.00     0.034 C 
ATOM     18  C   UNL A   1      31.094  24.453  26.517  1.00  0.00     0.110 C 
ATOM     19  S   UNL A   1      32.738  24.080  26.189  1.00  0.00     0.006 SA
ATOM     20  C   UNL A   1      30.409  23.227  27.007  1.00  0.00     0.346 C 
ATOM     21  C   UNL A   1      32.408  22.391  26.508  1.00  0.00     0.319 C 
ATOM     22  N   UNL A   1      31.200  22.111  26.876  1.00  0.00    -0.200 N 
ATOM     23  O   UNL A   1      29.268  23.233  27.469  1.00  0.00    -0.240 OA
ATOM     24  N   UNL A   1      33.409  21.491  26.285  1.00  0.00    -0.251 N 
ATOM     25  H   UNL A   1      30.882  21.195  27.046  1.00  0.00     0.316 HD
ATOM     26  C   UNL A   1      34.784  21.657  26.758  1.00  0.00     0.265 C 
ATOM     27  C   UNL A   1      33.172  20.231  25.578  1.00  0.00     0.265 C 
ATOM     28  C   UNL A   1      35.757  21.476  25.588  1.00  0.00     0.206 C 
ATOM     29  C   UNL A   1      34.206  20.103  24.443  1.00  0.00     0.206 C 
ATOM     30  O   UNL A   1      35.554  20.208  24.940  1.00  0.00    -0.373 OA
ENDBRANCH  11  17
ENDBRANCH   7   8
ENDBRANCH   5   7
ENDBRANCH   2   3
ENDBRANCH   1   2
BRANCH   1  31
ATOM     31  C   UNL A   1      35.642  34.202  28.119  1.00  0.00     0.118 C 
BRANCH  31  32
ATOM     32  N   UNL A   1      35.891  34.274  29.545  1.00  0.00    -0.352 N 
ATOM     33  C   UNL A   1      36.831  33.755  30.393  1.00  0.00     0.251 C 
ATOM     34  H   UNL A   1      35.226  34.827  30.015  1.00  0.00     0.163 HD
ATOM     35  O   UNL A   1      36.856  34.265  31.517  1.00  0.00    -0.269 OA
BRANCH  33  36
ATOM     36  C   UNL A   1      37.750  32.618  30.098  1.00  0.00     0.039 A 
ATOM     37  C   UNL A   1      37.359  31.318  29.783  1.00  0.00     0.014 A 
ATOM     38  C   UNL A   1      39.128  32.880  30.255  1.00  0.00     0.014 A 
ATOM     39  C   UNL A   1      38.310  30.298  29.713  1.00  0.00     0.010 A 
ATOM     40  C   UNL A   1      40.081  31.864  30.185  1.00  0.00     0.010 A 
ATOM     41  C   UNL A   1      39.666  30.558  29.959  1.00  0.00    -0.014 A 
BRANCH  41  42
ATOM     42  C   UNL A   1      40.592  29.423  29.946  1.00  0.00     0.031 A 
ATOM     43  C   UNL A   1      40.958  28.866  31.278  1.00  0.00     0.074 A 
ATOM     44  C   UNL A   1      41.105  28.851  28.838  1.00  0.00     0.049 A 
ATOM     45  N   UNL A   1      42.081  28.992  31.910  1.00  0.00    -0.248 NA
ATOM     46  C   UNL A   1      39.918  28.168  32.039  1.00  0.00     0.031 C 
ATOM     47  C   UNL A   1      40.690  29.004  27.443  1.00  0.00     0.029 A 
ATOM     48  N   UNL A   1      42.113  27.933  28.761  1.00  0.00    -0.354 N 
ATOM     49  C   UNL A   1      41.958  28.252  33.086  1.00  0.00     0.074 A 
ATOM     50  C   UNL A   1      40.568  27.870  33.167  1.00  0.00     0.031 C 
ATOM     51  C   UNL A   1      41.299  28.057  26.688  1.00  0.00     0.029 A 
ATOM     52  C   UNL A   1      42.269  27.355  27.511  1.00  0.00     0.049 A 
ATOM     53  H   UNL A   1      42.683  27.702  29.529  1.00  0.00     0.167 HD
ATOM     54  C   UNL A   1      43.043  27.885  33.829  1.00  0.00     0.034 A 
ATOM     55  C   UNL A   1      43.113  26.346  27.182  1.00  0.00     0.034 A 
ATOM     56  C   UNL A   1      44.223  28.598  33.421  1.00  0.00     0.049 A 
ATOM     57  C   UNL A   1      44.193  26.290  28.194  1.00  0.00     0.074 A 
ATOM     58  C   UNL A   1      44.622  29.919  33.434  1.00  0.00     0.029 A 
ATOM     59  N   UNL A   1      45.105  27.947  32.596  1.00  0.00    -0.354 N 
ATOM     60  N   UNL A   1      45.135  27.182  28.313  1.00  0.00    -0.248 NA
ATOM     61  C   UNL A   1      44.003  25.422  29.345  1.00  0.00     0.031 C 
ATOM     62  C   UNL A   1      45.412  30.075  32.260  1.00  0.00     0.029 A 
ATOM     63  C   UNL A   1      45.483  28.833  31.622  1.00  0.00     0.049 A 
ATOM     64  H   UNL A   1      45.409  27.015  32.685  1.00  0.00     0.167 HD
ATOM     65  C   UNL A   1      45.333  27.295  29.679  1.00  0.00     0.074 A 
ATOM     66  C   UNL A   1      44.703  26.107  30.252  1.00  0.00     0.031 C 
ATOM     67  C   UNL A   1      45.743  28.468  30.244  1.00  0.00     0.034 A 
BRANCH  54  68
ATOM     68  C   UNL A   1      43.121  26.675  34.734  1.00  0.00     0.023 A 
ATOM     69  C   UNL A   1      43.817  25.504  34.388  1.00  0.00     0.031 A 
ATOM     70  C   UNL A   1      42.684  26.755  36.076  1.00  0.00     0.131 A 
ATOM     71  C   UNL A   1      44.057  24.489  35.326  1.00  0.00     0.055 A 
ATOM     72  C   UNL A   1      42.982  25.772  37.029  1.00  0.00     0.041 A 
ATOM     73  F   UNL A   1      42.004  27.822  36.523  1.00  0.00    -0.206 F 
ATOM     74  C   UNL A   1      43.676  24.630  36.657  1.00  0.00     0.022 A 
BRANCH  71  75
ATOM     75  S   UNL A   1      44.894  22.959  34.828  1.00  0.00     0.124 S 
ATOM     76  O   UNL A   1      45.008  22.253  36.099  1.00  0.00    -0.237 OA
ATOM     77  O   UNL A   1      43.942  22.397  33.875  1.00  0.00    -0.237 OA
ATOM     78  O   UNL A   1      46.146  23.432  34.245  1.00  0.00    -0.744 OA
ENDBRANCH  71  75
ENDBRANCH  54  68
BRANCH  55  79
ATOM     79  C   UNL A   1      42.786  25.163  26.354  1.00  0.00     0.023 A 
ATOM     80  C   UNL A   1      41.779  24.280  26.784  1.00  0.00     0.031 A 
ATOM     81  C   UNL A   1      43.664  24.712  25.354  1.00  0.00     0.131 A 
ATOM     82  C   UNL A   1      41.714  22.977  26.271  1.00  0.00     0.055 A 
ATOM     83  C   UNL A   1      43.584  23.417  24.828  1.00  0.00     0.041 A 
ATOM     84  F   UNL A   1      44.667  25.494  24.925  1.00  0.00    -0.206 F 
ATOM     85  C   UNL A   1      42.615  22.536  25.301  1.00  0.00     0.022 A 
BRANCH  82  86
ATOM     86  S   UNL A   1      40.511  21.793  26.934  1.00  0.00     0.124 S 
ATOM     87  O   UNL A   1      40.886  20.558  26.251  1.00  0.00    -0.237 OA
ATOM     88  O   UNL A   1      40.808  21.838  28.362  1.00  0.00    -0.237 OA
ATOM     89  O   UNL A   1      39.223  22.353  26.534  1.00  0.00    -0.744 OA
ENDBRANCH  82  86
ENDBRANCH  55  79
BRANCH  67  90
ATOM     90  C   UNL A   1      46.256  29.577  29.352  1.00  0.00     0.023 A 
ATOM     91  C   UNL A   1      45.296  30.328  28.648  1.00  0.00     0.031 A 
ATOM     92  C   UNL A   1      47.608  29.762  29.004  1.00  0.00     0.131 A 
ATOM     93  C   UNL A   1      45.683  31.181  27.610  1.00  0.00     0.055 A 
ATOM     94  C   UNL A   1      47.996  30.676  28.018  1.00  0.00     0.041 A 
ATOM     95  F   UNL A   1      48.580  29.009  29.534  1.00  0.00    -0.206 F 
ATOM     96  C   UNL A   1      47.031  31.376  27.302  1.00  0.00     0.022 A 
BRANCH  93  97
ATOM     97  S   UNL A   1      44.437  31.921  26.523  1.00  0.00     0.124 S 
ATOM     98  O   UNL A   1      43.510  30.813  26.314  1.00  0.00    -0.237 OA
ATOM     99  O   UNL A   1      43.926  33.020  27.341  1.00  0.00    -0.237 OA
ATOM    100  O   UNL A   1      45.194  32.333  25.345  1.00  0.00    -0.744 OA
ENDBRANCH  93  97
ENDBRANCH  67  90
ENDBRANCH  41  42
ENDBRANCH  33  36
ENDBRANCH  31  32
ENDBRANCH   1  31
TORSDOF 15
ENDMDL
MODEL 2
REMARK VINA RESULT:     -13.1      1.926      2.306
REMARK SMILES O=C(Cn1cc(/C=C2\SC(N3CCOCC3)=[NH+]C2=O)c2ccccc21)NCCCNC(=O)c1ccc(-c2c3nc(c(-c4cc(S(=O)(=O)[O-])ccc4F)c4ccc([nH]4)c(-c4cc(S(=O)(=O)[O-])ccc4F)c4nc(c(-c5cc(S(=O)(=O)[O-])ccc5F)c5ccc2[nH]5)C=C4)C=C3)cc1
REMARK SMILES IDX 28 1 27 2 26 3 1 4 2 5 3 7 4 8 5 9 25 10 6 11 20 12 24 13
REMARK SMILES IDX 21 14 23 15 22 16 7 17 8 18 9 19 18 20 10 21 17 22 19 23
REMARK SMILES IDX 11 24 12 26 16 27 13 28 15 29 14 30 29 31 30 32 31 33 32 35
REMARK SMILES IDX 33 36 34 37 95 38 35 39 94 40 36 41 37 42 38 43 88 44 39 45
REMARK SMILES IDX 93 46 87 47 89 48 40 49 92 50 86 51 85 52 41 54 73 55 53 56
REMARK SMILES IDX 72 57 54 58 57 59 71 60 90 61 55 62 56 63 70 65 91 66 58 67
REMARK SMILES IDX 42 68 43 69 51 70 44 71 50 72 52 73 49 74 45 75 46 76 47 77
REMARK SMILES IDX 48 78 74 79 75 80 83 81 76 82 82 83 84 84 81 85 77 86 78 87
REMARK SMILES IDX 79 88 80 89 59 90 60 91 68 92 61 93 67 94 69 95 66 96 62 97
REMARK SMILES IDX 63 98 64 99 65 100
REMARK H PARENT 26 6 17 25 30 34 89 53 57 64
REMARK Flexibility Score: inf
ROOT
ATOM      1  C   UNL A   1      35.413  32.005  27.626  1.00  0.00     0.042 C 
ENDROOT
BRANCH   1   2
ATOM      2  C   UNL A   1      34.706  30.669  27.871  1.00  0.00     0.117 C 
BRANCH   2   3
ATOM      3  N   UNL A   1      34.344  29.978  26.644  1.00  0.00    -0.354 N 
ATOM      4  O   UNL A   1      32.183  30.758  26.497  1.00  0.00    -0.273 OA
ATOM      5  C   UNL A   1      33.115  30.110  26.026  1.00  0.00     0.239 C 
ATOM      6  H   UNL A   1      35.011  29.382  26.233  1.00  0.00     0.163 HD
BRANCH   5   7
ATOM      7  C   UNL A   1      32.958  29.319  24.739  1.00  0.00     0.222 C 
BRANCH   7   8
ATOM      8  N   UNL A   1      31.817  28.414  24.769  1.00  0.00    -0.337 N 
ATOM      9  C   UNL A   1      31.707  27.361  25.642  1.00  0.00     0.095 A 
ATOM     10  C   UNL A   1      30.669  28.511  24.004  1.00  0.00     0.049 A 
ATOM     11  C   UNL A   1      30.519  26.716  25.383  1.00  0.00     0.001 A 
ATOM     12  C   UNL A   1      29.847  27.430  24.356  1.00  0.00     0.007 A 
ATOM     13  C   UNL A   1      30.281  29.446  23.031  1.00  0.00     0.027 A 
ATOM     14  C   UNL A   1      28.603  27.281  23.710  1.00  0.00     0.011 A 
ATOM     15  C   UNL A   1      29.033  29.284  22.420  1.00  0.00     0.002 A 
ATOM     16  C   UNL A   1      28.205  28.215  22.749  1.00  0.00     0.001 A 
BRANCH  11  17
ATOM     17  C   UNL A   1      30.094  25.542  26.071  1.00  0.00     0.034 C 
ATOM     18  C   UNL A   1      30.861  24.475  26.334  1.00  0.00     0.110 C 
ATOM     19  S   UNL A   1      32.545  24.302  26.046  1.00  0.00     0.006 SA
ATOM     20  C   UNL A   1      30.336  23.210  26.914  1.00  0.00     0.346 C 
ATOM     21  C   UNL A   1      32.437  22.612  26.494  1.00  0.00     0.319 C 
ATOM     22  N   UNL A   1      31.271  22.203  26.876  1.00  0.00    -0.200 N 
ATOM     23  O   UNL A   1      29.198  23.099  27.367  1.00  0.00    -0.240 OA
ATOM     24  N   UNL A   1      33.552  21.840  26.348  1.00  0.00    -0.251 N 
ATOM     25  H   UNL A   1      31.074  21.268  27.114  1.00  0.00     0.316 HD
ATOM     26  C   UNL A   1      34.885  22.224  26.815  1.00  0.00     0.265 C 
ATOM     27  C   UNL A   1      33.496  20.509  25.740  1.00  0.00     0.265 C 
ATOM     28  C   UNL A   1      35.892  22.085  25.669  1.00  0.00     0.206 C 
ATOM     29  C   UNL A   1      34.556  20.433  24.625  1.00  0.00     0.206 C 
ATOM     30  O   UNL A   1      35.870  20.756  25.120  1.00  0.00    -0.373 OA
ENDBRANCH  11  17
ENDBRANCH   7   8
ENDBRANCH   5   7
ENDBRANCH   2   3
ENDBRANCH   1   2
BRANCH   1  31
ATOM     31  C   UNL A   1      34.833  33.202  28.383  1.00  0.00     0.118 C 
BRANCH  31  32
ATOM     32  N   UNL A   1      34.434  32.919  29.747  1.00  0.00    -0.352 N 
ATOM     33  C   UNL A   1      35.062  32.432  30.860  1.00  0.00     0.251 C 
ATOM     34  H   UNL A   1      33.485  33.127  29.911  1.00  0.00     0.163 HD
ATOM     35  O   UNL A   1      34.441  32.585  31.917  1.00  0.00    -0.269 OA
BRANCH  33  36
ATOM     36  C   UNL A   1      36.360  31.700  30.889  1.00  0.00     0.039 A 
ATOM     37  C   UNL A   1      37.615  32.261  30.658  1.00  0.00     0.014 A 
ATOM     38  C   UNL A   1      36.279  30.302  31.069  1.00  0.00     0.014 A 
ATOM     39  C   UNL A   1      38.736  31.440  30.525  1.00  0.00     0.010 A 
ATOM     40  C   UNL A   1      37.397  29.479  30.939  1.00  0.00     0.010 A 
ATOM     41  C   UNL A   1      38.624  30.045  30.619  1.00  0.00    -0.014 A 
BRANCH  41  42
ATOM     42  C   UNL A   1      39.830  29.247  30.389  1.00  0.00     0.031 A 
ATOM     43  C   UNL A   1      40.618  28.893  31.603  1.00  0.00     0.074 A 
ATOM     44  C   UNL A   1      40.254  28.805  29.187  1.00  0.00     0.049 A 
ATOM     45  N   UNL A   1      41.752  29.386  31.985  1.00  0.00    -0.248 NA
ATOM     46  C   UNL A   1      40.024  27.949  32.555  1.00  0.00     0.031 C 
ATOM     47  C   UNL A   1      39.532  28.756  27.915  1.00  0.00     0.029 A 
ATOM     48  N   UNL A   1      41.457  28.235  28.882  1.00  0.00    -0.354 N 
ATOM     49  C   UNL A   1      42.109  28.702  33.147  1.00  0.00     0.074 A 
ATOM     50  C   UNL A   1      40.953  27.919  33.513  1.00  0.00     0.031 C 
ATOM     51  C   UNL A   1      40.233  28.004  27.032  1.00  0.00     0.029 A 
ATOM     52  C   UNL A   1      41.521  27.672  27.617  1.00  0.00     0.049 A 
ATOM     53  H   UNL A   1      42.216  28.226  29.508  1.00  0.00     0.167 HD
ATOM     54  C   UNL A   1      43.384  28.719  33.637  1.00  0.00     0.034 A 
ATOM     55  C   UNL A   1      42.547  26.953  27.099  1.00  0.00     0.034 A 
ATOM     56  C   UNL A   1      44.175  29.737  33.001  1.00  0.00     0.049 A 
ATOM     57  C   UNL A   1      43.776  27.278  27.858  1.00  0.00     0.074 A 
ATOM     58  C   UNL A   1      44.142  31.116  32.952  1.00  0.00     0.029 A 
ATOM     59  N   UNL A   1      45.024  29.347  31.996  1.00  0.00    -0.354 N 
ATOM     60  N   UNL A   1      44.401  28.420  27.791  1.00  0.00    -0.248 NA
ATOM     61  C   UNL A   1      44.106  26.451  29.008  1.00  0.00     0.031 C 
ATOM     62  C   UNL A   1      44.585  31.448  31.641  1.00  0.00     0.029 A 
ATOM     63  C   UNL A   1      44.901  30.258  30.980  1.00  0.00     0.049 A 
ATOM     64  H   UNL A   1      45.612  28.557  32.002  1.00  0.00     0.167 HD
ATOM     65  C   UNL A   1      44.833  28.654  29.086  1.00  0.00     0.074 A 
ATOM     66  C   UNL A   1      44.732  27.360  29.758  1.00  0.00     0.031 C 
ATOM     67  C   UNL A   1      44.970  29.922  29.572  1.00  0.00     0.034 A 
BRANCH  54  68
ATOM     68  C   UNL A   1      44.016  27.636  34.482  1.00  0.00     0.023 A 
ATOM     69  C   UNL A   1      44.235  27.772  35.864  1.00  0.00     0.031 A 
ATOM     70  C   UNL A   1      44.209  26.338  33.956  1.00  0.00     0.131 A 
ATOM     71  C   UNL A   1      44.617  26.681  36.658  1.00  0.00     0.055 A 
ATOM     72  C   UNL A   1      44.526  25.235  34.759  1.00  0.00     0.041 A 
ATOM     73  F   UNL A   1      44.037  26.085  32.649  1.00  0.00    -0.206 F 
ATOM     74  C   UNL A   1      44.729  25.402  36.121  1.00  0.00     0.022 A 
BRANCH  71  75
ATOM     75  S   UNL A   1      44.961  26.907  38.423  1.00  0.00     0.124 S 
ATOM     76  O   UNL A   1      43.772  26.326  39.037  1.00  0.00    -0.237 OA
ATOM     77  O   UNL A   1      46.195  26.144  38.586  1.00  0.00    -0.237 OA
ATOM     78  O   UNL A   1      45.108  28.354  38.558  1.00  0.00    -0.744 OA
ENDBRANCH  71  75
ENDBRANCH  54  68
BRANCH  55  79
ATOM     79  C   UNL A   1      42.436  25.688  26.339  1.00  0.00     0.023 A 
ATOM     80  C   UNL A   1      41.530  24.703  26.770  1.00  0.00     0.031 A 
ATOM     81  C   UNL A   1      43.431  25.302  25.424  1.00  0.00     0.131 A 
ATOM     82  C   UNL A   1      41.673  23.375  26.346  1.00  0.00     0.055 A 
ATOM     83  C   UNL A   1      43.560  23.978  24.986  1.00  0.00     0.041 A 
ATOM     84  F   UNL A   1      44.348  26.186  25.001  1.00  0.00    -0.206 F 
ATOM     85  C   UNL A   1      42.687  23.003  25.463  1.00  0.00     0.022 A 
BRANCH  82  86
ATOM     86  S   UNL A   1      40.597  22.080  27.020  1.00  0.00     0.124 S 
ATOM     87  O   UNL A   1      41.124  21.914  28.372  1.00  0.00    -0.237 OA
ATOM     88  O   UNL A   1      39.284  22.710  26.930  1.00  0.00    -0.237 OA
ATOM     89  O   UNL A   1      40.823  20.948  26.126  1.00  0.00    -0.744 OA
ENDBRANCH  82  86
ENDBRANCH  55  79
BRANCH  67  90
ATOM     90  C   UNL A   1      44.919  31.090  28.612  1.00  0.00     0.023 A 
ATOM     91  C   UNL A   1      46.133  31.484  28.019  1.00  0.00     0.031 A 
ATOM     92  C   UNL A   1      43.810  31.942  28.447  1.00  0.00     0.131 A 
ATOM     93  C   UNL A   1      46.230  32.703  27.340  1.00  0.00     0.055 A 
ATOM     94  C   UNL A   1      43.892  33.122  27.699  1.00  0.00     0.041 A 
ATOM     95  F   UNL A   1      42.648  31.711  29.070  1.00  0.00    -0.206 F 
ATOM     96  C   UNL A   1      45.110  33.518  27.158  1.00  0.00     0.022 A 
BRANCH  93  97
ATOM     97  S   UNL A   1      47.847  33.339  26.829  1.00  0.00     0.124 S 
ATOM     98  O   UNL A   1      48.573  32.114  26.503  1.00  0.00    -0.237 OA
ATOM     99  O   UNL A   1      47.502  34.185  25.689  1.00  0.00    -0.237 OA
ATOM    100  O   UNL A   1      48.332  34.058  28.004  1.00  0.00    -0.744 OA
ENDBRANCH  93  97
ENDBRANCH  67  90
ENDBRANCH  41  42
ENDBRANCH  33  36
ENDBRANCH  31  32
ENDBRANCH   1  31
TORSDOF 15
ENDMDL
MODEL 3
REMARK VINA RESULT:     -12.9      4.420      8.256
REMARK SMILES O=C(Cn1cc(/C=C2\SC(N3CCOCC3)=[NH+]C2=O)c2ccccc21)NCCCNC(=O)c1ccc(-c2c3nc(c(-c4cc(S(=O)(=O)[O-])ccc4F)c4ccc([nH]4)c(-c4cc(S(=O)(=O)[O-])ccc4F)c4nc(c(-c5cc(S(=O)(=O)[O-])ccc5F)c5ccc2[nH]5)C=C4)C=C3)cc1
REMARK SMILES IDX 28 1 27 2 26 3 1 4 2 5 3 7 4 8 5 9 25 10 6 11 20 12 24 13
REMARK SMILES IDX 21 14 23 15 22 16 7 17 8 18 9 19 18 20 10 21 17 22 19 23
REMARK SMILES IDX 11 24 12 26 16 27 13 28 15 29 14 30 29 31 30 32 31 33 32 35
REMARK SMILES IDX 33 36 34 37 95 38 35 39 94 40 36 41 37 42 38 43 88 44 39 45
REMARK SMILES IDX 93 46 87 47 89 48 40 49 92 50 86 51 85 52 41 54 73 55 53 56
REMARK SMILES IDX 72 57 54 58 57 59 71 60 90 61 55 62 56 63 70 65 91 66 58 67
REMARK SMILES IDX 42 68 43 69 51 70 44 71 50 72 52 73 49 74 45 75 46 76 47 77
REMARK SMILES IDX 48 78 74 79 75 80 83 81 76 82 82 83 84 84 81 85 77 86 78 87
REMARK SMILES IDX 79 88 80 89 59 90 60 91 68 92 61 93 67 94 69 95 66 96 62 97
REMARK SMILES IDX 63 98 64 99 65 100
REMARK H PARENT 26 6 17 25 30 34 89 53 57 64
REMARK Flexibility Score: inf
ROOT
ATOM      1  C   UNL A   1      34.029  35.672  28.800  1.00  0.00     0.042 C 
ENDROOT
BRANCH   1   2
ATOM      2  C   UNL A   1      32.951  35.858  29.870  1.00  0.00     0.117 C 
BRANCH   2   3
ATOM      3  N   UNL A   1      33.100  34.952  30.998  1.00  0.00    -0.354 N 
ATOM      4  O   UNL A   1      34.307  36.369  32.353  1.00  0.00    -0.273 OA
ATOM      5  C   UNL A   1      33.735  35.296  32.177  1.00  0.00     0.239 C 
ATOM      6  H   UNL A   1      32.728  34.043  30.917  1.00  0.00     0.163 HD
BRANCH   5   7
ATOM      7  C   UNL A   1      33.754  34.207  33.235  1.00  0.00     0.222 C 
BRANCH   7   8
ATOM      8  N   UNL A   1      35.103  33.801  33.602  1.00  0.00    -0.337 N 
ATOM      9  C   UNL A   1      35.866  34.461  34.533  1.00  0.00     0.095 A 
ATOM     10  C   UNL A   1      35.780  32.684  33.148  1.00  0.00     0.049 A 
ATOM     11  C   UNL A   1      37.081  33.820  34.619  1.00  0.00     0.001 A 
ATOM     12  C   UNL A   1      37.043  32.692  33.757  1.00  0.00     0.007 A 
ATOM     13  C   UNL A   1      35.399  31.670  32.254  1.00  0.00     0.027 A 
ATOM     14  C   UNL A   1      37.953  31.657  33.455  1.00  0.00     0.011 A 
ATOM     15  C   UNL A   1      36.314  30.646  31.988  1.00  0.00     0.002 A 
ATOM     16  C   UNL A   1      37.575  30.639  32.575  1.00  0.00     0.001 A 
BRANCH  11  17
ATOM     17  C   UNL A   1      38.147  34.260  35.457  1.00  0.00     0.034 C 
ATOM     18  C   UNL A   1      38.279  33.975  36.760  1.00  0.00     0.110 C 
ATOM     19  S   UNL A   1      37.305  32.923  37.704  1.00  0.00     0.006 SA
ATOM     20  C   UNL A   1      39.321  34.583  37.630  1.00  0.00     0.346 C 
ATOM     21  C   UNL A   1      38.145  33.456  39.145  1.00  0.00     0.319 C 
ATOM     22  N   UNL A   1      39.104  34.304  38.959  1.00  0.00    -0.200 N 
ATOM     23  O   UNL A   1      40.255  35.253  37.194  1.00  0.00    -0.240 OA
ATOM     24  N   UNL A   1      37.697  33.001  40.350  1.00  0.00    -0.251 N 
ATOM     25  H   UNL A   1      39.624  34.706  39.692  1.00  0.00     0.316 HD
ATOM     26  C   UNL A   1      37.395  31.599  40.640  1.00  0.00     0.265 C 
ATOM     27  C   UNL A   1      37.523  33.894  41.497  1.00  0.00     0.265 C 
ATOM     28  C   UNL A   1      35.987  31.486  41.233  1.00  0.00     0.206 C 
ATOM     29  C   UNL A   1      36.103  33.701  42.060  1.00  0.00     0.206 C 
ATOM     30  O   UNL A   1      35.848  32.323  42.395  1.00  0.00    -0.373 OA
ENDBRANCH  11  17
ENDBRANCH   7   8
ENDBRANCH   5   7
ENDBRANCH   2   3
ENDBRANCH   1   2
BRANCH   1  31
ATOM     31  C   UNL A   1      34.849  34.384  28.911  1.00  0.00     0.118 C 
BRANCH  31  32
ATOM     32  N   UNL A   1      34.412  33.312  28.039  1.00  0.00    -0.352 N 
ATOM     33  C   UNL A   1      34.756  31.999  27.869  1.00  0.00     0.251 C 
ATOM     34  H   UNL A   1      33.699  33.597  27.423  1.00  0.00     0.163 HD
ATOM     35  O   UNL A   1      33.962  31.337  27.194  1.00  0.00    -0.269 OA
BRANCH  33  36
ATOM     36  C   UNL A   1      36.001  31.344  28.363  1.00  0.00     0.039 A 
ATOM     37  C   UNL A   1      37.176  32.000  28.723  1.00  0.00     0.014 A 
ATOM     38  C   UNL A   1      35.999  29.932  28.363  1.00  0.00     0.014 A 
ATOM     39  C   UNL A   1      38.335  31.267  28.990  1.00  0.00     0.010 A 
ATOM     40  C   UNL A   1      37.154  29.197  28.630  1.00  0.00     0.010 A 
ATOM     41  C   UNL A   1      38.340  29.868  28.899  1.00  0.00    -0.014 A 
BRANCH  41  42
ATOM     42  C   UNL A   1      39.611  29.175  29.115  1.00  0.00     0.031 A 
ATOM     43  C   UNL A   1      39.906  28.777  30.520  1.00  0.00     0.074 A 
ATOM     44  C   UNL A   1      40.501  28.863  28.150  1.00  0.00     0.049 A 
ATOM     45  N   UNL A   1      40.757  29.313  31.335  1.00  0.00    -0.248 NA
ATOM     46  C   UNL A   1      39.086  27.720  31.120  1.00  0.00     0.031 C 
ATOM     47  C   UNL A   1      40.328  28.869  26.697  1.00  0.00     0.029 A 
ATOM     48  N   UNL A   1      41.778  28.403  28.306  1.00  0.00    -0.354 N 
ATOM     49  C   UNL A   1      40.707  28.561  32.509  1.00  0.00     0.074 A 
ATOM     50  C   UNL A   1      39.578  27.675  32.360  1.00  0.00     0.031 C 
ATOM     51  C   UNL A   1      41.380  28.242  26.118  1.00  0.00     0.029 A 
ATOM     52  C   UNL A   1      42.372  27.951  27.139  1.00  0.00     0.049 A 
ATOM     53  H   UNL A   1      42.238  28.394  29.176  1.00  0.00     0.167 HD
ATOM     54  C   UNL A   1      41.691  28.625  33.454  1.00  0.00     0.034 A 
ATOM     55  C   UNL A   1      43.581  27.349  27.023  1.00  0.00     0.034 A 
ATOM     56  C   UNL A   1      42.565  29.743  33.225  1.00  0.00     0.049 A 
ATOM     57  C   UNL A   1      44.391  27.693  28.214  1.00  0.00     0.074 A 
ATOM     58  C   UNL A   1      42.423  31.116  33.236  1.00  0.00     0.029 A 
ATOM     59  N   UNL A   1      43.766  29.495  32.609  1.00  0.00    -0.354 N 
ATOM     60  N   UNL A   1      44.884  28.876  28.450  1.00  0.00    -0.248 NA
ATOM     61  C   UNL A   1      44.334  26.799  29.359  1.00  0.00     0.031 C 
ATOM     62  C   UNL A   1      43.299  31.584  32.216  1.00  0.00     0.029 A 
ATOM     63  C   UNL A   1      43.954  30.476  31.672  1.00  0.00     0.049 A 
ATOM     64  H   UNL A   1      44.379  28.749  32.803  1.00  0.00     0.167 HD
ATOM     65  C   UNL A   1      44.765  29.032  29.822  1.00  0.00     0.074 A 
ATOM     66  C   UNL A   1      44.538  27.683  30.337  1.00  0.00     0.031 C 
ATOM     67  C   UNL A   1      44.586  30.262  30.384  1.00  0.00     0.034 A 
BRANCH  54  68
ATOM     68  C   UNL A   1      42.052  27.522  34.424  1.00  0.00     0.023 A 
ATOM     69  C   UNL A   1      42.823  26.405  34.061  1.00  0.00     0.031 A 
ATOM     70  C   UNL A   1      41.818  27.681  35.809  1.00  0.00     0.131 A 
ATOM     71  C   UNL A   1      43.325  25.515  35.022  1.00  0.00     0.055 A 
ATOM     72  C   UNL A   1      42.375  26.831  36.774  1.00  0.00     0.041 A 
ATOM     73  F   UNL A   1      41.090  28.707  36.278  1.00  0.00    -0.206 F 
ATOM     74  C   UNL A   1      43.137  25.740  36.382  1.00  0.00     0.022 A 
BRANCH  71  75
ATOM     75  S   UNL A   1      44.255  24.044  34.513  1.00  0.00     0.124 S 
ATOM     76  O   UNL A   1      44.403  24.265  33.079  1.00  0.00    -0.237 OA
ATOM     77  O   UNL A   1      45.475  24.175  35.304  1.00  0.00    -0.237 OA
ATOM     78  O   UNL A   1      43.382  22.940  34.903  1.00  0.00    -0.744 OA
ENDBRANCH  71  75
ENDBRANCH  54  68
BRANCH  55  79
ATOM     79  C   UNL A   1      43.888  26.146  26.217  1.00  0.00     0.023 A 
ATOM     80  C   UNL A   1      43.077  25.004  26.348  1.00  0.00     0.031 A 
ATOM     81  C   UNL A   1      45.140  25.988  25.598  1.00  0.00     0.131 A 
ATOM     82  C   UNL A   1      43.548  23.751  25.934  1.00  0.00     0.055 A 
ATOM     83  C   UNL A   1      45.599  24.737  25.166  1.00  0.00     0.041 A 
ATOM     84  F   UNL A   1      45.975  27.031  25.473  1.00  0.00    -0.206 F 
ATOM     85  C   UNL A   1      44.807  23.607  25.350  1.00  0.00     0.022 A 
BRANCH  82  86
ATOM     86  S   UNL A   1      42.563  22.258  26.241  1.00  0.00     0.124 S 
ATOM     87  O   UNL A   1      43.023  21.363  25.182  1.00  0.00    -0.237 OA
ATOM     88  O   UNL A   1      42.981  21.901  27.592  1.00  0.00    -0.237 OA
ATOM     89  O   UNL A   1      41.186  22.723  26.102  1.00  0.00    -0.744 OA
ENDBRANCH  82  86
ENDBRANCH  55  79
BRANCH  67  90
ATOM     90  C   UNL A   1      44.796  31.499  29.539  1.00  0.00     0.023 A 
ATOM     91  C   UNL A   1      45.972  32.238  29.766  1.00  0.00     0.031 A 
ATOM     92  C   UNL A   1      43.811  32.082  28.718  1.00  0.00     0.131 A 
ATOM     93  C   UNL A   1      46.118  33.521  29.232  1.00  0.00     0.055 A 
ATOM     94  C   UNL A   1      43.997  33.334  28.121  1.00  0.00     0.041 A 
ATOM     95  F   UNL A   1      42.614  31.509  28.540  1.00  0.00    -0.206 F 
ATOM     96  C   UNL A   1      45.146  34.069  28.392  1.00  0.00     0.022 A 
BRANCH  93  97
ATOM     97  S   UNL A   1      47.494  34.577  29.755  1.00  0.00     0.124 S 
ATOM     98  O   UNL A   1      48.513  34.278  28.753  1.00  0.00    -0.237 OA
ATOM     99  O   UNL A   1      46.909  35.914  29.674  1.00  0.00    -0.237 OA
ATOM    100  O   UNL A   1      47.796  34.120  31.109  1.00  0.00    -0.744 OA
ENDBRANCH  93  97
ENDBRANCH  67  90
ENDBRANCH  41  42
ENDBRANCH  33  36
ENDBRANCH  31  32
ENDBRANCH   1  31
TORSDOF 15
ENDMDL
