MODEL 1
REMARK VINA RESULT:     -10.8      0.000      0.000
REMARK SMILES C=CC[N@@H+](CC(=O)NCCCNC(=O)c1ccc(-c2c3nc(c(-c4cc(S(=O)(=O)[O-])ccc4F)c4ccc([nH]4)c(-c4cc(S(=O)(=O)[O-])ccc4F)c4nc(c(-c5cc(S(=O)(=O)[O-])ccc5F)c5ccc2[nH]5)C=C4)C=C3)cc1)C[C@H]1CCC[C@H](C)C1
REMARK SMILES IDX 10 1 9 2 8 3 6 4 7 5 5 7 4 8 3 10 2 11 1 12 78 13 79 14
REMARK SMILES IDX 80 15 85 16 81 17 83 18 82 19 84 20 11 21 12 22 13 23 14 25
REMARK SMILES IDX 15 26 16 27 77 28 17 29 76 30 18 31 19 32 20 33 70 34 21 35
REMARK SMILES IDX 75 36 69 37 71 38 22 39 74 40 68 41 67 42 23 44 55 45 35 46
REMARK SMILES IDX 54 47 36 48 39 49 53 50 72 51 37 52 38 53 52 55 73 56 40 57
REMARK SMILES IDX 24 58 25 59 33 60 26 61 32 62 34 63 31 64 27 65 28 66 29 67
REMARK SMILES IDX 30 68 56 69 57 70 65 71 58 72 64 73 66 74 63 75 59 76 60 77
REMARK SMILES IDX 61 78 62 79 41 80 42 81 50 82 43 83 49 84 51 85 48 86 44 87
REMARK SMILES IDX 45 88 46 89 47 90
REMARK H PARENT 8 6 4 9 12 24 71 43 39 54
REMARK Flexibility Score: inf
ROOT
ATOM      1  C   UNL A   1      31.801  29.290  26.432  1.00  0.00     0.042 C 
ENDROOT
BRANCH   1   2
ATOM      2  C   UNL A   1      31.805  28.185  27.500  1.00  0.00     0.118 C 
BRANCH   2   3
ATOM      3  N   UNL A   1      30.999  27.015  27.190  1.00  0.00    -0.351 N 
ATOM      4  C   UNL A   1      31.073  26.084  26.199  1.00  0.00     0.275 C 
ATOM      5  O   UNL A   1      30.465  25.026  26.408  1.00  0.00    -0.269 OA
ATOM      6  H   UNL A   1      30.255  26.868  27.819  1.00  0.00     0.163 HD
BRANCH   4   7
ATOM      7  C   UNL A   1      31.888  26.261  24.914  1.00  0.00     0.363 C 
BRANCH   7   8
ATOM      8  N   UNL A   1      31.153  26.305  23.633  1.00  0.00    -0.324 N 
ATOM      9  H   UNL A   1      30.176  26.374  23.919  1.00  0.00     0.348 HD
BRANCH   8  10
ATOM     10  C   UNL A   1      31.194  25.056  22.903  1.00  0.00     0.290 C 
BRANCH  10  11
ATOM     11  C   UNL A   1      32.531  24.599  22.409  1.00  0.00     0.025 C 
ATOM     12  C   UNL A   1      32.921  23.316  22.423  1.00  0.00     0.010 C 
ENDBRANCH  10  11
ENDBRANCH   8  10
BRANCH   8  13
ATOM     13  C   UNL A   1      31.146  27.565  22.876  1.00  0.00     0.266 C 
BRANCH  13  14
ATOM     14  C   UNL A   1      29.842  28.372  22.679  1.00  0.00     0.044 C 
ATOM     15  C   UNL A   1      28.617  27.797  23.391  1.00  0.00     0.009 C 
ATOM     16  C   UNL A   1      30.022  29.840  23.116  1.00  0.00     0.012 C 
ATOM     17  C   UNL A   1      27.358  28.588  23.042  1.00  0.00     0.001 C 
ATOM     18  C   UNL A   1      28.782  30.698  22.798  1.00  0.00    -0.014 C 
ATOM     19  C   UNL A   1      27.507  30.068  23.381  1.00  0.00     0.003 C 
ATOM     20  C   UNL A   1      28.642  30.955  21.292  1.00  0.00     0.007 C 
ENDBRANCH  13  14
ENDBRANCH   8  13
ENDBRANCH   7   8
ENDBRANCH   4   7
ENDBRANCH   2   3
ENDBRANCH   1   2
BRANCH   1  21
ATOM     21  C   UNL A   1      33.119  30.027  26.210  1.00  0.00     0.118 C 
BRANCH  21  22
ATOM     22  N   UNL A   1      33.046  31.409  26.637  1.00  0.00    -0.352 N 
ATOM     23  C   UNL A   1      33.801  32.094  27.559  1.00  0.00     0.251 C 
ATOM     24  H   UNL A   1      32.344  31.941  26.198  1.00  0.00     0.163 HD
ATOM     25  O   UNL A   1      33.380  33.178  27.960  1.00  0.00    -0.269 OA
BRANCH  23  26
ATOM     26  C   UNL A   1      35.086  31.564  28.090  1.00  0.00     0.039 A 
ATOM     27  C   UNL A   1      35.087  30.285  28.660  1.00  0.00     0.014 A 
ATOM     28  C   UNL A   1      36.257  32.327  28.139  1.00  0.00     0.014 A 
ATOM     29  C   UNL A   1      36.248  29.768  29.246  1.00  0.00     0.010 A 
ATOM     30  C   UNL A   1      37.437  31.784  28.667  1.00  0.00     0.010 A 
ATOM     31  C   UNL A   1      37.443  30.505  29.245  1.00  0.00    -0.014 A 
BRANCH  31  32
ATOM     32  C   UNL A   1      38.677  29.958  29.880  1.00  0.00     0.031 A 
ATOM     33  C   UNL A   1      39.107  30.425  31.248  1.00  0.00     0.074 A 
ATOM     34  C   UNL A   1      39.424  29.044  29.227  1.00  0.00     0.049 A 
ATOM     35  N   UNL A   1      40.154  30.075  31.955  1.00  0.00    -0.248 NA
ATOM     36  C   UNL A   1      38.257  31.432  31.898  1.00  0.00     0.031 C 
ATOM     37  C   UNL A   1      39.136  28.521  27.891  1.00  0.00     0.029 A 
ATOM     38  N   UNL A   1      40.577  28.393  29.596  1.00  0.00    -0.354 N 
ATOM     39  C   UNL A   1      40.094  30.823  33.126  1.00  0.00     0.074 A 
ATOM     40  C   UNL A   1      38.938  31.687  33.006  1.00  0.00     0.031 C 
ATOM     41  C   UNL A   1      40.071  27.615  27.562  1.00  0.00     0.029 A 
ATOM     42  C   UNL A   1      41.048  27.519  28.642  1.00  0.00     0.049 A 
ATOM     43  H   UNL A   1      41.023  28.538  30.461  1.00  0.00     0.167 HD
ATOM     44  C   UNL A   1      40.910  30.781  34.211  1.00  0.00     0.034 A 
ATOM     45  C   UNL A   1      42.146  26.734  28.632  1.00  0.00     0.034 A 
ATOM     46  C   UNL A   1      42.056  29.911  34.327  1.00  0.00     0.049 A 
ATOM     47  C   UNL A   1      43.058  26.728  29.833  1.00  0.00     0.074 A 
ATOM     48  C   UNL A   1      42.916  29.755  35.403  1.00  0.00     0.029 A 
ATOM     49  N   UNL A   1      42.513  29.053  33.334  1.00  0.00    -0.354 N 
ATOM     50  N   UNL A   1      42.959  27.410  30.951  1.00  0.00    -0.248 NA
ATOM     51  C   UNL A   1      44.225  25.836  29.775  1.00  0.00     0.031 C 
ATOM     52  C   UNL A   1      43.928  28.859  35.034  1.00  0.00     0.029 A 
ATOM     53  C   UNL A   1      43.658  28.395  33.758  1.00  0.00     0.049 A 
ATOM     54  H   UNL A   1      42.084  28.932  32.455  1.00  0.00     0.167 HD
ATOM     55  C   UNL A   1      44.034  27.006  31.738  1.00  0.00     0.074 A 
ATOM     56  C   UNL A   1      44.759  26.012  30.975  1.00  0.00     0.031 C 
ATOM     57  C   UNL A   1      44.386  27.416  32.983  1.00  0.00     0.034 A 
BRANCH  44  58
ATOM     58  C   UNL A   1      40.604  31.730  35.348  1.00  0.00     0.023 A 
ATOM     59  C   UNL A   1      39.526  31.512  36.224  1.00  0.00     0.031 A 
ATOM     60  C   UNL A   1      41.388  32.881  35.546  1.00  0.00     0.131 A 
ATOM     61  C   UNL A   1      39.213  32.468  37.203  1.00  0.00     0.055 A 
ATOM     62  C   UNL A   1      41.120  33.788  36.576  1.00  0.00     0.041 A 
ATOM     63  F   UNL A   1      42.420  33.154  34.733  1.00  0.00    -0.206 F 
ATOM     64  C   UNL A   1      40.017  33.592  37.402  1.00  0.00     0.022 A 
BRANCH  61  65
ATOM     65  S   UNL A   1      37.653  32.294  38.113  1.00  0.00     0.124 S 
ATOM     66  O   UNL A   1      37.385  30.866  37.970  1.00  0.00    -0.237 OA
ATOM     67  O   UNL A   1      38.016  32.748  39.450  1.00  0.00    -0.237 OA
ATOM     68  O   UNL A   1      36.734  33.168  37.385  1.00  0.00    -0.744 OA
ENDBRANCH  61  65
ENDBRANCH  44  58
BRANCH  45  69
ATOM     69  C   UNL A   1      42.460  25.895  27.441  1.00  0.00     0.023 A 
ATOM     70  C   UNL A   1      42.052  24.553  27.369  1.00  0.00     0.031 A 
ATOM     71  C   UNL A   1      43.209  26.414  26.370  1.00  0.00     0.131 A 
ATOM     72  C   UNL A   1      42.432  23.764  26.272  1.00  0.00     0.055 A 
ATOM     73  C   UNL A   1      43.541  25.639  25.258  1.00  0.00     0.041 A 
ATOM     74  F   UNL A   1      43.621  27.692  26.387  1.00  0.00    -0.206 F 
ATOM     75  C   UNL A   1      43.162  24.301  25.210  1.00  0.00     0.022 A 
BRANCH  72  76
ATOM     76  S   UNL A   1      42.020  21.997  26.288  1.00  0.00     0.124 S 
ATOM     77  O   UNL A   1      42.411  21.614  27.640  1.00  0.00    -0.237 OA
ATOM     78  O   UNL A   1      40.588  22.017  26.014  1.00  0.00    -0.237 OA
ATOM     79  O   UNL A   1      42.850  21.446  25.218  1.00  0.00    -0.744 OA
ENDBRANCH  72  76
ENDBRANCH  45  69
BRANCH  57  80
ATOM     80  C   UNL A   1      45.589  26.753  33.612  1.00  0.00     0.023 A 
ATOM     81  C   UNL A   1      45.485  25.535  34.307  1.00  0.00     0.031 A 
ATOM     82  C   UNL A   1      46.856  27.358  33.524  1.00  0.00     0.131 A 
ATOM     83  C   UNL A   1      46.616  24.990  34.936  1.00  0.00     0.055 A 
ATOM     84  C   UNL A   1      47.989  26.781  34.101  1.00  0.00     0.041 A 
ATOM     85  F   UNL A   1      47.014  28.521  32.874  1.00  0.00    -0.206 F 
ATOM     86  C   UNL A   1      47.870  25.597  34.823  1.00  0.00     0.022 A 
BRANCH  83  87
ATOM     87  S   UNL A   1      46.412  23.521  35.981  1.00  0.00     0.124 S 
ATOM     88  O   UNL A   1      44.961  23.442  36.112  1.00  0.00    -0.237 OA
ATOM     89  O   UNL A   1      47.036  22.476  35.177  1.00  0.00    -0.237 OA
ATOM     90  O   UNL A   1      47.127  23.870  37.207  1.00  0.00    -0.744 OA
ENDBRANCH  83  87
ENDBRANCH  57  80
ENDBRANCH  31  32
ENDBRANCH  23  26
ENDBRANCH  21  22
ENDBRANCH   1  21
TORSDOF 18
ENDMDL
MODEL 2
REMARK VINA RESULT:     -10.8      2.635      4.001
REMARK SMILES C=CC[N@@H+](CC(=O)NCCCNC(=O)c1ccc(-c2c3nc(c(-c4cc(S(=O)(=O)[O-])ccc4F)c4ccc([nH]4)c(-c4cc(S(=O)(=O)[O-])ccc4F)c4nc(c(-c5cc(S(=O)(=O)[O-])ccc5F)c5ccc2[nH]5)C=C4)C=C3)cc1)C[C@H]1CCC[C@H](C)C1
REMARK SMILES IDX 10 1 9 2 8 3 6 4 7 5 5 7 4 8 3 10 2 11 1 12 78 13 79 14
REMARK SMILES IDX 80 15 85 16 81 17 83 18 82 19 84 20 11 21 12 22 13 23 14 25
REMARK SMILES IDX 15 26 16 27 77 28 17 29 76 30 18 31 19 32 20 33 70 34 21 35
REMARK SMILES IDX 75 36 69 37 71 38 22 39 74 40 68 41 67 42 23 44 55 45 35 46
REMARK SMILES IDX 54 47 36 48 39 49 53 50 72 51 37 52 38 53 52 55 73 56 40 57
REMARK SMILES IDX 24 58 25 59 33 60 26 61 32 62 34 63 31 64 27 65 28 66 29 67
REMARK SMILES IDX 30 68 56 69 57 70 65 71 58 72 64 73 66 74 63 75 59 76 60 77
REMARK SMILES IDX 61 78 62 79 41 80 42 81 50 82 43 83 49 84 51 85 48 86 44 87
REMARK SMILES IDX 45 88 46 89 47 90
REMARK H PARENT 8 6 4 9 12 24 71 43 39 54
REMARK Flexibility Score: inf
ROOT
ATOM      1  C   UNL A   1      33.172  27.923  26.877  1.00  0.00     0.042 C 
ENDROOT
BRANCH   1   2
ATOM      2  C   UNL A   1      31.901  27.325  26.253  1.00  0.00     0.118 C 
BRANCH   2   3
ATOM      3  N   UNL A   1      31.437  26.083  26.852  1.00  0.00    -0.351 N 
ATOM      4  C   UNL A   1      31.201  24.846  26.335  1.00  0.00     0.275 C 
ATOM      5  O   UNL A   1      31.152  23.920  27.156  1.00  0.00    -0.269 OA
ATOM      6  H   UNL A   1      31.260  26.151  27.818  1.00  0.00     0.163 HD
BRANCH   4   7
ATOM      7  C   UNL A   1      31.055  24.554  24.838  1.00  0.00     0.363 C 
BRANCH   7   8
ATOM      8  N   UNL A   1      32.281  24.557  24.014  1.00  0.00    -0.324 N 
ATOM      9  H   UNL A   1      33.014  24.819  24.674  1.00  0.00     0.348 HD
BRANCH   8  10
ATOM     10  C   UNL A   1      32.318  25.630  23.042  1.00  0.00     0.290 C 
BRANCH  10  11
ATOM     11  C   UNL A   1      33.581  26.430  22.958  1.00  0.00     0.025 C 
ATOM     12  C   UNL A   1      33.621  27.695  22.517  1.00  0.00     0.010 C 
ENDBRANCH  10  11
ENDBRANCH   8  10
BRANCH   8  13
ATOM     13  C   UNL A   1      32.890  23.267  23.663  1.00  0.00     0.266 C 
BRANCH  13  14
ATOM     14  C   UNL A   1      34.211  22.802  24.318  1.00  0.00     0.044 C 
ATOM     15  C   UNL A   1      34.320  21.293  24.543  1.00  0.00     0.009 C 
ATOM     16  C   UNL A   1      35.434  23.266  23.499  1.00  0.00     0.012 C 
ATOM     17  C   UNL A   1      35.600  20.942  25.300  1.00  0.00     0.001 C 
ATOM     18  C   UNL A   1      36.765  22.937  24.205  1.00  0.00    -0.014 C 
ATOM     19  C   UNL A   1      36.843  21.448  24.575  1.00  0.00     0.003 C 
ATOM     20  C   UNL A   1      36.993  23.832  25.429  1.00  0.00     0.007 C 
ENDBRANCH  13  14
ENDBRANCH   8  13
ENDBRANCH   7   8
ENDBRANCH   4   7
ENDBRANCH   2   3
ENDBRANCH   1   2
BRANCH   1  21
ATOM     21  C   UNL A   1      33.920  28.956  26.038  1.00  0.00     0.118 C 
BRANCH  21  22
ATOM     22  N   UNL A   1      33.733  30.300  26.542  1.00  0.00    -0.352 N 
ATOM     23  C   UNL A   1      34.361  30.957  27.574  1.00  0.00     0.251 C 
ATOM     24  H   UNL A   1      33.046  30.827  26.073  1.00  0.00     0.163 HD
ATOM     25  O   UNL A   1      33.847  31.990  28.000  1.00  0.00    -0.269 OA
BRANCH  23  26
ATOM     26  C   UNL A   1      35.619  30.455  28.190  1.00  0.00     0.039 A 
ATOM     27  C   UNL A   1      36.826  30.715  27.530  1.00  0.00     0.014 A 
ATOM     28  C   UNL A   1      35.632  29.650  29.334  1.00  0.00     0.014 A 
ATOM     29  C   UNL A   1      38.031  30.199  28.022  1.00  0.00     0.010 A 
ATOM     30  C   UNL A   1      36.846  29.188  29.863  1.00  0.00     0.010 A 
ATOM     31  C   UNL A   1      38.059  29.441  29.203  1.00  0.00    -0.014 A 
BRANCH  31  32
ATOM     32  C   UNL A   1      39.342  28.882  29.720  1.00  0.00     0.031 A 
ATOM     33  C   UNL A   1      40.015  29.493  30.924  1.00  0.00     0.074 A 
ATOM     34  C   UNL A   1      39.915  27.826  29.106  1.00  0.00     0.049 A 
ATOM     35  N   UNL A   1      41.139  29.155  31.509  1.00  0.00    -0.248 NA
ATOM     36  C   UNL A   1      39.347  30.649  31.536  1.00  0.00     0.031 C 
ATOM     37  C   UNL A   1      39.383  27.152  27.921  1.00  0.00     0.029 A 
ATOM     38  N   UNL A   1      41.068  27.136  29.390  1.00  0.00    -0.354 N 
ATOM     39  C   UNL A   1      41.315  30.060  32.552  1.00  0.00     0.074 A 
ATOM     40  C   UNL A   1      40.211  30.995  32.479  1.00  0.00     0.031 C 
ATOM     41  C   UNL A   1      40.193  26.132  27.595  1.00  0.00     0.029 A 
ATOM     42  C   UNL A   1      41.324  26.102  28.518  1.00  0.00     0.049 A 
ATOM     43  H   UNL A   1      41.656  27.359  30.147  1.00  0.00     0.167 HD
ATOM     44  C   UNL A   1      42.291  30.097  33.496  1.00  0.00     0.034 A 
ATOM     45  C   UNL A   1      42.354  25.232  28.460  1.00  0.00     0.034 A 
ATOM     46  C   UNL A   1      43.384  29.155  33.566  1.00  0.00     0.049 A 
ATOM     47  C   UNL A   1      43.446  25.312  29.497  1.00  0.00     0.074 A 
ATOM     48  C   UNL A   1      44.394  29.076  34.511  1.00  0.00     0.029 A 
ATOM     49  N   UNL A   1      43.619  28.134  32.655  1.00  0.00    -0.354 N 
ATOM     50  N   UNL A   1      43.571  26.147  30.503  1.00  0.00    -0.248 NA
ATOM     51  C   UNL A   1      44.528  24.324  29.398  1.00  0.00     0.031 C 
ATOM     52  C   UNL A   1      45.274  28.054  34.133  1.00  0.00     0.029 A 
ATOM     53  C   UNL A   1      44.773  27.444  32.995  1.00  0.00     0.049 A 
ATOM     54  H   UNL A   1      43.048  27.930  31.878  1.00  0.00     0.167 HD
ATOM     55  C   UNL A   1      44.731  25.765  31.171  1.00  0.00     0.074 A 
ATOM     56  C   UNL A   1      45.259  24.616  30.464  1.00  0.00     0.031 C 
ATOM     57  C   UNL A   1      45.304  26.309  32.274  1.00  0.00     0.034 A 
BRANCH  44  58
ATOM     58  C   UNL A   1      42.233  31.215  34.512  1.00  0.00     0.023 A 
ATOM     59  C   UNL A   1      42.848  32.458  34.279  1.00  0.00     0.031 A 
ATOM     60  C   UNL A   1      41.575  31.028  35.741  1.00  0.00     0.131 A 
ATOM     61  C   UNL A   1      42.860  33.434  35.288  1.00  0.00     0.055 A 
ATOM     62  C   UNL A   1      41.520  32.035  36.709  1.00  0.00     0.041 A 
ATOM     63  F   UNL A   1      40.983  29.858  36.029  1.00  0.00    -0.206 F 
ATOM     64  C   UNL A   1      42.179  33.241  36.492  1.00  0.00     0.022 A 
BRANCH  61  65
ATOM     65  S   UNL A   1      43.907  34.899  35.061  1.00  0.00     0.124 S 
ATOM     66  O   UNL A   1      43.005  35.797  34.345  1.00  0.00    -0.237 OA
ATOM     67  O   UNL A   1      44.228  35.273  36.433  1.00  0.00    -0.237 OA
ATOM     68  O   UNL A   1      45.030  34.398  34.271  1.00  0.00    -0.744 OA
ENDBRANCH  61  65
ENDBRANCH  44  58
BRANCH  45  69
ATOM     69  C   UNL A   1      42.418  24.213  27.373  1.00  0.00     0.023 A 
ATOM     70  C   UNL A   1      41.759  22.979  27.494  1.00  0.00     0.031 A 
ATOM     71  C   UNL A   1      43.175  24.445  26.211  1.00  0.00     0.131 A 
ATOM     72  C   UNL A   1      41.905  22.007  26.491  1.00  0.00     0.055 A 
ATOM     73  C   UNL A   1      43.275  23.495  25.193  1.00  0.00     0.041 A 
ATOM     74  F   UNL A   1      43.822  25.610  26.044  1.00  0.00    -0.206 F 
ATOM     75  C   UNL A   1      42.647  22.262  25.336  1.00  0.00     0.022 A 
BRANCH  72  76
ATOM     76  S   UNL A   1      41.168  20.371  26.754  1.00  0.00     0.124 S 
ATOM     77  O   UNL A   1      39.970  20.449  25.925  1.00  0.00    -0.237 OA
ATOM     78  O   UNL A   1      42.222  19.483  26.278  1.00  0.00    -0.237 OA
ATOM     79  O   UNL A   1      40.927  20.334  28.195  1.00  0.00    -0.744 OA
ENDBRANCH  72  76
ENDBRANCH  45  69
BRANCH  57  80
ATOM     80  C   UNL A   1      46.548  25.638  32.806  1.00  0.00     0.023 A 
ATOM     81  C   UNL A   1      46.484  24.616  33.770  1.00  0.00     0.031 A 
ATOM     82  C   UNL A   1      47.817  26.039  32.352  1.00  0.00     0.131 A 
ATOM     83  C   UNL A   1      47.669  24.068  34.288  1.00  0.00     0.055 A 
ATOM     84  C   UNL A   1      48.990  25.449  32.828  1.00  0.00     0.041 A 
ATOM     85  F   UNL A   1      47.939  27.011  31.434  1.00  0.00    -0.206 F 
ATOM     86  C   UNL A   1      48.920  24.468  33.811  1.00  0.00     0.022 A 
BRANCH  83  87
ATOM     87  S   UNL A   1      47.557  22.888  35.662  1.00  0.00     0.124 S 
ATOM     88  O   UNL A   1      48.922  22.891  36.177  1.00  0.00    -0.237 OA
ATOM     89  O   UNL A   1      46.551  23.504  36.521  1.00  0.00    -0.237 OA
ATOM     90  O   UNL A   1      47.142  21.646  35.014  1.00  0.00    -0.744 OA
ENDBRANCH  83  87
ENDBRANCH  57  80
ENDBRANCH  31  32
ENDBRANCH  23  26
ENDBRANCH  21  22
ENDBRANCH   1  21
TORSDOF 18
ENDMDL
MODEL 3
REMARK VINA RESULT:     -10.7      2.665      8.730
REMARK SMILES C=CC[N@@H+](CC(=O)NCCCNC(=O)c1ccc(-c2c3nc(c(-c4cc(S(=O)(=O)[O-])ccc4F)c4ccc([nH]4)c(-c4cc(S(=O)(=O)[O-])ccc4F)c4nc(c(-c5cc(S(=O)(=O)[O-])ccc5F)c5ccc2[nH]5)C=C4)C=C3)cc1)C[C@H]1CCC[C@H](C)C1
REMARK SMILES IDX 10 1 9 2 8 3 6 4 7 5 5 7 4 8 3 10 2 11 1 12 78 13 79 14
REMARK SMILES IDX 80 15 85 16 81 17 83 18 82 19 84 20 11 21 12 22 13 23 14 25
REMARK SMILES IDX 15 26 16 27 77 28 17 29 76 30 18 31 19 32 20 33 70 34 21 35
REMARK SMILES IDX 75 36 69 37 71 38 22 39 74 40 68 41 67 42 23 44 55 45 35 46
REMARK SMILES IDX 54 47 36 48 39 49 53 50 72 51 37 52 38 53 52 55 73 56 40 57
REMARK SMILES IDX 24 58 25 59 33 60 26 61 32 62 34 63 31 64 27 65 28 66 29 67
REMARK SMILES IDX 30 68 56 69 57 70 65 71 58 72 64 73 66 74 63 75 59 76 60 77
REMARK SMILES IDX 61 78 62 79 41 80 42 81 50 82 43 83 49 84 51 85 48 86 44 87
REMARK SMILES IDX 45 88 46 89 47 90
REMARK H PARENT 8 6 4 9 12 24 71 43 39 54
REMARK Flexibility Score: inf
ROOT
ATOM      1  C   UNL A   1      31.286  32.109  26.668  1.00  0.00     0.042 C 
ENDROOT
BRANCH   1   2
ATOM      2  C   UNL A   1      31.339  30.857  25.778  1.00  0.00     0.118 C 
BRANCH   2   3
ATOM      3  N   UNL A   1      32.431  29.939  26.058  1.00  0.00    -0.351 N 
ATOM      4  C   UNL A   1      33.238  29.196  25.251  1.00  0.00     0.275 C 
ATOM      5  O   UNL A   1      34.289  28.792  25.765  1.00  0.00    -0.269 OA
ATOM      6  H   UNL A   1      32.624  29.834  27.018  1.00  0.00     0.163 HD
BRANCH   4   7
ATOM      7  C   UNL A   1      32.938  28.898  23.778  1.00  0.00     0.363 C 
BRANCH   7   8
ATOM      8  N   UNL A   1      32.367  27.576  23.446  1.00  0.00    -0.324 N 
ATOM      9  H   UNL A   1      33.128  27.100  22.960  1.00  0.00     0.348 HD
BRANCH   8  10
ATOM     10  C   UNL A   1      31.325  27.636  22.442  1.00  0.00     0.290 C 
BRANCH  10  11
ATOM     11  C   UNL A   1      30.384  28.799  22.506  1.00  0.00     0.025 C 
ATOM     12  C   UNL A   1      29.187  28.744  23.106  1.00  0.00     0.010 C 
ENDBRANCH  10  11
ENDBRANCH   8  10
BRANCH   8  13
ATOM     13  C   UNL A   1      32.260  26.573  24.514  1.00  0.00     0.266 C 
BRANCH  13  14
ATOM     14  C   UNL A   1      33.138  25.300  24.506  1.00  0.00     0.044 C 
ATOM     15  C   UNL A   1      33.745  24.946  23.148  1.00  0.00     0.009 C 
ATOM     16  C   UNL A   1      34.276  25.399  25.543  1.00  0.00     0.012 C 
ATOM     17  C   UNL A   1      34.491  23.615  23.210  1.00  0.00     0.001 C 
ATOM     18  C   UNL A   1      35.077  24.087  25.654  1.00  0.00    -0.014 C 
ATOM     19  C   UNL A   1      35.582  23.627  24.278  1.00  0.00     0.003 C 
ATOM     20  C   UNL A   1      34.269  22.986  26.351  1.00  0.00     0.007 C 
ENDBRANCH  13  14
ENDBRANCH   8  13
ENDBRANCH   7   8
ENDBRANCH   4   7
ENDBRANCH   2   3
ENDBRANCH   1   2
BRANCH   1  21
ATOM     21  C   UNL A   1      32.623  32.634  27.185  1.00  0.00     0.118 C 
BRANCH  21  22
ATOM     22  N   UNL A   1      32.552  34.034  27.545  1.00  0.00    -0.352 N 
ATOM     23  C   UNL A   1      33.134  34.713  28.590  1.00  0.00     0.251 C 
ATOM     24  H   UNL A   1      31.999  34.588  26.948  1.00  0.00     0.163 HD
ATOM     25  O   UNL A   1      32.710  35.836  28.857  1.00  0.00    -0.269 OA
BRANCH  23  26
ATOM     26  C   UNL A   1      34.234  34.131  29.404  1.00  0.00     0.039 A 
ATOM     27  C   UNL A   1      35.554  34.399  29.017  1.00  0.00     0.014 A 
ATOM     28  C   UNL A   1      34.006  33.249  30.466  1.00  0.00     0.014 A 
ATOM     29  C   UNL A   1      36.627  33.813  29.698  1.00  0.00     0.010 A 
ATOM     30  C   UNL A   1      35.082  32.715  31.189  1.00  0.00     0.010 A 
ATOM     31  C   UNL A   1      36.406  32.975  30.802  1.00  0.00    -0.014 A 
BRANCH  31  32
ATOM     32  C   UNL A   1      37.551  32.342  31.521  1.00  0.00     0.031 A 
ATOM     33  C   UNL A   1      38.322  31.210  30.888  1.00  0.00     0.074 A 
ATOM     34  C   UNL A   1      37.899  32.776  32.749  1.00  0.00     0.049 A 
ATOM     35  N   UNL A   1      39.335  30.527  31.363  1.00  0.00    -0.248 NA
ATOM     36  C   UNL A   1      37.881  30.777  29.555  1.00  0.00     0.031 C 
ATOM     37  C   UNL A   1      37.227  33.846  33.486  1.00  0.00     0.029 A 
ATOM     38  N   UNL A   1      38.903  32.371  33.596  1.00  0.00    -0.354 N 
ATOM     39  C   UNL A   1      39.648  29.581  30.392  1.00  0.00     0.074 A 
ATOM     40  C   UNL A   1      38.678  29.742  29.329  1.00  0.00     0.031 C 
ATOM     41  C   UNL A   1      37.850  34.029  34.662  1.00  0.00     0.029 A 
ATOM     42  C   UNL A   1      38.939  33.065  34.785  1.00  0.00     0.049 A 
ATOM     43  H   UNL A   1      39.537  31.652  33.374  1.00  0.00     0.167 HD
ATOM     44  C   UNL A   1      40.661  28.676  30.375  1.00  0.00     0.034 A 
ATOM     45  C   UNL A   1      39.750  32.938  35.856  1.00  0.00     0.034 A 
ATOM     46  C   UNL A   1      41.630  28.527  31.435  1.00  0.00     0.049 A 
ATOM     47  C   UNL A   1      40.847  31.903  35.831  1.00  0.00     0.074 A 
ATOM     48  C   UNL A   1      42.723  27.677  31.492  1.00  0.00     0.029 A 
ATOM     49  N   UNL A   1      41.623  29.236  32.630  1.00  0.00    -0.354 N 
ATOM     50  N   UNL A   1      41.155  31.047  34.883  1.00  0.00    -0.248 NA
ATOM     51  C   UNL A   1      41.713  31.827  37.015  1.00  0.00     0.031 C 
ATOM     52  C   UNL A   1      43.332  27.822  32.745  1.00  0.00     0.029 A 
ATOM     53  C   UNL A   1      42.668  28.818  33.441  1.00  0.00     0.049 A 
ATOM     54  H   UNL A   1      40.968  29.933  32.867  1.00  0.00     0.167 HD
ATOM     55  C   UNL A   1      42.268  30.352  35.349  1.00  0.00     0.074 A 
ATOM     56  C   UNL A   1      42.586  30.899  36.651  1.00  0.00     0.031 C 
ATOM     57  C   UNL A   1      42.969  29.356  34.748  1.00  0.00     0.034 A 
BRANCH  44  58
ATOM     58  C   UNL A   1      40.751  27.756  29.179  1.00  0.00     0.023 A 
ATOM     59  C   UNL A   1      41.686  27.968  28.150  1.00  0.00     0.031 A 
ATOM     60  C   UNL A   1      39.873  26.664  29.052  1.00  0.00     0.131 A 
ATOM     61  C   UNL A   1      41.670  27.153  27.008  1.00  0.00     0.055 A 
ATOM     62  C   UNL A   1      39.918  25.805  27.950  1.00  0.00     0.041 A 
ATOM     63  F   UNL A   1      38.947  26.417  29.992  1.00  0.00    -0.206 F 
ATOM     64  C   UNL A   1      40.809  26.057  26.911  1.00  0.00     0.022 A 
BRANCH  61  65
ATOM     65  S   UNL A   1      42.687  27.637  25.585  1.00  0.00     0.124 S 
ATOM     66  O   UNL A   1      43.966  27.933  26.225  1.00  0.00    -0.237 OA
ATOM     67  O   UNL A   1      42.649  26.443  24.750  1.00  0.00    -0.237 OA
ATOM     68  O   UNL A   1      41.987  28.801  25.044  1.00  0.00    -0.744 OA
ENDBRANCH  61  65
ENDBRANCH  44  58
BRANCH  45  69
ATOM     69  C   UNL A   1      39.552  33.801  37.055  1.00  0.00     0.023 A 
ATOM     70  C   UNL A   1      38.903  33.315  38.201  1.00  0.00     0.031 A 
ATOM     71  C   UNL A   1      39.977  35.142  37.057  1.00  0.00     0.131 A 
ATOM     72  C   UNL A   1      38.658  34.174  39.284  1.00  0.00     0.055 A 
ATOM     73  C   UNL A   1      39.776  35.978  38.156  1.00  0.00     0.041 A 
ATOM     74  F   UNL A   1      40.606  35.655  35.988  1.00  0.00    -0.206 F 
ATOM     75  C   UNL A   1      39.101  35.498  39.275  1.00  0.00     0.022 A 
BRANCH  72  76
ATOM     76  S   UNL A   1      37.680  33.555  40.681  1.00  0.00     0.124 S 
ATOM     77  O   UNL A   1      36.570  32.899  39.999  1.00  0.00    -0.237 OA
ATOM     78  O   UNL A   1      38.632  32.676  41.351  1.00  0.00    -0.237 OA
ATOM     79  O   UNL A   1      37.331  34.769  41.416  1.00  0.00    -0.744 OA
ENDBRANCH  72  76
ENDBRANCH  45  69
BRANCH  57  80
ATOM     80  C   UNL A   1      44.176  28.825  35.484  1.00  0.00     0.023 A 
ATOM     81  C   UNL A   1      44.080  27.751  36.387  1.00  0.00     0.031 A 
ATOM     82  C   UNL A   1      45.438  29.412  35.288  1.00  0.00     0.131 A 
ATOM     83  C   UNL A   1      45.215  27.335  37.101  1.00  0.00     0.055 A 
ATOM     84  C   UNL A   1      46.575  28.955  35.958  1.00  0.00     0.041 A 
ATOM     85  F   UNL A   1      45.589  30.441  34.439  1.00  0.00    -0.206 F 
ATOM     86  C   UNL A   1      46.464  27.920  36.880  1.00  0.00     0.022 A 
BRANCH  83  87
ATOM     87  S   UNL A   1      45.020  26.076  38.393  1.00  0.00     0.124 S 
ATOM     88  O   UNL A   1      46.406  25.741  38.703  1.00  0.00    -0.237 OA
ATOM     89  O   UNL A   1      44.294  26.802  39.430  1.00  0.00    -0.237 OA
ATOM     90  O   UNL A   1      44.260  25.018  37.731  1.00  0.00    -0.744 OA
ENDBRANCH  83  87
ENDBRANCH  57  80
ENDBRANCH  31  32
ENDBRANCH  23  26
ENDBRANCH  21  22
ENDBRANCH   1  21
TORSDOF 18
ENDMDL
