MODEL 1
REMARK VINA RESULT:     -12.5      0.000      0.000
REMARK SMILES Cc1ccc(C(=O)NCCCNC(=O)c2ccc(-c3c4nc(c(-c5cc(S(=O)(=O)[O-])ccc5F)c5ccc([nH]5)c(-c5cc(S(=O)(=O)[O-])ccc5F)c5nc(c(-c6cc(S(=O)(=O)[O-])ccc6F)c6ccc3[nH]6)C=C5)C=C4)cc2)cc1S(=O)(=O)N(C)[C@H]1CCSC1
REMARK SMILES IDX 10 1 9 2 8 3 6 4 7 5 5 7 1 8 2 9 3 10 79 11 4 12 78 13 80 14
REMARK SMILES IDX 81 15 82 16 83 17 84 18 85 19 86 20 89 21 87 22 88 23 11 24
REMARK SMILES IDX 12 25 13 26 14 28 15 29 16 30 77 31 17 32 76 33 18 34 19 35
REMARK SMILES IDX 20 36 70 37 21 38 75 39 69 40 71 41 22 42 74 43 68 44 67 45
REMARK SMILES IDX 23 47 55 48 35 49 54 50 36 51 39 52 53 53 72 54 37 55 38 56
REMARK SMILES IDX 52 58 73 59 40 60 24 61 25 62 33 63 26 64 32 65 34 66 31 67
REMARK SMILES IDX 27 68 28 69 29 70 30 71 56 72 57 73 65 74 58 75 64 76 66 77
REMARK SMILES IDX 63 78 59 79 60 80 61 81 62 82 41 83 42 84 50 85 43 86 49 87
REMARK SMILES IDX 51 88 48 89 44 90 45 91 46 92 47 93
REMARK H PARENT 8 6 12 27 71 46 39 57
REMARK Flexibility Score: inf
ROOT
ATOM      1  C   UNL A   1      33.421  31.195  27.235  1.00  0.00     0.042 C 
ENDROOT
BRANCH   1   2
ATOM      2  C   UNL A   1      32.422  30.341  26.486  1.00  0.00     0.118 C 
BRANCH   2   3
ATOM      3  N   UNL A   1      32.734  30.075  25.086  1.00  0.00    -0.352 N 
ATOM      4  C   UNL A   1      32.822  28.878  24.400  1.00  0.00     0.251 C 
ATOM      5  O   UNL A   1      33.155  28.868  23.216  1.00  0.00    -0.269 OA
ATOM      6  H   UNL A   1      32.910  30.876  24.543  1.00  0.00     0.163 HD
BRANCH   4   7
ATOM      7  C   UNL A   1      32.677  27.576  25.110  1.00  0.00     0.041 A 
ATOM      8  C   UNL A   1      31.221  23.681  26.202  1.00  0.00     0.046 C 
ATOM      9  C   UNL A   1      31.841  24.994  25.842  1.00  0.00    -0.031 A 
ATOM     10  C   UNL A   1      31.226  26.135  26.391  1.00  0.00     0.005 A 
ATOM     11  C   UNL A   1      32.945  25.192  24.991  1.00  0.00     0.086 A 
ATOM     12  C   UNL A   1      31.594  27.412  25.974  1.00  0.00     0.014 A 
ATOM     13  C   UNL A   1      33.470  26.475  24.808  1.00  0.00     0.035 A 
BRANCH  11  14
ATOM     14  S   UNL A   1      33.411  24.042  23.693  1.00  0.00     0.243 S 
ATOM     15  O   UNL A   1      32.170  23.577  23.111  1.00  0.00    -0.207 OA
ATOM     16  O   UNL A   1      34.435  24.653  22.870  1.00  0.00    -0.207 OA
BRANCH  14  17
ATOM     17  N   UNL A   1      34.147  22.743  24.482  1.00  0.00    -0.197 NA
ATOM     18  C   UNL A   1      33.484  21.445  24.277  1.00  0.00     0.125 C 
BRANCH  17  19
ATOM     19  C   UNL A   1      35.621  22.796  24.599  1.00  0.00     0.083 C 
ATOM     20  C   UNL A   1      36.031  23.618  25.817  1.00  0.00     0.032 C 
ATOM     21  C   UNL A   1      36.303  21.434  24.729  1.00  0.00     0.089 C 
ATOM     22  C   UNL A   1      37.543  23.538  25.861  1.00  0.00     0.071 C 
ATOM     23  S   UNL A   1      37.908  21.793  25.522  1.00  0.00    -0.160 SA
ENDBRANCH  17  19
ENDBRANCH  14  17
ENDBRANCH  11  14
ENDBRANCH   4   7
ENDBRANCH   2   3
ENDBRANCH   1   2
BRANCH   1  24
ATOM     24  C   UNL A   1      34.492  30.403  27.954  1.00  0.00     0.118 C 
BRANCH  24  25
ATOM     25  N   UNL A   1      35.181  31.154  29.009  1.00  0.00    -0.352 N 
ATOM     26  C   UNL A   1      36.336  30.812  29.694  1.00  0.00     0.251 C 
ATOM     27  H   UNL A   1      34.769  32.011  29.263  1.00  0.00     0.163 HD
ATOM     28  O   UNL A   1      36.880  31.568  30.490  1.00  0.00    -0.269 OA
BRANCH  26  29
ATOM     29  C   UNL A   1      36.977  29.525  29.345  1.00  0.00     0.039 A 
ATOM     30  C   UNL A   1      37.423  28.736  30.408  1.00  0.00     0.014 A 
ATOM     31  C   UNL A   1      37.476  29.353  28.059  1.00  0.00     0.014 A 
ATOM     32  C   UNL A   1      38.585  27.990  30.243  1.00  0.00     0.010 A 
ATOM     33  C   UNL A   1      38.694  28.710  27.929  1.00  0.00     0.010 A 
ATOM     34  C   UNL A   1      39.284  28.095  29.039  1.00  0.00    -0.014 A 
BRANCH  34  35
ATOM     35  C   UNL A   1      40.679  27.682  28.911  1.00  0.00     0.031 A 
ATOM     36  C   UNL A   1      40.987  26.329  28.418  1.00  0.00     0.074 A 
ATOM     37  C   UNL A   1      41.695  28.486  29.299  1.00  0.00     0.049 A 
ATOM     38  N   UNL A   1      41.941  25.591  28.876  1.00  0.00    -0.248 NA
ATOM     39  C   UNL A   1      40.192  25.681  27.386  1.00  0.00     0.031 C 
ATOM     40  C   UNL A   1      43.126  28.242  29.127  1.00  0.00     0.029 A 
ATOM     41  N   UNL A   1      41.632  29.594  30.136  1.00  0.00    -0.354 N 
ATOM     42  C   UNL A   1      42.057  24.504  28.040  1.00  0.00     0.074 A 
ATOM     43  C   UNL A   1      40.903  24.572  27.171  1.00  0.00     0.031 C 
ATOM     44  C   UNL A   1      43.804  28.994  30.009  1.00  0.00     0.029 A 
ATOM     45  C   UNL A   1      42.835  29.666  30.857  1.00  0.00     0.049 A 
ATOM     46  H   UNL A   1      40.877  30.219  30.209  1.00  0.00     0.167 HD
ATOM     47  C   UNL A   1      43.184  23.738  28.068  1.00  0.00     0.034 A 
ATOM     48  C   UNL A   1      42.837  29.655  32.221  1.00  0.00     0.034 A 
ATOM     49  C   UNL A   1      44.154  24.242  29.039  1.00  0.00     0.049 A 
ATOM     50  C   UNL A   1      43.516  28.437  32.810  1.00  0.00     0.074 A 
ATOM     51  C   UNL A   1      45.281  25.035  28.898  1.00  0.00     0.029 A 
ATOM     52  N   UNL A   1      43.870  24.203  30.401  1.00  0.00    -0.354 N 
ATOM     53  N   UNL A   1      43.864  27.380  32.128  1.00  0.00    -0.248 NA
ATOM     54  C   UNL A   1      43.814  28.305  34.233  1.00  0.00     0.031 C 
ATOM     55  C   UNL A   1      45.637  25.526  30.180  1.00  0.00     0.029 A 
ATOM     56  C   UNL A   1      44.749  25.006  31.107  1.00  0.00     0.049 A 
ATOM     57  H   UNL A   1      43.146  23.675  30.806  1.00  0.00     0.167 HD
ATOM     58  C   UNL A   1      44.333  26.415  32.985  1.00  0.00     0.074 A 
ATOM     59  C   UNL A   1      44.335  27.068  34.283  1.00  0.00     0.031 C 
ATOM     60  C   UNL A   1      44.643  25.152  32.555  1.00  0.00     0.034 A 
BRANCH  47  61
ATOM     61  C   UNL A   1      43.533  22.753  26.974  1.00  0.00     0.023 A 
ATOM     62  C   UNL A   1      42.950  21.469  26.984  1.00  0.00     0.031 A 
ATOM     63  C   UNL A   1      44.448  22.991  25.931  1.00  0.00     0.131 A 
ATOM     64  C   UNL A   1      43.367  20.468  26.089  1.00  0.00     0.055 A 
ATOM     65  C   UNL A   1      44.919  21.978  25.086  1.00  0.00     0.041 A 
ATOM     66  F   UNL A   1      44.891  24.226  25.655  1.00  0.00    -0.206 F 
ATOM     67  C   UNL A   1      44.389  20.700  25.174  1.00  0.00     0.022 A 
BRANCH  64  68
ATOM     68  S   UNL A   1      42.540  18.854  26.125  1.00  0.00     0.124 S 
ATOM     69  O   UNL A   1      41.168  19.198  25.766  1.00  0.00    -0.237 OA
ATOM     70  O   UNL A   1      43.298  18.099  25.133  1.00  0.00    -0.237 OA
ATOM     71  O   UNL A   1      42.721  18.410  27.507  1.00  0.00    -0.744 OA
ENDBRANCH  64  68
ENDBRANCH  47  61
BRANCH  48  72
ATOM     72  C   UNL A   1      41.643  30.332  32.807  1.00  0.00     0.023 A 
ATOM     73  C   UNL A   1      41.592  31.742  32.745  1.00  0.00     0.031 A 
ATOM     74  C   UNL A   1      40.445  29.637  33.017  1.00  0.00     0.131 A 
ATOM     75  C   UNL A   1      40.354  32.401  32.732  1.00  0.00     0.055 A 
ATOM     76  C   UNL A   1      39.216  30.305  33.050  1.00  0.00     0.041 A 
ATOM     77  F   UNL A   1      40.429  28.297  33.054  1.00  0.00    -0.206 F 
ATOM     78  C   UNL A   1      39.163  31.684  32.857  1.00  0.00     0.022 A 
BRANCH  75  79
ATOM     79  S   UNL A   1      40.277  34.162  32.292  1.00  0.00     0.124 S 
ATOM     80  O   UNL A   1      41.406  34.305  31.382  1.00  0.00    -0.237 OA
ATOM     81  O   UNL A   1      38.955  34.293  31.691  1.00  0.00    -0.237 OA
ATOM     82  O   UNL A   1      40.411  34.834  33.584  1.00  0.00    -0.744 OA
ENDBRANCH  75  79
ENDBRANCH  48  72
BRANCH  60  83
ATOM     83  C   UNL A   1      44.964  23.971  33.452  1.00  0.00     0.023 A 
ATOM     84  C   UNL A   1      46.262  23.659  33.886  1.00  0.00     0.031 A 
ATOM     85  C   UNL A   1      43.942  23.129  33.953  1.00  0.00     0.131 A 
ATOM     86  C   UNL A   1      46.522  22.512  34.659  1.00  0.00     0.055 A 
ATOM     87  C   UNL A   1      44.191  22.043  34.801  1.00  0.00     0.041 A 
ATOM     88  F   UNL A   1      42.650  23.325  33.647  1.00  0.00    -0.206 F 
ATOM     89  C   UNL A   1      45.492  21.712  35.140  1.00  0.00     0.022 A 
BRANCH  86  90
ATOM     90  S   UNL A   1      48.252  22.044  34.937  1.00  0.00     0.124 S 
ATOM     91  O   UNL A   1      48.309  20.727  34.306  1.00  0.00    -0.237 OA
ATOM     92  O   UNL A   1      48.979  23.106  34.252  1.00  0.00    -0.237 OA
ATOM     93  O   UNL A   1      48.378  22.040  36.392  1.00  0.00    -0.744 OA
ENDBRANCH  86  90
ENDBRANCH  60  83
ENDBRANCH  34  35
ENDBRANCH  26  29
ENDBRANCH  24  25
ENDBRANCH   1  24
TORSDOF 16
ENDMDL
MODEL 2
REMARK VINA RESULT:     -12.5      4.149     10.762
REMARK SMILES Cc1ccc(C(=O)NCCCNC(=O)c2ccc(-c3c4nc(c(-c5cc(S(=O)(=O)[O-])ccc5F)c5ccc([nH]5)c(-c5cc(S(=O)(=O)[O-])ccc5F)c5nc(c(-c6cc(S(=O)(=O)[O-])ccc6F)c6ccc3[nH]6)C=C5)C=C4)cc2)cc1S(=O)(=O)N(C)[C@H]1CCSC1
REMARK SMILES IDX 10 1 9 2 8 3 6 4 7 5 5 7 1 8 2 9 3 10 79 11 4 12 78 13 80 14
REMARK SMILES IDX 81 15 82 16 83 17 84 18 85 19 86 20 89 21 87 22 88 23 11 24
REMARK SMILES IDX 12 25 13 26 14 28 15 29 16 30 77 31 17 32 76 33 18 34 19 35
REMARK SMILES IDX 20 36 70 37 21 38 75 39 69 40 71 41 22 42 74 43 68 44 67 45
REMARK SMILES IDX 23 47 55 48 35 49 54 50 36 51 39 52 53 53 72 54 37 55 38 56
REMARK SMILES IDX 52 58 73 59 40 60 24 61 25 62 33 63 26 64 32 65 34 66 31 67
REMARK SMILES IDX 27 68 28 69 29 70 30 71 56 72 57 73 65 74 58 75 64 76 66 77
REMARK SMILES IDX 63 78 59 79 60 80 61 81 62 82 41 83 42 84 50 85 43 86 49 87
REMARK SMILES IDX 51 88 48 89 44 90 45 91 46 92 47 93
REMARK H PARENT 8 6 12 27 71 46 39 57
REMARK Flexibility Score: inf
ROOT
ATOM      1  C   UNL A   1      38.735  21.787  25.775  1.00  0.00     0.042 C 
ENDROOT
BRANCH   1   2
ATOM      2  C   UNL A   1      37.315  21.721  25.257  1.00  0.00     0.118 C 
BRANCH   2   3
ATOM      3  N   UNL A   1      36.266  21.969  26.241  1.00  0.00    -0.352 N 
ATOM      4  C   UNL A   1      35.077  22.662  26.124  1.00  0.00     0.251 C 
ATOM      5  O   UNL A   1      34.345  22.802  27.103  1.00  0.00    -0.269 OA
ATOM      6  H   UNL A   1      36.434  21.582  27.129  1.00  0.00     0.163 HD
BRANCH   4   7
ATOM      7  C   UNL A   1      34.730  23.385  24.868  1.00  0.00     0.041 A 
ATOM      8  C   UNL A   1      32.447  25.403  21.834  1.00  0.00     0.046 C 
ATOM      9  C   UNL A   1      33.331  24.783  22.872  1.00  0.00    -0.031 A 
ATOM     10  C   UNL A   1      33.426  23.379  22.838  1.00  0.00     0.005 A 
ATOM     11  C   UNL A   1      34.037  25.463  23.881  1.00  0.00     0.086 A 
ATOM     12  C   UNL A   1      34.059  22.684  23.866  1.00  0.00     0.014 A 
ATOM     13  C   UNL A   1      34.892  24.759  24.735  1.00  0.00     0.035 A 
BRANCH  11  14
ATOM     14  S   UNL A   1      33.537  27.059  24.533  1.00  0.00     0.243 S 
ATOM     15  O   UNL A   1      34.052  27.115  25.885  1.00  0.00    -0.207 OA
ATOM     16  O   UNL A   1      33.872  28.087  23.567  1.00  0.00    -0.207 OA
BRANCH  14  17
ATOM     17  N   UNL A   1      31.851  27.009  24.609  1.00  0.00    -0.197 NA
ATOM     18  C   UNL A   1      31.307  26.643  25.927  1.00  0.00     0.125 C 
BRANCH  17  19
ATOM     19  C   UNL A   1      31.126  27.989  23.770  1.00  0.00     0.083 C 
ATOM     20  C   UNL A   1      29.721  27.487  23.457  1.00  0.00     0.032 C 
ATOM     21  C   UNL A   1      30.979  29.379  24.390  1.00  0.00     0.089 C 
ATOM     22  C   UNL A   1      29.069  28.598  22.660  1.00  0.00     0.071 C 
ATOM     23  S   UNL A   1      29.541  30.115  23.538  1.00  0.00    -0.160 SA
ENDBRANCH  17  19
ENDBRANCH  14  17
ENDBRANCH  11  14
ENDBRANCH   4   7
ENDBRANCH   2   3
ENDBRANCH   1   2
BRANCH   1  24
ATOM     24  C   UNL A   1      39.125  23.141  26.331  1.00  0.00     0.118 C 
BRANCH  24  25
ATOM     25  N   UNL A   1      40.566  23.411  26.282  1.00  0.00    -0.352 N 
ATOM     26  C   UNL A   1      41.219  24.623  26.442  1.00  0.00     0.251 C 
ATOM     27  H   UNL A   1      41.143  22.632  26.113  1.00  0.00     0.163 HD
ATOM     28  O   UNL A   1      42.440  24.715  26.481  1.00  0.00    -0.269 OA
BRANCH  26  29
ATOM     29  C   UNL A   1      40.382  25.819  26.687  1.00  0.00     0.039 A 
ATOM     30  C   UNL A   1      40.867  27.036  26.202  1.00  0.00     0.014 A 
ATOM     31  C   UNL A   1      39.428  25.772  27.697  1.00  0.00     0.014 A 
ATOM     32  C   UNL A   1      40.626  28.190  26.939  1.00  0.00     0.010 A 
ATOM     33  C   UNL A   1      39.288  26.894  28.493  1.00  0.00     0.010 A 
ATOM     34  C   UNL A   1      39.949  28.081  28.156  1.00  0.00    -0.014 A 
BRANCH  34  35
ATOM     35  C   UNL A   1      39.992  29.134  29.167  1.00  0.00     0.031 A 
ATOM     36  C   UNL A   1      38.911  30.133  29.212  1.00  0.00     0.074 A 
ATOM     37  C   UNL A   1      41.034  29.256  30.020  1.00  0.00     0.049 A 
ATOM     38  N   UNL A   1      39.093  31.386  29.459  1.00  0.00    -0.248 NA
ATOM     39  C   UNL A   1      37.526  29.789  28.926  1.00  0.00     0.031 C 
ATOM     40  C   UNL A   1      41.152  30.188  31.140  1.00  0.00     0.029 A 
ATOM     41  N   UNL A   1      42.303  28.700  29.899  1.00  0.00    -0.354 N 
ATOM     42  C   UNL A   1      37.852  31.955  29.628  1.00  0.00     0.074 A 
ATOM     43  C   UNL A   1      36.911  30.937  29.219  1.00  0.00     0.031 C 
ATOM     44  C   UNL A   1      42.450  30.333  31.450  1.00  0.00     0.029 A 
ATOM     45  C   UNL A   1      43.225  29.590  30.472  1.00  0.00     0.049 A 
ATOM     46  H   UNL A   1      42.516  27.834  29.485  1.00  0.00     0.167 HD
ATOM     47  C   UNL A   1      37.736  33.174  30.230  1.00  0.00     0.034 A 
ATOM     48  C   UNL A   1      44.265  30.089  29.743  1.00  0.00     0.034 A 
ATOM     49  C   UNL A   1      39.038  33.701  30.635  1.00  0.00     0.049 A 
ATOM     50  C   UNL A   1      44.193  31.588  29.546  1.00  0.00     0.074 A 
ATOM     51  C   UNL A   1      39.699  33.704  31.852  1.00  0.00     0.029 A 
ATOM     52  N   UNL A   1      39.981  34.058  29.676  1.00  0.00    -0.354 N 
ATOM     53  N   UNL A   1      43.151  32.323  29.822  1.00  0.00    -0.248 NA
ATOM     54  C   UNL A   1      45.288  32.366  28.974  1.00  0.00     0.031 C 
ATOM     55  C   UNL A   1      41.064  34.004  31.611  1.00  0.00     0.029 A 
ATOM     56  C   UNL A   1      41.229  34.216  30.252  1.00  0.00     0.049 A 
ATOM     57  H   UNL A   1      39.787  34.182  28.719  1.00  0.00     0.167 HD
ATOM     58  C   UNL A   1      43.375  33.612  29.405  1.00  0.00     0.074 A 
ATOM     59  C   UNL A   1      44.749  33.596  28.935  1.00  0.00     0.031 C 
ATOM     60  C   UNL A   1      42.395  34.568  29.447  1.00  0.00     0.034 A 
BRANCH  47  61
ATOM     61  C   UNL A   1      36.420  33.708  30.750  1.00  0.00     0.023 A 
ATOM     62  C   UNL A   1      35.505  34.294  29.853  1.00  0.00     0.031 A 
ATOM     63  C   UNL A   1      36.026  33.712  32.102  1.00  0.00     0.131 A 
ATOM     64  C   UNL A   1      34.348  34.951  30.310  1.00  0.00     0.055 A 
ATOM     65  C   UNL A   1      34.915  34.426  32.568  1.00  0.00     0.041 A 
ATOM     66  F   UNL A   1      36.672  32.982  33.023  1.00  0.00    -0.206 F 
ATOM     67  C   UNL A   1      34.076  35.068  31.670  1.00  0.00     0.022 A 
BRANCH  64  68
ATOM     68  S   UNL A   1      33.189  35.641  29.098  1.00  0.00     0.124 S 
ATOM     69  O   UNL A   1      32.239  36.354  29.945  1.00  0.00    -0.237 OA
ATOM     70  O   UNL A   1      34.064  36.465  28.271  1.00  0.00    -0.237 OA
ATOM     71  O   UNL A   1      32.650  34.456  28.431  1.00  0.00    -0.744 OA
ENDBRANCH  64  68
ENDBRANCH  47  61
BRANCH  48  72
ATOM     72  C   UNL A   1      44.782  29.119  28.733  1.00  0.00     0.023 A 
ATOM     73  C   UNL A   1      45.542  28.026  29.202  1.00  0.00     0.031 A 
ATOM     74  C   UNL A   1      44.210  29.027  27.457  1.00  0.00     0.131 A 
ATOM     75  C   UNL A   1      45.578  26.830  28.471  1.00  0.00     0.055 A 
ATOM     76  C   UNL A   1      44.289  27.846  26.712  1.00  0.00     0.041 A 
ATOM     77  F   UNL A   1      43.453  30.022  26.973  1.00  0.00    -0.206 F 
ATOM     78  C   UNL A   1      44.930  26.726  27.239  1.00  0.00     0.022 A 
BRANCH  75  79
ATOM     79  S   UNL A   1      46.246  25.325  29.240  1.00  0.00     0.124 S 
ATOM     80  O   UNL A   1      45.161  24.370  29.050  1.00  0.00    -0.237 OA
ATOM     81  O   UNL A   1      47.458  25.073  28.470  1.00  0.00    -0.237 OA
ATOM     82  O   UNL A   1      46.495  25.740  30.621  1.00  0.00    -0.744 OA
ENDBRANCH  75  79
ENDBRANCH  48  72
BRANCH  60  83
ATOM     83  C   UNL A   1      42.483  35.948  28.821  1.00  0.00     0.023 A 
ATOM     84  C   UNL A   1      43.065  37.053  29.460  1.00  0.00     0.031 A 
ATOM     85  C   UNL A   1      42.017  36.188  27.505  1.00  0.00     0.131 A 
ATOM     86  C   UNL A   1      43.060  38.330  28.869  1.00  0.00     0.055 A 
ATOM     87  C   UNL A   1      42.100  37.438  26.880  1.00  0.00     0.041 A 
ATOM     88  F   UNL A   1      41.464  35.217  26.762  1.00  0.00    -0.206 F 
ATOM     89  C   UNL A   1      42.601  38.528  27.572  1.00  0.00     0.022 A 
BRANCH  86  90
ATOM     90  S   UNL A   1      43.583  39.741  29.881  1.00  0.00     0.124 S 
ATOM     91  O   UNL A   1      44.697  40.272  29.098  1.00  0.00    -0.237 OA
ATOM     92  O   UNL A   1      42.381  40.567  29.912  1.00  0.00    -0.237 OA
ATOM     93  O   UNL A   1      43.956  39.133  31.156  1.00  0.00    -0.744 OA
ENDBRANCH  86  90
ENDBRANCH  60  83
ENDBRANCH  34  35
ENDBRANCH  26  29
ENDBRANCH  24  25
ENDBRANCH   1  24
TORSDOF 16
ENDMDL
MODEL 3
REMARK VINA RESULT:     -12.2      2.136      2.599
REMARK SMILES Cc1ccc(C(=O)NCCCNC(=O)c2ccc(-c3c4nc(c(-c5cc(S(=O)(=O)[O-])ccc5F)c5ccc([nH]5)c(-c5cc(S(=O)(=O)[O-])ccc5F)c5nc(c(-c6cc(S(=O)(=O)[O-])ccc6F)c6ccc3[nH]6)C=C5)C=C4)cc2)cc1S(=O)(=O)N(C)[C@H]1CCSC1
REMARK SMILES IDX 10 1 9 2 8 3 6 4 7 5 5 7 1 8 2 9 3 10 79 11 4 12 78 13 80 14
REMARK SMILES IDX 81 15 82 16 83 17 84 18 85 19 86 20 89 21 87 22 88 23 11 24
REMARK SMILES IDX 12 25 13 26 14 28 15 29 16 30 77 31 17 32 76 33 18 34 19 35
REMARK SMILES IDX 20 36 70 37 21 38 75 39 69 40 71 41 22 42 74 43 68 44 67 45
REMARK SMILES IDX 23 47 55 48 35 49 54 50 36 51 39 52 53 53 72 54 37 55 38 56
REMARK SMILES IDX 52 58 73 59 40 60 24 61 25 62 33 63 26 64 32 65 34 66 31 67
REMARK SMILES IDX 27 68 28 69 29 70 30 71 56 72 57 73 65 74 58 75 64 76 66 77
REMARK SMILES IDX 63 78 59 79 60 80 61 81 62 82 41 83 42 84 50 85 43 86 49 87
REMARK SMILES IDX 51 88 48 89 44 90 45 91 46 92 47 93
REMARK H PARENT 8 6 12 27 71 46 39 57
REMARK Flexibility Score: inf
ROOT
ATOM      1  C   UNL A   1      32.843  30.662  27.399  1.00  0.00     0.042 C 
ENDROOT
BRANCH   1   2
ATOM      2  C   UNL A   1      32.218  30.441  26.038  1.00  0.00     0.118 C 
BRANCH   2   3
ATOM      3  N   UNL A   1      33.084  29.835  25.032  1.00  0.00    -0.352 N 
ATOM      4  C   UNL A   1      33.281  28.507  24.705  1.00  0.00     0.251 C 
ATOM      5  O   UNL A   1      34.107  28.198  23.847  1.00  0.00    -0.269 OA
ATOM      6  H   UNL A   1      33.611  30.474  24.501  1.00  0.00     0.163 HD
BRANCH   4   7
ATOM      7  C   UNL A   1      32.626  27.419  25.485  1.00  0.00     0.041 A 
ATOM      8  C   UNL A   1      30.617  23.738  26.435  1.00  0.00     0.046 C 
ATOM      9  C   UNL A   1      31.384  25.003  26.206  1.00  0.00    -0.031 A 
ATOM     10  C   UNL A   1      30.618  26.127  25.840  1.00  0.00     0.005 A 
ATOM     11  C   UNL A   1      32.780  25.161  26.289  1.00  0.00     0.086 A 
ATOM     12  C   UNL A   1      31.237  27.301  25.415  1.00  0.00     0.014 A 
ATOM     13  C   UNL A   1      33.354  26.425  26.128  1.00  0.00     0.035 A 
BRANCH  11  14
ATOM     14  S   UNL A   1      33.942  23.815  26.042  1.00  0.00     0.243 S 
ATOM     15  O   UNL A   1      35.166  24.429  25.573  1.00  0.00    -0.207 OA
ATOM     16  O   UNL A   1      33.938  22.969  27.219  1.00  0.00    -0.207 OA
BRANCH  14  17
ATOM     17  N   UNL A   1      33.299  22.886  24.787  1.00  0.00    -0.197 NA
ATOM     18  C   UNL A   1      33.580  23.401  23.437  1.00  0.00     0.125 C 
BRANCH  17  19
ATOM     19  C   UNL A   1      33.247  21.425  25.012  1.00  0.00     0.083 C 
ATOM     20  C   UNL A   1      32.431  20.746  23.917  1.00  0.00     0.032 C 
ATOM     21  C   UNL A   1      34.610  20.733  25.049  1.00  0.00     0.089 C 
ATOM     22  C   UNL A   1      32.510  19.264  24.222  1.00  0.00     0.071 C 
ATOM     23  S   UNL A   1      34.254  18.988  24.644  1.00  0.00    -0.160 SA
ENDBRANCH  17  19
ENDBRANCH  14  17
ENDBRANCH  11  14
ENDBRANCH   4   7
ENDBRANCH   2   3
ENDBRANCH   1   2
BRANCH   1  24
ATOM     24  C   UNL A   1      34.343  30.860  27.362  1.00  0.00     0.118 C 
BRANCH  24  25
ATOM     25  N   UNL A   1      34.892  31.476  28.575  1.00  0.00    -0.352 N 
ATOM     26  C   UNL A   1      35.962  31.049  29.347  1.00  0.00     0.251 C 
ATOM     27  H   UNL A   1      34.443  32.296  28.880  1.00  0.00     0.163 HD
ATOM     28  O   UNL A   1      36.398  31.700  30.289  1.00  0.00    -0.269 OA
BRANCH  26  29
ATOM     29  C   UNL A   1      36.655  29.812  28.924  1.00  0.00     0.039 A 
ATOM     30  C   UNL A   1      37.254  29.051  29.930  1.00  0.00     0.014 A 
ATOM     31  C   UNL A   1      37.039  29.683  27.594  1.00  0.00     0.014 A 
ATOM     32  C   UNL A   1      38.444  28.390  29.647  1.00  0.00     0.010 A 
ATOM     33  C   UNL A   1      38.281  29.128  27.341  1.00  0.00     0.010 A 
ATOM     34  C   UNL A   1      39.016  28.550  28.383  1.00  0.00    -0.014 A 
BRANCH  34  35
ATOM     35  C   UNL A   1      40.418  28.238  28.118  1.00  0.00     0.031 A 
ATOM     36  C   UNL A   1      40.798  26.853  27.791  1.00  0.00     0.074 A 
ATOM     37  C   UNL A   1      41.387  29.174  28.233  1.00  0.00     0.049 A 
ATOM     38  N   UNL A   1      41.874  26.278  28.210  1.00  0.00    -0.248 NA
ATOM     39  C   UNL A   1      39.946  25.985  26.990  1.00  0.00     0.031 C 
ATOM     40  C   UNL A   1      42.802  29.024  27.895  1.00  0.00     0.029 A 
ATOM     41  N   UNL A   1      41.319  30.393  28.898  1.00  0.00    -0.354 N 
ATOM     42  C   UNL A   1      41.992  25.085  27.536  1.00  0.00     0.074 A 
ATOM     43  C   UNL A   1      40.735  24.919  26.842  1.00  0.00     0.031 C 
ATOM     44  C   UNL A   1      43.506  29.961  28.549  1.00  0.00     0.029 A 
ATOM     45  C   UNL A   1      42.591  30.678  29.420  1.00  0.00     0.049 A 
ATOM     46  H   UNL A   1      40.519  30.958  28.986  1.00  0.00     0.167 HD
ATOM     47  C   UNL A   1      43.187  24.429  27.514  1.00  0.00     0.034 A 
ATOM     48  C   UNL A   1      42.770  30.886  30.756  1.00  0.00     0.034 A 
ATOM     49  C   UNL A   1      44.217  25.159  28.251  1.00  0.00     0.049 A 
ATOM     50  C   UNL A   1      43.642  29.838  31.414  1.00  0.00     0.074 A 
ATOM     51  C   UNL A   1      45.228  26.009  27.834  1.00  0.00     0.029 A 
ATOM     52  N   UNL A   1      44.117  25.315  29.630  1.00  0.00    -0.354 N 
ATOM     53  N   UNL A   1      44.006  28.717  30.853  1.00  0.00    -0.248 NA
ATOM     54  C   UNL A   1      44.134  29.961  32.783  1.00  0.00     0.031 C 
ATOM     55  C   UNL A   1      45.695  26.726  28.965  1.00  0.00     0.029 A 
ATOM     56  C   UNL A   1      44.992  26.291  30.076  1.00  0.00     0.049 A 
ATOM     57  H   UNL A   1      43.509  24.802  30.209  1.00  0.00     0.167 HD
ATOM     58  C   UNL A   1      44.679  27.944  31.766  1.00  0.00     0.074 A 
ATOM     59  C   UNL A   1      44.782  28.795  32.940  1.00  0.00     0.031 C 
ATOM     60  C   UNL A   1      45.059  26.658  31.487  1.00  0.00     0.034 A 
BRANCH  47  61
ATOM     61  C   UNL A   1      43.490  23.313  26.539  1.00  0.00     0.023 A 
ATOM     62  C   UNL A   1      42.938  22.033  26.754  1.00  0.00     0.031 A 
ATOM     63  C   UNL A   1      44.335  23.424  25.419  1.00  0.00     0.131 A 
ATOM     64  C   UNL A   1      43.323  20.929  25.973  1.00  0.00     0.055 A 
ATOM     65  C   UNL A   1      44.777  22.315  24.686  1.00  0.00     0.041 A 
ATOM     66  F   UNL A   1      44.732  24.619  24.956  1.00  0.00    -0.206 F 
ATOM     67  C   UNL A   1      44.283  21.052  24.973  1.00  0.00     0.022 A 
BRANCH  64  68
ATOM     68  S   UNL A   1      42.537  19.322  26.272  1.00  0.00     0.124 S 
ATOM     69  O   UNL A   1      41.417  19.344  25.337  1.00  0.00    -0.237 OA
ATOM     70  O   UNL A   1      43.617  18.390  25.966  1.00  0.00    -0.237 OA
ATOM     71  O   UNL A   1      42.160  19.385  27.684  1.00  0.00    -0.744 OA
ENDBRANCH  64  68
ENDBRANCH  47  61
BRANCH  48  72
ATOM     72  C   UNL A   1      41.599  31.548  31.401  1.00  0.00     0.023 A 
ATOM     73  C   UNL A   1      40.685  30.730  32.100  1.00  0.00     0.031 A 
ATOM     74  C   UNL A   1      41.606  32.920  31.684  1.00  0.00     0.131 A 
ATOM     75  C   UNL A   1      39.931  31.261  33.156  1.00  0.00     0.055 A 
ATOM     76  C   UNL A   1      40.817  33.453  32.709  1.00  0.00     0.041 A 
ATOM     77  F   UNL A   1      42.474  33.741  31.074  1.00  0.00    -0.206 F 
ATOM     78  C   UNL A   1      40.014  32.616  33.482  1.00  0.00     0.022 A 
BRANCH  75  79
ATOM     79  S   UNL A   1      39.038  30.142  34.275  1.00  0.00     0.124 S 
ATOM     80  O   UNL A   1      37.944  30.982  34.746  1.00  0.00    -0.237 OA
ATOM     81  O   UNL A   1      38.662  29.036  33.403  1.00  0.00    -0.237 OA
ATOM     82  O   UNL A   1      40.049  29.795  35.274  1.00  0.00    -0.744 OA
ENDBRANCH  75  79
ENDBRANCH  48  72
BRANCH  60  83
ATOM     83  C   UNL A   1      45.614  25.666  32.493  1.00  0.00     0.023 A 
ATOM     84  C   UNL A   1      44.827  24.711  33.155  1.00  0.00     0.031 A 
ATOM     85  C   UNL A   1      46.999  25.617  32.789  1.00  0.00     0.131 A 
ATOM     86  C   UNL A   1      45.372  23.860  34.132  1.00  0.00     0.055 A 
ATOM     87  C   UNL A   1      47.556  24.704  33.692  1.00  0.00     0.041 A 
ATOM     88  F   UNL A   1      47.877  26.449  32.210  1.00  0.00    -0.206 F 
ATOM     89  C   UNL A   1      46.738  23.832  34.392  1.00  0.00     0.022 A 
BRANCH  86  90
ATOM     90  S   UNL A   1      44.232  22.856  35.124  1.00  0.00     0.124 S 
ATOM     91  O   UNL A   1      44.607  21.501  34.728  1.00  0.00    -0.237 OA
ATOM     92  O   UNL A   1      44.582  23.238  36.487  1.00  0.00    -0.237 OA
ATOM     93  O   UNL A   1      42.911  23.290  34.674  1.00  0.00    -0.744 OA
ENDBRANCH  86  90
ENDBRANCH  60  83
ENDBRANCH  34  35
ENDBRANCH  26  29
ENDBRANCH  24  25
ENDBRANCH   1  24
TORSDOF 16
ENDMDL
