MODEL 1
REMARK VINA RESULT:     -13.0      0.000      0.000
REMARK SMILES C[C@H](NC(=O)CCN1C(=O)/C(=C/c2ccc([N+](=O)[O-])cc2)SC1=S)C(=O)NCCCNC(=O)c1ccc(-c2c3nc(c(-c4cc(S(=O)(=O)[O-])ccc4F)c4ccc([nH]4)c(-c4cc(S(=O)(=O)[O-])ccc4F)c4nc(c(-c5cc(S(=O)(=O)[O-])ccc5F)c5ccc2[nH]5)C=C4)C=C3)cc1
REMARK SMILES IDX 25 1 26 2 27 3 2 5 1 6 3 7 4 8 5 10 6 11 7 12 8 13 9 14
REMARK SMILES IDX 23 15 10 16 11 17 22 18 24 19 12 20 13 21 14 22 21 23 15 24
REMARK SMILES IDX 20 25 16 26 17 27 18 28 19 29 28 30 29 31 30 32 31 33 32 34
REMARK SMILES IDX 33 36 34 37 35 38 96 39 36 40 95 41 37 42 38 43 39 44 89 45
REMARK SMILES IDX 40 46 94 47 88 48 90 49 41 50 93 51 87 52 86 53 42 55 74 56
REMARK SMILES IDX 54 57 73 58 55 59 58 60 72 61 91 62 56 63 57 64 71 66 92 67
REMARK SMILES IDX 59 68 43 69 44 70 52 71 45 72 51 73 53 74 50 75 46 76 47 77
REMARK SMILES IDX 48 78 49 79 75 80 76 81 84 82 77 83 83 84 85 85 82 86 78 87
REMARK SMILES IDX 79 88 80 89 81 90 60 91 61 92 69 93 62 94 68 95 70 96 67 97
REMARK SMILES IDX 63 98 64 99 65 100 66 101
REMARK H PARENT 27 4 3 9 31 35 90 54 58 65
REMARK Flexibility Score: inf
ROOT
ATOM      1  C   UNL A   1      30.606  29.023  23.053  1.00  0.00     0.242 C 
ATOM      2  O   UNL A   1      29.756  29.753  22.528  1.00  0.00    -0.273 OA
ATOM      3  N   UNL A   1      31.445  29.653  23.938  1.00  0.00    -0.354 N 
ATOM      4  H   UNL A   1      32.194  30.164  23.554  1.00  0.00     0.163 HD
ENDROOT
BRANCH   1   5
ATOM      5  C   UNL A   1      30.966  27.631  22.386  1.00  0.00     0.168 C 
ATOM      6  C   UNL A   1      30.173  26.467  22.976  1.00  0.00     0.041 C 
BRANCH   5   7
ATOM      7  N   UNL A   1      32.348  27.303  22.000  1.00  0.00    -0.345 N 
ATOM      8  C   UNL A   1      33.267  26.432  22.508  1.00  0.00     0.222 C 
ATOM      9  H   UNL A   1      32.674  27.812  21.224  1.00  0.00     0.164 HD
ATOM     10  O   UNL A   1      33.802  25.683  21.682  1.00  0.00    -0.275 OA
BRANCH   8  11
ATOM     11  C   UNL A   1      33.655  26.283  23.981  1.00  0.00     0.122 C 
BRANCH  11  12
ATOM     12  C   UNL A   1      33.053  25.160  24.845  1.00  0.00     0.137 C 
BRANCH  12  13
ATOM     13  N   UNL A   1      33.534  23.806  24.552  1.00  0.00    -0.292 N 
ATOM     14  C   UNL A   1      32.798  22.942  23.766  1.00  0.00     0.266 C 
ATOM     15  C   UNL A   1      34.774  23.338  24.906  1.00  0.00     0.148 C 
ATOM     16  O   UNL A   1      31.845  23.245  23.054  1.00  0.00    -0.268 OA
ATOM     17  C   UNL A   1      33.296  21.542  23.937  1.00  0.00     0.081 C 
ATOM     18  S   UNL A   1      34.838  21.583  24.665  1.00  0.00    -0.054 SA
ATOM     19  S   UNL A   1      36.057  24.259  25.430  1.00  0.00    -0.052 S 
ATOM     20  C   UNL A   1      32.488  20.505  23.667  1.00  0.00     0.029 C 
BRANCH  20  21
ATOM     21  C   UNL A   1      32.555  19.075  24.030  1.00  0.00    -0.024 A 
ATOM     22  C   UNL A   1      32.514  18.683  25.370  1.00  0.00     0.015 A 
ATOM     23  C   UNL A   1      32.946  18.123  23.077  1.00  0.00     0.015 A 
ATOM     24  C   UNL A   1      32.914  17.389  25.750  1.00  0.00     0.086 A 
ATOM     25  C   UNL A   1      33.359  16.836  23.437  1.00  0.00     0.086 A 
ATOM     26  C   UNL A   1      33.367  16.481  24.783  1.00  0.00     0.269 A 
BRANCH  26  27
ATOM     27  N   UNL A   1      33.911  15.178  25.187  1.00  0.00     0.062 N 
ATOM     28  O   UNL A   1      33.105  14.265  25.419  1.00  0.00    -0.258 OA
ATOM     29  O   UNL A   1      35.141  15.073  25.301  1.00  0.00    -0.258 OA
ENDBRANCH  26  27
ENDBRANCH  20  21
ENDBRANCH  12  13
ENDBRANCH  11  12
ENDBRANCH   8  11
ENDBRANCH   5   7
ENDBRANCH   1   5
BRANCH   3  30
ATOM     30  C   UNL A   1      31.334  29.639  25.408  1.00  0.00     0.117 C 
BRANCH  30  31
ATOM     31  C   UNL A   1      31.225  31.040  25.988  1.00  0.00     0.042 C 
BRANCH  31  32
ATOM     32  C   UNL A   1      32.447  31.518  26.776  1.00  0.00     0.118 C 
BRANCH  32  33
ATOM     33  N   UNL A   1      32.449  32.877  27.314  1.00  0.00    -0.352 N 
ATOM     34  C   UNL A   1      33.468  33.536  27.995  1.00  0.00     0.251 C 
ATOM     35  H   UNL A   1      31.622  33.393  27.176  1.00  0.00     0.163 HD
ATOM     36  O   UNL A   1      33.308  34.683  28.401  1.00  0.00    -0.269 OA
BRANCH  34  37
ATOM     37  C   UNL A   1      34.732  32.813  28.287  1.00  0.00     0.039 A 
ATOM     38  C   UNL A   1      35.957  33.486  28.268  1.00  0.00     0.014 A 
ATOM     39  C   UNL A   1      34.678  31.492  28.716  1.00  0.00     0.014 A 
ATOM     40  C   UNL A   1      37.094  32.865  28.804  1.00  0.00     0.010 A 
ATOM     41  C   UNL A   1      35.750  30.960  29.415  1.00  0.00     0.010 A 
ATOM     42  C   UNL A   1      36.985  31.621  29.446  1.00  0.00    -0.014 A 
BRANCH  42  43
ATOM     43  C   UNL A   1      38.136  30.946  30.109  1.00  0.00     0.031 A 
ATOM     44  C   UNL A   1      38.470  31.300  31.541  1.00  0.00     0.074 A 
ATOM     45  C   UNL A   1      38.927  30.098  29.417  1.00  0.00     0.049 A 
ATOM     46  N   UNL A   1      39.495  30.941  32.270  1.00  0.00    -0.248 NA
ATOM     47  C   UNL A   1      37.562  32.238  32.222  1.00  0.00     0.031 C 
ATOM     48  C   UNL A   1      38.757  29.733  28.008  1.00  0.00     0.029 A 
ATOM     49  N   UNL A   1      40.038  29.389  29.804  1.00  0.00    -0.354 N 
ATOM     50  C   UNL A   1      39.365  31.637  33.469  1.00  0.00     0.074 A 
ATOM     51  C   UNL A   1      38.236  32.523  33.322  1.00  0.00     0.031 C 
ATOM     52  C   UNL A   1      39.689  28.826  27.670  1.00  0.00     0.029 A 
ATOM     53  C   UNL A   1      40.559  28.584  28.815  1.00  0.00     0.049 A 
ATOM     54  H   UNL A   1      40.426  29.450  30.707  1.00  0.00     0.167 HD
ATOM     55  C   UNL A   1      40.086  31.513  34.610  1.00  0.00     0.034 A 
ATOM     56  C   UNL A   1      41.617  27.747  28.832  1.00  0.00     0.034 A 
ATOM     57  C   UNL A   1      41.175  30.584  34.752  1.00  0.00     0.049 A 
ATOM     58  C   UNL A   1      42.405  27.616  30.114  1.00  0.00     0.074 A 
ATOM     59  C   UNL A   1      41.936  30.313  35.873  1.00  0.00     0.029 A 
ATOM     60  N   UNL A   1      41.656  29.768  33.735  1.00  0.00    -0.354 N 
ATOM     61  N   UNL A   1      42.228  28.236  31.260  1.00  0.00    -0.248 NA
ATOM     62  C   UNL A   1      43.523  26.667  30.111  1.00  0.00     0.031 C 
ATOM     63  C   UNL A   1      42.924  29.391  35.515  1.00  0.00     0.029 A 
ATOM     64  C   UNL A   1      42.723  29.017  34.194  1.00  0.00     0.049 A 
ATOM     65  H   UNL A   1      41.291  29.731  32.821  1.00  0.00     0.167 HD
ATOM     66  C   UNL A   1      43.193  27.723  32.122  1.00  0.00     0.074 A 
ATOM     67  C   UNL A   1      43.933  26.731  31.369  1.00  0.00     0.031 C 
ATOM     68  C   UNL A   1      43.447  28.036  33.419  1.00  0.00     0.034 A 
BRANCH  55  69
ATOM     69  C   UNL A   1      39.710  32.404  35.773  1.00  0.00     0.023 A 
ATOM     70  C   UNL A   1      40.293  33.671  35.956  1.00  0.00     0.031 A 
ATOM     71  C   UNL A   1      38.789  31.963  36.740  1.00  0.00     0.131 A 
ATOM     72  C   UNL A   1      40.027  34.407  37.120  1.00  0.00     0.055 A 
ATOM     73  C   UNL A   1      38.453  32.745  37.847  1.00  0.00     0.041 A 
ATOM     74  F   UNL A   1      38.215  30.754  36.637  1.00  0.00    -0.206 F 
ATOM     75  C   UNL A   1      39.087  33.967  38.052  1.00  0.00     0.022 A 
BRANCH  72  76
ATOM     76  S   UNL A   1      41.051  35.861  37.478  1.00  0.00     0.124 S 
ATOM     77  O   UNL A   1      40.036  36.868  37.781  1.00  0.00    -0.237 OA
ATOM     78  O   UNL A   1      41.858  35.410  38.605  1.00  0.00    -0.237 OA
ATOM     79  O   UNL A   1      41.782  36.080  36.232  1.00  0.00    -0.744 OA
ENDBRANCH  72  76
ENDBRANCH  55  69
BRANCH  56  80
ATOM     80  C   UNL A   1      41.993  26.959  27.618  1.00  0.00     0.023 A 
ATOM     81  C   UNL A   1      41.673  25.596  27.511  1.00  0.00     0.031 A 
ATOM     82  C   UNL A   1      42.719  27.546  26.566  1.00  0.00     0.131 A 
ATOM     83  C   UNL A   1      42.119  24.853  26.405  1.00  0.00     0.055 A 
ATOM     84  C   UNL A   1      43.108  26.816  25.439  1.00  0.00     0.041 A 
ATOM     85  F   UNL A   1      43.053  28.845  26.612  1.00  0.00    -0.206 F 
ATOM     86  C   UNL A   1      42.821  25.457  25.361  1.00  0.00     0.022 A 
BRANCH  83  87
ATOM     87  S   UNL A   1      41.858  23.056  26.400  1.00  0.00     0.124 S 
ATOM     88  O   UNL A   1      42.534  22.655  27.628  1.00  0.00    -0.237 OA
ATOM     89  O   UNL A   1      40.402  22.963  26.407  1.00  0.00    -0.237 OA
ATOM     90  O   UNL A   1      42.503  22.622  25.161  1.00  0.00    -0.744 OA
ENDBRANCH  83  87
ENDBRANCH  56  80
BRANCH  68  91
ATOM     91  C   UNL A   1      44.538  27.261  34.113  1.00  0.00     0.023 A 
ATOM     92  C   UNL A   1      44.286  26.034  34.748  1.00  0.00     0.031 A 
ATOM     93  C   UNL A   1      45.853  27.761  34.134  1.00  0.00     0.131 A 
ATOM     94  C   UNL A   1      45.319  25.379  35.433  1.00  0.00     0.055 A 
ATOM     95  C   UNL A   1      46.891  27.068  34.755  1.00  0.00     0.041 A 
ATOM     96  F   UNL A   1      46.150  28.930  33.544  1.00  0.00    -0.206 F 
ATOM     97  C   UNL A   1      46.624  25.876  35.423  1.00  0.00     0.022 A 
BRANCH  94  98
ATOM     98  S   UNL A   1      44.907  23.923  36.432  1.00  0.00     0.124 S 
ATOM     99  O   UNL A   1      46.188  23.226  36.492  1.00  0.00    -0.237 OA
ATOM    100  O   UNL A   1      44.448  24.520  37.681  1.00  0.00    -0.237 OA
ATOM    101  O   UNL A   1      43.872  23.252  35.648  1.00  0.00    -0.744 OA
ENDBRANCH  94  98
ENDBRANCH  68  91
ENDBRANCH  42  43
ENDBRANCH  34  37
ENDBRANCH  32  33
ENDBRANCH  31  32
ENDBRANCH  30  31
ENDBRANCH   3  30
TORSDOF 19
ENDMDL
MODEL 2
REMARK VINA RESULT:     -13.0      1.237      1.456
REMARK SMILES C[C@H](NC(=O)CCN1C(=O)/C(=C/c2ccc([N+](=O)[O-])cc2)SC1=S)C(=O)NCCCNC(=O)c1ccc(-c2c3nc(c(-c4cc(S(=O)(=O)[O-])ccc4F)c4ccc([nH]4)c(-c4cc(S(=O)(=O)[O-])ccc4F)c4nc(c(-c5cc(S(=O)(=O)[O-])ccc5F)c5ccc2[nH]5)C=C4)C=C3)cc1
REMARK SMILES IDX 25 1 26 2 27 3 2 5 1 6 3 7 4 8 5 10 6 11 7 12 8 13 9 14
REMARK SMILES IDX 23 15 10 16 11 17 22 18 24 19 12 20 13 21 14 22 21 23 15 24
REMARK SMILES IDX 20 25 16 26 17 27 18 28 19 29 28 30 29 31 30 32 31 33 32 34
REMARK SMILES IDX 33 36 34 37 35 38 96 39 36 40 95 41 37 42 38 43 39 44 89 45
REMARK SMILES IDX 40 46 94 47 88 48 90 49 41 50 93 51 87 52 86 53 42 55 74 56
REMARK SMILES IDX 54 57 73 58 55 59 58 60 72 61 91 62 56 63 57 64 71 66 92 67
REMARK SMILES IDX 59 68 43 69 44 70 52 71 45 72 51 73 53 74 50 75 46 76 47 77
REMARK SMILES IDX 48 78 49 79 75 80 76 81 84 82 77 83 83 84 85 85 82 86 78 87
REMARK SMILES IDX 79 88 80 89 81 90 60 91 61 92 69 93 62 94 68 95 70 96 67 97
REMARK SMILES IDX 63 98 64 99 65 100 66 101
REMARK H PARENT 27 4 3 9 31 35 90 54 58 65
REMARK Flexibility Score: inf
ROOT
ATOM      1  C   UNL A   1      30.626  29.030  23.094  1.00  0.00     0.242 C 
ATOM      2  O   UNL A   1      29.780  29.793  22.610  1.00  0.00    -0.273 OA
ATOM      3  N   UNL A   1      31.518  29.623  23.951  1.00  0.00    -0.354 N 
ATOM      4  H   UNL A   1      32.268  30.113  23.542  1.00  0.00     0.163 HD
ENDROOT
BRANCH   1   5
ATOM      5  C   UNL A   1      30.913  27.633  22.401  1.00  0.00     0.168 C 
ATOM      6  C   UNL A   1      30.121  26.486  23.025  1.00  0.00     0.041 C 
BRANCH   5   7
ATOM      7  N   UNL A   1      32.264  27.272  21.941  1.00  0.00    -0.345 N 
ATOM      8  C   UNL A   1      33.191  26.386  22.405  1.00  0.00     0.222 C 
ATOM      9  H   UNL A   1      32.556  27.768  21.143  1.00  0.00     0.164 HD
ATOM     10  O   UNL A   1      33.663  25.618  21.557  1.00  0.00    -0.275 OA
BRANCH   8  11
ATOM     11  C   UNL A   1      33.659  26.240  23.854  1.00  0.00     0.122 C 
BRANCH  11  12
ATOM     12  C   UNL A   1      33.085  25.136  24.761  1.00  0.00     0.137 C 
BRANCH  12  13
ATOM     13  N   UNL A   1      33.555  23.775  24.479  1.00  0.00    -0.292 N 
ATOM     14  C   UNL A   1      32.808  22.907  23.708  1.00  0.00     0.266 C 
ATOM     15  C   UNL A   1      34.794  23.303  24.830  1.00  0.00     0.148 C 
ATOM     16  O   UNL A   1      31.852  23.208  23.000  1.00  0.00    -0.268 OA
ATOM     17  C   UNL A   1      33.298  21.506  23.891  1.00  0.00     0.081 C 
ATOM     18  S   UNL A   1      34.846  21.545  24.607  1.00  0.00    -0.054 SA
ATOM     19  S   UNL A   1      36.087  24.221  25.334  1.00  0.00    -0.052 S 
ATOM     20  C   UNL A   1      32.482  20.472  23.639  1.00  0.00     0.029 C 
BRANCH  20  21
ATOM     21  C   UNL A   1      32.542  19.045  24.016  1.00  0.00    -0.024 A 
ATOM     22  C   UNL A   1      32.509  18.668  25.361  1.00  0.00     0.015 A 
ATOM     23  C   UNL A   1      32.920  18.081  23.071  1.00  0.00     0.015 A 
ATOM     24  C   UNL A   1      32.903  17.377  25.753  1.00  0.00     0.086 A 
ATOM     25  C   UNL A   1      33.327  16.794  23.443  1.00  0.00     0.086 A 
ATOM     26  C   UNL A   1      33.343  16.454  24.793  1.00  0.00     0.269 A 
BRANCH  26  27
ATOM     27  N   UNL A   1      33.881  15.152  25.208  1.00  0.00     0.062 N 
ATOM     28  O   UNL A   1      33.072  14.246  25.451  1.00  0.00    -0.258 OA
ATOM     29  O   UNL A   1      35.111  15.042  25.317  1.00  0.00    -0.258 OA
ENDBRANCH  26  27
ENDBRANCH  20  21
ENDBRANCH  12  13
ENDBRANCH  11  12
ENDBRANCH   8  11
ENDBRANCH   5   7
ENDBRANCH   1   5
BRANCH   3  30
ATOM     30  C   UNL A   1      31.465  29.598  25.424  1.00  0.00     0.117 C 
BRANCH  30  31
ATOM     31  C   UNL A   1      31.380  30.994  26.019  1.00  0.00     0.042 C 
BRANCH  31  32
ATOM     32  C   UNL A   1      32.612  31.445  26.806  1.00  0.00     0.118 C 
BRANCH  32  33
ATOM     33  N   UNL A   1      32.629  32.792  27.373  1.00  0.00    -0.352 N 
ATOM     34  C   UNL A   1      33.660  33.431  28.056  1.00  0.00     0.251 C 
ATOM     35  H   UNL A   1      31.804  33.316  27.258  1.00  0.00     0.163 HD
ATOM     36  O   UNL A   1      33.513  34.569  28.488  1.00  0.00    -0.269 OA
BRANCH  34  37
ATOM     37  C   UNL A   1      34.923  32.693  28.316  1.00  0.00     0.039 A 
ATOM     38  C   UNL A   1      36.156  33.351  28.256  1.00  0.00     0.014 A 
ATOM     39  C   UNL A   1      34.866  31.376  28.755  1.00  0.00     0.014 A 
ATOM     40  C   UNL A   1      37.300  32.720  28.764  1.00  0.00     0.010 A 
ATOM     41  C   UNL A   1      35.951  30.835  29.426  1.00  0.00     0.010 A 
ATOM     42  C   UNL A   1      37.195  31.481  29.417  1.00  0.00    -0.014 A 
BRANCH  42  43
ATOM     43  C   UNL A   1      38.356  30.796  30.051  1.00  0.00     0.031 A 
ATOM     44  C   UNL A   1      38.751  31.172  31.461  1.00  0.00     0.074 A 
ATOM     45  C   UNL A   1      39.104  29.918  29.348  1.00  0.00     0.049 A 
ATOM     46  N   UNL A   1      39.795  30.807  32.160  1.00  0.00    -0.248 NA
ATOM     47  C   UNL A   1      37.887  32.143  32.156  1.00  0.00     0.031 C 
ATOM     48  C   UNL A   1      38.873  29.528  27.954  1.00  0.00     0.029 A 
ATOM     49  N   UNL A   1      40.214  29.194  29.709  1.00  0.00    -0.354 N 
ATOM     50  C   UNL A   1      39.724  31.530  33.347  1.00  0.00     0.074 A 
ATOM     51  C   UNL A   1      38.608  32.436  33.224  1.00  0.00     0.031 C 
ATOM     52  C   UNL A   1      39.774  28.595  27.601  1.00  0.00     0.029 A 
ATOM     53  C   UNL A   1      40.681  28.358  28.717  1.00  0.00     0.049 A 
ATOM     54  H   UNL A   1      40.637  29.265  30.594  1.00  0.00     0.167 HD
ATOM     55  C   UNL A   1      40.484  31.414  34.463  1.00  0.00     0.034 A 
ATOM     56  C   UNL A   1      41.723  27.500  28.713  1.00  0.00     0.034 A 
ATOM     57  C   UNL A   1      41.559  30.466  34.584  1.00  0.00     0.049 A 
ATOM     58  C   UNL A   1      42.555  27.380  29.968  1.00  0.00     0.074 A 
ATOM     59  C   UNL A   1      42.357  30.202  35.682  1.00  0.00     0.029 A 
ATOM     60  N   UNL A   1      41.985  29.620  33.567  1.00  0.00    -0.354 N 
ATOM     61  N   UNL A   1      42.434  28.026  31.105  1.00  0.00    -0.248 NA
ATOM     62  C   UNL A   1      43.653  26.408  29.943  1.00  0.00     0.031 C 
ATOM     63  C   UNL A   1      43.311  29.253  35.307  1.00  0.00     0.029 A 
ATOM     64  C   UNL A   1      43.054  28.856  34.003  1.00  0.00     0.049 A 
ATOM     65  H   UNL A   1      41.585  29.572  32.669  1.00  0.00     0.167 HD
ATOM     66  C   UNL A   1      43.420  27.511  31.942  1.00  0.00     0.074 A 
ATOM     67  C   UNL A   1      44.111  26.488  31.183  1.00  0.00     0.031 C 
ATOM     68  C   UNL A   1      43.728  27.845  33.222  1.00  0.00     0.034 A 
BRANCH  55  69
ATOM     69  C   UNL A   1      40.170  32.336  35.620  1.00  0.00     0.023 A 
ATOM     70  C   UNL A   1      39.442  31.896  36.743  1.00  0.00     0.031 A 
ATOM     71  C   UNL A   1      40.561  33.685  35.584  1.00  0.00     0.131 A 
ATOM     72  C   UNL A   1      39.048  32.813  37.728  1.00  0.00     0.055 A 
ATOM     73  C   UNL A   1      40.249  34.571  36.618  1.00  0.00     0.041 A 
ATOM     74  F   UNL A   1      41.236  34.173  34.531  1.00  0.00    -0.206 F 
ATOM     75  C   UNL A   1      39.472  34.141  37.689  1.00  0.00     0.022 A 
BRANCH  72  76
ATOM     76  S   UNL A   1      37.833  32.282  38.966  1.00  0.00     0.124 S 
ATOM     77  O   UNL A   1      37.065  33.509  39.169  1.00  0.00    -0.237 OA
ATOM     78  O   UNL A   1      37.136  31.199  38.282  1.00  0.00    -0.237 OA
ATOM     79  O   UNL A   1      38.657  31.876  40.103  1.00  0.00    -0.744 OA
ENDBRANCH  72  76
ENDBRANCH  55  69
BRANCH  56  80
ATOM     80  C   UNL A   1      42.037  26.681  27.503  1.00  0.00     0.023 A 
ATOM     81  C   UNL A   1      41.712  25.315  27.448  1.00  0.00     0.031 A 
ATOM     82  C   UNL A   1      42.709  27.239  26.400  1.00  0.00     0.131 A 
ATOM     83  C   UNL A   1      42.102  24.543  26.341  1.00  0.00     0.055 A 
ATOM     84  C   UNL A   1      43.041  26.479  25.276  1.00  0.00     0.041 A 
ATOM     85  F   UNL A   1      43.045  28.538  26.396  1.00  0.00    -0.206 F 
ATOM     86  C   UNL A   1      42.750  25.119  25.248  1.00  0.00     0.022 A 
BRANCH  83  87
ATOM     87  S   UNL A   1      41.840  22.747  26.396  1.00  0.00     0.124 S 
ATOM     88  O   UNL A   1      42.579  22.377  27.597  1.00  0.00    -0.237 OA
ATOM     89  O   UNL A   1      40.387  22.656  26.481  1.00  0.00    -0.237 OA
ATOM     90  O   UNL A   1      42.420  22.280  25.138  1.00  0.00    -0.744 OA
ENDBRANCH  83  87
ENDBRANCH  56  80
BRANCH  68  91
ATOM     91  C   UNL A   1      44.830  27.062  33.891  1.00  0.00     0.023 A 
ATOM     92  C   UNL A   1      44.581  25.843  34.542  1.00  0.00     0.031 A 
ATOM     93  C   UNL A   1      46.151  27.546  33.872  1.00  0.00     0.131 A 
ATOM     94  C   UNL A   1      45.624  25.181  35.203  1.00  0.00     0.055 A 
ATOM     95  C   UNL A   1      47.197  26.846  34.469  1.00  0.00     0.041 A 
ATOM     96  F   UNL A   1      46.445  28.708  33.265  1.00  0.00    -0.206 F 
ATOM     97  C   UNL A   1      46.934  25.662  35.153  1.00  0.00     0.022 A 
BRANCH  94  98
ATOM     98  S   UNL A   1      45.224  23.736  36.224  1.00  0.00     0.124 S 
ATOM     99  O   UNL A   1      44.326  22.988  35.350  1.00  0.00    -0.237 OA
ATOM    100  O   UNL A   1      46.537  23.140  36.450  1.00  0.00    -0.237 OA
ATOM    101  O   UNL A   1      44.595  24.318  37.409  1.00  0.00    -0.744 OA
ENDBRANCH  94  98
ENDBRANCH  68  91
ENDBRANCH  42  43
ENDBRANCH  34  37
ENDBRANCH  32  33
ENDBRANCH  31  32
ENDBRANCH  30  31
ENDBRANCH   3  30
TORSDOF 19
ENDMDL
MODEL 3
REMARK VINA RESULT:     -12.6      0.861      7.523
REMARK SMILES C[C@H](NC(=O)CCN1C(=O)/C(=C/c2ccc([N+](=O)[O-])cc2)SC1=S)C(=O)NCCCNC(=O)c1ccc(-c2c3nc(c(-c4cc(S(=O)(=O)[O-])ccc4F)c4ccc([nH]4)c(-c4cc(S(=O)(=O)[O-])ccc4F)c4nc(c(-c5cc(S(=O)(=O)[O-])ccc5F)c5ccc2[nH]5)C=C4)C=C3)cc1
REMARK SMILES IDX 25 1 26 2 27 3 2 5 1 6 3 7 4 8 5 10 6 11 7 12 8 13 9 14
REMARK SMILES IDX 23 15 10 16 11 17 22 18 24 19 12 20 13 21 14 22 21 23 15 24
REMARK SMILES IDX 20 25 16 26 17 27 18 28 19 29 28 30 29 31 30 32 31 33 32 34
REMARK SMILES IDX 33 36 34 37 35 38 96 39 36 40 95 41 37 42 38 43 39 44 89 45
REMARK SMILES IDX 40 46 94 47 88 48 90 49 41 50 93 51 87 52 86 53 42 55 74 56
REMARK SMILES IDX 54 57 73 58 55 59 58 60 72 61 91 62 56 63 57 64 71 66 92 67
REMARK SMILES IDX 59 68 43 69 44 70 52 71 45 72 51 73 53 74 50 75 46 76 47 77
REMARK SMILES IDX 48 78 49 79 75 80 76 81 84 82 77 83 83 84 85 85 82 86 78 87
REMARK SMILES IDX 79 88 80 89 81 90 60 91 61 92 69 93 62 94 68 95 70 96 67 97
REMARK SMILES IDX 63 98 64 99 65 100 66 101
REMARK H PARENT 27 4 3 9 31 35 90 54 58 65
REMARK Flexibility Score: inf
ROOT
ATOM      1  C   UNL A   1      31.234  28.934  22.806  1.00  0.00     0.242 C 
ATOM      2  O   UNL A   1      30.626  29.734  22.083  1.00  0.00    -0.273 OA
ATOM      3  N   UNL A   1      31.868  29.495  23.885  1.00  0.00    -0.354 N 
ATOM      4  H   UNL A   1      32.738  29.924  23.716  1.00  0.00     0.163 HD
ENDROOT
BRANCH   1   5
ATOM      5  C   UNL A   1      31.618  27.502  22.244  1.00  0.00     0.168 C 
ATOM      6  C   UNL A   1      30.615  26.420  22.640  1.00  0.00     0.041 C 
BRANCH   5   7
ATOM      7  N   UNL A   1      33.019  27.054  22.188  1.00  0.00    -0.345 N 
ATOM      8  C   UNL A   1      33.742  26.184  22.950  1.00  0.00     0.222 C 
ATOM      9  H   UNL A   1      33.536  27.462  21.457  1.00  0.00     0.164 HD
ATOM     10  O   UNL A   1      34.373  25.325  22.322  1.00  0.00    -0.275 OA
BRANCH   8  11
ATOM     11  C   UNL A   1      33.808  26.159  24.479  1.00  0.00     0.122 C 
BRANCH  11  12
ATOM     12  C   UNL A   1      33.217  24.982  25.275  1.00  0.00     0.137 C 
BRANCH  12  13
ATOM     13  N   UNL A   1      33.656  23.647  24.855  1.00  0.00    -0.292 N 
ATOM     14  C   UNL A   1      32.849  22.843  24.076  1.00  0.00     0.266 C 
ATOM     15  C   UNL A   1      34.915  23.149  25.074  1.00  0.00     0.148 C 
ATOM     16  O   UNL A   1      31.845  23.199  23.466  1.00  0.00    -0.268 OA
ATOM     17  C   UNL A   1      33.341  21.431  24.112  1.00  0.00     0.081 C 
ATOM     18  S   UNL A   1      34.938  21.414  24.713  1.00  0.00    -0.054 SA
ATOM     19  S   UNL A   1      36.248  24.024  25.551  1.00  0.00    -0.052 S 
ATOM     20  C   UNL A   1      32.502  20.420  23.842  1.00  0.00     0.029 C 
BRANCH  20  21
ATOM     21  C   UNL A   1      32.581  18.969  24.102  1.00  0.00    -0.024 A 
ATOM     22  C   UNL A   1      32.315  18.464  25.378  1.00  0.00     0.015 A 
ATOM     23  C   UNL A   1      33.195  18.117  23.172  1.00  0.00     0.015 A 
ATOM     24  C   UNL A   1      32.709  17.161  25.729  1.00  0.00     0.086 A 
ATOM     25  C   UNL A   1      33.606  16.822  23.507  1.00  0.00     0.086 A 
ATOM     26  C   UNL A   1      33.383  16.356  24.800  1.00  0.00     0.269 A 
BRANCH  26  27
ATOM     27  N   UNL A   1      33.915  15.047  25.201  1.00  0.00     0.062 N 
ATOM     28  O   UNL A   1      33.102  14.169  25.522  1.00  0.00    -0.258 OA
ATOM     29  O   UNL A   1      35.146  14.903  25.223  1.00  0.00    -0.258 OA
ENDBRANCH  26  27
ENDBRANCH  20  21
ENDBRANCH  12  13
ENDBRANCH  11  12
ENDBRANCH   8  11
ENDBRANCH   5   7
ENDBRANCH   1   5
BRANCH   3  30
ATOM     30  C   UNL A   1      31.376  29.517  25.275  1.00  0.00     0.117 C 
BRANCH  30  31
ATOM     31  C   UNL A   1      31.097  30.929  25.763  1.00  0.00     0.042 C 
BRANCH  31  32
ATOM     32  C   UNL A   1      32.251  31.602  26.508  1.00  0.00     0.118 C 
BRANCH  32  33
ATOM     33  N   UNL A   1      32.038  32.929  27.083  1.00  0.00    -0.352 N 
ATOM     34  C   UNL A   1      32.897  33.672  27.887  1.00  0.00     0.251 C 
ATOM     35  H   UNL A   1      31.174  33.353  26.874  1.00  0.00     0.163 HD
ATOM     36  O   UNL A   1      32.563  34.775  28.306  1.00  0.00    -0.269 OA
BRANCH  34  37
ATOM     37  C   UNL A   1      34.202  33.087  28.290  1.00  0.00     0.039 A 
ATOM     38  C   UNL A   1      35.347  33.886  28.366  1.00  0.00     0.014 A 
ATOM     39  C   UNL A   1      34.252  31.767  28.724  1.00  0.00     0.014 A 
ATOM     40  C   UNL A   1      36.494  33.389  29.001  1.00  0.00     0.010 A 
ATOM     41  C   UNL A   1      35.311  31.353  29.515  1.00  0.00     0.010 A 
ATOM     42  C   UNL A   1      36.463  32.140  29.643  1.00  0.00    -0.014 A 
BRANCH  42  43
ATOM     43  C   UNL A   1      37.619  31.591  30.405  1.00  0.00     0.031 A 
ATOM     44  C   UNL A   1      38.512  30.563  29.747  1.00  0.00     0.074 A 
ATOM     45  C   UNL A   1      37.818  31.936  31.696  1.00  0.00     0.049 A 
ATOM     46  N   UNL A   1      39.487  29.857  30.258  1.00  0.00    -0.248 NA
ATOM     47  C   UNL A   1      38.222  30.236  28.341  1.00  0.00     0.031 C 
ATOM     48  C   UNL A   1      36.983  32.860  32.469  1.00  0.00     0.029 A 
ATOM     49  N   UNL A   1      38.786  31.548  32.590  1.00  0.00    -0.354 N 
ATOM     50  C   UNL A   1      39.893  28.989  29.249  1.00  0.00     0.074 A 
ATOM     51  C   UNL A   1      38.984  29.175  28.143  1.00  0.00     0.031 C 
ATOM     52  C   UNL A   1      37.509  33.011  33.696  1.00  0.00     0.029 A 
ATOM     53  C   UNL A   1      38.683  32.156  33.822  1.00  0.00     0.049 A 
ATOM     54  H   UNL A   1      39.489  30.895  32.371  1.00  0.00     0.167 HD
ATOM     55  C   UNL A   1      40.958  28.152  29.219  1.00  0.00     0.034 A 
ATOM     56  C   UNL A   1      39.451  32.036  34.925  1.00  0.00     0.034 A 
ATOM     57  C   UNL A   1      41.883  28.023  30.314  1.00  0.00     0.049 A 
ATOM     58  C   UNL A   1      40.638  31.103  34.873  1.00  0.00     0.074 A 
ATOM     59  C   UNL A   1      43.037  27.265  30.382  1.00  0.00     0.029 A 
ATOM     60  N   UNL A   1      41.759  28.674  31.535  1.00  0.00    -0.354 N 
ATOM     61  N   UNL A   1      41.044  30.337  33.885  1.00  0.00    -0.248 NA
ATOM     62  C   UNL A   1      41.475  31.028  36.075  1.00  0.00     0.031 C 
ATOM     63  C   UNL A   1      43.569  27.399  31.668  1.00  0.00     0.029 A 
ATOM     64  C   UNL A   1      42.798  28.311  32.373  1.00  0.00     0.049 A 
ATOM     65  H   UNL A   1      41.037  29.302  31.769  1.00  0.00     0.167 HD
ATOM     66  C   UNL A   1      42.205  29.717  34.339  1.00  0.00     0.074 A 
ATOM     67  C   UNL A   1      42.442  30.215  35.679  1.00  0.00     0.031 C 
ATOM     68  C   UNL A   1      43.009  28.821  33.708  1.00  0.00     0.034 A 
BRANCH  55  69
ATOM     69  C   UNL A   1      41.162  27.325  27.970  1.00  0.00     0.023 A 
ATOM     70  C   UNL A   1      40.899  25.943  27.943  1.00  0.00     0.031 A 
ATOM     71  C   UNL A   1      41.671  27.916  26.800  1.00  0.00     0.131 A 
ATOM     72  C   UNL A   1      41.234  25.185  26.812  1.00  0.00     0.055 A 
ATOM     73  C   UNL A   1      41.910  27.171  25.642  1.00  0.00     0.041 A 
ATOM     74  F   UNL A   1      41.966  29.225  26.766  1.00  0.00    -0.206 F 
ATOM     75  C   UNL A   1      41.709  25.794  25.650  1.00  0.00     0.022 A 
BRANCH  72  76
ATOM     76  S   UNL A   1      41.200  23.375  26.942  1.00  0.00     0.124 S 
ATOM     77  O   UNL A   1      39.942  23.056  26.270  1.00  0.00    -0.237 OA
ATOM     78  O   UNL A   1      42.416  22.985  26.238  1.00  0.00    -0.237 OA
ATOM     79  O   UNL A   1      41.206  23.136  28.383  1.00  0.00    -0.744 OA
ENDBRANCH  72  76
ENDBRANCH  55  69
BRANCH  56  80
ATOM     80  C   UNL A   1      39.143  32.815  36.163  1.00  0.00     0.023 A 
ATOM     81  C   UNL A   1      39.644  34.115  36.346  1.00  0.00     0.031 A 
ATOM     82  C   UNL A   1      38.379  32.256  37.204  1.00  0.00     0.131 A 
ATOM     83  C   UNL A   1      39.422  34.792  37.557  1.00  0.00     0.055 A 
ATOM     84  C   UNL A   1      38.110  32.958  38.382  1.00  0.00     0.041 A 
ATOM     85  F   UNL A   1      37.874  31.018  37.087  1.00  0.00    -0.206 F 
ATOM     86  C   UNL A   1      38.646  34.228  38.570  1.00  0.00     0.022 A 
BRANCH  83  87
ATOM     87  S   UNL A   1      40.252  36.383  37.830  1.00  0.00     0.124 S 
ATOM     88  O   UNL A   1      41.456  35.971  38.541  1.00  0.00    -0.237 OA
ATOM     89  O   UNL A   1      40.443  36.862  36.465  1.00  0.00    -0.237 OA
ATOM     90  O   UNL A   1      39.285  37.139  38.625  1.00  0.00    -0.744 OA
ENDBRANCH  83  87
ENDBRANCH  56  80
BRANCH  68  91
ATOM     91  C   UNL A   1      44.240  28.363  34.448  1.00  0.00     0.023 A 
ATOM     92  C   UNL A   1      44.255  27.176  35.198  1.00  0.00     0.031 A 
ATOM     93  C   UNL A   1      45.418  29.130  34.398  1.00  0.00     0.131 A 
ATOM     94  C   UNL A   1      45.403  26.822  35.919  1.00  0.00     0.055 A 
ATOM     95  C   UNL A   1      46.580  28.735  35.058  1.00  0.00     0.041 A 
ATOM     96  F   UNL A   1      45.460  30.276  33.697  1.00  0.00    -0.206 F 
ATOM     97  C   UNL A   1      46.572  27.581  35.838  1.00  0.00     0.022 A 
BRANCH  94  98
ATOM     98  S   UNL A   1      45.312  25.411  37.055  1.00  0.00     0.124 S 
ATOM     99  O   UNL A   1      46.391  25.707  37.992  1.00  0.00    -0.237 OA
ATOM    100  O   UNL A   1      43.957  25.525  37.586  1.00  0.00    -0.237 OA
ATOM    101  O   UNL A   1      45.542  24.257  36.186  1.00  0.00    -0.744 OA
ENDBRANCH  94  98
ENDBRANCH  68  91
ENDBRANCH  42  43
ENDBRANCH  34  37
ENDBRANCH  32  33
ENDBRANCH  31  32
ENDBRANCH  30  31
ENDBRANCH   3  30
TORSDOF 19
ENDMDL
