MODEL 1
REMARK VINA RESULT:     -12.3      0.000      0.000
REMARK SMILES Cc1ccc(C[C@H](C(=O)NCCCNC(=O)c2ccc(-c3c4nc(c(-c5cc(S(=O)(=O)[O-])ccc5F)c5ccc([nH]5)c(-c5cc(S(=O)(=O)[O-])ccc5F)c5nc(c(-c6cc(S(=O)(=O)[O-])ccc6F)c6ccc3[nH]6)C=C5)C=C4)cc2)[C@@H]2CCCC[C@@H]2O)cc1
REMARK SMILES IDX 12 1 11 2 10 3 8 4 9 5 7 7 6 8 5 9 1 10 2 11 3 12 88 13 4 14
REMARK SMILES IDX 87 15 80 16 81 17 85 18 82 19 84 20 83 21 86 22 13 24 14 25
REMARK SMILES IDX 15 26 16 28 17 29 18 30 79 31 19 32 78 33 20 34 21 35 22 36
REMARK SMILES IDX 72 37 23 38 77 39 71 40 73 41 24 42 76 43 70 44 69 45 25 47
REMARK SMILES IDX 57 48 37 49 56 50 38 51 41 52 55 53 74 54 39 55 40 56 54 58
REMARK SMILES IDX 75 59 42 60 26 61 27 62 35 63 28 64 34 65 36 66 33 67 29 68
REMARK SMILES IDX 30 69 31 70 32 71 58 72 59 73 67 74 60 75 66 76 68 77 65 78
REMARK SMILES IDX 61 79 62 80 63 81 64 82 43 83 44 84 52 85 45 86 51 87 53 88
REMARK SMILES IDX 50 89 46 90 47 91 48 92 49 93
REMARK H PARENT 10 6 86 23 14 27 73 46 41 57
REMARK Flexibility Score: inf
ROOT
ATOM      1  C   UNL A   1      39.318  22.053  26.621  1.00  0.00     0.042 C 
ENDROOT
BRANCH   1   2
ATOM      2  C   UNL A   1      38.119  22.742  26.016  1.00  0.00     0.117 C 
BRANCH   2   3
ATOM      3  N   UNL A   1      37.880  22.584  24.614  1.00  0.00    -0.356 N 
ATOM      4  C   UNL A   1      36.748  22.962  23.955  1.00  0.00     0.223 C 
ATOM      5  O   UNL A   1      36.780  22.876  22.720  1.00  0.00    -0.275 OA
ATOM      6  H   UNL A   1      38.594  22.166  24.080  1.00  0.00     0.163 HD
BRANCH   4   7
ATOM      7  C   UNL A   1      35.432  23.354  24.712  1.00  0.00     0.088 C 
BRANCH   7   8
ATOM      8  C   UNL A   1      34.436  24.222  23.871  1.00  0.00     0.049 C 
BRANCH   8   9
ATOM      9  C   UNL A   1      33.949  25.571  24.366  1.00  0.00    -0.047 A 
ATOM     10  C   UNL A   1      33.116  29.624  25.631  1.00  0.00     0.044 C 
ATOM     11  C   UNL A   1      33.304  28.197  25.202  1.00  0.00    -0.051 A 
ATOM     12  C   UNL A   1      33.682  27.226  26.136  1.00  0.00     0.004 A 
ATOM     13  C   UNL A   1      33.183  27.829  23.857  1.00  0.00     0.004 A 
ATOM     14  C   UNL A   1      33.972  25.917  25.727  1.00  0.00     0.004 A 
ATOM     15  C   UNL A   1      33.489  26.527  23.444  1.00  0.00     0.004 A 
ENDBRANCH   8   9
ENDBRANCH   7   8
BRANCH   7  16
ATOM     16  C   UNL A   1      34.754  21.982  25.162  1.00  0.00     0.030 C 
ATOM     17  C   UNL A   1      33.694  21.371  24.225  1.00  0.00     0.007 C 
ATOM     18  C   UNL A   1      34.166  22.027  26.602  1.00  0.00     0.118 C 
ATOM     19  C   UNL A   1      32.370  22.123  24.264  1.00  0.00     0.001 C 
ATOM     20  C   UNL A   1      32.798  22.714  26.669  1.00  0.00     0.032 C 
ATOM     21  C   UNL A   1      31.803  22.125  25.678  1.00  0.00     0.003 C 
BRANCH  18  22
ATOM     22  O   UNL A   1      35.019  22.679  27.532  1.00  0.00    -0.393 OA
ATOM     23  H   UNL A   1      35.130  22.119  28.316  1.00  0.00     0.210 HD
ENDBRANCH  18  22
ENDBRANCH   7  16
ENDBRANCH   4   7
ENDBRANCH   2   3
ENDBRANCH   1   2
BRANCH   1  24
ATOM     24  C   UNL A   1      40.642  22.561  26.050  1.00  0.00     0.118 C 
BRANCH  24  25
ATOM     25  N   UNL A   1      41.452  23.321  27.025  1.00  0.00    -0.352 N 
ATOM     26  C   UNL A   1      41.342  24.561  27.644  1.00  0.00     0.251 C 
ATOM     27  H   UNL A   1      42.262  22.833  27.301  1.00  0.00     0.163 HD
ATOM     28  O   UNL A   1      42.098  24.902  28.522  1.00  0.00    -0.269 OA
BRANCH  26  29
ATOM     29  C   UNL A   1      40.204  25.452  27.331  1.00  0.00     0.039 A 
ATOM     30  C   UNL A   1      40.549  26.452  26.411  1.00  0.00     0.014 A 
ATOM     31  C   UNL A   1      39.261  25.660  28.317  1.00  0.00     0.014 A 
ATOM     32  C   UNL A   1      40.392  27.765  26.809  1.00  0.00     0.010 A 
ATOM     33  C   UNL A   1      39.148  26.964  28.739  1.00  0.00     0.010 A 
ATOM     34  C   UNL A   1      39.865  27.979  28.071  1.00  0.00    -0.014 A 
BRANCH  34  35
ATOM     35  C   UNL A   1      40.188  29.145  28.887  1.00  0.00     0.031 A 
ATOM     36  C   UNL A   1      39.187  30.218  28.966  1.00  0.00     0.074 A 
ATOM     37  C   UNL A   1      41.284  29.167  29.687  1.00  0.00     0.049 A 
ATOM     38  N   UNL A   1      39.379  31.347  29.543  1.00  0.00    -0.248 NA
ATOM     39  C   UNL A   1      37.879  30.118  28.325  1.00  0.00     0.031 C 
ATOM     40  C   UNL A   1      41.525  30.046  30.832  1.00  0.00     0.029 A 
ATOM     41  N   UNL A   1      42.518  28.541  29.482  1.00  0.00    -0.354 N 
ATOM     42  C   UNL A   1      38.179  32.005  29.593  1.00  0.00     0.074 A 
ATOM     43  C   UNL A   1      37.301  31.243  28.746  1.00  0.00     0.031 C 
ATOM     44  C   UNL A   1      42.843  30.115  31.070  1.00  0.00     0.029 A 
ATOM     45  C   UNL A   1      43.512  29.409  29.997  1.00  0.00     0.049 A 
ATOM     46  H   UNL A   1      42.667  27.664  29.060  1.00  0.00     0.167 HD
ATOM     47  C   UNL A   1      38.072  33.067  30.433  1.00  0.00     0.034 A 
ATOM     48  C   UNL A   1      44.460  29.953  29.176  1.00  0.00     0.034 A 
ATOM     49  C   UNL A   1      39.399  33.505  30.883  1.00  0.00     0.049 A 
ATOM     50  C   UNL A   1      44.361  31.464  29.022  1.00  0.00     0.074 A 
ATOM     51  C   UNL A   1      40.149  33.403  32.041  1.00  0.00     0.029 A 
ATOM     52  N   UNL A   1      40.276  33.948  29.909  1.00  0.00    -0.354 N 
ATOM     53  N   UNL A   1      43.486  32.217  29.634  1.00  0.00    -0.248 NA
ATOM     54  C   UNL A   1      45.187  32.233  28.089  1.00  0.00     0.031 C 
ATOM     55  C   UNL A   1      41.506  33.737  31.716  1.00  0.00     0.029 A 
ATOM     56  C   UNL A   1      41.564  34.077  30.374  1.00  0.00     0.049 A 
ATOM     57  H   UNL A   1      40.007  34.148  28.984  1.00  0.00     0.167 HD
ATOM     58  C   UNL A   1      43.524  33.484  29.108  1.00  0.00     0.074 A 
ATOM     59  C   UNL A   1      44.629  33.453  28.166  1.00  0.00     0.031 C 
ATOM     60  C   UNL A   1      42.605  34.448  29.423  1.00  0.00     0.034 A 
BRANCH  47  61
ATOM     61  C   UNL A   1      36.785  33.654  30.956  1.00  0.00     0.023 A 
ATOM     62  C   UNL A   1      35.829  34.068  30.009  1.00  0.00     0.031 A 
ATOM     63  C   UNL A   1      36.453  33.936  32.300  1.00  0.00     0.131 A 
ATOM     64  C   UNL A   1      34.659  34.747  30.390  1.00  0.00     0.055 A 
ATOM     65  C   UNL A   1      35.278  34.594  32.682  1.00  0.00     0.041 A 
ATOM     66  F   UNL A   1      37.239  33.622  33.330  1.00  0.00    -0.206 F 
ATOM     67  C   UNL A   1      34.377  35.015  31.724  1.00  0.00     0.022 A 
BRANCH  64  68
ATOM     68  S   UNL A   1      33.529  35.320  29.099  1.00  0.00     0.124 S 
ATOM     69  O   UNL A   1      32.735  36.316  29.810  1.00  0.00    -0.237 OA
ATOM     70  O   UNL A   1      34.450  35.824  28.088  1.00  0.00    -0.237 OA
ATOM     71  O   UNL A   1      32.804  34.106  28.726  1.00  0.00    -0.744 OA
ENDBRANCH  64  68
ENDBRANCH  47  61
BRANCH  48  72
ATOM     72  C   UNL A   1      44.884  28.987  28.122  1.00  0.00     0.023 A 
ATOM     73  C   UNL A   1      45.708  27.917  28.533  1.00  0.00     0.031 A 
ATOM     74  C   UNL A   1      44.143  28.833  26.943  1.00  0.00     0.131 A 
ATOM     75  C   UNL A   1      45.628  26.679  27.880  1.00  0.00     0.055 A 
ATOM     76  C   UNL A   1      44.113  27.611  26.260  1.00  0.00     0.041 A 
ATOM     77  F   UNL A   1      43.316  29.804  26.523  1.00  0.00    -0.206 F 
ATOM     78  C   UNL A   1      44.814  26.511  26.758  1.00  0.00     0.022 A 
BRANCH  75  79
ATOM     79  S   UNL A   1      46.409  25.240  28.671  1.00  0.00     0.124 S 
ATOM     80  O   UNL A   1      46.287  24.222  27.633  1.00  0.00    -0.237 OA
ATOM     81  O   UNL A   1      47.761  25.729  28.934  1.00  0.00    -0.237 OA
ATOM     82  O   UNL A   1      45.597  25.015  29.863  1.00  0.00    -0.744 OA
ENDBRANCH  75  79
ENDBRANCH  48  72
BRANCH  60  83
ATOM     83  C   UNL A   1      42.596  35.821  28.791  1.00  0.00     0.023 A 
ATOM     84  C   UNL A   1      42.913  36.974  29.525  1.00  0.00     0.031 A 
ATOM     85  C   UNL A   1      42.193  36.029  27.450  1.00  0.00     0.131 A 
ATOM     86  C   UNL A   1      42.869  38.244  28.918  1.00  0.00     0.055 A 
ATOM     87  C   UNL A   1      42.047  37.298  26.885  1.00  0.00     0.041 A 
ATOM     88  F   UNL A   1      41.980  35.009  26.607  1.00  0.00    -0.206 F 
ATOM     89  C   UNL A   1      42.397  38.418  27.618  1.00  0.00     0.022 A 
BRANCH  86  90
ATOM     90  S   UNL A   1      43.538  39.661  29.824  1.00  0.00     0.124 S 
ATOM     91  O   UNL A   1      44.785  39.934  29.120  1.00  0.00    -0.237 OA
ATOM     92  O   UNL A   1      42.477  40.650  29.645  1.00  0.00    -0.237 OA
ATOM     93  O   UNL A   1      43.689  39.159  31.189  1.00  0.00    -0.744 OA
ENDBRANCH  86  90
ENDBRANCH  60  83
ENDBRANCH  34  35
ENDBRANCH  26  29
ENDBRANCH  24  25
ENDBRANCH   1  24
TORSDOF 17
ENDMDL
MODEL 2
REMARK VINA RESULT:     -12.1      4.303     10.694
REMARK SMILES Cc1ccc(C[C@H](C(=O)NCCCNC(=O)c2ccc(-c3c4nc(c(-c5cc(S(=O)(=O)[O-])ccc5F)c5ccc([nH]5)c(-c5cc(S(=O)(=O)[O-])ccc5F)c5nc(c(-c6cc(S(=O)(=O)[O-])ccc6F)c6ccc3[nH]6)C=C5)C=C4)cc2)[C@@H]2CCCC[C@@H]2O)cc1
REMARK SMILES IDX 12 1 11 2 10 3 8 4 9 5 7 7 6 8 5 9 1 10 2 11 3 12 88 13 4 14
REMARK SMILES IDX 87 15 80 16 81 17 85 18 82 19 84 20 83 21 86 22 13 24 14 25
REMARK SMILES IDX 15 26 16 28 17 29 18 30 79 31 19 32 78 33 20 34 21 35 22 36
REMARK SMILES IDX 72 37 23 38 77 39 71 40 73 41 24 42 76 43 70 44 69 45 25 47
REMARK SMILES IDX 57 48 37 49 56 50 38 51 41 52 55 53 74 54 39 55 40 56 54 58
REMARK SMILES IDX 75 59 42 60 26 61 27 62 35 63 28 64 34 65 36 66 33 67 29 68
REMARK SMILES IDX 30 69 31 70 32 71 58 72 59 73 67 74 60 75 66 76 68 77 65 78
REMARK SMILES IDX 61 79 62 80 63 81 64 82 43 83 44 84 52 85 45 86 51 87 53 88
REMARK SMILES IDX 50 89 46 90 47 91 48 92 49 93
REMARK H PARENT 10 6 86 23 14 27 73 46 41 57
REMARK Flexibility Score: inf
ROOT
ATOM      1  C   UNL A   1      34.181  31.121  28.249  1.00  0.00     0.042 C 
ENDROOT
BRANCH   1   2
ATOM      2  C   UNL A   1      33.535  30.170  27.271  1.00  0.00     0.117 C 
BRANCH   2   3
ATOM      3  N   UNL A   1      32.383  29.436  27.698  1.00  0.00    -0.356 N 
ATOM      4  C   UNL A   1      31.970  28.241  27.185  1.00  0.00     0.223 C 
ATOM      5  O   UNL A   1      31.034  27.688  27.778  1.00  0.00    -0.275 OA
ATOM      6  H   UNL A   1      31.844  29.827  28.422  1.00  0.00     0.163 HD
BRANCH   4   7
ATOM      7  C   UNL A   1      32.548  27.661  25.849  1.00  0.00     0.088 C 
BRANCH   7   8
ATOM      8  C   UNL A   1      32.201  26.155  25.595  1.00  0.00     0.049 C 
BRANCH   8   9
ATOM      9  C   UNL A   1      33.244  25.177  25.088  1.00  0.00    -0.047 A 
ATOM     10  C   UNL A   1      36.436  22.856  23.313  1.00  0.00     0.044 C 
ATOM     11  C   UNL A   1      35.312  23.583  23.994  1.00  0.00    -0.051 A 
ATOM     12  C   UNL A   1      34.019  23.535  23.461  1.00  0.00     0.004 A 
ATOM     13  C   UNL A   1      35.548  24.379  25.121  1.00  0.00     0.004 A 
ATOM     14  C   UNL A   1      32.987  24.300  24.020  1.00  0.00     0.004 A 
ATOM     15  C   UNL A   1      34.523  25.158  25.670  1.00  0.00     0.004 A 
ENDBRANCH   8   9
ENDBRANCH   7   8
BRANCH   7  16
ATOM     16  C   UNL A   1      31.975  28.584  24.680  1.00  0.00     0.030 C 
ATOM     17  C   UNL A   1      30.591  28.226  24.105  1.00  0.00     0.007 C 
ATOM     18  C   UNL A   1      32.966  28.765  23.494  1.00  0.00     0.118 C 
ATOM     19  C   UNL A   1      30.625  26.992  23.212  1.00  0.00     0.001 C 
ATOM     20  C   UNL A   1      32.975  27.571  22.533  1.00  0.00     0.032 C 
ATOM     21  C   UNL A   1      31.579  27.209  22.045  1.00  0.00     0.003 C 
BRANCH  18  22
ATOM     22  O   UNL A   1      34.304  28.986  23.916  1.00  0.00    -0.393 OA
ATOM     23  H   UNL A   1      34.621  28.212  24.407  1.00  0.00     0.210 HD
ENDBRANCH  18  22
ENDBRANCH   7  16
ENDBRANCH   4   7
ENDBRANCH   2   3
ENDBRANCH   1   2
BRANCH   1  24
ATOM     24  C   UNL A   1      35.288  31.962  27.613  1.00  0.00     0.118 C 
BRANCH  24  25
ATOM     25  N   UNL A   1      36.481  32.115  28.472  1.00  0.00    -0.352 N 
ATOM     26  C   UNL A   1      37.452  31.254  28.973  1.00  0.00     0.251 C 
ATOM     27  H   UNL A   1      36.621  33.047  28.756  1.00  0.00     0.163 HD
ATOM     28  O   UNL A   1      38.420  31.665  29.566  1.00  0.00    -0.269 OA
BRANCH  26  29
ATOM     29  C   UNL A   1      37.389  29.807  28.677  1.00  0.00     0.039 A 
ATOM     30  C   UNL A   1      37.356  29.026  29.842  1.00  0.00     0.014 A 
ATOM     31  C   UNL A   1      37.989  29.362  27.517  1.00  0.00     0.014 A 
ATOM     32  C   UNL A   1      38.365  28.101  30.017  1.00  0.00     0.010 A 
ATOM     33  C   UNL A   1      39.026  28.479  27.707  1.00  0.00     0.010 A 
ATOM     34  C   UNL A   1      39.303  27.995  29.004  1.00  0.00    -0.014 A 
BRANCH  34  35
ATOM     35  C   UNL A   1      40.688  27.601  29.233  1.00  0.00     0.031 A 
ATOM     36  C   UNL A   1      41.090  26.250  28.814  1.00  0.00     0.074 A 
ATOM     37  C   UNL A   1      41.620  28.497  29.646  1.00  0.00     0.049 A 
ATOM     38  N   UNL A   1      42.234  25.727  29.058  1.00  0.00    -0.248 NA
ATOM     39  C   UNL A   1      40.179  25.341  28.126  1.00  0.00     0.031 C 
ATOM     40  C   UNL A   1      43.074  28.378  29.531  1.00  0.00     0.029 A 
ATOM     41  N   UNL A   1      41.441  29.612  30.471  1.00  0.00    -0.354 N 
ATOM     42  C   UNL A   1      42.321  24.554  28.353  1.00  0.00     0.074 A 
ATOM     43  C   UNL A   1      40.990  24.316  27.864  1.00  0.00     0.031 C 
ATOM     44  C   UNL A   1      43.659  29.180  30.434  1.00  0.00     0.029 A 
ATOM     45  C   UNL A   1      42.608  29.730  31.265  1.00  0.00     0.049 A 
ATOM     46  H   UNL A   1      40.654  30.203  30.495  1.00  0.00     0.167 HD
ATOM     47  C   UNL A   1      43.548  23.994  28.203  1.00  0.00     0.034 A 
ATOM     48  C   UNL A   1      42.545  29.609  32.625  1.00  0.00     0.034 A 
ATOM     49  C   UNL A   1      44.510  24.601  29.132  1.00  0.00     0.049 A 
ATOM     50  C   UNL A   1      43.263  28.386  33.177  1.00  0.00     0.074 A 
ATOM     51  C   UNL A   1      45.553  25.507  29.045  1.00  0.00     0.029 A 
ATOM     52  N   UNL A   1      44.251  24.461  30.483  1.00  0.00    -0.354 N 
ATOM     53  N   UNL A   1      43.927  27.524  32.454  1.00  0.00    -0.248 NA
ATOM     54  C   UNL A   1      43.208  27.989  34.586  1.00  0.00     0.031 C 
ATOM     55  C   UNL A   1      45.864  25.947  30.374  1.00  0.00     0.029 A 
ATOM     56  C   UNL A   1      45.038  25.277  31.261  1.00  0.00     0.049 A 
ATOM     57  H   UNL A   1      43.577  23.843  30.847  1.00  0.00     0.167 HD
ATOM     58  C   UNL A   1      44.256  26.436  33.223  1.00  0.00     0.074 A 
ATOM     59  C   UNL A   1      43.813  26.789  34.559  1.00  0.00     0.031 C 
ATOM     60  C   UNL A   1      44.800  25.294  32.700  1.00  0.00     0.034 A 
BRANCH  47  61
ATOM     61  C   UNL A   1      43.936  22.983  27.153  1.00  0.00     0.023 A 
ATOM     62  C   UNL A   1      43.138  21.829  27.038  1.00  0.00     0.031 A 
ATOM     63  C   UNL A   1      45.078  23.003  26.322  1.00  0.00     0.131 A 
ATOM     64  C   UNL A   1      43.492  20.770  26.184  1.00  0.00     0.055 A 
ATOM     65  C   UNL A   1      45.419  21.958  25.456  1.00  0.00     0.041 A 
ATOM     66  F   UNL A   1      45.950  24.011  26.300  1.00  0.00    -0.206 F 
ATOM     67  C   UNL A   1      44.631  20.826  25.391  1.00  0.00     0.022 A 
BRANCH  64  68
ATOM     68  S   UNL A   1      42.455  19.288  26.166  1.00  0.00     0.124 S 
ATOM     69  O   UNL A   1      42.309  19.000  27.588  1.00  0.00    -0.237 OA
ATOM     70  O   UNL A   1      41.263  19.758  25.471  1.00  0.00    -0.237 OA
ATOM     71  O   UNL A   1      43.264  18.322  25.422  1.00  0.00    -0.744 OA
ENDBRANCH  64  68
ENDBRANCH  47  61
BRANCH  48  72
ATOM     72  C   UNL A   1      41.293  30.213  33.166  1.00  0.00     0.023 A 
ATOM     73  C   UNL A   1      41.237  31.622  33.217  1.00  0.00     0.031 A 
ATOM     74  C   UNL A   1      40.084  29.504  33.152  1.00  0.00     0.131 A 
ATOM     75  C   UNL A   1      40.009  32.282  33.062  1.00  0.00     0.055 A 
ATOM     76  C   UNL A   1      38.856  30.170  33.056  1.00  0.00     0.041 A 
ATOM     77  F   UNL A   1      40.077  28.165  33.069  1.00  0.00    -0.206 F 
ATOM     78  C   UNL A   1      38.818  31.562  32.956  1.00  0.00     0.022 A 
BRANCH  75  79
ATOM     79  S   UNL A   1      40.031  34.073  32.750  1.00  0.00     0.124 S 
ATOM     80  O   UNL A   1      39.943  34.615  34.102  1.00  0.00    -0.237 OA
ATOM     81  O   UNL A   1      41.313  34.252  32.071  1.00  0.00    -0.237 OA
ATOM     82  O   UNL A   1      38.858  34.295  31.912  1.00  0.00    -0.744 OA
ENDBRANCH  75  79
ENDBRANCH  48  72
BRANCH  60  83
ATOM     83  C   UNL A   1      45.095  24.064  33.529  1.00  0.00     0.023 A 
ATOM     84  C   UNL A   1      46.407  23.685  33.846  1.00  0.00     0.031 A 
ATOM     85  C   UNL A   1      44.072  23.187  33.962  1.00  0.00     0.131 A 
ATOM     86  C   UNL A   1      46.655  22.518  34.595  1.00  0.00     0.055 A 
ATOM     87  C   UNL A   1      44.329  21.977  34.611  1.00  0.00     0.041 A 
ATOM     88  F   UNL A   1      42.773  23.491  33.831  1.00  0.00    -0.206 F 
ATOM     89  C   UNL A   1      45.629  21.639  34.941  1.00  0.00     0.022 A 
BRANCH  86  90
ATOM     90  S   UNL A   1      48.334  22.217  35.200  1.00  0.00     0.124 S 
ATOM     91  O   UNL A   1      48.898  23.560  35.266  1.00  0.00    -0.237 OA
ATOM     92  O   UNL A   1      48.071  21.574  36.485  1.00  0.00    -0.237 OA
ATOM     93  O   UNL A   1      48.917  21.344  34.182  1.00  0.00    -0.744 OA
ENDBRANCH  86  90
ENDBRANCH  60  83
ENDBRANCH  34  35
ENDBRANCH  26  29
ENDBRANCH  24  25
ENDBRANCH   1  24
TORSDOF 17
ENDMDL
MODEL 3
REMARK VINA RESULT:     -11.9      4.171     10.482
REMARK SMILES Cc1ccc(C[C@H](C(=O)NCCCNC(=O)c2ccc(-c3c4nc(c(-c5cc(S(=O)(=O)[O-])ccc5F)c5ccc([nH]5)c(-c5cc(S(=O)(=O)[O-])ccc5F)c5nc(c(-c6cc(S(=O)(=O)[O-])ccc6F)c6ccc3[nH]6)C=C5)C=C4)cc2)[C@@H]2CCCC[C@@H]2O)cc1
REMARK SMILES IDX 12 1 11 2 10 3 8 4 9 5 7 7 6 8 5 9 1 10 2 11 3 12 88 13 4 14
REMARK SMILES IDX 87 15 80 16 81 17 85 18 82 19 84 20 83 21 86 22 13 24 14 25
REMARK SMILES IDX 15 26 16 28 17 29 18 30 79 31 19 32 78 33 20 34 21 35 22 36
REMARK SMILES IDX 72 37 23 38 77 39 71 40 73 41 24 42 76 43 70 44 69 45 25 47
REMARK SMILES IDX 57 48 37 49 56 50 38 51 41 52 55 53 74 54 39 55 40 56 54 58
REMARK SMILES IDX 75 59 42 60 26 61 27 62 35 63 28 64 34 65 36 66 33 67 29 68
REMARK SMILES IDX 30 69 31 70 32 71 58 72 59 73 67 74 60 75 66 76 68 77 65 78
REMARK SMILES IDX 61 79 62 80 63 81 64 82 43 83 44 84 52 85 45 86 51 87 53 88
REMARK SMILES IDX 50 89 46 90 47 91 48 92 49 93
REMARK H PARENT 10 6 86 23 14 27 73 46 41 57
REMARK Flexibility Score: inf
ROOT
ATOM      1  C   UNL A   1      34.136  31.540  27.352  1.00  0.00     0.042 C 
ENDROOT
BRANCH   1   2
ATOM      2  C   UNL A   1      33.841  30.088  27.066  1.00  0.00     0.117 C 
BRANCH   2   3
ATOM      3  N   UNL A   1      32.659  29.510  27.630  1.00  0.00    -0.356 N 
ATOM      4  C   UNL A   1      32.099  28.325  27.255  1.00  0.00     0.223 C 
ATOM      5  O   UNL A   1      31.161  27.919  27.953  1.00  0.00    -0.275 OA
ATOM      6  H   UNL A   1      32.214  30.012  28.350  1.00  0.00     0.163 HD
BRANCH   4   7
ATOM      7  C   UNL A   1      32.520  27.581  25.941  1.00  0.00     0.088 C 
BRANCH   7   8
ATOM      8  C   UNL A   1      32.181  26.052  25.926  1.00  0.00     0.049 C 
BRANCH   8   9
ATOM      9  C   UNL A   1      33.264  25.003  25.757  1.00  0.00    -0.047 A 
ATOM     10  C   UNL A   1      36.607  22.256  25.777  1.00  0.00     0.044 C 
ATOM     11  C   UNL A   1      35.403  23.150  25.698  1.00  0.00    -0.051 A 
ATOM     12  C   UNL A   1      35.423  24.285  24.880  1.00  0.00     0.004 A 
ATOM     13  C   UNL A   1      34.276  22.910  26.493  1.00  0.00     0.004 A 
ATOM     14  C   UNL A   1      34.351  25.188  24.886  1.00  0.00     0.004 A 
ATOM     15  C   UNL A   1      33.212  23.820  26.513  1.00  0.00     0.004 A 
ENDBRANCH   8   9
ENDBRANCH   7   8
BRANCH   7  16
ATOM     16  C   UNL A   1      31.784  28.341  24.745  1.00  0.00     0.030 C 
ATOM     17  C   UNL A   1      30.464  27.738  24.226  1.00  0.00     0.007 C 
ATOM     18  C   UNL A   1      32.710  28.616  23.526  1.00  0.00     0.118 C 
ATOM     19  C   UNL A   1      30.678  26.482  23.392  1.00  0.00     0.001 C 
ATOM     20  C   UNL A   1      32.891  27.392  22.622  1.00  0.00     0.032 C 
ATOM     21  C   UNL A   1      31.562  26.788  22.190  1.00  0.00     0.003 C 
BRANCH  18  22
ATOM     22  O   UNL A   1      34.003  29.069  23.899  1.00  0.00    -0.393 OA
ATOM     23  H   UNL A   1      34.385  28.456  24.548  1.00  0.00     0.210 HD
ENDBRANCH  18  22
ENDBRANCH   7  16
ENDBRANCH   4   7
ENDBRANCH   2   3
ENDBRANCH   1   2
BRANCH   1  24
ATOM     24  C   UNL A   1      34.283  31.831  28.845  1.00  0.00     0.118 C 
BRANCH  24  25
ATOM     25  N   UNL A   1      35.641  32.269  29.230  1.00  0.00    -0.352 N 
ATOM     26  C   UNL A   1      36.905  31.689  29.216  1.00  0.00     0.251 C 
ATOM     27  H   UNL A   1      35.653  33.189  29.579  1.00  0.00     0.163 HD
ATOM     28  O   UNL A   1      37.898  32.325  29.476  1.00  0.00    -0.269 OA
BRANCH  26  29
ATOM     29  C   UNL A   1      37.080  30.296  28.752  1.00  0.00     0.039 A 
ATOM     30  C   UNL A   1      36.984  29.370  29.799  1.00  0.00     0.014 A 
ATOM     31  C   UNL A   1      37.897  30.081  27.660  1.00  0.00     0.014 A 
ATOM     32  C   UNL A   1      38.072  28.552  30.029  1.00  0.00     0.010 A 
ATOM     33  C   UNL A   1      39.004  29.306  27.913  1.00  0.00     0.010 A 
ATOM     34  C   UNL A   1      39.152  28.690  29.173  1.00  0.00    -0.014 A 
BRANCH  34  35
ATOM     35  C   UNL A   1      40.531  28.431  29.576  1.00  0.00     0.031 A 
ATOM     36  C   UNL A   1      41.152  27.183  29.111  1.00  0.00     0.074 A 
ATOM     37  C   UNL A   1      41.276  29.379  30.198  1.00  0.00     0.049 A 
ATOM     38  N   UNL A   1      42.307  26.768  29.481  1.00  0.00    -0.248 NA
ATOM     39  C   UNL A   1      40.467  26.252  28.220  1.00  0.00     0.031 C 
ATOM     40  C   UNL A   1      42.735  29.435  30.295  1.00  0.00     0.029 A 
ATOM     41  N   UNL A   1      40.845  30.379  31.077  1.00  0.00    -0.354 N 
ATOM     42  C   UNL A   1      42.637  25.689  28.702  1.00  0.00     0.074 A 
ATOM     43  C   UNL A   1      41.428  25.355  27.999  1.00  0.00     0.031 C 
ATOM     44  C   UNL A   1      43.083  30.201  31.339  1.00  0.00     0.029 A 
ATOM     45  C   UNL A   1      41.866  30.545  32.045  1.00  0.00     0.049 A 
ATOM     46  H   UNL A   1      39.995  30.873  31.031  1.00  0.00     0.167 HD
ATOM     47  C   UNL A   1      43.934  25.286  28.693  1.00  0.00     0.034 A 
ATOM     48  C   UNL A   1      41.628  30.281  33.365  1.00  0.00     0.034 A 
ATOM     49  C   UNL A   1      44.673  25.901  29.804  1.00  0.00     0.049 A 
ATOM     50  C   UNL A   1      42.409  29.096  33.916  1.00  0.00     0.074 A 
ATOM     51  C   UNL A   1      45.596  26.921  29.951  1.00  0.00     0.029 A 
ATOM     52  N   UNL A   1      44.246  25.597  31.084  1.00  0.00    -0.354 N 
ATOM     53  N   UNL A   1      43.270  28.391  33.232  1.00  0.00    -0.248 NA
ATOM     54  C   UNL A   1      42.206  28.556  35.262  1.00  0.00     0.031 C 
ATOM     55  C   UNL A   1      45.661  27.256  31.345  1.00  0.00     0.029 A 
ATOM     56  C   UNL A   1      44.808  26.413  32.038  1.00  0.00     0.049 A 
ATOM     57  H   UNL A   1      43.611  24.874  31.289  1.00  0.00     0.167 HD
ATOM     58  C   UNL A   1      43.621  27.274  33.948  1.00  0.00     0.074 A 
ATOM     59  C   UNL A   1      42.954  27.439  35.227  1.00  0.00     0.031 C 
ATOM     60  C   UNL A   1      44.370  26.258  33.421  1.00  0.00     0.034 A 
BRANCH  47  61
ATOM     61  C   UNL A   1      44.588  24.436  27.633  1.00  0.00     0.023 A 
ATOM     62  C   UNL A   1      45.566  25.047  26.825  1.00  0.00     0.031 A 
ATOM     63  C   UNL A   1      44.266  23.108  27.278  1.00  0.00     0.131 A 
ATOM     64  C   UNL A   1      46.136  24.380  25.726  1.00  0.00     0.055 A 
ATOM     65  C   UNL A   1      44.848  22.436  26.197  1.00  0.00     0.041 A 
ATOM     66  F   UNL A   1      43.359  22.376  27.926  1.00  0.00    -0.206 F 
ATOM     67  C   UNL A   1      45.782  23.076  25.405  1.00  0.00     0.022 A 
BRANCH  64  68
ATOM     68  S   UNL A   1      47.320  25.271  24.690  1.00  0.00     0.124 S 
ATOM     69  O   UNL A   1      48.445  25.454  25.602  1.00  0.00    -0.237 OA
ATOM     70  O   UNL A   1      47.522  24.341  23.586  1.00  0.00    -0.237 OA
ATOM     71  O   UNL A   1      46.604  26.499  24.343  1.00  0.00    -0.744 OA
ENDBRANCH  64  68
ENDBRANCH  47  61
BRANCH  48  72
ATOM     72  C   UNL A   1      40.247  30.684  33.759  1.00  0.00     0.023 A 
ATOM     73  C   UNL A   1      40.013  32.066  33.932  1.00  0.00     0.031 A 
ATOM     74  C   UNL A   1      39.149  29.857  33.491  1.00  0.00     0.131 A 
ATOM     75  C   UNL A   1      38.749  32.604  33.650  1.00  0.00     0.055 A 
ATOM     76  C   UNL A   1      37.875  30.395  33.268  1.00  0.00     0.041 A 
ATOM     77  F   UNL A   1      39.317  28.542  33.284  1.00  0.00    -0.206 F 
ATOM     78  C   UNL A   1      37.682  31.777  33.293  1.00  0.00     0.022 A 
BRANCH  75  79
ATOM     79  S   UNL A   1      38.597  34.410  33.514  1.00  0.00     0.124 S 
ATOM     80  O   UNL A   1      39.981  34.813  33.291  1.00  0.00    -0.237 OA
ATOM     81  O   UNL A   1      37.695  34.559  32.374  1.00  0.00    -0.237 OA
ATOM     82  O   UNL A   1      38.031  34.809  34.799  1.00  0.00    -0.744 OA
ENDBRANCH  75  79
ENDBRANCH  48  72
BRANCH  60  83
ATOM     83  C   UNL A   1      44.697  24.991  34.178  1.00  0.00     0.023 A 
ATOM     84  C   UNL A   1      46.021  24.609  34.441  1.00  0.00     0.031 A 
ATOM     85  C   UNL A   1      43.694  24.084  34.595  1.00  0.00     0.131 A 
ATOM     86  C   UNL A   1      46.298  23.409  35.124  1.00  0.00     0.055 A 
ATOM     87  C   UNL A   1      43.978  22.846  35.176  1.00  0.00     0.041 A 
ATOM     88  F   UNL A   1      42.390  24.383  34.514  1.00  0.00    -0.206 F 
ATOM     89  C   UNL A   1      45.289  22.505  35.454  1.00  0.00     0.022 A 
BRANCH  86  90
ATOM     90  S   UNL A   1      47.995  23.094  35.668  1.00  0.00     0.124 S 
ATOM     91  O   UNL A   1      48.130  23.969  36.827  1.00  0.00    -0.237 OA
ATOM     92  O   UNL A   1      47.949  21.662  35.956  1.00  0.00    -0.237 OA
ATOM     93  O   UNL A   1      48.805  23.464  34.509  1.00  0.00    -0.744 OA
ENDBRANCH  86  90
ENDBRANCH  60  83
ENDBRANCH  34  35
ENDBRANCH  26  29
ENDBRANCH  24  25
ENDBRANCH   1  24
TORSDOF 17
ENDMDL
