MODEL 1
REMARK VINA RESULT:     -11.6      0.000      0.000
REMARK SMILES CC[C@H](C)[C@@H](NC(=O)[C@@H]1CCCN1C(=O)C1CC1)C(=O)NCCCNC(=O)c1ccc(-c2c3nc(c(-c4cc(S(=O)(=O)[O-])ccc4F)c4ccc([nH]4)c(-c4cc(S(=O)(=O)[O-])ccc4F)c4nc(c(-c5cc(S(=O)(=O)[O-])ccc5F)c5ccc2[nH]5)C=C4)C=C3)cc1
REMARK SMILES IDX 22 1 21 2 19 3 20 4 5 6 3 7 4 8 2 9 1 10 6 11 7 12 8 14 9 15
REMARK SMILES IDX 10 16 13 17 11 18 12 19 14 20 15 21 16 22 17 23 18 24 23 25
REMARK SMILES IDX 24 26 25 27 26 28 27 30 28 31 29 32 90 33 30 34 89 35 31 36
REMARK SMILES IDX 32 37 33 38 83 39 34 40 88 41 82 42 84 43 35 44 87 45 81 46
REMARK SMILES IDX 80 47 36 49 68 50 48 51 67 52 49 53 52 54 66 55 85 56 50 57
REMARK SMILES IDX 51 58 65 60 86 61 53 62 37 63 38 64 46 65 39 66 45 67 47 68
REMARK SMILES IDX 44 69 40 70 41 71 42 72 43 73 69 74 70 75 78 76 71 77 77 78
REMARK SMILES IDX 79 79 76 80 72 81 73 82 74 83 75 84 54 85 55 86 63 87 56 88
REMARK SMILES IDX 62 89 64 90 61 91 57 92 58 93 59 94 60 95
REMARK H PARENT 21 5 6 13 25 29 84 48 52 59
REMARK Flexibility Score: inf
ROOT
ATOM      1  C   UNL A   1      35.512  22.748  26.209  1.00  0.00     0.117 C 
ENDROOT
BRANCH   1   2
ATOM      2  N   UNL A   1      34.555  22.450  27.261  1.00  0.00    -0.354 N 
ATOM      3  C   UNL A   1      33.234  22.747  27.346  1.00  0.00     0.242 C 
ATOM      4  O   UNL A   1      32.618  22.392  28.354  1.00  0.00    -0.273 OA
ATOM      5  H   UNL A   1      34.920  21.955  28.030  1.00  0.00     0.163 HD
BRANCH   3   6
ATOM      6  C   UNL A   1      32.537  23.533  26.232  1.00  0.00     0.174 C 
BRANCH   6   7
ATOM      7  C   UNL A   1      31.697  22.553  25.346  1.00  0.00     0.018 C 
ATOM      8  C   UNL A   1      31.498  23.096  23.924  1.00  0.00     0.010 C 
BRANCH   7   9
ATOM      9  C   UNL A   1      32.316  21.129  25.255  1.00  0.00     0.002 C 
ATOM     10  C   UNL A   1      32.827  20.816  23.853  1.00  0.00     0.004 C 
ENDBRANCH   7   9
ENDBRANCH   6   7
BRANCH   6  11
ATOM     11  N   UNL A   1      31.739  24.653  26.806  1.00  0.00    -0.342 N 
ATOM     12  C   UNL A   1      31.599  25.974  26.430  1.00  0.00     0.243 C 
ATOM     13  H   UNL A   1      31.214  24.404  27.602  1.00  0.00     0.164 HD
ATOM     14  O   UNL A   1      30.646  26.585  26.925  1.00  0.00    -0.273 OA
BRANCH  12  15
ATOM     15  C   UNL A   1      32.685  26.704  25.577  1.00  0.00     0.174 C 
ATOM     16  C   UNL A   1      33.101  27.901  26.474  1.00  0.00     0.037 C 
ATOM     17  N   UNL A   1      32.549  27.415  24.280  1.00  0.00    -0.330 N 
ATOM     18  C   UNL A   1      34.092  28.661  25.629  1.00  0.00     0.024 C 
ATOM     19  C   UNL A   1      33.486  28.545  24.246  1.00  0.00     0.120 C 
BRANCH  17  20
ATOM     20  C   UNL A   1      32.069  27.041  23.029  1.00  0.00     0.226 C 
ATOM     21  O   UNL A   1      32.801  26.443  22.238  1.00  0.00    -0.275 OA
BRANCH  20  22
ATOM     22  C   UNL A   1      30.710  27.348  22.511  1.00  0.00     0.079 C 
ATOM     23  C   UNL A   1      29.464  27.397  23.330  1.00  0.00     0.014 C 
ATOM     24  C   UNL A   1      30.017  28.661  22.726  1.00  0.00     0.014 C 
ENDBRANCH  20  22
ENDBRANCH  17  20
ENDBRANCH  12  15
ENDBRANCH   6  11
ENDBRANCH   3   6
ENDBRANCH   1   2
BRANCH   1  25
ATOM     25  C   UNL A   1      36.048  21.485  25.576  1.00  0.00     0.042 C 
BRANCH  25  26
ATOM     26  C   UNL A   1      37.432  21.676  24.980  1.00  0.00     0.118 C 
BRANCH  26  27
ATOM     27  N   UNL A   1      38.347  20.582  25.295  1.00  0.00    -0.352 N 
ATOM     28  C   UNL A   1      39.523  20.623  26.010  1.00  0.00     0.251 C 
ATOM     29  H   UNL A   1      38.088  19.696  24.950  1.00  0.00     0.163 HD
ATOM     30  O   UNL A   1      40.269  19.650  26.044  1.00  0.00    -0.269 OA
BRANCH  28  31
ATOM     31  C   UNL A   1      39.874  21.882  26.690  1.00  0.00     0.039 A 
ATOM     32  C   UNL A   1      40.810  21.866  27.723  1.00  0.00     0.014 A 
ATOM     33  C   UNL A   1      39.384  23.088  26.184  1.00  0.00     0.014 A 
ATOM     34  C   UNL A   1      41.347  23.074  28.171  1.00  0.00     0.010 A 
ATOM     35  C   UNL A   1      40.007  24.272  26.545  1.00  0.00     0.010 A 
ATOM     36  C   UNL A   1      41.001  24.280  27.536  1.00  0.00    -0.014 A 
BRANCH  36  37
ATOM     37  C   UNL A   1      41.662  25.568  27.870  1.00  0.00     0.031 A 
ATOM     38  C   UNL A   1      40.874  26.633  28.586  1.00  0.00     0.074 A 
ATOM     39  C   UNL A   1      42.909  25.824  27.422  1.00  0.00     0.049 A 
ATOM     40  N   UNL A   1      41.185  27.881  28.813  1.00  0.00    -0.248 NA
ATOM     41  C   UNL A   1      39.533  26.252  29.063  1.00  0.00     0.031 C 
ATOM     42  C   UNL A   1      43.749  24.893  26.663  1.00  0.00     0.029 A 
ATOM     43  N   UNL A   1      43.684  26.954  27.518  1.00  0.00    -0.354 N 
ATOM     44  C   UNL A   1      40.065  28.444  29.416  1.00  0.00     0.074 A 
ATOM     45  C   UNL A   1      39.050  27.416  29.471  1.00  0.00     0.031 C 
ATOM     46  C   UNL A   1      44.923  25.481  26.383  1.00  0.00     0.029 A 
ATOM     47  C   UNL A   1      44.904  26.850  26.887  1.00  0.00     0.049 A 
ATOM     48  H   UNL A   1      43.393  27.766  27.995  1.00  0.00     0.167 HD
ATOM     49  C   UNL A   1      39.908  29.701  29.897  1.00  0.00     0.034 A 
ATOM     50  C   UNL A   1      45.883  27.760  26.715  1.00  0.00     0.034 A 
ATOM     51  C   UNL A   1      40.954  30.689  29.894  1.00  0.00     0.049 A 
ATOM     52  C   UNL A   1      45.687  29.147  27.278  1.00  0.00     0.074 A 
ATOM     53  C   UNL A   1      40.953  31.943  30.475  1.00  0.00     0.029 A 
ATOM     54  N   UNL A   1      42.186  30.536  29.274  1.00  0.00    -0.354 N 
ATOM     55  N   UNL A   1      44.654  29.634  27.927  1.00  0.00    -0.248 NA
ATOM     56  C   UNL A   1      46.783  30.105  27.087  1.00  0.00     0.031 C 
ATOM     57  C   UNL A   1      42.158  32.575  30.152  1.00  0.00     0.029 A 
ATOM     58  C   UNL A   1      42.937  31.690  29.423  1.00  0.00     0.049 A 
ATOM     59  H   UNL A   1      42.483  29.727  28.798  1.00  0.00     0.167 HD
ATOM     60  C   UNL A   1      44.991  30.947  28.242  1.00  0.00     0.074 A 
ATOM     61  C   UNL A   1      46.326  31.170  27.729  1.00  0.00     0.031 C 
ATOM     62  C   UNL A   1      44.264  31.889  28.897  1.00  0.00     0.034 A 
BRANCH  49  63
ATOM     63  C   UNL A   1      38.559  30.077  30.454  1.00  0.00     0.023 A 
ATOM     64  C   UNL A   1      37.581  30.711  29.670  1.00  0.00     0.031 A 
ATOM     65  C   UNL A   1      38.251  29.799  31.798  1.00  0.00     0.131 A 
ATOM     66  C   UNL A   1      36.365  31.102  30.251  1.00  0.00     0.055 A 
ATOM     67  C   UNL A   1      37.011  30.124  32.350  1.00  0.00     0.041 A 
ATOM     68  F   UNL A   1      39.156  29.213  32.599  1.00  0.00    -0.206 F 
ATOM     69  C   UNL A   1      36.064  30.790  31.579  1.00  0.00     0.022 A 
BRANCH  66  70
ATOM     70  S   UNL A   1      35.231  32.126  29.275  1.00  0.00     0.124 S 
ATOM     71  O   UNL A   1      34.538  31.117  28.477  1.00  0.00    -0.237 OA
ATOM     72  O   UNL A   1      34.435  32.784  30.303  1.00  0.00    -0.237 OA
ATOM     73  O   UNL A   1      36.124  33.002  28.521  1.00  0.00    -0.744 OA
ENDBRANCH  66  70
ENDBRANCH  49  63
BRANCH  50  74
ATOM     74  C   UNL A   1      47.123  27.422  25.957  1.00  0.00     0.023 A 
ATOM     75  C   UNL A   1      47.261  27.775  24.604  1.00  0.00     0.031 A 
ATOM     76  C   UNL A   1      48.161  26.680  26.550  1.00  0.00     0.131 A 
ATOM     77  C   UNL A   1      48.378  27.337  23.874  1.00  0.00     0.055 A 
ATOM     78  C   UNL A   1      49.296  26.294  25.835  1.00  0.00     0.041 A 
ATOM     79  F   UNL A   1      48.085  26.318  27.840  1.00  0.00    -0.206 F 
ATOM     80  C   UNL A   1      49.401  26.608  24.483  1.00  0.00     0.022 A 
BRANCH  77  81
ATOM     81  S   UNL A   1      48.418  27.637  22.086  1.00  0.00     0.124 S 
ATOM     82  O   UNL A   1      49.560  28.534  21.960  1.00  0.00    -0.237 OA
ATOM     83  O   UNL A   1      48.599  26.288  21.560  1.00  0.00    -0.237 OA
ATOM     84  O   UNL A   1      47.115  28.240  21.814  1.00  0.00    -0.744 OA
ENDBRANCH  77  81
ENDBRANCH  50  74
BRANCH  62  85
ATOM     85  C   UNL A   1      44.919  33.225  29.120  1.00  0.00     0.023 A 
ATOM     86  C   UNL A   1      45.724  33.470  30.245  1.00  0.00     0.031 A 
ATOM     87  C   UNL A   1      44.747  34.262  28.185  1.00  0.00     0.131 A 
ATOM     88  C   UNL A   1      46.295  34.736  30.429  1.00  0.00     0.055 A 
ATOM     89  C   UNL A   1      45.362  35.503  28.347  1.00  0.00     0.041 A 
ATOM     90  F   UNL A   1      43.986  34.078  27.094  1.00  0.00    -0.206 F 
ATOM     91  C   UNL A   1      46.134  35.749  29.479  1.00  0.00     0.022 A 
BRANCH  88  92
ATOM     92  S   UNL A   1      47.210  35.062  31.961  1.00  0.00     0.124 S 
ATOM     93  O   UNL A   1      48.129  36.117  31.545  1.00  0.00    -0.237 OA
ATOM     94  O   UNL A   1      46.150  35.465  32.880  1.00  0.00    -0.237 OA
ATOM     95  O   UNL A   1      47.837  33.778  32.266  1.00  0.00    -0.744 OA
ENDBRANCH  88  92
ENDBRANCH  62  85
ENDBRANCH  36  37
ENDBRANCH  28  31
ENDBRANCH  26  27
ENDBRANCH  25  26
ENDBRANCH   1  25
TORSDOF 19
ENDMDL
MODEL 2
REMARK VINA RESULT:     -11.5      4.789     10.034
REMARK SMILES CC[C@H](C)[C@@H](NC(=O)[C@@H]1CCCN1C(=O)C1CC1)C(=O)NCCCNC(=O)c1ccc(-c2c3nc(c(-c4cc(S(=O)(=O)[O-])ccc4F)c4ccc([nH]4)c(-c4cc(S(=O)(=O)[O-])ccc4F)c4nc(c(-c5cc(S(=O)(=O)[O-])ccc5F)c5ccc2[nH]5)C=C4)C=C3)cc1
REMARK SMILES IDX 22 1 21 2 19 3 20 4 5 6 3 7 4 8 2 9 1 10 6 11 7 12 8 14 9 15
REMARK SMILES IDX 10 16 13 17 11 18 12 19 14 20 15 21 16 22 17 23 18 24 23 25
REMARK SMILES IDX 24 26 25 27 26 28 27 30 28 31 29 32 90 33 30 34 89 35 31 36
REMARK SMILES IDX 32 37 33 38 83 39 34 40 88 41 82 42 84 43 35 44 87 45 81 46
REMARK SMILES IDX 80 47 36 49 68 50 48 51 67 52 49 53 52 54 66 55 85 56 50 57
REMARK SMILES IDX 51 58 65 60 86 61 53 62 37 63 38 64 46 65 39 66 45 67 47 68
REMARK SMILES IDX 44 69 40 70 41 71 42 72 43 73 69 74 70 75 78 76 71 77 77 78
REMARK SMILES IDX 79 79 76 80 72 81 73 82 74 83 75 84 54 85 55 86 63 87 56 88
REMARK SMILES IDX 62 89 64 90 61 91 57 92 58 93 59 94 60 95
REMARK H PARENT 21 5 6 13 25 29 84 48 52 59
REMARK Flexibility Score: inf
ROOT
ATOM      1  C   UNL A   1      33.490  28.699  25.158  1.00  0.00     0.117 C 
ENDROOT
BRANCH   1   2
ATOM      2  N   UNL A   1      33.922  28.702  23.771  1.00  0.00    -0.354 N 
ATOM      3  C   UNL A   1      33.604  27.858  22.758  1.00  0.00     0.242 C 
ATOM      4  O   UNL A   1      34.106  28.058  21.650  1.00  0.00    -0.273 OA
ATOM      5  H   UNL A   1      34.539  29.429  23.527  1.00  0.00     0.163 HD
BRANCH   3   6
ATOM      6  C   UNL A   1      32.671  26.667  22.998  1.00  0.00     0.174 C 
BRANCH   6   7
ATOM      7  C   UNL A   1      31.197  27.082  22.669  1.00  0.00     0.018 C 
ATOM      8  C   UNL A   1      30.245  26.777  23.834  1.00  0.00     0.010 C 
BRANCH   7   9
ATOM      9  C   UNL A   1      31.056  28.584  22.289  1.00  0.00     0.002 C 
ATOM     10  C   UNL A   1      29.786  29.202  22.863  1.00  0.00     0.004 C 
ENDBRANCH   7   9
ENDBRANCH   6   7
BRANCH   6  11
ATOM     11  N   UNL A   1      33.141  25.477  22.235  1.00  0.00    -0.342 N 
ATOM     12  C   UNL A   1      33.772  24.315  22.635  1.00  0.00     0.243 C 
ATOM     13  H   UNL A   1      32.970  25.528  21.267  1.00  0.00     0.164 HD
ATOM     14  O   UNL A   1      33.776  23.387  21.819  1.00  0.00    -0.273 OA
BRANCH  12  15
ATOM     15  C   UNL A   1      34.590  24.240  23.962  1.00  0.00     0.174 C 
ATOM     16  C   UNL A   1      35.864  23.450  23.554  1.00  0.00     0.037 C 
ATOM     17  N   UNL A   1      34.273  23.539  25.233  1.00  0.00    -0.330 N 
ATOM     18  C   UNL A   1      36.628  23.301  24.846  1.00  0.00     0.024 C 
ATOM     19  C   UNL A   1      35.517  23.060  25.847  1.00  0.00     0.120 C 
BRANCH  17  20
ATOM     20  C   UNL A   1      33.191  23.586  26.107  1.00  0.00     0.226 C 
ATOM     21  O   UNL A   1      33.353  23.348  27.306  1.00  0.00    -0.275 OA
BRANCH  20  22
ATOM     22  C   UNL A   1      31.786  23.863  25.711  1.00  0.00     0.079 C 
ATOM     23  C   UNL A   1      31.058  23.201  24.589  1.00  0.00     0.014 C 
ATOM     24  C   UNL A   1      30.641  22.941  26.013  1.00  0.00     0.014 C 
ENDBRANCH  20  22
ENDBRANCH  17  20
ENDBRANCH  12  15
ENDBRANCH   6  11
ENDBRANCH   3   6
ENDBRANCH   1   2
BRANCH   1  25
ATOM     25  C   UNL A   1      32.499  29.807  25.432  1.00  0.00     0.042 C 
BRANCH  25  26
ATOM     26  C   UNL A   1      32.488  30.229  26.891  1.00  0.00     0.118 C 
BRANCH  26  27
ATOM     27  N   UNL A   1      32.333  31.670  27.068  1.00  0.00    -0.352 N 
ATOM     28  C   UNL A   1      33.226  32.572  27.601  1.00  0.00     0.251 C 
ATOM     29  H   UNL A   1      31.474  32.048  26.767  1.00  0.00     0.163 HD
ATOM     30  O   UNL A   1      32.884  33.725  27.840  1.00  0.00    -0.269 OA
BRANCH  28  31
ATOM     31  C   UNL A   1      34.586  32.097  27.913  1.00  0.00     0.039 A 
ATOM     32  C   UNL A   1      35.638  33.009  27.959  1.00  0.00     0.014 A 
ATOM     33  C   UNL A   1      34.766  30.771  28.312  1.00  0.00     0.014 A 
ATOM     34  C   UNL A   1      36.853  32.615  28.523  1.00  0.00     0.010 A 
ATOM     35  C   UNL A   1      35.928  30.422  28.980  1.00  0.00     0.010 A 
ATOM     36  C   UNL A   1      36.983  31.341  29.102  1.00  0.00    -0.014 A 
BRANCH  36  37
ATOM     37  C   UNL A   1      38.199  30.933  29.852  1.00  0.00     0.031 A 
ATOM     38  C   UNL A   1      39.143  29.937  29.233  1.00  0.00     0.074 A 
ATOM     39  C   UNL A   1      38.383  31.353  31.122  1.00  0.00     0.049 A 
ATOM     40  N   UNL A   1      40.154  29.308  29.771  1.00  0.00    -0.248 NA
ATOM     41  C   UNL A   1      38.880  29.560  27.833  1.00  0.00     0.031 C 
ATOM     42  C   UNL A   1      37.502  32.270  31.851  1.00  0.00     0.029 A 
ATOM     43  N   UNL A   1      39.360  31.045  32.037  1.00  0.00    -0.354 N 
ATOM     44  C   UNL A   1      40.616  28.433  28.795  1.00  0.00     0.074 A 
ATOM     45  C   UNL A   1      39.743  28.573  27.651  1.00  0.00     0.031 C 
ATOM     46  C   UNL A   1      37.989  32.464  33.087  1.00  0.00     0.029 A 
ATOM     47  C   UNL A   1      39.183  31.644  33.264  1.00  0.00     0.049 A 
ATOM     48  H   UNL A   1      40.118  30.451  31.833  1.00  0.00     0.167 HD
ATOM     49  C   UNL A   1      41.684  27.601  28.845  1.00  0.00     0.034 A 
ATOM     50  C   UNL A   1      39.887  31.526  34.408  1.00  0.00     0.034 A 
ATOM     51  C   UNL A   1      42.581  27.527  29.967  1.00  0.00     0.049 A 
ATOM     52  C   UNL A   1      41.084  30.606  34.427  1.00  0.00     0.074 A 
ATOM     53  C   UNL A   1      43.768  26.826  30.073  1.00  0.00     0.029 A 
ATOM     54  N   UNL A   1      42.387  28.171  31.181  1.00  0.00    -0.354 N 
ATOM     55  N   UNL A   1      41.559  29.853  33.462  1.00  0.00    -0.248 NA
ATOM     56  C   UNL A   1      41.838  30.520  35.685  1.00  0.00     0.031 C 
ATOM     57  C   UNL A   1      44.259  26.994  31.372  1.00  0.00     0.029 A 
ATOM     58  C   UNL A   1      43.410  27.850  32.056  1.00  0.00     0.049 A 
ATOM     59  H   UNL A   1      41.632  28.768  31.389  1.00  0.00     0.167 HD
ATOM     60  C   UNL A   1      42.682  29.224  33.992  1.00  0.00     0.074 A 
ATOM     61  C   UNL A   1      42.823  29.698  35.352  1.00  0.00     0.031 C 
ATOM     62  C   UNL A   1      43.525  28.333  33.410  1.00  0.00     0.034 A 
BRANCH  49  63
ATOM     63  C   UNL A   1      41.933  26.704  27.659  1.00  0.00     0.023 A 
ATOM     64  C   UNL A   1      41.487  25.372  27.627  1.00  0.00     0.031 A 
ATOM     65  C   UNL A   1      42.635  27.193  26.543  1.00  0.00     0.131 A 
ATOM     66  C   UNL A   1      41.801  24.556  26.531  1.00  0.00     0.055 A 
ATOM     67  C   UNL A   1      42.879  26.396  25.422  1.00  0.00     0.041 A 
ATOM     68  F   UNL A   1      43.103  28.451  26.527  1.00  0.00    -0.206 F 
ATOM     69  C   UNL A   1      42.471  25.067  25.416  1.00  0.00     0.022 A 
BRANCH  66  70
ATOM     70  S   UNL A   1      41.417  22.787  26.632  1.00  0.00     0.124 S 
ATOM     71  O   UNL A   1      39.956  22.802  26.618  1.00  0.00    -0.237 OA
ATOM     72  O   UNL A   1      42.062  22.255  25.438  1.00  0.00    -0.237 OA
ATOM     73  O   UNL A   1      42.018  22.379  27.900  1.00  0.00    -0.744 OA
ENDBRANCH  66  70
ENDBRANCH  49  63
BRANCH  50  74
ATOM     74  C   UNL A   1      39.480  32.262  35.641  1.00  0.00     0.023 A 
ATOM     75  C   UNL A   1      38.717  31.632  36.638  1.00  0.00     0.031 A 
ATOM     76  C   UNL A   1      39.788  33.624  35.813  1.00  0.00     0.131 A 
ATOM     77  C   UNL A   1      38.235  32.374  37.728  1.00  0.00     0.055 A 
ATOM     78  C   UNL A   1      39.354  34.344  36.928  1.00  0.00     0.041 A 
ATOM     79  F   UNL A   1      40.518  34.276  34.895  1.00  0.00    -0.206 F 
ATOM     80  C   UNL A   1      38.558  33.723  37.885  1.00  0.00     0.022 A 
BRANCH  77  81
ATOM     81  S   UNL A   1      37.084  31.576  38.881  1.00  0.00     0.124 S 
ATOM     82  O   UNL A   1      36.910  30.265  38.267  1.00  0.00    -0.237 OA
ATOM     83  O   UNL A   1      37.840  31.606  40.129  1.00  0.00    -0.237 OA
ATOM     84  O   UNL A   1      35.910  32.445  38.844  1.00  0.00    -0.744 OA
ENDBRANCH  77  81
ENDBRANCH  50  74
BRANCH  62  85
ATOM     85  C   UNL A   1      44.685  27.849  34.236  1.00  0.00     0.023 A 
ATOM     86  C   UNL A   1      44.601  26.675  35.003  1.00  0.00     0.031 A 
ATOM     87  C   UNL A   1      45.896  28.564  34.243  1.00  0.00     0.131 A 
ATOM     88  C   UNL A   1      45.696  26.271  35.778  1.00  0.00     0.055 A 
ATOM     89  C   UNL A   1      47.000  28.129  34.976  1.00  0.00     0.041 A 
ATOM     90  F   UNL A   1      46.026  29.693  33.527  1.00  0.00    -0.206 F 
ATOM     91  C   UNL A   1      46.901  26.980  35.756  1.00  0.00     0.022 A 
BRANCH  88  92
ATOM     92  S   UNL A   1      45.508  24.832  36.866  1.00  0.00     0.124 S 
ATOM     93  O   UNL A   1      46.656  24.015  36.488  1.00  0.00    -0.237 OA
ATOM     94  O   UNL A   1      45.564  25.433  38.195  1.00  0.00    -0.237 OA
ATOM     95  O   UNL A   1      44.206  24.286  36.490  1.00  0.00    -0.744 OA
ENDBRANCH  88  92
ENDBRANCH  62  85
ENDBRANCH  36  37
ENDBRANCH  28  31
ENDBRANCH  26  27
ENDBRANCH  25  26
ENDBRANCH   1  25
TORSDOF 19
ENDMDL
MODEL 3
REMARK VINA RESULT:     -11.4      1.706      3.374
REMARK SMILES CC[C@H](C)[C@@H](NC(=O)[C@@H]1CCCN1C(=O)C1CC1)C(=O)NCCCNC(=O)c1ccc(-c2c3nc(c(-c4cc(S(=O)(=O)[O-])ccc4F)c4ccc([nH]4)c(-c4cc(S(=O)(=O)[O-])ccc4F)c4nc(c(-c5cc(S(=O)(=O)[O-])ccc5F)c5ccc2[nH]5)C=C4)C=C3)cc1
REMARK SMILES IDX 22 1 21 2 19 3 20 4 5 6 3 7 4 8 2 9 1 10 6 11 7 12 8 14 9 15
REMARK SMILES IDX 10 16 13 17 11 18 12 19 14 20 15 21 16 22 17 23 18 24 23 25
REMARK SMILES IDX 24 26 25 27 26 28 27 30 28 31 29 32 90 33 30 34 89 35 31 36
REMARK SMILES IDX 32 37 33 38 83 39 34 40 88 41 82 42 84 43 35 44 87 45 81 46
REMARK SMILES IDX 80 47 36 49 68 50 48 51 67 52 49 53 52 54 66 55 85 56 50 57
REMARK SMILES IDX 51 58 65 60 86 61 53 62 37 63 38 64 46 65 39 66 45 67 47 68
REMARK SMILES IDX 44 69 40 70 41 71 42 72 43 73 69 74 70 75 78 76 71 77 77 78
REMARK SMILES IDX 79 79 76 80 72 81 73 82 74 83 75 84 54 85 55 86 63 87 56 88
REMARK SMILES IDX 62 89 64 90 61 91 57 92 58 93 59 94 60 95
REMARK H PARENT 21 5 6 13 25 29 84 48 52 59
REMARK Flexibility Score: inf
ROOT
ATOM      1  C   UNL A   1      35.001  24.058  24.093  1.00  0.00     0.117 C 
ENDROOT
BRANCH   1   2
ATOM      2  N   UNL A   1      33.746  24.125  23.362  1.00  0.00    -0.354 N 
ATOM      3  C   UNL A   1      32.527  24.563  23.765  1.00  0.00     0.242 C 
ATOM      4  O   UNL A   1      31.594  24.517  22.960  1.00  0.00    -0.273 OA
ATOM      5  H   UNL A   1      33.787  23.805  22.433  1.00  0.00     0.163 HD
BRANCH   3   6
ATOM      6  C   UNL A   1      32.311  25.069  25.194  1.00  0.00     0.174 C 
BRANCH   6   7
ATOM      7  C   UNL A   1      32.305  26.635  25.200  1.00  0.00     0.018 C 
ATOM      8  C   UNL A   1      30.893  27.201  25.000  1.00  0.00     0.010 C 
BRANCH   7   9
ATOM      9  C   UNL A   1      32.909  27.243  26.498  1.00  0.00     0.002 C 
ATOM     10  C   UNL A   1      31.854  27.951  27.341  1.00  0.00     0.004 C 
ENDBRANCH   7   9
ENDBRANCH   6   7
BRANCH   6  11
ATOM     11  N   UNL A   1      31.082  24.464  25.780  1.00  0.00    -0.342 N 
ATOM     12  C   UNL A   1      30.900  23.431  26.678  1.00  0.00     0.243 C 
ATOM     13  H   UNL A   1      30.245  24.878  25.468  1.00  0.00     0.164 HD
ATOM     14  O   UNL A   1      29.781  23.349  27.196  1.00  0.00    -0.273 OA
BRANCH  12  15
ATOM     15  C   UNL A   1      31.983  22.326  26.889  1.00  0.00     0.174 C 
ATOM     16  C   UNL A   1      33.108  23.070  27.660  1.00  0.00     0.037 C 
ATOM     17  N   UNL A   1      32.814  21.612  25.887  1.00  0.00    -0.330 N 
ATOM     18  C   UNL A   1      34.196  22.035  27.802  1.00  0.00     0.024 C 
ATOM     19  C   UNL A   1      34.131  21.321  26.468  1.00  0.00     0.120 C 
BRANCH  17  20
ATOM     20  C   UNL A   1      32.514  20.855  24.759  1.00  0.00     0.226 C 
ATOM     21  O   UNL A   1      32.167  21.410  23.715  1.00  0.00    -0.275 OA
BRANCH  20  22
ATOM     22  C   UNL A   1      32.524  19.369  24.702  1.00  0.00     0.079 C 
ATOM     23  C   UNL A   1      32.496  18.553  23.454  1.00  0.00     0.014 C 
ATOM     24  C   UNL A   1      33.730  18.562  24.318  1.00  0.00     0.014 C 
ENDBRANCH  20  22
ENDBRANCH  17  20
ENDBRANCH  12  15
ENDBRANCH   6  11
ENDBRANCH   3   6
ENDBRANCH   1   2
BRANCH   1  25
ATOM     25  C   UNL A   1      35.708  22.743  23.856  1.00  0.00     0.042 C 
BRANCH  25  26
ATOM     26  C   UNL A   1      37.178  22.798  24.237  1.00  0.00     0.118 C 
BRANCH  26  27
ATOM     27  N   UNL A   1      37.694  21.516  24.710  1.00  0.00    -0.352 N 
ATOM     28  C   UNL A   1      38.675  21.277  25.646  1.00  0.00     0.251 C 
ATOM     29  H   UNL A   1      37.287  20.716  24.305  1.00  0.00     0.163 HD
ATOM     30  O   UNL A   1      39.119  20.146  25.812  1.00  0.00    -0.269 OA
BRANCH  28  31
ATOM     31  C   UNL A   1      39.200  22.426  26.405  1.00  0.00     0.039 A 
ATOM     32  C   UNL A   1      40.287  22.244  27.258  1.00  0.00     0.014 A 
ATOM     33  C   UNL A   1      38.703  23.702  26.136  1.00  0.00     0.014 A 
ATOM     34  C   UNL A   1      40.956  23.366  27.753  1.00  0.00     0.010 A 
ATOM     35  C   UNL A   1      39.441  24.808  26.527  1.00  0.00     0.010 A 
ATOM     36  C   UNL A   1      40.581  24.654  27.334  1.00  0.00    -0.014 A 
BRANCH  36  37
ATOM     37  C   UNL A   1      41.357  25.865  27.705  1.00  0.00     0.031 A 
ATOM     38  C   UNL A   1      40.678  26.964  28.479  1.00  0.00     0.074 A 
ATOM     39  C   UNL A   1      42.615  26.030  27.243  1.00  0.00     0.049 A 
ATOM     40  N   UNL A   1      41.100  28.169  28.750  1.00  0.00    -0.248 NA
ATOM     41  C   UNL A   1      39.317  26.681  28.968  1.00  0.00     0.031 C 
ATOM     42  C   UNL A   1      43.357  25.062  26.431  1.00  0.00     0.029 A 
ATOM     43  N   UNL A   1      43.487  27.084  27.369  1.00  0.00    -0.354 N 
ATOM     44  C   UNL A   1      40.045  28.802  29.397  1.00  0.00     0.074 A 
ATOM     45  C   UNL A   1      38.945  27.864  29.432  1.00  0.00     0.031 C 
ATOM     46  C   UNL A   1      44.573  25.557  26.150  1.00  0.00     0.029 A 
ATOM     47  C   UNL A   1      44.682  26.900  26.710  1.00  0.00     0.049 A 
ATOM     48  H   UNL A   1      43.276  27.897  27.884  1.00  0.00     0.167 HD
ATOM     49  C   UNL A   1      40.007  30.046  29.931  1.00  0.00     0.034 A 
ATOM     50  C   UNL A   1      45.735  27.729  26.555  1.00  0.00     0.034 A 
ATOM     51  C   UNL A   1      41.135  30.939  29.947  1.00  0.00     0.049 A 
ATOM     52  C   UNL A   1      45.670  29.103  27.177  1.00  0.00     0.074 A 
ATOM     53  C   UNL A   1      41.253  32.163  30.578  1.00  0.00     0.029 A 
ATOM     54  N   UNL A   1      42.338  30.706  29.297  1.00  0.00    -0.354 N 
ATOM     55  N   UNL A   1      44.694  29.650  27.865  1.00  0.00    -0.248 NA
ATOM     56  C   UNL A   1      46.843  29.969  27.002  1.00  0.00     0.031 C 
ATOM     57  C   UNL A   1      42.503  32.701  30.257  1.00  0.00     0.029 A 
ATOM     58  C   UNL A   1      43.190  31.783  29.477  1.00  0.00     0.049 A 
ATOM     59  H   UNL A   1      42.555  29.894  28.783  1.00  0.00     0.167 HD
ATOM     60  C   UNL A   1      45.150  30.915  28.226  1.00  0.00     0.074 A 
ATOM     61  C   UNL A   1      46.491  31.042  27.695  1.00  0.00     0.031 C 
ATOM     62  C   UNL A   1      44.520  31.887  28.932  1.00  0.00     0.034 A 
BRANCH  49  63
ATOM     63  C   UNL A   1      38.705  30.515  30.531  1.00  0.00     0.023 A 
ATOM     64  C   UNL A   1      37.791  31.298  29.805  1.00  0.00     0.031 A 
ATOM     65  C   UNL A   1      38.377  30.174  31.855  1.00  0.00     0.131 A 
ATOM     66  C   UNL A   1      36.624  31.766  30.427  1.00  0.00     0.055 A 
ATOM     67  C   UNL A   1      37.179  30.581  32.444  1.00  0.00     0.041 A 
ATOM     68  F   UNL A   1      39.223  29.445  32.602  1.00  0.00    -0.206 F 
ATOM     69  C   UNL A   1      36.300  31.391  31.733  1.00  0.00     0.022 A 
BRANCH  66  70
ATOM     70  S   UNL A   1      35.594  32.965  29.540  1.00  0.00     0.124 S 
ATOM     71  O   UNL A   1      35.430  34.013  30.545  1.00  0.00    -0.237 OA
ATOM     72  O   UNL A   1      36.423  33.306  28.390  1.00  0.00    -0.237 OA
ATOM     73  O   UNL A   1      34.380  32.211  29.232  1.00  0.00    -0.744 OA
ENDBRANCH  66  70
ENDBRANCH  49  63
BRANCH  50  74
ATOM     74  C   UNL A   1      46.928  27.315  25.758  1.00  0.00     0.023 A 
ATOM     75  C   UNL A   1      47.105  27.764  24.440  1.00  0.00     0.031 A 
ATOM     76  C   UNL A   1      47.872  26.411  26.277  1.00  0.00     0.131 A 
ATOM     77  C   UNL A   1      48.164  27.264  23.664  1.00  0.00     0.055 A 
ATOM     78  C   UNL A   1      48.956  25.960  25.521  1.00  0.00     0.041 A 
ATOM     79  F   UNL A   1      47.755  25.952  27.533  1.00  0.00    -0.206 F 
ATOM     80  C   UNL A   1      49.097  26.373  24.200  1.00  0.00     0.022 A 
BRANCH  77  81
ATOM     81  S   UNL A   1      48.238  27.708  21.907  1.00  0.00     0.124 S 
ATOM     82  O   UNL A   1      48.418  26.405  21.278  1.00  0.00    -0.237 OA
ATOM     83  O   UNL A   1      46.942  28.346  21.704  1.00  0.00    -0.237 OA
ATOM     84  O   UNL A   1      49.391  28.603  21.832  1.00  0.00    -0.744 OA
ENDBRANCH  77  81
ENDBRANCH  50  74
BRANCH  62  85
ATOM     85  C   UNL A   1      45.293  33.151  29.196  1.00  0.00     0.023 A 
ATOM     86  C   UNL A   1      45.290  34.217  28.281  1.00  0.00     0.031 A 
ATOM     87  C   UNL A   1      46.029  33.296  30.385  1.00  0.00     0.131 A 
ATOM     88  C   UNL A   1      46.044  35.368  28.551  1.00  0.00     0.055 A 
ATOM     89  C   UNL A   1      46.734  34.464  30.673  1.00  0.00     0.041 A 
ATOM     90  F   UNL A   1      46.064  32.305  31.291  1.00  0.00    -0.206 F 
ATOM     91  C   UNL A   1      46.751  35.505  29.749  1.00  0.00     0.022 A 
BRANCH  88  92
ATOM     92  S   UNL A   1      46.134  36.665  27.287  1.00  0.00     0.124 S 
ATOM     93  O   UNL A   1      47.256  37.470  27.759  1.00  0.00    -0.237 OA
ATOM     94  O   UNL A   1      46.367  35.899  26.067  1.00  0.00    -0.237 OA
ATOM     95  O   UNL A   1      44.827  37.314  27.368  1.00  0.00    -0.744 OA
ENDBRANCH  88  92
ENDBRANCH  62  85
ENDBRANCH  36  37
ENDBRANCH  28  31
ENDBRANCH  26  27
ENDBRANCH  25  26
ENDBRANCH   1  25
TORSDOF 19
ENDMDL
