MODEL 1
REMARK VINA RESULT:     -12.6      0.000      0.000
REMARK SMILES O=C(C[C@@H](NS(=O)(=O)c1ccc(Cl)cc1)c1ccc(F)cc1)NCCCNC(=O)c1ccc(-c2c3nc(c(-c4cc(S(=O)(=O)[O-])ccc4F)c4ccc([nH]4)c(-c4cc(S(=O)(=O)[O-])ccc4F)c4nc(c(-c5cc(S(=O)(=O)[O-])ccc5F)c5ccc2[nH]5)C=C4)C=C3)cc1
REMARK SMILES IDX 24 1 23 2 1 3 2 4 3 6 4 7 5 8 6 10 7 11 8 12 9 13 10 14
REMARK SMILES IDX 15 15 11 16 14 17 12 18 13 19 16 20 17 21 22 22 18 23 21 24
REMARK SMILES IDX 19 25 20 26 25 27 26 28 27 29 28 30 29 32 30 33 31 34 92 35
REMARK SMILES IDX 32 36 91 37 33 38 34 39 35 40 85 41 36 42 90 43 84 44 86 45
REMARK SMILES IDX 37 46 89 47 83 48 82 49 38 51 70 52 50 53 69 54 51 55 54 56
REMARK SMILES IDX 68 57 87 58 52 59 53 60 67 62 88 63 55 64 39 65 40 66 48 67
REMARK SMILES IDX 41 68 47 69 49 70 46 71 42 72 43 73 44 74 45 75 71 76 72 77
REMARK SMILES IDX 80 78 73 79 79 80 81 81 78 82 74 83 75 84 76 85 77 86 56 87
REMARK SMILES IDX 57 88 65 89 58 90 64 91 66 92 63 93 59 94 60 95 61 96 62 97
REMARK H PARENT 23 5 5 9 27 31 86 50 54 61
REMARK Flexibility Score: inf
ROOT
ATOM      1  C   UNL A   1      31.851  30.291  26.392  1.00  0.00     0.117 C 
ENDROOT
BRANCH   1   2
ATOM      2  N   UNL A   1      32.265  30.048  25.021  1.00  0.00    -0.356 N 
ATOM      3  O   UNL A   1      33.493  28.174  25.537  1.00  0.00    -0.275 OA
ATOM      4  C   UNL A   1      33.053  28.960  24.706  1.00  0.00     0.221 C 
ATOM      5  H   UNL A   1      31.980  30.666  24.310  1.00  0.00     0.163 HD
BRANCH   4   6
ATOM      6  C   UNL A   1      33.294  28.770  23.229  1.00  0.00     0.124 C 
BRANCH   6   7
ATOM      7  C   UNL A   1      32.418  27.611  22.710  1.00  0.00     0.109 C 
BRANCH   7   8
ATOM      8  N   UNL A   1      32.701  26.407  23.532  1.00  0.00    -0.203 NA
ATOM      9  H   UNL A   1      31.872  26.234  24.100  1.00  0.00     0.142 HD
BRANCH   8  10
ATOM     10  S   UNL A   1      33.085  24.952  22.769  1.00  0.00     0.241 S 
ATOM     11  O   UNL A   1      31.989  24.029  22.978  1.00  0.00    -0.207 OA
ATOM     12  O   UNL A   1      33.525  25.327  21.445  1.00  0.00    -0.207 OA
BRANCH  10  13
ATOM     13  C   UNL A   1      34.509  24.331  23.623  1.00  0.00     0.082 A 
ATOM     14  C   UNL A   1      35.324  23.400  22.967  1.00  0.00     0.023 A 
ATOM     15  C   UNL A   1      34.778  24.710  24.940  1.00  0.00     0.023 A 
ATOM     16  C   UNL A   1      36.405  22.833  23.644  1.00  0.00     0.022 A 
ATOM     17  C   UNL A   1      35.849  24.124  25.619  1.00  0.00     0.022 A 
ATOM     18  C   UNL A   1      36.654  23.186  24.970  1.00  0.00     0.041 A 
ATOM     19  Cl  UNL A   1      37.959  22.452  25.817  1.00  0.00    -0.084 Cl
ENDBRANCH  10  13
ENDBRANCH   8  10
ENDBRANCH   7   8
BRANCH   7  20
ATOM     20  C   UNL A   1      30.935  27.967  22.748  1.00  0.00    -0.029 A 
ATOM     21  C   UNL A   1      30.436  29.174  22.223  1.00  0.00     0.008 A 
ATOM     22  C   UNL A   1      30.035  27.095  23.390  1.00  0.00     0.008 A 
ATOM     23  C   UNL A   1      29.081  29.493  22.334  1.00  0.00     0.039 A 
ATOM     24  C   UNL A   1      28.685  27.428  23.520  1.00  0.00     0.039 A 
ATOM     25  C   UNL A   1      28.221  28.622  22.989  1.00  0.00     0.123 A 
ATOM     26  F   UNL A   1      26.926  28.943  23.113  1.00  0.00    -0.207 F 
ENDBRANCH   7  20
ENDBRANCH   6   7
ENDBRANCH   4   6
ENDBRANCH   1   2
BRANCH   1  27
ATOM     27  C   UNL A   1      31.598  31.763  26.693  1.00  0.00     0.042 C 
BRANCH  27  28
ATOM     28  C   UNL A   1      32.801  32.525  27.243  1.00  0.00     0.118 C 
BRANCH  28  29
ATOM     29  N   UNL A   1      32.502  33.906  27.585  1.00  0.00    -0.352 N 
ATOM     30  C   UNL A   1      33.073  34.715  28.540  1.00  0.00     0.251 C 
ATOM     31  H   UNL A   1      31.785  34.323  27.055  1.00  0.00     0.163 HD
ATOM     32  O   UNL A   1      32.575  35.815  28.771  1.00  0.00    -0.269 OA
BRANCH  30  33
ATOM     33  C   UNL A   1      34.251  34.259  29.314  1.00  0.00     0.039 A 
ATOM     34  C   UNL A   1      34.039  33.566  30.510  1.00  0.00     0.014 A 
ATOM     35  C   UNL A   1      35.555  34.518  28.882  1.00  0.00     0.014 A 
ATOM     36  C   UNL A   1      35.128  33.066  31.229  1.00  0.00     0.010 A 
ATOM     37  C   UNL A   1      36.638  33.970  29.570  1.00  0.00     0.010 A 
ATOM     38  C   UNL A   1      36.435  33.230  30.744  1.00  0.00    -0.014 A 
BRANCH  38  39
ATOM     39  C   UNL A   1      37.596  32.617  31.441  1.00  0.00     0.031 A 
ATOM     40  C   UNL A   1      38.343  31.473  30.815  1.00  0.00     0.074 A 
ATOM     41  C   UNL A   1      37.946  33.058  32.666  1.00  0.00     0.049 A 
ATOM     42  N   UNL A   1      39.309  30.745  31.313  1.00  0.00    -0.248 NA
ATOM     43  C   UNL A   1      37.935  31.082  29.457  1.00  0.00     0.031 C 
ATOM     44  C   UNL A   1      37.289  34.148  33.393  1.00  0.00     0.029 A 
ATOM     45  N   UNL A   1      38.938  32.642  33.520  1.00  0.00    -0.354 N 
ATOM     46  C   UNL A   1      39.615  29.800  30.341  1.00  0.00     0.074 A 
ATOM     47  C   UNL A   1      38.705  30.025  29.237  1.00  0.00     0.031 C 
ATOM     48  C   UNL A   1      37.914  34.331  34.567  1.00  0.00     0.029 A 
ATOM     49  C   UNL A   1      38.984  33.347  34.699  1.00  0.00     0.049 A 
ATOM     50  H   UNL A   1      39.559  31.908  33.308  1.00  0.00     0.167 HD
ATOM     51  C   UNL A   1      40.575  28.843  30.360  1.00  0.00     0.034 A 
ATOM     52  C   UNL A   1      39.787  33.213  35.772  1.00  0.00     0.034 A 
ATOM     53  C   UNL A   1      41.496  28.642  31.450  1.00  0.00     0.049 A 
ATOM     54  C   UNL A   1      40.838  32.136  35.777  1.00  0.00     0.074 A 
ATOM     55  C   UNL A   1      42.531  27.728  31.545  1.00  0.00     0.029 A 
ATOM     56  N   UNL A   1      41.501  29.369  32.632  1.00  0.00    -0.354 N 
ATOM     57  N   UNL A   1      41.101  31.242  34.855  1.00  0.00    -0.248 NA
ATOM     58  C   UNL A   1      41.695  32.048  36.967  1.00  0.00     0.031 C 
ATOM     59  C   UNL A   1      43.131  27.870  32.801  1.00  0.00     0.029 A 
ATOM     60  C   UNL A   1      42.506  28.911  33.468  1.00  0.00     0.049 A 
ATOM     61  H   UNL A   1      40.880  30.103  32.846  1.00  0.00     0.167 HD
ATOM     62  C   UNL A   1      42.165  30.495  35.346  1.00  0.00     0.074 A 
ATOM     63  C   UNL A   1      42.498  31.043  36.645  1.00  0.00     0.031 C 
ATOM     64  C   UNL A   1      42.814  29.454  34.768  1.00  0.00     0.034 A 
BRANCH  51  65
ATOM     65  C   UNL A   1      40.664  27.926  29.171  1.00  0.00     0.023 A 
ATOM     66  C   UNL A   1      41.593  28.146  28.140  1.00  0.00     0.031 A 
ATOM     67  C   UNL A   1      39.811  26.813  29.069  1.00  0.00     0.131 A 
ATOM     68  C   UNL A   1      41.612  27.295  27.027  1.00  0.00     0.055 A 
ATOM     69  C   UNL A   1      39.879  25.932  27.987  1.00  0.00     0.041 A 
ATOM     70  F   UNL A   1      38.893  26.567  30.018  1.00  0.00    -0.206 F 
ATOM     71  C   UNL A   1      40.778  26.176  26.954  1.00  0.00     0.022 A 
BRANCH  68  72
ATOM     72  S   UNL A   1      42.689  27.715  25.629  1.00  0.00     0.124 S 
ATOM     73  O   UNL A   1      41.981  28.852  25.047  1.00  0.00    -0.237 OA
ATOM     74  O   UNL A   1      43.957  28.019  26.284  1.00  0.00    -0.237 OA
ATOM     75  O   UNL A   1      42.684  26.500  24.817  1.00  0.00    -0.744 OA
ENDBRANCH  68  72
ENDBRANCH  51  65
BRANCH  52  76
ATOM     76  C   UNL A   1      39.620  34.116  36.942  1.00  0.00     0.023 A 
ATOM     77  C   UNL A   1      39.023  33.657  38.126  1.00  0.00     0.031 A 
ATOM     78  C   UNL A   1      40.059  35.450  36.890  1.00  0.00     0.131 A 
ATOM     79  C   UNL A   1      38.863  34.534  39.210  1.00  0.00     0.055 A 
ATOM     80  C   UNL A   1      39.926  36.309  37.982  1.00  0.00     0.041 A 
ATOM     81  F   UNL A   1      40.646  35.928  35.782  1.00  0.00    -0.206 F 
ATOM     82  C   UNL A   1      39.321  35.853  39.150  1.00  0.00     0.022 A 
BRANCH  79  83
ATOM     83  S   UNL A   1      38.033  33.929  40.704  1.00  0.00     0.124 S 
ATOM     84  O   UNL A   1      36.976  33.099  40.140  1.00  0.00    -0.237 OA
ATOM     85  O   UNL A   1      39.111  33.221  41.388  1.00  0.00    -0.237 OA
ATOM     86  O   UNL A   1      37.584  35.155  41.361  1.00  0.00    -0.744 OA
ENDBRANCH  79  83
ENDBRANCH  52  76
BRANCH  64  87
ATOM     87  C   UNL A   1      43.967  28.855  35.526  1.00  0.00     0.023 A 
ATOM     88  C   UNL A   1      43.784  27.778  36.408  1.00  0.00     0.031 A 
ATOM     89  C   UNL A   1      45.268  29.350  35.333  1.00  0.00     0.131 A 
ATOM     90  C   UNL A   1      44.889  27.244  37.089  1.00  0.00     0.055 A 
ATOM     91  C   UNL A   1      46.367  28.791  35.983  1.00  0.00     0.041 A 
ATOM     92  F   UNL A   1      45.490  30.378  34.497  1.00  0.00    -0.206 F 
ATOM     93  C   UNL A   1      46.180  27.734  36.871  1.00  0.00     0.022 A 
BRANCH  90  94
ATOM     94  S   UNL A   1      44.617  25.907  38.284  1.00  0.00     0.124 S 
ATOM     95  O   UNL A   1      44.316  26.649  39.504  1.00  0.00    -0.237 OA
ATOM     96  O   UNL A   1      43.501  25.174  37.692  1.00  0.00    -0.237 OA
ATOM     97  O   UNL A   1      45.891  25.190  38.291  1.00  0.00    -0.744 OA
ENDBRANCH  90  94
ENDBRANCH  64  87
ENDBRANCH  38  39
ENDBRANCH  30  33
ENDBRANCH  28  29
ENDBRANCH  27  28
ENDBRANCH   1  27
TORSDOF 18
ENDMDL
MODEL 2
REMARK VINA RESULT:     -12.4      5.849     10.749
REMARK SMILES O=C(C[C@@H](NS(=O)(=O)c1ccc(Cl)cc1)c1ccc(F)cc1)NCCCNC(=O)c1ccc(-c2c3nc(c(-c4cc(S(=O)(=O)[O-])ccc4F)c4ccc([nH]4)c(-c4cc(S(=O)(=O)[O-])ccc4F)c4nc(c(-c5cc(S(=O)(=O)[O-])ccc5F)c5ccc2[nH]5)C=C4)C=C3)cc1
REMARK SMILES IDX 24 1 23 2 1 3 2 4 3 6 4 7 5 8 6 10 7 11 8 12 9 13 10 14
REMARK SMILES IDX 15 15 11 16 14 17 12 18 13 19 16 20 17 21 22 22 18 23 21 24
REMARK SMILES IDX 19 25 20 26 25 27 26 28 27 29 28 30 29 32 30 33 31 34 92 35
REMARK SMILES IDX 32 36 91 37 33 38 34 39 35 40 85 41 36 42 90 43 84 44 86 45
REMARK SMILES IDX 37 46 89 47 83 48 82 49 38 51 70 52 50 53 69 54 51 55 54 56
REMARK SMILES IDX 68 57 87 58 52 59 53 60 67 62 88 63 55 64 39 65 40 66 48 67
REMARK SMILES IDX 41 68 47 69 49 70 46 71 42 72 43 73 44 74 45 75 71 76 72 77
REMARK SMILES IDX 80 78 73 79 79 80 81 81 78 82 74 83 75 84 76 85 77 86 56 87
REMARK SMILES IDX 57 88 65 89 58 90 64 91 66 92 63 93 59 94 60 95 61 96 62 97
REMARK H PARENT 23 5 5 9 27 31 86 50 54 61
REMARK Flexibility Score: inf
ROOT
ATOM      1  C   UNL A   1      36.241  22.940  23.362  1.00  0.00     0.117 C 
ENDROOT
BRANCH   1   2
ATOM      2  N   UNL A   1      35.379  24.100  23.505  1.00  0.00    -0.356 N 
ATOM      3  O   UNL A   1      33.787  23.319  22.041  1.00  0.00    -0.275 OA
ATOM      4  C   UNL A   1      34.179  24.173  22.829  1.00  0.00     0.221 C 
ATOM      5  H   UNL A   1      35.654  24.842  24.091  1.00  0.00     0.163 HD
BRANCH   4   6
ATOM      6  C   UNL A   1      33.337  25.376  23.175  1.00  0.00     0.124 C 
BRANCH   6   7
ATOM      7  C   UNL A   1      32.550  25.097  24.472  1.00  0.00     0.109 C 
BRANCH   7   8
ATOM      8  N   UNL A   1      33.087  23.856  25.087  1.00  0.00    -0.203 NA
ATOM      9  H   UNL A   1      33.758  24.143  25.798  1.00  0.00     0.142 HD
BRANCH   8  10
ATOM     10  S   UNL A   1      32.028  22.767  25.821  1.00  0.00     0.241 S 
ATOM     11  O   UNL A   1      32.410  22.633  27.212  1.00  0.00    -0.207 OA
ATOM     12  O   UNL A   1      30.708  23.206  25.432  1.00  0.00    -0.207 OA
BRANCH  10  13
ATOM     13  C   UNL A   1      32.308  21.215  25.013  1.00  0.00     0.082 A 
ATOM     14  C   UNL A   1      32.857  20.166  25.759  1.00  0.00     0.023 A 
ATOM     15  C   UNL A   1      32.048  21.058  23.649  1.00  0.00     0.023 A 
ATOM     16  C   UNL A   1      33.164  18.959  25.130  1.00  0.00     0.022 A 
ATOM     17  C   UNL A   1      32.375  19.855  23.020  1.00  0.00     0.022 A 
ATOM     18  C   UNL A   1      32.936  18.813  23.762  1.00  0.00     0.041 A 
ATOM     19  Cl  UNL A   1      33.357  17.341  22.979  1.00  0.00    -0.084 Cl
ENDBRANCH  10  13
ENDBRANCH   8  10
ENDBRANCH   7   8
BRANCH   7  20
ATOM     20  C   UNL A   1      32.631  26.270  25.443  1.00  0.00    -0.029 A 
ATOM     21  C   UNL A   1      31.513  26.727  26.167  1.00  0.00     0.008 A 
ATOM     22  C   UNL A   1      33.845  26.971  25.577  1.00  0.00     0.008 A 
ATOM     23  C   UNL A   1      31.610  27.845  26.998  1.00  0.00     0.039 A 
ATOM     24  C   UNL A   1      33.933  28.102  26.390  1.00  0.00     0.039 A 
ATOM     25  C   UNL A   1      32.815  28.527  27.095  1.00  0.00     0.123 A 
ATOM     26  F   UNL A   1      32.899  29.612  27.876  1.00  0.00    -0.207 F 
ENDBRANCH   7  20
ENDBRANCH   6   7
ENDBRANCH   4   6
ENDBRANCH   1   2
BRANCH   1  27
ATOM     27  C   UNL A   1      35.876  21.797  24.300  1.00  0.00     0.042 C 
BRANCH  27  28
ATOM     28  C   UNL A   1      36.620  21.791  25.632  1.00  0.00     0.118 C 
BRANCH  28  29
ATOM     29  N   UNL A   1      37.641  20.761  25.719  1.00  0.00    -0.352 N 
ATOM     30  C   UNL A   1      38.976  20.873  26.032  1.00  0.00     0.251 C 
ATOM     31  H   UNL A   1      37.331  19.847  25.525  1.00  0.00     0.163 HD
ATOM     32  O   UNL A   1      39.707  19.893  25.909  1.00  0.00    -0.269 OA
BRANCH  30  33
ATOM     33  C   UNL A   1      39.543  22.168  26.477  1.00  0.00     0.039 A 
ATOM     34  C   UNL A   1      40.534  22.161  27.463  1.00  0.00     0.014 A 
ATOM     35  C   UNL A   1      39.098  23.382  25.945  1.00  0.00     0.014 A 
ATOM     36  C   UNL A   1      41.135  23.360  27.857  1.00  0.00     0.010 A 
ATOM     37  C   UNL A   1      39.737  24.571  26.298  1.00  0.00     0.010 A 
ATOM     38  C   UNL A   1      40.768  24.571  27.249  1.00  0.00    -0.014 A 
BRANCH  38  39
ATOM     39  C   UNL A   1      41.467  25.841  27.581  1.00  0.00     0.031 A 
ATOM     40  C   UNL A   1      40.782  26.894  28.407  1.00  0.00     0.074 A 
ATOM     41  C   UNL A   1      42.703  26.069  27.092  1.00  0.00     0.049 A 
ATOM     42  N   UNL A   1      41.187  28.100  28.708  1.00  0.00    -0.248 NA
ATOM     43  C   UNL A   1      39.457  26.551  28.945  1.00  0.00     0.031 C 
ATOM     44  C   UNL A   1      43.469  25.136  26.261  1.00  0.00     0.029 A 
ATOM     45  N   UNL A   1      43.531  27.156  27.219  1.00  0.00    -0.354 N 
ATOM     46  C   UNL A   1      40.164  28.669  29.457  1.00  0.00     0.074 A 
ATOM     47  C   UNL A   1      39.103  27.687  29.532  1.00  0.00     0.031 C 
ATOM     48  C   UNL A   1      44.663  25.680  25.978  1.00  0.00     0.029 A 
ATOM     49  C   UNL A   1      44.733  27.014  26.567  1.00  0.00     0.049 A 
ATOM     50  H   UNL A   1      43.288  27.962  27.729  1.00  0.00     0.167 HD
ATOM     51  C   UNL A   1      40.119  29.892  30.041  1.00  0.00     0.034 A 
ATOM     52  C   UNL A   1      45.771  27.864  26.444  1.00  0.00     0.034 A 
ATOM     53  C   UNL A   1      41.190  30.855  29.987  1.00  0.00     0.049 A 
ATOM     54  C   UNL A   1      45.695  29.220  27.090  1.00  0.00     0.074 A 
ATOM     55  C   UNL A   1      41.256  32.103  30.582  1.00  0.00     0.029 A 
ATOM     56  N   UNL A   1      42.385  30.678  29.305  1.00  0.00    -0.354 N 
ATOM     57  N   UNL A   1      44.712  29.746  27.780  1.00  0.00    -0.248 NA
ATOM     58  C   UNL A   1      46.864  30.097  26.937  1.00  0.00     0.031 C 
ATOM     59  C   UNL A   1      42.470  32.699  30.223  1.00  0.00     0.029 A 
ATOM     60  C   UNL A   1      43.185  31.800  29.448  1.00  0.00     0.049 A 
ATOM     61  H   UNL A   1      42.629  29.873  28.794  1.00  0.00     0.167 HD
ATOM     62  C   UNL A   1      45.150  31.010  28.158  1.00  0.00     0.074 A 
ATOM     63  C   UNL A   1      46.487  31.168  27.621  1.00  0.00     0.031 C 
ATOM     64  C   UNL A   1      44.506  31.952  28.891  1.00  0.00     0.034 A 
BRANCH  51  65
ATOM     65  C   UNL A   1      38.858  30.265  30.774  1.00  0.00     0.023 A 
ATOM     66  C   UNL A   1      37.818  30.963  30.139  1.00  0.00     0.031 A 
ATOM     67  C   UNL A   1      38.694  29.913  32.125  1.00  0.00     0.131 A 
ATOM     68  C   UNL A   1      36.680  31.333  30.870  1.00  0.00     0.055 A 
ATOM     69  C   UNL A   1      37.531  30.229  32.830  1.00  0.00     0.041 A 
ATOM     70  F   UNL A   1      39.665  29.261  32.784  1.00  0.00    -0.206 F 
ATOM     71  C   UNL A   1      36.519  30.951  32.204  1.00  0.00     0.022 A 
BRANCH  68  72
ATOM     72  S   UNL A   1      35.443  32.395  30.075  1.00  0.00     0.124 S 
ATOM     73  O   UNL A   1      35.105  31.612  28.890  1.00  0.00    -0.237 OA
ATOM     74  O   UNL A   1      34.404  32.491  31.095  1.00  0.00    -0.237 OA
ATOM     75  O   UNL A   1      36.174  33.633  29.813  1.00  0.00    -0.744 OA
ENDBRANCH  68  72
ENDBRANCH  51  65
BRANCH  52  76
ATOM     76  C   UNL A   1      46.971  27.461  25.663  1.00  0.00     0.023 A 
ATOM     77  C   UNL A   1      47.093  27.796  24.306  1.00  0.00     0.031 A 
ATOM     78  C   UNL A   1      48.014  26.738  26.268  1.00  0.00     0.131 A 
ATOM     79  C   UNL A   1      48.229  27.390  23.589  1.00  0.00     0.055 A 
ATOM     80  C   UNL A   1      49.156  26.364  25.558  1.00  0.00     0.041 A 
ATOM     81  F   UNL A   1      47.945  26.406  27.567  1.00  0.00    -0.206 F 
ATOM     82  C   UNL A   1      49.266  26.687  24.208  1.00  0.00     0.022 A 
BRANCH  79  83
ATOM     83  S   UNL A   1      48.329  27.785  21.822  1.00  0.00     0.124 S 
ATOM     84  O   UNL A   1      49.426  28.745  21.795  1.00  0.00    -0.237 OA
ATOM     85  O   UNL A   1      48.603  26.479  21.232  1.00  0.00    -0.237 OA
ATOM     86  O   UNL A   1      47.008  28.334  21.523  1.00  0.00    -0.744 OA
ENDBRANCH  79  83
ENDBRANCH  52  76
BRANCH  64  87
ATOM     87  C   UNL A   1      45.249  33.228  29.179  1.00  0.00     0.023 A 
ATOM     88  C   UNL A   1      45.259  34.292  28.263  1.00  0.00     0.031 A 
ATOM     89  C   UNL A   1      45.925  33.388  30.400  1.00  0.00     0.131 A 
ATOM     90  C   UNL A   1      45.958  35.469  28.574  1.00  0.00     0.055 A 
ATOM     91  C   UNL A   1      46.586  34.573  30.721  1.00  0.00     0.041 A 
ATOM     92  F   UNL A   1      45.941  32.397  31.307  1.00  0.00    -0.206 F 
ATOM     93  C   UNL A   1      46.608  35.621  29.802  1.00  0.00     0.022 A 
BRANCH  90  94
ATOM     94  S   UNL A   1      46.024  36.798  27.343  1.00  0.00     0.124 S 
ATOM     95  O   UNL A   1      44.734  37.454  27.538  1.00  0.00    -0.237 OA
ATOM     96  O   UNL A   1      47.197  37.561  27.761  1.00  0.00    -0.237 OA
ATOM     97  O   UNL A   1      46.171  36.084  26.076  1.00  0.00    -0.744 OA
ENDBRANCH  90  94
ENDBRANCH  64  87
ENDBRANCH  38  39
ENDBRANCH  30  33
ENDBRANCH  28  29
ENDBRANCH  27  28
ENDBRANCH   1  27
TORSDOF 18
ENDMDL
MODEL 3
REMARK VINA RESULT:     -12.3      2.807      3.964
REMARK SMILES O=C(C[C@@H](NS(=O)(=O)c1ccc(Cl)cc1)c1ccc(F)cc1)NCCCNC(=O)c1ccc(-c2c3nc(c(-c4cc(S(=O)(=O)[O-])ccc4F)c4ccc([nH]4)c(-c4cc(S(=O)(=O)[O-])ccc4F)c4nc(c(-c5cc(S(=O)(=O)[O-])ccc5F)c5ccc2[nH]5)C=C4)C=C3)cc1
REMARK SMILES IDX 24 1 23 2 1 3 2 4 3 6 4 7 5 8 6 10 7 11 8 12 9 13 10 14
REMARK SMILES IDX 15 15 11 16 14 17 12 18 13 19 16 20 17 21 22 22 18 23 21 24
REMARK SMILES IDX 19 25 20 26 25 27 26 28 27 29 28 30 29 32 30 33 31 34 92 35
REMARK SMILES IDX 32 36 91 37 33 38 34 39 35 40 85 41 36 42 90 43 84 44 86 45
REMARK SMILES IDX 37 46 89 47 83 48 82 49 38 51 70 52 50 53 69 54 51 55 54 56
REMARK SMILES IDX 68 57 87 58 52 59 53 60 67 62 88 63 55 64 39 65 40 66 48 67
REMARK SMILES IDX 41 68 47 69 49 70 46 71 42 72 43 73 44 74 45 75 71 76 72 77
REMARK SMILES IDX 80 78 73 79 79 80 81 81 78 82 74 83 75 84 76 85 77 86 56 87
REMARK SMILES IDX 57 88 65 89 58 90 64 91 66 92 63 93 59 94 60 95 61 96 62 97
REMARK H PARENT 23 5 5 9 27 31 86 50 54 61
REMARK Flexibility Score: inf
ROOT
ATOM      1  C   UNL A   1      32.566  28.867  22.540  1.00  0.00     0.117 C 
ENDROOT
BRANCH   1   2
ATOM      2  N   UNL A   1      32.026  27.528  22.696  1.00  0.00    -0.356 N 
ATOM      3  O   UNL A   1      30.504  28.137  24.308  1.00  0.00    -0.275 OA
ATOM      4  C   UNL A   1      30.992  27.284  23.576  1.00  0.00     0.221 C 
ATOM      5  H   UNL A   1      32.401  26.788  22.167  1.00  0.00     0.163 HD
BRANCH   4   6
ATOM      6  C   UNL A   1      30.455  25.874  23.535  1.00  0.00     0.124 C 
BRANCH   6   7
ATOM      7  C   UNL A   1      31.212  25.006  24.560  1.00  0.00     0.109 C 
BRANCH   7   8
ATOM      8  N   UNL A   1      30.348  23.853  24.925  1.00  0.00    -0.203 NA
ATOM      9  H   UNL A   1      30.409  23.183  24.160  1.00  0.00     0.142 HD
BRANCH   8  10
ATOM     10  S   UNL A   1      30.657  23.004  26.350  1.00  0.00     0.241 S 
ATOM     11  O   UNL A   1      31.017  23.960  27.377  1.00  0.00    -0.207 OA
ATOM     12  O   UNL A   1      29.534  22.107  26.504  1.00  0.00    -0.207 OA
BRANCH  10  13
ATOM     13  C   UNL A   1      32.072  21.995  26.004  1.00  0.00     0.082 A 
ATOM     14  C   UNL A   1      33.223  22.174  26.780  1.00  0.00     0.023 A 
ATOM     15  C   UNL A   1      32.064  21.088  24.941  1.00  0.00     0.023 A 
ATOM     16  C   UNL A   1      34.378  21.452  26.478  1.00  0.00     0.022 A 
ATOM     17  C   UNL A   1      33.229  20.383  24.631  1.00  0.00     0.022 A 
ATOM     18  C   UNL A   1      34.381  20.571  25.397  1.00  0.00     0.041 A 
ATOM     19  Cl  UNL A   1      35.819  19.716  24.998  1.00  0.00    -0.084 Cl
ENDBRANCH  10  13
ENDBRANCH   8  10
ENDBRANCH   7   8
BRANCH   7  20
ATOM     20  C   UNL A   1      32.556  24.533  24.013  1.00  0.00    -0.029 A 
ATOM     21  C   UNL A   1      32.661  23.741  22.854  1.00  0.00     0.008 A 
ATOM     22  C   UNL A   1      33.732  24.837  24.724  1.00  0.00     0.008 A 
ATOM     23  C   UNL A   1      33.904  23.274  22.421  1.00  0.00     0.039 A 
ATOM     24  C   UNL A   1      34.970  24.349  24.302  1.00  0.00     0.039 A 
ATOM     25  C   UNL A   1      35.044  23.574  23.153  1.00  0.00     0.123 A 
ATOM     26  F   UNL A   1      36.231  23.105  22.747  1.00  0.00    -0.207 F 
ENDBRANCH   7  20
ENDBRANCH   6   7
ENDBRANCH   4   6
ENDBRANCH   1   2
BRANCH   1  27
ATOM     27  C   UNL A   1      33.894  29.069  23.260  1.00  0.00     0.042 C 
BRANCH  27  28
ATOM     28  C   UNL A   1      33.811  29.052  24.784  1.00  0.00     0.118 C 
BRANCH  28  29
ATOM     29  N   UNL A   1      32.935  30.077  25.326  1.00  0.00    -0.352 N 
ATOM     30  C   UNL A   1      33.011  30.753  26.522  1.00  0.00     0.251 C 
ATOM     31  H   UNL A   1      32.174  30.324  24.752  1.00  0.00     0.163 HD
ATOM     32  O   UNL A   1      32.083  31.484  26.859  1.00  0.00    -0.269 OA
BRANCH  30  33
ATOM     33  C   UNL A   1      34.177  30.577  27.418  1.00  0.00     0.039 A 
ATOM     34  C   UNL A   1      34.334  29.356  28.080  1.00  0.00     0.014 A 
ATOM     35  C   UNL A   1      35.105  31.603  27.622  1.00  0.00     0.014 A 
ATOM     36  C   UNL A   1      35.458  29.135  28.881  1.00  0.00     0.010 A 
ATOM     37  C   UNL A   1      36.254  31.362  28.375  1.00  0.00     0.010 A 
ATOM     38  C   UNL A   1      36.448  30.123  29.003  1.00  0.00    -0.014 A 
BRANCH  38  39
ATOM     39  C   UNL A   1      37.698  29.869  29.766  1.00  0.00     0.031 A 
ATOM     40  C   UNL A   1      38.767  28.974  29.203  1.00  0.00     0.074 A 
ATOM     41  C   UNL A   1      37.849  30.404  30.995  1.00  0.00     0.049 A 
ATOM     42  N   UNL A   1      39.871  28.553  29.762  1.00  0.00    -0.248 NA
ATOM     43  C   UNL A   1      38.553  28.470  27.838  1.00  0.00     0.031 C 
ATOM     44  C   UNL A   1      36.877  31.273  31.664  1.00  0.00     0.029 A 
ATOM     45  N   UNL A   1      38.873  30.293  31.902  1.00  0.00    -0.354 N 
ATOM     46  C   UNL A   1      40.478  27.722  28.828  1.00  0.00     0.074 A 
ATOM     47  C   UNL A   1      39.599  27.670  27.679  1.00  0.00     0.031 C 
ATOM     48  C   UNL A   1      37.365  31.637  32.861  1.00  0.00     0.029 A 
ATOM     49  C   UNL A   1      38.660  30.996  33.065  1.00  0.00     0.049 A 
ATOM     50  H   UNL A   1      39.684  29.762  31.737  1.00  0.00     0.167 HD
ATOM     51  C   UNL A   1      41.665  27.074  28.914  1.00  0.00     0.034 A 
ATOM     52  C   UNL A   1      39.414  31.105  34.176  1.00  0.00     0.034 A 
ATOM     53  C   UNL A   1      42.550  27.152  30.049  1.00  0.00     0.049 A 
ATOM     54  C   UNL A   1      40.722  30.367  34.254  1.00  0.00     0.074 A 
ATOM     55  C   UNL A   1      43.795  26.567  30.213  1.00  0.00     0.029 A 
ATOM     56  N   UNL A   1      42.292  27.864  31.212  1.00  0.00    -0.354 N 
ATOM     57  N   UNL A   1      41.271  29.573  33.367  1.00  0.00    -0.248 NA
ATOM     58  C   UNL A   1      41.509  30.536  35.484  1.00  0.00     0.031 C 
ATOM     59  C   UNL A   1      44.267  26.885  31.491  1.00  0.00     0.029 A 
ATOM     60  C   UNL A   1      43.342  27.716  32.103  1.00  0.00     0.049 A 
ATOM     61  H   UNL A   1      41.481  28.396  31.379  1.00  0.00     0.167 HD
ATOM     62  C   UNL A   1      42.477  29.161  33.925  1.00  0.00     0.074 A 
ATOM     63  C   UNL A   1      42.577  29.794  35.223  1.00  0.00     0.031 C 
ATOM     64  C   UNL A   1      43.419  28.337  33.402  1.00  0.00     0.034 A 
BRANCH  51  65
ATOM     65  C   UNL A   1      42.068  26.205  27.753  1.00  0.00     0.023 A 
ATOM     66  C   UNL A   1      41.675  24.859  27.672  1.00  0.00     0.031 A 
ATOM     67  C   UNL A   1      42.851  26.732  26.712  1.00  0.00     0.131 A 
ATOM     68  C   UNL A   1      42.110  24.071  26.597  1.00  0.00     0.055 A 
ATOM     69  C   UNL A   1      43.227  25.959  25.612  1.00  0.00     0.041 A 
ATOM     70  F   UNL A   1      43.268  28.008  26.749  1.00  0.00    -0.206 F 
ATOM     71  C   UNL A   1      42.864  24.617  25.555  1.00  0.00     0.022 A 
BRANCH  68  72
ATOM     72  S   UNL A   1      41.746  22.294  26.617  1.00  0.00     0.124 S 
ATOM     73  O   UNL A   1      42.375  21.854  25.374  1.00  0.00    -0.237 OA
ATOM     74  O   UNL A   1      42.389  21.852  27.850  1.00  0.00    -0.237 OA
ATOM     75  O   UNL A   1      40.286  22.244  26.625  1.00  0.00    -0.744 OA
ENDBRANCH  68  72
ENDBRANCH  51  65
BRANCH  52  76
ATOM     76  C   UNL A   1      38.941  31.937  35.314  1.00  0.00     0.023 A 
ATOM     77  C   UNL A   1      38.326  31.348  36.430  1.00  0.00     0.031 A 
ATOM     78  C   UNL A   1      39.103  33.333  35.302  1.00  0.00     0.131 A 
ATOM     79  C   UNL A   1      37.875  32.157  37.484  1.00  0.00     0.055 A 
ATOM     80  C   UNL A   1      38.682  34.130  36.367  1.00  0.00     0.041 A 
ATOM     81  F   UNL A   1      39.697  33.937  34.260  1.00  0.00    -0.206 F 
ATOM     82  C   UNL A   1      38.060  33.543  37.465  1.00  0.00     0.022 A 
BRANCH  79  83
ATOM     83  S   UNL A   1      37.030  31.374  38.883  1.00  0.00     0.124 S 
ATOM     84  O   UNL A   1      35.791  32.139  38.946  1.00  0.00    -0.237 OA
ATOM     85  O   UNL A   1      36.910  29.991  38.433  1.00  0.00    -0.237 OA
ATOM     86  O   UNL A   1      37.953  31.584  39.997  1.00  0.00    -0.744 OA
ENDBRANCH  79  83
ENDBRANCH  52  76
BRANCH  64  87
ATOM     87  C   UNL A   1      44.654  28.096  34.226  1.00  0.00     0.023 A 
ATOM     88  C   UNL A   1      44.753  26.997  35.095  1.00  0.00     0.031 A 
ATOM     89  C   UNL A   1      45.757  28.960  34.110  1.00  0.00     0.131 A 
ATOM     90  C   UNL A   1      45.927  26.804  35.839  1.00  0.00     0.055 A 
ATOM     91  C   UNL A   1      46.935  28.741  34.823  1.00  0.00     0.041 A 
ATOM     92  F   UNL A   1      45.709  30.022  33.290  1.00  0.00    -0.206 F 
ATOM     93  C   UNL A   1      47.023  27.660  35.698  1.00  0.00     0.022 A 
BRANCH  90  94
ATOM     94  S   UNL A   1      46.000  25.425  37.015  1.00  0.00     0.124 S 
ATOM     95  O   UNL A   1      44.637  25.402  37.537  1.00  0.00    -0.237 OA
ATOM     96  O   UNL A   1      46.375  24.300  36.163  1.00  0.00    -0.237 OA
ATOM     97  O   UNL A   1      47.024  25.844  37.970  1.00  0.00    -0.744 OA
ENDBRANCH  90  94
ENDBRANCH  64  87
ENDBRANCH  38  39
ENDBRANCH  30  33
ENDBRANCH  28  29
ENDBRANCH  27  28
ENDBRANCH   1  27
TORSDOF 18
ENDMDL
