MODEL 1
REMARK VINA RESULT:     -11.5      0.000      0.000
REMARK SMILES O=C(CC[NH+]1CCC([N@H+]2CCC[C@H](C(=O)NCc3cccnc3)C2)CC1)NCCCNC(=O)c1ccc(-c2c3nc(c(-c4cc(S(=O)(=O)[O-])ccc4F)c4ccc([nH]4)c(-c4cc(S(=O)(=O)[O-])ccc4F)c4nc(c(-c5cc(S(=O)(=O)[O-])ccc5F)c5ccc2[nH]5)C=C4)C=C3)cc1
REMARK SMILES IDX 1 1 2 2 27 3 3 5 4 6 5 7 6 8 26 9 7 11 25 12 8 13 9 14 10 15
REMARK SMILES IDX 24 16 11 18 13 19 12 20 14 21 15 22 16 23 17 25 18 26 19 27
REMARK SMILES IDX 23 28 20 29 22 30 21 31 28 32 29 33 30 34 31 35 32 36 33 38
REMARK SMILES IDX 34 39 35 40 96 41 36 42 95 43 37 44 38 45 39 46 89 47 40 48
REMARK SMILES IDX 94 49 88 50 90 51 41 52 93 53 87 54 86 55 42 57 74 58 54 59
REMARK SMILES IDX 73 60 55 61 58 62 72 63 91 64 56 65 57 66 71 68 92 69 59 70
REMARK SMILES IDX 43 71 44 72 52 73 45 74 51 75 53 76 50 77 46 78 47 79 48 80
REMARK SMILES IDX 49 81 75 82 76 83 84 84 77 85 83 86 85 87 82 88 78 89 79 90
REMARK SMILES IDX 80 91 81 92 60 93 61 94 69 95 62 96 68 97 70 98 67 99 63 100
REMARK SMILES IDX 64 101 65 102 66 103
REMARK H PARENT 27 4 5 10 9 17 16 24 31 37 90 56 58 67
REMARK Flexibility Score: inf
ROOT
ATOM      1  O   UNL A   1      42.436  21.759  28.256  1.00  0.00    -0.275 OA
ATOM      2  C   UNL A   1      41.631  21.393  27.403  1.00  0.00     0.225 C 
ATOM      3  N   UNL A   1      41.275  20.055  27.224  1.00  0.00    -0.356 N 
ATOM      4  H   UNL A   1      40.446  19.827  26.744  1.00  0.00     0.163 HD
ENDROOT
BRANCH   2   5
ATOM      5  C   UNL A   1      41.038  22.368  26.380  1.00  0.00     0.161 C 
BRANCH   5   6
ATOM      6  C   UNL A   1      39.797  23.166  26.897  1.00  0.00     0.272 C 
BRANCH   6   7
ATOM      7  N   UNL A   1      38.437  22.772  26.466  1.00  0.00    -0.334 N 
ATOM      8  C   UNL A   1      37.605  23.901  26.129  1.00  0.00     0.268 C 
ATOM      9  C   UNL A   1      38.346  21.709  25.461  1.00  0.00     0.268 C 
ATOM     10  H   UNL A   1      38.064  22.338  27.310  1.00  0.00     0.348 HD
ATOM     11  C   UNL A   1      36.170  23.564  25.904  1.00  0.00     0.126 C 
ATOM     12  C   UNL A   1      36.873  21.287  25.202  1.00  0.00     0.126 C 
ATOM     13  C   UNL A   1      35.995  22.502  24.847  1.00  0.00     0.195 C 
BRANCH  13  14
ATOM     14  N   UNL A   1      34.557  22.206  24.639  1.00  0.00    -0.331 N 
ATOM     15  C   UNL A   1      34.212  20.772  24.743  1.00  0.00     0.262 C 
ATOM     16  C   UNL A   1      33.743  22.986  25.592  1.00  0.00     0.275 C 
ATOM     17  H   UNL A   1      34.350  22.478  23.677  1.00  0.00     0.348 HD
ATOM     18  C   UNL A   1      32.742  20.479  24.485  1.00  0.00     0.062 C 
ATOM     19  C   UNL A   1      32.241  22.796  25.443  1.00  0.00     0.133 C 
ATOM     20  C   UNL A   1      31.806  21.339  25.318  1.00  0.00     0.025 C 
BRANCH  19  21
ATOM     21  C   UNL A   1      31.551  23.762  24.486  1.00  0.00     0.229 C 
ATOM     22  O   UNL A   1      31.376  23.409  23.314  1.00  0.00    -0.275 OA
ATOM     23  N   UNL A   1      31.116  25.007  24.779  1.00  0.00    -0.352 N 
ATOM     24  H   UNL A   1      30.900  25.537  23.977  1.00  0.00     0.163 HD
BRANCH  23  25
ATOM     25  C   UNL A   1      30.901  25.734  26.010  1.00  0.00     0.153 C 
BRANCH  25  26
ATOM     26  C   UNL A   1      31.251  27.194  25.988  1.00  0.00    -0.010 A 
ATOM     27  C   UNL A   1      31.577  27.847  27.186  1.00  0.00     0.009 A 
ATOM     28  C   UNL A   1      31.265  27.964  24.830  1.00  0.00     0.116 A 
ATOM     29  C   UNL A   1      31.916  29.197  27.178  1.00  0.00     0.020 A 
ATOM     30  N   UNL A   1      31.590  29.281  24.793  1.00  0.00    -0.264 NA
ATOM     31  C   UNL A   1      31.913  29.862  25.966  1.00  0.00     0.111 A 
ENDBRANCH  25  26
ENDBRANCH  23  25
ENDBRANCH  19  21
ENDBRANCH  13  14
ENDBRANCH   6   7
ENDBRANCH   5   6
ENDBRANCH   2   5
BRANCH   3  32
ATOM     32  C   UNL A   1      42.133  18.993  27.748  1.00  0.00     0.117 C 
BRANCH  32  33
ATOM     33  C   UNL A   1      43.021  18.284  26.717  1.00  0.00     0.042 C 
BRANCH  33  34
ATOM     34  C   UNL A   1      43.089  18.871  25.299  1.00  0.00     0.118 C 
BRANCH  34  35
ATOM     35  N   UNL A   1      44.400  18.777  24.665  1.00  0.00    -0.352 N 
ATOM     36  C   UNL A   1      45.359  19.744  24.449  1.00  0.00     0.251 C 
ATOM     37  H   UNL A   1      44.639  17.878  24.341  1.00  0.00     0.163 HD
ATOM     38  O   UNL A   1      46.399  19.436  23.864  1.00  0.00    -0.269 OA
BRANCH  36  39
ATOM     39  C   UNL A   1      45.154  21.152  24.872  1.00  0.00     0.039 A 
ATOM     40  C   UNL A   1      45.332  21.477  26.223  1.00  0.00     0.014 A 
ATOM     41  C   UNL A   1      44.790  22.149  23.965  1.00  0.00     0.014 A 
ATOM     42  C   UNL A   1      45.269  22.813  26.638  1.00  0.00     0.010 A 
ATOM     43  C   UNL A   1      44.760  23.485  24.372  1.00  0.00     0.010 A 
ATOM     44  C   UNL A   1      45.044  23.833  25.701  1.00  0.00    -0.014 A 
BRANCH  44  45
ATOM     45  C   UNL A   1      45.245  25.265  26.055  1.00  0.00     0.031 A 
ATOM     46  C   UNL A   1      46.614  25.882  26.061  1.00  0.00     0.074 A 
ATOM     47  C   UNL A   1      44.180  25.974  26.483  1.00  0.00     0.049 A 
ATOM     48  N   UNL A   1      46.975  27.081  26.443  1.00  0.00    -0.248 NA
ATOM     49  C   UNL A   1      47.721  25.035  25.599  1.00  0.00     0.031 C 
ATOM     50  C   UNL A   1      42.808  25.464  26.560  1.00  0.00     0.029 A 
ATOM     51  N   UNL A   1      44.079  27.260  26.954  1.00  0.00    -0.354 N 
ATOM     52  C   UNL A   1      48.354  27.139  26.265  1.00  0.00     0.074 A 
ATOM     53  C   UNL A   1      48.763  25.832  25.790  1.00  0.00     0.031 C 
ATOM     54  C   UNL A   1      42.006  26.427  27.039  1.00  0.00     0.029 A 
ATOM     55  C   UNL A   1      42.807  27.604  27.352  1.00  0.00     0.049 A 
ATOM     56  H   UNL A   1      44.845  27.877  27.003  1.00  0.00     0.167 HD
ATOM     57  C   UNL A   1      49.190  28.188  26.469  1.00  0.00     0.034 A 
ATOM     58  C   UNL A   1      42.339  28.731  27.924  1.00  0.00     0.034 A 
ATOM     59  C   UNL A   1      48.760  29.477  26.962  1.00  0.00     0.049 A 
ATOM     60  C   UNL A   1      43.299  29.862  28.192  1.00  0.00     0.074 A 
ATOM     61  C   UNL A   1      49.515  30.622  27.153  1.00  0.00     0.029 A 
ATOM     62  N   UNL A   1      47.466  29.789  27.364  1.00  0.00    -0.354 N 
ATOM     63  N   UNL A   1      44.589  29.922  27.956  1.00  0.00    -0.248 NA
ATOM     64  C   UNL A   1      42.739  31.078  28.793  1.00  0.00     0.031 C 
ATOM     65  C   UNL A   1      48.701  31.595  27.745  1.00  0.00     0.029 A 
ATOM     66  C   UNL A   1      47.415  31.091  27.844  1.00  0.00     0.049 A 
ATOM     67  H   UNL A   1      46.698  29.176  27.315  1.00  0.00     0.167 HD
ATOM     68  C   UNL A   1      44.989  31.194  28.357  1.00  0.00     0.074 A 
ATOM     69  C   UNL A   1      43.798  31.872  28.827  1.00  0.00     0.031 C 
ATOM     70  C   UNL A   1      46.226  31.753  28.333  1.00  0.00     0.034 A 
BRANCH  57  71
ATOM     71  C   UNL A   1      50.660  27.974  26.189  1.00  0.00     0.023 A 
ATOM     72  C   UNL A   1      51.181  28.045  24.885  1.00  0.00     0.031 A 
ATOM     73  C   UNL A   1      51.554  27.692  27.238  1.00  0.00     0.131 A 
ATOM     74  C   UNL A   1      52.538  27.772  24.655  1.00  0.00     0.055 A 
ATOM     75  C   UNL A   1      52.919  27.497  27.011  1.00  0.00     0.041 A 
ATOM     76  F   UNL A   1      51.116  27.594  28.502  1.00  0.00    -0.206 F 
ATOM     77  C   UNL A   1      53.416  27.521  25.712  1.00  0.00     0.022 A 
BRANCH  74  78
ATOM     78  S   UNL A   1      53.115  27.618  22.942  1.00  0.00     0.124 S 
ATOM     79  O   UNL A   1      51.855  27.635  22.203  1.00  0.00    -0.237 OA
ATOM     80  O   UNL A   1      53.961  28.795  22.788  1.00  0.00    -0.237 OA
ATOM     81  O   UNL A   1      53.818  26.337  22.930  1.00  0.00    -0.744 OA
ENDBRANCH  74  78
ENDBRANCH  57  71
BRANCH  58  82
ATOM     82  C   UNL A   1      40.901  28.846  28.303  1.00  0.00     0.023 A 
ATOM     83  C   UNL A   1      40.485  28.648  29.629  1.00  0.00     0.031 A 
ATOM     84  C   UNL A   1      39.913  29.114  27.338  1.00  0.00     0.131 A 
ATOM     85  C   UNL A   1      39.119  28.672  29.946  1.00  0.00     0.055 A 
ATOM     86  C   UNL A   1      38.559  29.197  27.669  1.00  0.00     0.041 A 
ATOM     87  F   UNL A   1      40.254  29.316  26.054  1.00  0.00    -0.206 F 
ATOM     88  C   UNL A   1      38.154  28.961  28.979  1.00  0.00     0.022 A 
BRANCH  85  89
ATOM     89  S   UNL A   1      38.611  28.225  31.629  1.00  0.00     0.124 S 
ATOM     90  O   UNL A   1      38.550  26.771  31.543  1.00  0.00    -0.237 OA
ATOM     91  O   UNL A   1      39.700  28.778  32.429  1.00  0.00    -0.237 OA
ATOM     92  O   UNL A   1      37.323  28.897  31.784  1.00  0.00    -0.744 OA
ENDBRANCH  85  89
ENDBRANCH  58  82
BRANCH  70  93
ATOM     93  C   UNL A   1      46.341  33.183  28.805  1.00  0.00     0.023 A 
ATOM     94  C   UNL A   1      46.178  34.267  27.925  1.00  0.00     0.031 A 
ATOM     95  C   UNL A   1      46.634  33.465  30.151  1.00  0.00     0.131 A 
ATOM     96  C   UNL A   1      46.369  35.578  28.387  1.00  0.00     0.055 A 
ATOM     97  C   UNL A   1      46.755  34.773  30.620  1.00  0.00     0.041 A 
ATOM     98  F   UNL A   1      46.807  32.469  31.036  1.00  0.00    -0.206 F 
ATOM     99  C   UNL A   1      46.637  35.839  29.733  1.00  0.00     0.022 A 
BRANCH  96 100
ATOM    100  S   UNL A   1      46.363  36.937  27.184  1.00  0.00     0.124 S 
ATOM    101  O   UNL A   1      46.767  36.256  25.958  1.00  0.00    -0.237 OA
ATOM    102  O   UNL A   1      44.977  37.391  27.233  1.00  0.00    -0.237 OA
ATOM    103  O   UNL A   1      47.343  37.878  27.723  1.00  0.00    -0.744 OA
ENDBRANCH  96 100
ENDBRANCH  70  93
ENDBRANCH  44  45
ENDBRANCH  36  39
ENDBRANCH  34  35
ENDBRANCH  33  34
ENDBRANCH  32  33
ENDBRANCH   3  32
TORSDOF 19
ENDMDL
MODEL 2
REMARK VINA RESULT:     -11.0      0.764      7.500
REMARK SMILES O=C(CC[NH+]1CCC([N@H+]2CCC[C@H](C(=O)NCc3cccnc3)C2)CC1)NCCCNC(=O)c1ccc(-c2c3nc(c(-c4cc(S(=O)(=O)[O-])ccc4F)c4ccc([nH]4)c(-c4cc(S(=O)(=O)[O-])ccc4F)c4nc(c(-c5cc(S(=O)(=O)[O-])ccc5F)c5ccc2[nH]5)C=C4)C=C3)cc1
REMARK SMILES IDX 1 1 2 2 27 3 3 5 4 6 5 7 6 8 26 9 7 11 25 12 8 13 9 14 10 15
REMARK SMILES IDX 24 16 11 18 13 19 12 20 14 21 15 22 16 23 17 25 18 26 19 27
REMARK SMILES IDX 23 28 20 29 22 30 21 31 28 32 29 33 30 34 31 35 32 36 33 38
REMARK SMILES IDX 34 39 35 40 96 41 36 42 95 43 37 44 38 45 39 46 89 47 40 48
REMARK SMILES IDX 94 49 88 50 90 51 41 52 93 53 87 54 86 55 42 57 74 58 54 59
REMARK SMILES IDX 73 60 55 61 58 62 72 63 91 64 56 65 57 66 71 68 92 69 59 70
REMARK SMILES IDX 43 71 44 72 52 73 45 74 51 75 53 76 50 77 46 78 47 79 48 80
REMARK SMILES IDX 49 81 75 82 76 83 84 84 77 85 83 86 85 87 82 88 78 89 79 90
REMARK SMILES IDX 80 91 81 92 60 93 61 94 69 95 62 96 68 97 70 98 67 99 63 100
REMARK SMILES IDX 64 101 65 102 66 103
REMARK H PARENT 27 4 5 10 9 17 16 24 31 37 90 56 58 67
REMARK Flexibility Score: inf
ROOT
ATOM      1  O   UNL A   1      42.477  21.793  28.235  1.00  0.00    -0.275 OA
ATOM      2  C   UNL A   1      41.677  21.456  27.365  1.00  0.00     0.225 C 
ATOM      3  N   UNL A   1      41.336  20.123  27.126  1.00  0.00    -0.356 N 
ATOM      4  H   UNL A   1      40.510  19.906  26.636  1.00  0.00     0.163 HD
ENDROOT
BRANCH   2   5
ATOM      5  C   UNL A   1      41.074  22.468  26.386  1.00  0.00     0.161 C 
BRANCH   5   6
ATOM      6  C   UNL A   1      39.793  23.190  26.916  1.00  0.00     0.272 C 
BRANCH   6   7
ATOM      7  N   UNL A   1      38.456  22.741  26.467  1.00  0.00    -0.334 N 
ATOM      8  C   UNL A   1      37.596  23.833  26.080  1.00  0.00     0.268 C 
ATOM      9  C   UNL A   1      38.420  21.648  25.492  1.00  0.00     0.268 C 
ATOM     10  H   UNL A   1      38.077  22.320  27.315  1.00  0.00     0.348 HD
ATOM     11  C   UNL A   1      36.178  23.445  25.834  1.00  0.00     0.126 C 
ATOM     12  C   UNL A   1      36.967  21.172  25.213  1.00  0.00     0.126 C 
ATOM     13  C   UNL A   1      36.060  22.348  24.805  1.00  0.00     0.195 C 
BRANCH  13  14
ATOM     14  N   UNL A   1      34.637  22.001  24.575  1.00  0.00    -0.331 N 
ATOM     15  C   UNL A   1      34.259  20.649  25.042  1.00  0.00     0.262 C 
ATOM     16  C   UNL A   1      33.766  23.010  25.210  1.00  0.00     0.275 C 
ATOM     17  H   UNL A   1      34.508  21.996  23.562  1.00  0.00     0.348 HD
ATOM     18  C   UNL A   1      32.808  20.291  24.761  1.00  0.00     0.062 C 
ATOM     19  C   UNL A   1      32.277  22.780  25.003  1.00  0.00     0.133 C 
ATOM     20  C   UNL A   1      31.827  21.343  25.250  1.00  0.00     0.025 C 
BRANCH  19  21
ATOM     21  C   UNL A   1      31.679  23.443  23.767  1.00  0.00     0.229 C 
ATOM     22  O   UNL A   1      31.287  22.722  22.841  1.00  0.00    -0.275 OA
ATOM     23  N   UNL A   1      31.547  24.770  23.553  1.00  0.00    -0.352 N 
ATOM     24  H   UNL A   1      31.340  24.989  22.616  1.00  0.00     0.163 HD
BRANCH  23  25
ATOM     25  C   UNL A   1      31.643  25.940  24.398  1.00  0.00     0.153 C 
BRANCH  25  26
ATOM     26  C   UNL A   1      31.095  27.217  23.828  1.00  0.00    -0.010 A 
ATOM     27  C   UNL A   1      31.021  28.360  24.636  1.00  0.00     0.009 A 
ATOM     28  C   UNL A   1      30.636  27.340  22.520  1.00  0.00     0.116 A 
ATOM     29  C   UNL A   1      30.527  29.554  24.116  1.00  0.00     0.020 A 
ATOM     30  N   UNL A   1      30.149  28.489  21.989  1.00  0.00    -0.264 NA
ATOM     31  C   UNL A   1      30.112  29.568  22.797  1.00  0.00     0.111 A 
ENDBRANCH  25  26
ENDBRANCH  23  25
ENDBRANCH  19  21
ENDBRANCH  13  14
ENDBRANCH   6   7
ENDBRANCH   5   6
ENDBRANCH   2   5
BRANCH   3  32
ATOM     32  C   UNL A   1      42.206  19.049  27.604  1.00  0.00     0.117 C 
BRANCH  32  33
ATOM     33  C   UNL A   1      43.104  18.397  26.544  1.00  0.00     0.042 C 
BRANCH  33  34
ATOM     34  C   UNL A   1      43.136  19.025  25.143  1.00  0.00     0.118 C 
BRANCH  34  35
ATOM     35  N   UNL A   1      44.438  18.973  24.483  1.00  0.00    -0.352 N 
ATOM     36  C   UNL A   1      45.409  19.943  24.346  1.00  0.00     0.251 C 
ATOM     37  H   UNL A   1      44.658  18.106  24.072  1.00  0.00     0.163 HD
ATOM     38  O   UNL A   1      46.435  19.677  23.719  1.00  0.00    -0.269 OA
BRANCH  36  39
ATOM     39  C   UNL A   1      45.231  21.306  24.905  1.00  0.00     0.039 A 
ATOM     40  C   UNL A   1      45.364  21.486  26.288  1.00  0.00     0.014 A 
ATOM     41  C   UNL A   1      44.936  22.403  24.093  1.00  0.00     0.014 A 
ATOM     42  C   UNL A   1      45.327  22.773  26.835  1.00  0.00     0.010 A 
ATOM     43  C   UNL A   1      44.931  23.691  24.633  1.00  0.00     0.010 A 
ATOM     44  C   UNL A   1      45.172  23.892  26.001  1.00  0.00    -0.014 A 
BRANCH  44  45
ATOM     45  C   UNL A   1      45.404  25.272  26.508  1.00  0.00     0.031 A 
ATOM     46  C   UNL A   1      44.267  26.130  26.981  1.00  0.00     0.074 A 
ATOM     47  C   UNL A   1      46.650  25.781  26.429  1.00  0.00     0.049 A 
ATOM     48  N   UNL A   1      44.282  27.384  27.354  1.00  0.00    -0.248 NA
ATOM     49  C   UNL A   1      42.939  25.504  27.017  1.00  0.00     0.031 C 
ATOM     50  C   UNL A   1      47.827  25.053  25.946  1.00  0.00     0.029 A 
ATOM     51  N   UNL A   1      47.138  27.029  26.728  1.00  0.00    -0.354 N 
ATOM     52  C   UNL A   1      42.966  27.703  27.676  1.00  0.00     0.074 A 
ATOM     53  C   UNL A   1      42.177  26.519  27.401  1.00  0.00     0.031 C 
ATOM     54  C   UNL A   1      48.896  25.861  25.989  1.00  0.00     0.029 A 
ATOM     55  C   UNL A   1      48.479  27.179  26.454  1.00  0.00     0.049 A 
ATOM     56  H   UNL A   1      46.582  27.750  27.103  1.00  0.00     0.167 HD
ATOM     57  C   UNL A   1      42.473  28.869  28.165  1.00  0.00     0.034 A 
ATOM     58  C   UNL A   1      49.281  28.259  26.545  1.00  0.00     0.034 A 
ATOM     59  C   UNL A   1      43.278  30.043  28.414  1.00  0.00     0.049 A 
ATOM     60  C   UNL A   1      48.696  29.558  27.037  1.00  0.00     0.074 A 
ATOM     61  C   UNL A   1      42.889  31.256  28.957  1.00  0.00     0.029 A 
ATOM     62  N   UNL A   1      44.631  30.163  28.116  1.00  0.00    -0.354 N 
ATOM     63  N   UNL A   1      47.462  29.822  27.399  1.00  0.00    -0.248 NA
ATOM     64  C   UNL A   1      49.613  30.699  27.143  1.00  0.00     0.031 C 
ATOM     65  C   UNL A   1      43.979  32.132  28.912  1.00  0.00     0.029 A 
ATOM     66  C   UNL A   1      45.076  31.442  28.422  1.00  0.00     0.049 A 
ATOM     67  H   UNL A   1      45.191  29.446  27.743  1.00  0.00     0.167 HD
ATOM     68  C   UNL A   1      47.462  31.154  27.801  1.00  0.00     0.074 A 
ATOM     69  C   UNL A   1      48.824  31.630  27.657  1.00  0.00     0.031 C 
ATOM     70  C   UNL A   1      46.432  31.915  28.253  1.00  0.00     0.034 A 
BRANCH  57  71
ATOM     71  C   UNL A   1      40.987  28.941  28.433  1.00  0.00     0.023 A 
ATOM     72  C   UNL A   1      40.468  28.876  29.738  1.00  0.00     0.031 A 
ATOM     73  C   UNL A   1      40.074  29.072  27.371  1.00  0.00     0.131 A 
ATOM     74  C   UNL A   1      39.080  28.876  29.943  1.00  0.00     0.055 A 
ATOM     75  C   UNL A   1      38.696  29.148  27.587  1.00  0.00     0.041 A 
ATOM     76  F   UNL A   1      40.505  29.122  26.101  1.00  0.00    -0.206 F 
ATOM     77  C   UNL A   1      38.190  29.034  28.878  1.00  0.00     0.022 A 
BRANCH  74  78
ATOM     78  S   UNL A   1      38.448  28.530  31.609  1.00  0.00     0.124 S 
ATOM     79  O   UNL A   1      39.331  29.348  32.436  1.00  0.00    -0.237 OA
ATOM     80  O   UNL A   1      37.063  28.977  31.518  1.00  0.00    -0.237 OA
ATOM     81  O   UNL A   1      38.630  27.087  31.752  1.00  0.00    -0.744 OA
ENDBRANCH  74  78
ENDBRANCH  57  71
BRANCH  58  82
ATOM     82  C   UNL A   1      50.715  28.172  26.144  1.00  0.00     0.023 A 
ATOM     83  C   UNL A   1      51.096  28.273  24.796  1.00  0.00     0.031 A 
ATOM     84  C   UNL A   1      51.725  27.944  27.096  1.00  0.00     0.131 A 
ATOM     85  C   UNL A   1      52.440  28.099  24.433  1.00  0.00     0.055 A 
ATOM     86  C   UNL A   1      53.069  27.831  26.737  1.00  0.00     0.041 A 
ATOM     87  F   UNL A   1      51.419  27.841  28.401  1.00  0.00    -0.206 F 
ATOM     88  C   UNL A   1      53.431  27.894  25.395  1.00  0.00     0.022 A 
BRANCH  85  89
ATOM     89  S   UNL A   1      52.861  28.049  22.670  1.00  0.00     0.124 S 
ATOM     90  O   UNL A   1      54.106  28.808  22.641  1.00  0.00    -0.237 OA
ATOM     91  O   UNL A   1      52.976  26.615  22.427  1.00  0.00    -0.237 OA
ATOM     92  O   UNL A   1      51.718  28.698  22.030  1.00  0.00    -0.744 OA
ENDBRANCH  85  89
ENDBRANCH  58  82
BRANCH  70  93
ATOM     93  C   UNL A   1      46.754  33.336  28.652  1.00  0.00     0.023 A 
ATOM     94  C   UNL A   1      46.663  34.400  27.739  1.00  0.00     0.031 A 
ATOM     95  C   UNL A   1      47.176  33.627  29.962  1.00  0.00     0.131 A 
ATOM     96  C   UNL A   1      47.045  35.693  28.128  1.00  0.00     0.055 A 
ATOM     97  C   UNL A   1      47.489  34.925  30.364  1.00  0.00     0.041 A 
ATOM     98  F   UNL A   1      47.289  32.649  30.877  1.00  0.00    -0.206 F 
ATOM     99  C   UNL A   1      47.439  35.966  29.440  1.00  0.00     0.022 A 
BRANCH  96 100
ATOM    100  S   UNL A   1      47.119  36.997  26.869  1.00  0.00     0.124 S 
ATOM    101  O   UNL A   1      46.880  36.245  25.641  1.00  0.00    -0.237 OA
ATOM    102  O   UNL A   1      46.045  37.894  27.285  1.00  0.00    -0.237 OA
ATOM    103  O   UNL A   1      48.469  37.538  27.013  1.00  0.00    -0.744 OA
ENDBRANCH  96 100
ENDBRANCH  70  93
ENDBRANCH  44  45
ENDBRANCH  36  39
ENDBRANCH  34  35
ENDBRANCH  33  34
ENDBRANCH  32  33
ENDBRANCH   3  32
TORSDOF 19
ENDMDL
MODEL 3
REMARK VINA RESULT:     -10.6      8.024     15.387
REMARK SMILES O=C(CC[NH+]1CCC([N@H+]2CCC[C@H](C(=O)NCc3cccnc3)C2)CC1)NCCCNC(=O)c1ccc(-c2c3nc(c(-c4cc(S(=O)(=O)[O-])ccc4F)c4ccc([nH]4)c(-c4cc(S(=O)(=O)[O-])ccc4F)c4nc(c(-c5cc(S(=O)(=O)[O-])ccc5F)c5ccc2[nH]5)C=C4)C=C3)cc1
REMARK SMILES IDX 1 1 2 2 27 3 3 5 4 6 5 7 6 8 26 9 7 11 25 12 8 13 9 14 10 15
REMARK SMILES IDX 24 16 11 18 13 19 12 20 14 21 15 22 16 23 17 25 18 26 19 27
REMARK SMILES IDX 23 28 20 29 22 30 21 31 28 32 29 33 30 34 31 35 32 36 33 38
REMARK SMILES IDX 34 39 35 40 96 41 36 42 95 43 37 44 38 45 39 46 89 47 40 48
REMARK SMILES IDX 94 49 88 50 90 51 41 52 93 53 87 54 86 55 42 57 74 58 54 59
REMARK SMILES IDX 73 60 55 61 58 62 72 63 91 64 56 65 57 66 71 68 92 69 59 70
REMARK SMILES IDX 43 71 44 72 52 73 45 74 51 75 53 76 50 77 46 78 47 79 48 80
REMARK SMILES IDX 49 81 75 82 76 83 84 84 77 85 83 86 85 87 82 88 78 89 79 90
REMARK SMILES IDX 80 91 81 92 60 93 61 94 69 95 62 96 68 97 70 98 67 99 63 100
REMARK SMILES IDX 64 101 65 102 66 103
REMARK H PARENT 27 4 5 10 9 17 16 24 31 37 90 56 58 67
REMARK Flexibility Score: inf
ROOT
ATOM      1  O   UNL A   1      40.348  41.061  26.519  1.00  0.00    -0.275 OA
ATOM      2  C   UNL A   1      41.353  40.919  25.827  1.00  0.00     0.225 C 
ATOM      3  N   UNL A   1      42.541  40.374  26.320  1.00  0.00    -0.356 N 
ATOM      4  H   UNL A   1      43.215  40.018  25.697  1.00  0.00     0.163 HD
ENDROOT
BRANCH   2   5
ATOM      5  C   UNL A   1      41.425  41.441  24.388  1.00  0.00     0.161 C 
BRANCH   5   6
ATOM      6  C   UNL A   1      42.781  42.123  24.019  1.00  0.00     0.272 C 
BRANCH   6   7
ATOM      7  N   UNL A   1      42.988  42.662  22.656  1.00  0.00    -0.334 N 
ATOM      8  C   UNL A   1      41.751  42.951  21.971  1.00  0.00     0.268 C 
ATOM      9  C   UNL A   1      43.954  43.755  22.519  1.00  0.00     0.268 C 
ATOM     10  H   UNL A   1      43.440  41.880  22.184  1.00  0.00     0.348 HD
ATOM     11  C   UNL A   1      41.908  43.285  20.527  1.00  0.00     0.126 C 
ATOM     12  C   UNL A   1      44.189  44.132  21.030  1.00  0.00     0.126 C 
ATOM     13  C   UNL A   1      42.861  44.434  20.310  1.00  0.00     0.195 C 
BRANCH  13  14
ATOM     14  N   UNL A   1      42.979  44.748  18.866  1.00  0.00    -0.331 N 
ATOM     15  C   UNL A   1      43.103  43.559  17.996  1.00  0.00     0.262 C 
ATOM     16  C   UNL A   1      41.826  45.563  18.435  1.00  0.00     0.275 C 
ATOM     17  H   UNL A   1      43.851  45.268  18.760  1.00  0.00     0.348 HD
ATOM     18  C   UNL A   1      43.265  43.896  16.522  1.00  0.00     0.062 C 
ATOM     19  C   UNL A   1      41.860  45.984  16.974  1.00  0.00     0.133 C 
ATOM     20  C   UNL A   1      42.203  44.854  16.008  1.00  0.00     0.025 C 
BRANCH  19  21
ATOM     21  C   UNL A   1      42.554  47.311  16.692  1.00  0.00     0.229 C 
ATOM     22  O   UNL A   1      41.857  48.301  16.438  1.00  0.00    -0.275 OA
ATOM     23  N   UNL A   1      43.887  47.529  16.664  1.00  0.00    -0.352 N 
ATOM     24  H   UNL A   1      44.127  48.392  16.254  1.00  0.00     0.163 HD
BRANCH  23  25
ATOM     25  C   UNL A   1      45.040  46.773  17.101  1.00  0.00     0.153 C 
BRANCH  25  26
ATOM     26  C   UNL A   1      45.693  47.236  18.372  1.00  0.00    -0.010 A 
ATOM     27  C   UNL A   1      46.380  46.312  19.173  1.00  0.00     0.009 A 
ATOM     28  C   UNL A   1      45.654  48.551  18.822  1.00  0.00     0.116 A 
ATOM     29  C   UNL A   1      47.001  46.730  20.347  1.00  0.00     0.020 A 
ATOM     30  N   UNL A   1      46.249  48.985  19.962  1.00  0.00    -0.264 NA
ATOM     31  C   UNL A   1      46.913  48.066  20.692  1.00  0.00     0.111 A 
ENDBRANCH  25  26
ENDBRANCH  23  25
ENDBRANCH  19  21
ENDBRANCH  13  14
ENDBRANCH   6   7
ENDBRANCH   5   6
ENDBRANCH   2   5
BRANCH   3  32
ATOM     32  C   UNL A   1      42.782  40.330  27.762  1.00  0.00     0.117 C 
BRANCH  32  33
ATOM     33  C   UNL A   1      42.368  39.033  28.469  1.00  0.00     0.042 C 
BRANCH  33  34
ATOM     34  C   UNL A   1      43.339  37.844  28.418  1.00  0.00     0.118 C 
BRANCH  34  35
ATOM     35  N   UNL A   1      44.536  38.002  29.239  1.00  0.00    -0.352 N 
ATOM     36  C   UNL A   1      45.441  37.063  29.687  1.00  0.00     0.251 C 
ATOM     37  H   UNL A   1      44.729  38.927  29.514  1.00  0.00     0.163 HD
ATOM     38  O   UNL A   1      46.379  37.428  30.397  1.00  0.00    -0.269 OA
BRANCH  36  39
ATOM     39  C   UNL A   1      45.292  35.621  29.365  1.00  0.00     0.039 A 
ATOM     40  C   UNL A   1      45.494  34.683  30.385  1.00  0.00     0.014 A 
ATOM     41  C   UNL A   1      44.960  35.184  28.081  1.00  0.00     0.014 A 
ATOM     42  C   UNL A   1      45.242  33.327  30.151  1.00  0.00     0.010 A 
ATOM     43  C   UNL A   1      44.676  33.835  27.856  1.00  0.00     0.010 A 
ATOM     44  C   UNL A   1      44.770  32.901  28.899  1.00  0.00    -0.014 A 
BRANCH  44  45
ATOM     45  C   UNL A   1      44.233  31.527  28.702  1.00  0.00     0.031 A 
ATOM     46  C   UNL A   1      44.968  30.514  27.874  1.00  0.00     0.074 A 
ATOM     47  C   UNL A   1      43.009  31.243  29.192  1.00  0.00     0.049 A 
ATOM     48  N   UNL A   1      44.592  29.312  27.518  1.00  0.00    -0.248 NA
ATOM     49  C   UNL A   1      46.285  30.913  27.361  1.00  0.00     0.031 C 
ATOM     50  C   UNL A   1      42.183  32.164  29.977  1.00  0.00     0.029 A 
ATOM     51  N   UNL A   1      42.233  30.114  29.090  1.00  0.00    -0.354 N 
ATOM     52  C   UNL A   1      45.627  28.802  26.741  1.00  0.00     0.074 A 
ATOM     53  C   UNL A   1      46.621  29.853  26.638  1.00  0.00     0.031 C 
ATOM     54  C   UNL A   1      41.025  31.563  30.290  1.00  0.00     0.029 A 
ATOM     55  C   UNL A   1      41.000  30.234  29.689  1.00  0.00     0.049 A 
ATOM     56  H   UNL A   1      42.531  29.296  28.630  1.00  0.00     0.167 HD
ATOM     57  C   UNL A   1      45.738  27.572  26.179  1.00  0.00     0.034 A 
ATOM     58  C   UNL A   1      39.957  29.383  29.735  1.00  0.00     0.034 A 
ATOM     59  C   UNL A   1      44.724  26.547  26.279  1.00  0.00     0.049 A 
ATOM     60  C   UNL A   1      40.083  28.043  29.056  1.00  0.00     0.074 A 
ATOM     61  C   UNL A   1      44.758  25.250  25.795  1.00  0.00     0.029 A 
ATOM     62  N   UNL A   1      43.483  26.705  26.886  1.00  0.00    -0.354 N 
ATOM     63  N   UNL A   1      41.097  27.553  28.380  1.00  0.00    -0.248 NA
ATOM     64  C   UNL A   1      38.930  27.139  29.153  1.00  0.00     0.031 C 
ATOM     65  C   UNL A   1      43.515  24.654  26.034  1.00  0.00     0.029 A 
ATOM     66  C   UNL A   1      42.730  25.547  26.747  1.00  0.00     0.049 A 
ATOM     67  H   UNL A   1      43.182  27.520  27.348  1.00  0.00     0.167 HD
ATOM     68  C   UNL A   1      40.712  26.272  27.995  1.00  0.00     0.074 A 
ATOM     69  C   UNL A   1      39.383  26.060  28.534  1.00  0.00     0.031 C 
ATOM     70  C   UNL A   1      41.396  25.352  27.268  1.00  0.00     0.034 A 
BRANCH  57  71
ATOM     71  C   UNL A   1      46.986  27.278  25.379  1.00  0.00     0.023 A 
ATOM     72  C   UNL A   1      47.146  27.744  24.062  1.00  0.00     0.031 A 
ATOM     73  C   UNL A   1      48.032  26.520  25.937  1.00  0.00     0.131 A 
ATOM     74  C   UNL A   1      48.288  27.393  23.326  1.00  0.00     0.055 A 
ATOM     75  C   UNL A   1      49.200  26.238  25.225  1.00  0.00     0.041 A 
ATOM     76  F   UNL A   1      47.933  26.032  27.183  1.00  0.00    -0.206 F 
ATOM     77  C   UNL A   1      49.327  26.662  23.906  1.00  0.00     0.022 A 
BRANCH  74  78
ATOM     78  S   UNL A   1      48.337  27.791  21.557  1.00  0.00     0.124 S 
ATOM     79  O   UNL A   1      49.516  28.649  21.479  1.00  0.00    -0.237 OA
ATOM     80  O   UNL A   1      48.464  26.474  20.942  1.00  0.00    -0.237 OA
ATOM     81  O   UNL A   1      47.064  28.470  21.322  1.00  0.00    -0.744 OA
ENDBRANCH  74  78
ENDBRANCH  57  71
BRANCH  58  82
ATOM     82  C   UNL A   1      38.693  29.770  30.428  1.00  0.00     0.023 A 
ATOM     83  C   UNL A   1      37.717  30.537  29.772  1.00  0.00     0.031 A 
ATOM     84  C   UNL A   1      38.460  29.416  31.769  1.00  0.00     0.131 A 
ATOM     85  C   UNL A   1      36.578  30.965  30.471  1.00  0.00     0.055 A 
ATOM     86  C   UNL A   1      37.298  29.794  32.442  1.00  0.00     0.041 A 
ATOM     87  F   UNL A   1      39.359  28.680  32.444  1.00  0.00    -0.206 F 
ATOM     88  C   UNL A   1      36.353  30.587  31.797  1.00  0.00     0.022 A 
BRANCH  85  89
ATOM     89  S   UNL A   1      35.436  32.109  29.648  1.00  0.00     0.124 S 
ATOM     90  O   UNL A   1      34.878  31.266  28.597  1.00  0.00    -0.237 OA
ATOM     91  O   UNL A   1      34.530  32.466  30.735  1.00  0.00    -0.237 OA
ATOM     92  O   UNL A   1      36.309  33.187  29.188  1.00  0.00    -0.744 OA
ENDBRANCH  85  89
ENDBRANCH  58  82
BRANCH  70  93
ATOM     93  C   UNL A   1      40.722  24.020  27.041  1.00  0.00     0.023 A 
ATOM     94  C   UNL A   1      39.553  23.903  26.269  1.00  0.00     0.031 A 
ATOM     95  C   UNL A   1      41.246  22.851  27.622  1.00  0.00     0.131 A 
ATOM     96  C   UNL A   1      38.914  22.660  26.147  1.00  0.00     0.055 A 
ATOM     97  C   UNL A   1      40.646  21.605  27.441  1.00  0.00     0.041 A 
ATOM     98  F   UNL A   1      42.357  22.901  28.376  1.00  0.00    -0.206 F 
ATOM     99  C   UNL A   1      39.464  21.506  26.712  1.00  0.00     0.022 A 
BRANCH  96 100
ATOM    100  S   UNL A   1      37.299  22.586  25.325  1.00  0.00     0.124 S 
ATOM    101  O   UNL A   1      36.520  21.779  26.260  1.00  0.00    -0.237 OA
ATOM    102  O   UNL A   1      36.928  23.995  25.238  1.00  0.00    -0.237 OA
ATOM    103  O   UNL A   1      37.593  21.943  24.046  1.00  0.00    -0.744 OA
ENDBRANCH  96 100
ENDBRANCH  70  93
ENDBRANCH  44  45
ENDBRANCH  36  39
ENDBRANCH  34  35
ENDBRANCH  33  34
ENDBRANCH  32  33
ENDBRANCH   3  32
TORSDOF 19
ENDMDL
