MODEL 1
REMARK VINA RESULT:     -13.1      0.000      0.000
REMARK SMILES COc1cc2c(cc1OC)[C@H](C(=O)NCCCNC(=O)c1ccc(-c3c4nc(c(-c5cc(S(=O)(=O)[O-])ccc5F)c5ccc([nH]5)c(-c5cc(S(=O)(=O)[O-])ccc5F)c5nc(c(-c6cc(S(=O)(=O)[O-])ccc6F)c6ccc3[nH]6)C=C5)C=C4)cc1)[C@@H](c1ccc(SC)cc1)N(C)C2=O
REMARK SMILES IDX 16 1 15 2 14 3 12 4 13 5 11 7 3 8 4 9 8 10 5 11 7 12 6 13
REMARK SMILES IDX 95 14 93 15 96 16 84 17 94 18 2 19 1 20 9 21 10 22 85 23
REMARK SMILES IDX 86 24 92 25 87 26 91 27 88 28 89 29 90 30 17 31 18 32 19 33
REMARK SMILES IDX 20 35 21 36 22 37 83 38 23 39 82 40 24 41 25 42 26 43 76 44
REMARK SMILES IDX 27 45 81 46 75 47 77 48 28 49 80 50 74 51 73 52 29 54 61 55
REMARK SMILES IDX 41 56 60 57 42 58 45 59 59 60 78 61 43 62 44 63 58 65 79 66
REMARK SMILES IDX 46 67 30 68 31 69 39 70 32 71 38 72 40 73 37 74 33 75 34 76
REMARK SMILES IDX 35 77 36 78 62 79 63 80 71 81 64 82 70 83 72 84 69 85 65 86
REMARK SMILES IDX 66 87 67 88 68 89 47 90 48 91 56 92 49 93 55 94 57 95 54 96
REMARK SMILES IDX 50 97 51 98 52 99 53 100
REMARK H PARENT 14 6 18 34 77 53 45 64
REMARK Flexibility Score: inf
ROOT
ATOM      1  C   UNL A   1      36.316  21.589  25.250  1.00  0.00     0.042 C 
ENDROOT
BRANCH   1   2
ATOM      2  C   UNL A   1      35.726  22.982  25.140  1.00  0.00     0.117 C 
BRANCH   2   3
ATOM      3  N   UNL A   1      35.184  23.265  23.815  1.00  0.00    -0.355 N 
ATOM      4  C   UNL A   1      34.007  23.891  23.487  1.00  0.00     0.230 C 
ATOM      5  O   UNL A   1      33.824  24.239  22.321  1.00  0.00    -0.274 OA
ATOM      6  H   UNL A   1      35.736  22.966  23.055  1.00  0.00     0.163 HD
BRANCH   4   7
ATOM      7  C   UNL A   1      33.008  24.176  24.605  1.00  0.00     0.136 C 
ATOM      8  C   UNL A   1      31.552  28.281  24.684  1.00  0.00     0.161 A 
ATOM      9  C   UNL A   1      30.834  27.237  25.286  1.00  0.00     0.064 A 
ATOM     10  C   UNL A   1      32.718  27.987  23.976  1.00  0.00     0.161 A 
ATOM     11  C   UNL A   1      31.294  25.909  25.231  1.00  0.00     0.048 A 
ATOM     12  C   UNL A   1      33.148  26.654  23.904  1.00  0.00     0.056 A 
ATOM     13  C   UNL A   1      32.470  25.603  24.547  1.00  0.00    -0.016 A 
ATOM     14  C   UNL A   1      30.525  24.848  25.934  1.00  0.00     0.254 C 
ATOM     15  N   UNL A   1      30.899  23.518  25.719  1.00  0.00    -0.334 N 
ATOM     16  O   UNL A   1      29.606  25.181  26.679  1.00  0.00    -0.269 OA
ATOM     17  C   UNL A   1      31.829  23.161  24.603  1.00  0.00     0.132 C 
ATOM     18  C   UNL A   1      30.125  22.498  26.416  1.00  0.00     0.147 C 
BRANCH   8  19
ATOM     19  O   UNL A   1      31.066  29.561  24.700  1.00  0.00    -0.493 OA
ATOM     20  C   UNL A   1      30.058  29.806  23.721  1.00  0.00     0.278 C 
ENDBRANCH   8  19
BRANCH  10  21
ATOM     21  O   UNL A   1      33.558  28.837  23.309  1.00  0.00    -0.493 OA
ATOM     22  C   UNL A   1      34.191  28.378  22.126  1.00  0.00     0.278 C 
ENDBRANCH  10  21
BRANCH  17  23
ATOM     23  C   UNL A   1      32.243  21.678  24.603  1.00  0.00    -0.024 A 
ATOM     24  C   UNL A   1      32.155  20.847  23.476  1.00  0.00     0.007 A 
ATOM     25  C   UNL A   1      32.729  21.100  25.791  1.00  0.00     0.007 A 
ATOM     26  C   UNL A   1      32.503  19.490  23.547  1.00  0.00     0.015 A 
ATOM     27  C   UNL A   1      33.117  19.753  25.850  1.00  0.00     0.015 A 
ATOM     28  C   UNL A   1      33.001  18.932  24.728  1.00  0.00     0.007 A 
BRANCH  28  29
ATOM     29  S   UNL A   1      33.393  17.188  24.709  1.00  0.00    -0.130 SA
ATOM     30  C   UNL A   1      34.026  16.934  23.031  1.00  0.00     0.091 C 
ENDBRANCH  28  29
ENDBRANCH  17  23
ENDBRANCH   4   7
ENDBRANCH   2   3
ENDBRANCH   1   2
BRANCH   1  31
ATOM     31  C   UNL A   1      37.768  21.505  24.804  1.00  0.00     0.118 C 
BRANCH  31  32
ATOM     32  N   UNL A   1      38.541  20.536  25.571  1.00  0.00    -0.352 N 
ATOM     33  C   UNL A   1      39.596  20.729  26.429  1.00  0.00     0.251 C 
ATOM     34  H   UNL A   1      38.264  19.598  25.455  1.00  0.00     0.163 HD
ATOM     35  O   UNL A   1      40.228  19.756  26.836  1.00  0.00    -0.269 OA
BRANCH  33  36
ATOM     36  C   UNL A   1      39.987  22.096  26.832  1.00  0.00     0.039 A 
ATOM     37  C   UNL A   1      41.031  22.261  27.744  1.00  0.00     0.014 A 
ATOM     38  C   UNL A   1      39.336  23.214  26.306  1.00  0.00     0.014 A 
ATOM     39  C   UNL A   1      41.472  23.547  28.067  1.00  0.00     0.010 A 
ATOM     40  C   UNL A   1      39.837  24.488  26.554  1.00  0.00     0.010 A 
ATOM     41  C   UNL A   1      40.910  24.670  27.439  1.00  0.00    -0.014 A 
BRANCH  41  42
ATOM     42  C   UNL A   1      41.427  26.041  27.692  1.00  0.00     0.031 A 
ATOM     43  C   UNL A   1      42.786  26.439  27.180  1.00  0.00     0.074 A 
ATOM     44  C   UNL A   1      40.704  26.900  28.441  1.00  0.00     0.049 A 
ATOM     45  N   UNL A   1      43.448  27.551  27.371  1.00  0.00    -0.248 NA
ATOM     46  C   UNL A   1      43.512  25.444  26.371  1.00  0.00     0.031 C 
ATOM     47  C   UNL A   1      39.391  26.613  29.027  1.00  0.00     0.029 A 
ATOM     48  N   UNL A   1      40.971  28.183  28.851  1.00  0.00    -0.354 N 
ATOM     49  C   UNL A   1      44.671  27.382  26.730  1.00  0.00     0.074 A 
ATOM     50  C   UNL A   1      44.678  26.042  26.185  1.00  0.00     0.031 C 
ATOM     51  C   UNL A   1      38.959  27.695  29.696  1.00  0.00     0.029 A 
ATOM     52  C   UNL A   1      39.983  28.733  29.637  1.00  0.00     0.049 A 
ATOM     53  H   UNL A   1      41.792  28.665  28.604  1.00  0.00     0.167 HD
ATOM     54  C   UNL A   1      45.686  28.270  26.596  1.00  0.00     0.034 A 
ATOM     55  C   UNL A   1      39.918  29.929  30.256  1.00  0.00     0.034 A 
ATOM     56  C   UNL A   1      45.648  29.613  27.116  1.00  0.00     0.049 A 
ATOM     57  C   UNL A   1      41.072  30.891  30.098  1.00  0.00     0.074 A 
ATOM     58  C   UNL A   1      46.586  30.620  26.961  1.00  0.00     0.029 A 
ATOM     59  N   UNL A   1      44.628  30.138  27.898  1.00  0.00    -0.354 N 
ATOM     60  N   UNL A   1      42.188  30.739  29.422  1.00  0.00    -0.248 NA
ATOM     61  C   UNL A   1      40.953  32.190  30.774  1.00  0.00     0.031 C 
ATOM     62  C   UNL A   1      46.173  31.722  27.714  1.00  0.00     0.029 A 
ATOM     63  C   UNL A   1      44.935  31.439  28.265  1.00  0.00     0.049 A 
ATOM     64  H   UNL A   1      43.809  29.657  28.154  1.00  0.00     0.167 HD
ATOM     65  C   UNL A   1      42.880  31.940  29.559  1.00  0.00     0.074 A 
ATOM     66  C   UNL A   1      42.049  32.809  30.365  1.00  0.00     0.031 C 
ATOM     67  C   UNL A   1      44.092  32.296  29.063  1.00  0.00     0.034 A 
BRANCH  54  68
ATOM     68  C   UNL A   1      46.936  27.817  25.883  1.00  0.00     0.023 A 
ATOM     69  C   UNL A   1      47.123  28.017  24.505  1.00  0.00     0.031 A 
ATOM     70  C   UNL A   1      47.974  27.199  26.607  1.00  0.00     0.131 A 
ATOM     71  C   UNL A   1      48.299  27.566  23.886  1.00  0.00     0.055 A 
ATOM     72  C   UNL A   1      49.170  26.818  25.999  1.00  0.00     0.041 A 
ATOM     73  F   UNL A   1      47.840  26.961  27.922  1.00  0.00    -0.206 F 
ATOM     74  C   UNL A   1      49.336  26.993  24.629  1.00  0.00     0.022 A 
BRANCH  71  75
ATOM     75  S   UNL A   1      48.418  27.649  22.078  1.00  0.00     0.124 S 
ATOM     76  O   UNL A   1      47.108  28.188  21.722  1.00  0.00    -0.237 OA
ATOM     77  O   UNL A   1      49.553  28.542  21.877  1.00  0.00    -0.237 OA
ATOM     78  O   UNL A   1      48.640  26.258  21.686  1.00  0.00    -0.744 OA
ENDBRANCH  71  75
ENDBRANCH  54  68
BRANCH  55  79
ATOM     79  C   UNL A   1      38.744  30.297  31.104  1.00  0.00     0.023 A 
ATOM     80  C   UNL A   1      37.636  30.963  30.555  1.00  0.00     0.031 A 
ATOM     81  C   UNL A   1      38.750  30.074  32.494  1.00  0.00     0.131 A 
ATOM     82  C   UNL A   1      36.625  31.456  31.395  1.00  0.00     0.055 A 
ATOM     83  C   UNL A   1      37.706  30.501  33.316  1.00  0.00     0.041 A 
ATOM     84  F   UNL A   1      39.780  29.440  33.077  1.00  0.00    -0.206 F 
ATOM     85  C   UNL A   1      36.645  31.217  32.770  1.00  0.00     0.022 A 
BRANCH  82  86
ATOM     86  S   UNL A   1      35.360  32.542  30.680  1.00  0.00     0.124 S 
ATOM     87  O   UNL A   1      36.101  33.785  30.505  1.00  0.00    -0.237 OA
ATOM     88  O   UNL A   1      35.005  31.828  29.457  1.00  0.00    -0.237 OA
ATOM     89  O   UNL A   1      34.320  32.572  31.707  1.00  0.00    -0.744 OA
ENDBRANCH  82  86
ENDBRANCH  55  79
BRANCH  67  90
ATOM     90  C   UNL A   1      44.557  33.708  29.326  1.00  0.00     0.023 A 
ATOM     91  C   UNL A   1      44.324  34.751  28.413  1.00  0.00     0.031 A 
ATOM     92  C   UNL A   1      45.254  34.009  30.510  1.00  0.00     0.131 A 
ATOM     93  C   UNL A   1      44.836  36.031  28.671  1.00  0.00     0.055 A 
ATOM     94  C   UNL A   1      45.702  35.300  30.793  1.00  0.00     0.041 A 
ATOM     95  F   UNL A   1      45.509  33.051  31.417  1.00  0.00    -0.206 F 
ATOM     96  C   UNL A   1      45.505  36.317  29.863  1.00  0.00     0.022 A 
BRANCH  93  97
ATOM     97  S   UNL A   1      44.699  37.298  27.380  1.00  0.00     0.124 S 
ATOM     98  O   UNL A   1      44.748  38.531  28.159  1.00  0.00    -0.237 OA
ATOM     99  O   UNL A   1      45.864  37.023  26.547  1.00  0.00    -0.237 OA
ATOM    100  O   UNL A   1      43.408  37.011  26.754  1.00  0.00    -0.744 OA
ENDBRANCH  93  97
ENDBRANCH  67  90
ENDBRANCH  41  42
ENDBRANCH  33  36
ENDBRANCH  31  32
ENDBRANCH   1  31
TORSDOF 17
ENDMDL
MODEL 2
REMARK VINA RESULT:     -13.0      0.689      7.238
REMARK SMILES COc1cc2c(cc1OC)[C@H](C(=O)NCCCNC(=O)c1ccc(-c3c4nc(c(-c5cc(S(=O)(=O)[O-])ccc5F)c5ccc([nH]5)c(-c5cc(S(=O)(=O)[O-])ccc5F)c5nc(c(-c6cc(S(=O)(=O)[O-])ccc6F)c6ccc3[nH]6)C=C5)C=C4)cc1)[C@@H](c1ccc(SC)cc1)N(C)C2=O
REMARK SMILES IDX 16 1 15 2 14 3 12 4 13 5 11 7 3 8 4 9 8 10 5 11 7 12 6 13
REMARK SMILES IDX 95 14 93 15 96 16 84 17 94 18 2 19 1 20 9 21 10 22 85 23
REMARK SMILES IDX 86 24 92 25 87 26 91 27 88 28 89 29 90 30 17 31 18 32 19 33
REMARK SMILES IDX 20 35 21 36 22 37 83 38 23 39 82 40 24 41 25 42 26 43 76 44
REMARK SMILES IDX 27 45 81 46 75 47 77 48 28 49 80 50 74 51 73 52 29 54 61 55
REMARK SMILES IDX 41 56 60 57 42 58 45 59 59 60 78 61 43 62 44 63 58 65 79 66
REMARK SMILES IDX 46 67 30 68 31 69 39 70 32 71 38 72 40 73 37 74 33 75 34 76
REMARK SMILES IDX 35 77 36 78 62 79 63 80 71 81 64 82 70 83 72 84 69 85 65 86
REMARK SMILES IDX 66 87 67 88 68 89 47 90 48 91 56 92 49 93 55 94 57 95 54 96
REMARK SMILES IDX 50 97 51 98 52 99 53 100
REMARK H PARENT 14 6 18 34 77 53 45 64
REMARK Flexibility Score: inf
ROOT
ATOM      1  C   UNL A   1      36.619  21.656  25.648  1.00  0.00     0.042 C 
ENDROOT
BRANCH   1   2
ATOM      2  C   UNL A   1      36.050  23.044  25.426  1.00  0.00     0.117 C 
BRANCH   2   3
ATOM      3  N   UNL A   1      35.532  23.235  24.076  1.00  0.00    -0.355 N 
ATOM      4  C   UNL A   1      34.312  23.731  23.689  1.00  0.00     0.230 C 
ATOM      5  O   UNL A   1      34.139  24.027  22.507  1.00  0.00    -0.274 OA
ATOM      6  H   UNL A   1      36.138  22.972  23.345  1.00  0.00     0.163 HD
BRANCH   4   7
ATOM      7  C   UNL A   1      33.248  23.944  24.763  1.00  0.00     0.136 C 
ATOM      8  C   UNL A   1      31.956  28.083  25.188  1.00  0.00     0.161 A 
ATOM      9  C   UNL A   1      31.157  27.016  25.625  1.00  0.00     0.064 A 
ATOM     10  C   UNL A   1      33.157  27.809  24.531  1.00  0.00     0.161 A 
ATOM     11  C   UNL A   1      31.566  25.681  25.458  1.00  0.00     0.048 A 
ATOM     12  C   UNL A   1      33.537  26.472  24.343  1.00  0.00     0.056 A 
ATOM     13  C   UNL A   1      32.774  25.393  24.823  1.00  0.00    -0.016 A 
ATOM     14  C   UNL A   1      30.706  24.590  25.990  1.00  0.00     0.254 C 
ATOM     15  N   UNL A   1      31.041  23.274  25.658  1.00  0.00    -0.334 N 
ATOM     16  O   UNL A   1      29.751  24.887  26.704  1.00  0.00    -0.269 OA
ATOM     17  C   UNL A   1      32.032  22.992  24.573  1.00  0.00     0.132 C 
ATOM     18  C   UNL A   1      30.179  22.225  26.187  1.00  0.00     0.147 C 
BRANCH   8  19
ATOM     19  O   UNL A   1      31.523  29.376  25.310  1.00  0.00    -0.493 OA
ATOM     20  C   UNL A   1      30.654  29.793  24.258  1.00  0.00     0.278 C 
ENDBRANCH   8  19
BRANCH  10  21
ATOM     21  O   UNL A   1      34.076  28.684  24.016  1.00  0.00    -0.493 OA
ATOM     22  C   UNL A   1      34.255  28.734  22.611  1.00  0.00     0.278 C 
ENDBRANCH  10  21
BRANCH  17  23
ATOM     23  C   UNL A   1      32.386  21.499  24.440  1.00  0.00    -0.024 A 
ATOM     24  C   UNL A   1      32.974  20.746  25.468  1.00  0.00     0.007 A 
ATOM     25  C   UNL A   1      32.123  20.836  23.226  1.00  0.00     0.007 A 
ATOM     26  C   UNL A   1      33.317  19.401  25.274  1.00  0.00     0.015 A 
ATOM     27  C   UNL A   1      32.429  19.478  23.049  1.00  0.00     0.015 A 
ATOM     28  C   UNL A   1      33.036  18.748  24.070  1.00  0.00     0.007 A 
BRANCH  28  29
ATOM     29  S   UNL A   1      33.536  17.038  23.927  1.00  0.00    -0.130 SA
ATOM     30  C   UNL A   1      32.898  16.302  25.454  1.00  0.00     0.091 C 
ENDBRANCH  28  29
ENDBRANCH  17  23
ENDBRANCH   4   7
ENDBRANCH   2   3
ENDBRANCH   1   2
BRANCH   1  31
ATOM     31  C   UNL A   1      37.954  21.428  24.956  1.00  0.00     0.118 C 
BRANCH  31  32
ATOM     32  N   UNL A   1      38.777  20.428  25.627  1.00  0.00    -0.352 N 
ATOM     33  C   UNL A   1      39.889  20.587  26.418  1.00  0.00     0.251 C 
ATOM     34  H   UNL A   1      38.491  19.496  25.491  1.00  0.00     0.163 HD
ATOM     35  O   UNL A   1      40.545  19.599  26.739  1.00  0.00    -0.269 OA
BRANCH  33  36
ATOM     36  C   UNL A   1      40.309  21.937  26.849  1.00  0.00     0.039 A 
ATOM     37  C   UNL A   1      41.171  22.062  27.941  1.00  0.00     0.014 A 
ATOM     38  C   UNL A   1      39.864  23.077  26.177  1.00  0.00     0.014 A 
ATOM     39  C   UNL A   1      41.648  23.323  28.306  1.00  0.00     0.010 A 
ATOM     40  C   UNL A   1      40.414  24.318  26.481  1.00  0.00     0.010 A 
ATOM     41  C   UNL A   1      41.311  24.457  27.550  1.00  0.00    -0.014 A 
BRANCH  41  42
ATOM     42  C   UNL A   1      41.882  25.794  27.859  1.00  0.00     0.031 A 
ATOM     43  C   UNL A   1      41.040  26.830  28.556  1.00  0.00     0.074 A 
ATOM     44  C   UNL A   1      43.132  26.098  27.448  1.00  0.00     0.049 A 
ATOM     45  N   UNL A   1      41.324  28.076  28.832  1.00  0.00    -0.248 NA
ATOM     46  C   UNL A   1      39.687  26.420  28.970  1.00  0.00     0.031 C 
ATOM     47  C   UNL A   1      44.030  25.190  26.728  1.00  0.00     0.029 A 
ATOM     48  N   UNL A   1      43.863  27.254  27.565  1.00  0.00    -0.354 N 
ATOM     49  C   UNL A   1      40.183  28.604  29.428  1.00  0.00     0.074 A 
ATOM     50  C   UNL A   1      39.186  27.556  29.430  1.00  0.00     0.031 C 
ATOM     51  C   UNL A   1      45.195  25.815  26.491  1.00  0.00     0.029 A 
ATOM     52  C   UNL A   1      45.113  27.184  26.991  1.00  0.00     0.049 A 
ATOM     53  H   UNL A   1      43.525  28.059  28.019  1.00  0.00     0.167 HD
ATOM     54  C   UNL A   1      39.993  29.844  29.940  1.00  0.00     0.034 A 
ATOM     55  C   UNL A   1      46.074  28.120  26.863  1.00  0.00     0.034 A 
ATOM     56  C   UNL A   1      41.009  30.866  29.961  1.00  0.00     0.049 A 
ATOM     57  C   UNL A   1      45.826  29.497  27.433  1.00  0.00     0.074 A 
ATOM     58  C   UNL A   1      40.947  32.126  30.534  1.00  0.00     0.029 A 
ATOM     59  N   UNL A   1      42.265  30.756  29.379  1.00  0.00    -0.354 N 
ATOM     60  N   UNL A   1      44.766  29.952  28.063  1.00  0.00    -0.248 NA
ATOM     61  C   UNL A   1      46.906  30.482  27.289  1.00  0.00     0.031 C 
ATOM     62  C   UNL A   1      42.131  32.803  30.229  1.00  0.00     0.029 A 
ATOM     63  C   UNL A   1      42.968  31.938  29.545  1.00  0.00     0.049 A 
ATOM     64  H   UNL A   1      42.604  29.956  28.918  1.00  0.00     0.167 HD
ATOM     65  C   UNL A   1      45.074  31.261  28.424  1.00  0.00     0.074 A 
ATOM     66  C   UNL A   1      46.421  31.515  27.960  1.00  0.00     0.031 C 
ATOM     67  C   UNL A   1      44.315  32.173  29.082  1.00  0.00     0.034 A 
BRANCH  54  68
ATOM     68  C   UNL A   1      38.632  30.181  30.498  1.00  0.00     0.023 A 
ATOM     69  C   UNL A   1      37.647  30.822  29.728  1.00  0.00     0.031 A 
ATOM     70  C   UNL A   1      38.306  29.823  31.820  1.00  0.00     0.131 A 
ATOM     71  C   UNL A   1      36.401  31.124  30.298  1.00  0.00     0.055 A 
ATOM     72  C   UNL A   1      37.041  30.061  32.357  1.00  0.00     0.041 A 
ATOM     73  F   UNL A   1      39.216  29.229  32.610  1.00  0.00    -0.206 F 
ATOM     74  C   UNL A   1      36.081  30.722  31.598  1.00  0.00     0.022 A 
BRANCH  71  75
ATOM     75  S   UNL A   1      35.233  32.136  29.348  1.00  0.00     0.124 S 
ATOM     76  O   UNL A   1      34.429  32.732  30.412  1.00  0.00    -0.237 OA
ATOM     77  O   UNL A   1      36.116  33.046  28.629  1.00  0.00    -0.237 OA
ATOM     78  O   UNL A   1      34.531  31.160  28.517  1.00  0.00    -0.744 OA
ENDBRANCH  71  75
ENDBRANCH  54  68
BRANCH  55  79
ATOM     79  C   UNL A   1      47.354  27.821  26.153  1.00  0.00     0.023 A 
ATOM     80  C   UNL A   1      47.474  28.017  24.767  1.00  0.00     0.031 A 
ATOM     81  C   UNL A   1      48.446  27.244  26.828  1.00  0.00     0.131 A 
ATOM     82  C   UNL A   1      48.618  27.568  24.090  1.00  0.00     0.055 A 
ATOM     83  C   UNL A   1      49.612  26.866  26.161  1.00  0.00     0.041 A 
ATOM     84  F   UNL A   1      48.391  27.033  28.154  1.00  0.00    -0.206 F 
ATOM     85  C   UNL A   1      49.694  27.007  24.779  1.00  0.00     0.022 A 
BRANCH  82  86
ATOM     86  S   UNL A   1      48.616  27.593  22.276  1.00  0.00     0.124 S 
ATOM     87  O   UNL A   1      48.675  26.170  21.961  1.00  0.00    -0.237 OA
ATOM     88  O   UNL A   1      47.352  28.263  21.985  1.00  0.00    -0.237 OA
ATOM     89  O   UNL A   1      49.817  28.358  21.946  1.00  0.00    -0.744 OA
ENDBRANCH  82  86
ENDBRANCH  55  79
BRANCH  67  90
ATOM     90  C   UNL A   1      44.953  33.506  29.394  1.00  0.00     0.023 A 
ATOM     91  C   UNL A   1      44.864  34.597  28.513  1.00  0.00     0.031 A 
ATOM     92  C   UNL A   1      45.668  33.680  30.592  1.00  0.00     0.131 A 
ATOM     93  C   UNL A   1      45.530  35.794  28.816  1.00  0.00     0.055 A 
ATOM     94  C   UNL A   1      46.272  34.894  30.920  1.00  0.00     0.041 A 
ATOM     95  F   UNL A   1      45.789  32.670  31.470  1.00  0.00    -0.206 F 
ATOM     96  C   UNL A   1      46.217  35.956  30.022  1.00  0.00     0.022 A 
BRANCH  93  97
ATOM     97  S   UNL A   1      45.570  37.108  27.565  1.00  0.00     0.124 S 
ATOM     98  O   UNL A   1      44.152  37.304  27.286  1.00  0.00    -0.237 OA
ATOM     99  O   UNL A   1      46.236  38.194  28.274  1.00  0.00    -0.237 OA
ATOM    100  O   UNL A   1      46.342  36.516  26.472  1.00  0.00    -0.744 OA
ENDBRANCH  93  97
ENDBRANCH  67  90
ENDBRANCH  41  42
ENDBRANCH  33  36
ENDBRANCH  31  32
ENDBRANCH   1  31
TORSDOF 17
ENDMDL
MODEL 3
REMARK VINA RESULT:     -12.7      2.315      2.749
REMARK SMILES COc1cc2c(cc1OC)[C@H](C(=O)NCCCNC(=O)c1ccc(-c3c4nc(c(-c5cc(S(=O)(=O)[O-])ccc5F)c5ccc([nH]5)c(-c5cc(S(=O)(=O)[O-])ccc5F)c5nc(c(-c6cc(S(=O)(=O)[O-])ccc6F)c6ccc3[nH]6)C=C5)C=C4)cc1)[C@@H](c1ccc(SC)cc1)N(C)C2=O
REMARK SMILES IDX 16 1 15 2 14 3 12 4 13 5 11 7 3 8 4 9 8 10 5 11 7 12 6 13
REMARK SMILES IDX 95 14 93 15 96 16 84 17 94 18 2 19 1 20 9 21 10 22 85 23
REMARK SMILES IDX 86 24 92 25 87 26 91 27 88 28 89 29 90 30 17 31 18 32 19 33
REMARK SMILES IDX 20 35 21 36 22 37 83 38 23 39 82 40 24 41 25 42 26 43 76 44
REMARK SMILES IDX 27 45 81 46 75 47 77 48 28 49 80 50 74 51 73 52 29 54 61 55
REMARK SMILES IDX 41 56 60 57 42 58 45 59 59 60 78 61 43 62 44 63 58 65 79 66
REMARK SMILES IDX 46 67 30 68 31 69 39 70 32 71 38 72 40 73 37 74 33 75 34 76
REMARK SMILES IDX 35 77 36 78 62 79 63 80 71 81 64 82 70 83 72 84 69 85 65 86
REMARK SMILES IDX 66 87 67 88 68 89 47 90 48 91 56 92 49 93 55 94 57 95 54 96
REMARK SMILES IDX 50 97 51 98 52 99 53 100
REMARK H PARENT 14 6 18 34 77 53 45 64
REMARK Flexibility Score: inf
ROOT
ATOM      1  C   UNL A   1      37.465  22.226  24.657  1.00  0.00     0.042 C 
ENDROOT
BRANCH   1   2
ATOM      2  C   UNL A   1      36.469  23.367  24.568  1.00  0.00     0.117 C 
BRANCH   2   3
ATOM      3  N   UNL A   1      35.705  23.357  23.325  1.00  0.00    -0.355 N 
ATOM      4  C   UNL A   1      34.379  23.653  23.133  1.00  0.00     0.230 C 
ATOM      5  O   UNL A   1      33.965  23.807  21.985  1.00  0.00    -0.274 OA
ATOM      6  H   UNL A   1      36.208  23.103  22.517  1.00  0.00     0.163 HD
BRANCH   4   7
ATOM      7  C   UNL A   1      33.495  23.832  24.365  1.00  0.00     0.136 C 
ATOM      8  C   UNL A   1      32.118  27.919  24.983  1.00  0.00     0.161 A 
ATOM      9  C   UNL A   1      31.446  26.825  25.548  1.00  0.00     0.064 A 
ATOM     10  C   UNL A   1      33.207  27.689  24.140  1.00  0.00     0.161 A 
ATOM     11  C   UNL A   1      31.878  25.507  25.320  1.00  0.00     0.048 A 
ATOM     12  C   UNL A   1      33.607  26.367  23.897  1.00  0.00     0.056 A 
ATOM     13  C   UNL A   1      32.977  25.262  24.498  1.00  0.00    -0.016 A 
ATOM     14  C   UNL A   1      31.162  24.387  25.988  1.00  0.00     0.254 C 
ATOM     15  N   UNL A   1      31.494  23.082  25.610  1.00  0.00    -0.334 N 
ATOM     16  O   UNL A   1      30.325  24.651  26.847  1.00  0.00    -0.269 OA
ATOM     17  C   UNL A   1      32.307  22.830  24.379  1.00  0.00     0.132 C 
ATOM     18  C   UNL A   1      30.774  22.004  26.276  1.00  0.00     0.147 C 
BRANCH   8  19
ATOM     19  O   UNL A   1      31.657  29.195  25.170  1.00  0.00    -0.493 OA
ATOM     20  C   UNL A   1      30.713  29.615  24.186  1.00  0.00     0.278 C 
ENDBRANCH   8  19
BRANCH  10  21
ATOM     21  O   UNL A   1      33.992  28.595  23.480  1.00  0.00    -0.493 OA
ATOM     22  C   UNL A   1      34.135  28.475  22.074  1.00  0.00     0.278 C 
ENDBRANCH  10  21
BRANCH  17  23
ATOM     23  C   UNL A   1      32.696  21.352  24.195  1.00  0.00    -0.024 A 
ATOM     24  C   UNL A   1      33.668  20.702  24.971  1.00  0.00     0.007 A 
ATOM     25  C   UNL A   1      32.062  20.594  23.191  1.00  0.00     0.007 A 
ATOM     26  C   UNL A   1      34.015  19.366  24.726  1.00  0.00     0.015 A 
ATOM     27  C   UNL A   1      32.381  19.245  22.977  1.00  0.00     0.015 A 
ATOM     28  C   UNL A   1      33.366  18.618  23.738  1.00  0.00     0.007 A 
BRANCH  28  29
ATOM     29  S   UNL A   1      33.904  16.931  23.502  1.00  0.00    -0.130 SA
ATOM     30  C   UNL A   1      33.040  16.041  24.822  1.00  0.00     0.091 C 
ENDBRANCH  28  29
ENDBRANCH  17  23
ENDBRANCH   4   7
ENDBRANCH   2   3
ENDBRANCH   1   2
BRANCH   1  31
ATOM     31  C   UNL A   1      38.009  21.999  26.059  1.00  0.00     0.118 C 
BRANCH  31  32
ATOM     32  N   UNL A   1      39.308  21.338  26.063  1.00  0.00    -0.352 N 
ATOM     33  C   UNL A   1      40.557  21.848  26.323  1.00  0.00     0.251 C 
ATOM     34  H   UNL A   1      39.286  20.378  25.847  1.00  0.00     0.163 HD
ATOM     35  O   UNL A   1      41.548  21.158  26.095  1.00  0.00    -0.269 OA
BRANCH  33  36
ATOM     36  C   UNL A   1      40.706  23.225  26.840  1.00  0.00     0.039 A 
ATOM     37  C   UNL A   1      41.254  23.416  28.110  1.00  0.00     0.014 A 
ATOM     38  C   UNL A   1      40.317  24.326  26.074  1.00  0.00     0.014 A 
ATOM     39  C   UNL A   1      41.485  24.711  28.577  1.00  0.00     0.010 A 
ATOM     40  C   UNL A   1      40.635  25.612  26.500  1.00  0.00     0.010 A 
ATOM     41  C   UNL A   1      41.221  25.821  27.757  1.00  0.00    -0.014 A 
BRANCH  41  42
ATOM     42  C   UNL A   1      41.548  27.204  28.192  1.00  0.00     0.031 A 
ATOM     43  C   UNL A   1      42.985  27.650  28.267  1.00  0.00     0.074 A 
ATOM     44  C   UNL A   1      40.557  28.031  28.588  1.00  0.00     0.049 A 
ATOM     45  N   UNL A   1      43.478  28.779  28.704  1.00  0.00    -0.248 NA
ATOM     46  C   UNL A   1      44.005  26.687  27.818  1.00  0.00     0.031 C 
ATOM     47  C   UNL A   1      39.130  27.698  28.600  1.00  0.00     0.029 A 
ATOM     48  N   UNL A   1      40.596  29.317  29.067  1.00  0.00    -0.354 N 
ATOM     49  C   UNL A   1      44.860  28.655  28.606  1.00  0.00     0.074 A 
ATOM     50  C   UNL A   1      45.129  27.323  28.113  1.00  0.00     0.031 C 
ATOM     51  C   UNL A   1      38.431  28.758  29.037  1.00  0.00     0.029 A 
ATOM     52  C   UNL A   1      39.358  29.829  29.391  1.00  0.00     0.049 A 
ATOM     53  H   UNL A   1      41.431  29.828  29.169  1.00  0.00     0.167 HD
ATOM     54  C   UNL A   1      45.814  29.576  28.888  1.00  0.00     0.034 A 
ATOM     55  C   UNL A   1      39.012  31.015  29.930  1.00  0.00     0.034 A 
ATOM     56  C   UNL A   1      45.526  30.912  29.347  1.00  0.00     0.049 A 
ATOM     57  C   UNL A   1      40.101  32.014  30.245  1.00  0.00     0.074 A 
ATOM     58  C   UNL A   1      46.415  31.948  29.578  1.00  0.00     0.029 A 
ATOM     59  N   UNL A   1      44.262  31.396  29.654  1.00  0.00    -0.354 N 
ATOM     60  N   UNL A   1      41.398  31.904  30.072  1.00  0.00    -0.248 NA
ATOM     61  C   UNL A   1      39.679  33.301  30.813  1.00  0.00     0.031 C 
ATOM     62  C   UNL A   1      45.699  33.029  30.099  1.00  0.00     0.029 A 
ATOM     63  C   UNL A   1      44.354  32.701  30.110  1.00  0.00     0.049 A 
ATOM     64  H   UNL A   1      43.425  30.887  29.561  1.00  0.00     0.167 HD
ATOM     65  C   UNL A   1      41.938  33.124  30.472  1.00  0.00     0.074 A 
ATOM     66  C   UNL A   1      40.826  33.958  30.876  1.00  0.00     0.031 C 
ATOM     67  C   UNL A   1      43.234  33.523  30.502  1.00  0.00     0.034 A 
BRANCH  54  68
ATOM     68  C   UNL A   1      47.259  29.169  28.736  1.00  0.00     0.023 A 
ATOM     69  C   UNL A   1      47.876  29.064  27.478  1.00  0.00     0.031 A 
ATOM     70  C   UNL A   1      48.041  28.914  29.878  1.00  0.00     0.131 A 
ATOM     71  C   UNL A   1      49.220  28.670  27.390  1.00  0.00     0.055 A 
ATOM     72  C   UNL A   1      49.396  28.594  29.786  1.00  0.00     0.041 A 
ATOM     73  F   UNL A   1      47.498  28.977  31.105  1.00  0.00    -0.206 F 
ATOM     74  C   UNL A   1      49.992  28.462  28.536  1.00  0.00     0.022 A 
BRANCH  71  75
ATOM     75  S   UNL A   1      49.923  28.339  25.751  1.00  0.00     0.124 S 
ATOM     76  O   UNL A   1      50.624  27.079  25.981  1.00  0.00    -0.237 OA
ATOM     77  O   UNL A   1      48.737  28.265  24.907  1.00  0.00    -0.237 OA
ATOM     78  O   UNL A   1      50.789  29.493  25.510  1.00  0.00    -0.744 OA
ENDBRANCH  71  75
ENDBRANCH  54  68
BRANCH  55  79
ATOM     79  C   UNL A   1      37.585  31.336  30.236  1.00  0.00     0.023 A 
ATOM     80  C   UNL A   1      36.711  31.775  29.229  1.00  0.00     0.031 A 
ATOM     81  C   UNL A   1      37.097  31.302  31.555  1.00  0.00     0.131 A 
ATOM     82  C   UNL A   1      35.430  32.240  29.563  1.00  0.00     0.055 A 
ATOM     83  C   UNL A   1      35.796  31.695  31.874  1.00  0.00     0.041 A 
ATOM     84  F   UNL A   1      37.885  30.889  32.562  1.00  0.00    -0.206 F 
ATOM     85  C   UNL A   1      34.961  32.189  30.877  1.00  0.00     0.022 A 
BRANCH  82  86
ATOM     86  S   UNL A   1      34.439  33.048  28.276  1.00  0.00     0.124 S 
ATOM     87  O   UNL A   1      35.473  33.632  27.430  1.00  0.00    -0.237 OA
ATOM     88  O   UNL A   1      33.705  31.922  27.708  1.00  0.00    -0.237 OA
ATOM     89  O   UNL A   1      33.628  34.006  29.024  1.00  0.00    -0.744 OA
ENDBRANCH  82  86
ENDBRANCH  55  79
BRANCH  67  90
ATOM     90  C   UNL A   1      43.509  34.945  30.926  1.00  0.00     0.023 A 
ATOM     91  C   UNL A   1      43.602  35.314  32.279  1.00  0.00     0.031 A 
ATOM     92  C   UNL A   1      43.673  35.950  29.955  1.00  0.00     0.131 A 
ATOM     93  C   UNL A   1      43.791  36.660  32.625  1.00  0.00     0.055 A 
ATOM     94  C   UNL A   1      43.929  37.276  30.304  1.00  0.00     0.041 A 
ATOM     95  F   UNL A   1      43.591  35.656  28.647  1.00  0.00    -0.206 F 
ATOM     96  C   UNL A   1      43.975  37.640  31.646  1.00  0.00     0.022 A 
BRANCH  93  97
ATOM     97  S   UNL A   1      43.696  37.131  34.374  1.00  0.00     0.124 S 
ATOM     98  O   UNL A   1      42.599  38.092  34.371  1.00  0.00    -0.237 OA
ATOM     99  O   UNL A   1      43.424  35.855  35.027  1.00  0.00    -0.237 OA
ATOM    100  O   UNL A   1      45.017  37.697  34.649  1.00  0.00    -0.744 OA
ENDBRANCH  93  97
ENDBRANCH  67  90
ENDBRANCH  41  42
ENDBRANCH  33  36
ENDBRANCH  31  32
ENDBRANCH   1  31
TORSDOF 17
ENDMDL
