MODEL 1
REMARK VINA RESULT:     -11.5      0.000      0.000
REMARK SMILES O=C(NCCCNC(=O)c1c[nH]c(=O)c(-c2cccc([N+](=O)[O-])c2)c1)c1ccc(-c2c3nc(c(-c4cc(S(=O)(=O)[O-])ccc4F)c4ccc([nH]4)c(-c4cc(S(=O)(=O)[O-])ccc4F)c4nc(c(-c5cc(S(=O)(=O)[O-])ccc5F)c5ccc2[nH]5)C=C4)C=C3)cc1
REMARK SMILES IDX 4 1 3 2 1 3 2 4 26 6 27 7 88 8 28 9 87 10 29 11 30 12 31 13
REMARK SMILES IDX 81 14 32 15 86 16 80 17 82 18 33 19 85 20 79 21 78 22 34 24
REMARK SMILES IDX 66 25 46 26 65 27 47 28 50 29 64 30 83 31 48 32 49 33 63 35
REMARK SMILES IDX 84 36 51 37 35 38 36 39 44 40 37 41 43 42 45 43 42 44 38 45
REMARK SMILES IDX 39 46 40 47 41 48 67 49 68 50 76 51 69 52 75 53 77 54 74 55
REMARK SMILES IDX 70 56 71 57 72 58 73 59 52 60 53 61 61 62 54 63 60 64 62 65
REMARK SMILES IDX 59 66 55 67 56 68 57 69 58 70 5 71 6 72 7 73 8 74 9 76 10 77
REMARK SMILES IDX 11 78 25 79 12 80 15 81 13 82 14 84 16 85 17 86 24 87 18 88
REMARK SMILES IDX 20 89 19 90 21 91 22 92 23 93
REMARK H PARENT 3 5 82 23 50 34 7 75 12 83
REMARK Flexibility Score: inf
ROOT
ATOM      1  C   UNL A   1      34.885  34.022  28.724  1.00  0.00     0.118 C 
ENDROOT
BRANCH   1   2
ATOM      2  N   UNL A   1      34.147  32.975  28.029  1.00  0.00    -0.352 N 
ATOM      3  O   UNL A   1      33.796  31.000  27.008  1.00  0.00    -0.269 OA
ATOM      4  C   UNL A   1      34.495  31.670  27.766  1.00  0.00     0.251 C 
ATOM      5  H   UNL A   1      33.261  33.243  27.693  1.00  0.00     0.163 HD
BRANCH   4   6
ATOM      6  C   UNL A   1      35.708  31.084  28.376  1.00  0.00     0.039 A 
ATOM      7  C   UNL A   1      36.951  31.694  28.209  1.00  0.00     0.014 A 
ATOM      8  C   UNL A   1      35.602  29.917  29.140  1.00  0.00     0.014 A 
ATOM      9  C   UNL A   1      38.102  31.050  28.641  1.00  0.00     0.010 A 
ATOM     10  C   UNL A   1      36.754  29.333  29.678  1.00  0.00     0.010 A 
ATOM     11  C   UNL A   1      38.018  29.877  29.407  1.00  0.00    -0.014 A 
BRANCH  11  12
ATOM     12  C   UNL A   1      39.265  29.292  29.965  1.00  0.00     0.031 A 
ATOM     13  C   UNL A   1      39.871  29.813  31.240  1.00  0.00     0.074 A 
ATOM     14  C   UNL A   1      39.829  28.249  29.323  1.00  0.00     0.049 A 
ATOM     15  N   UNL A   1      40.951  29.411  31.861  1.00  0.00    -0.248 NA
ATOM     16  C   UNL A   1      39.184  30.934  31.895  1.00  0.00     0.031 C 
ATOM     17  C   UNL A   1      39.324  27.656  28.080  1.00  0.00     0.029 A 
ATOM     18  N   UNL A   1      40.926  27.485  29.628  1.00  0.00    -0.354 N 
ATOM     19  C   UNL A   1      41.079  30.232  32.977  1.00  0.00     0.074 A 
ATOM     20  C   UNL A   1      39.988  31.183  32.919  1.00  0.00     0.031 C 
ATOM     21  C   UNL A   1      40.075  26.594  27.761  1.00  0.00     0.029 A 
ATOM     22  C   UNL A   1      41.167  26.482  28.719  1.00  0.00     0.049 A 
ATOM     23  H   UNL A   1      41.488  27.641  30.421  1.00  0.00     0.167 HD
ATOM     24  C   UNL A   1      42.014  30.186  33.960  1.00  0.00     0.034 A 
ATOM     25  C   UNL A   1      42.171  25.587  28.642  1.00  0.00     0.034 A 
ATOM     26  C   UNL A   1      43.099  29.232  33.993  1.00  0.00     0.049 A 
ATOM     27  C   UNL A   1      43.236  25.608  29.705  1.00  0.00     0.074 A 
ATOM     28  C   UNL A   1      44.091  29.088  34.948  1.00  0.00     0.029 A 
ATOM     29  N   UNL A   1      43.347  28.268  33.023  1.00  0.00    -0.354 N 
ATOM     30  N   UNL A   1      43.334  26.385  30.761  1.00  0.00    -0.248 NA
ATOM     31  C   UNL A   1      44.322  24.632  29.570  1.00  0.00     0.031 C 
ATOM     32  C   UNL A   1      44.979  28.095  34.519  1.00  0.00     0.029 A 
ATOM     33  C   UNL A   1      44.493  27.552  33.340  1.00  0.00     0.049 A 
ATOM     34  H   UNL A   1      42.789  28.114  32.226  1.00  0.00     0.167 HD
ATOM     35  C   UNL A   1      44.480  25.968  31.429  1.00  0.00     0.074 A 
ATOM     36  C   UNL A   1      45.023  24.860  30.670  1.00  0.00     0.031 C 
ATOM     37  C   UNL A   1      45.033  26.456  32.569  1.00  0.00     0.034 A 
BRANCH  24  38
ATOM     38  C   UNL A   1      41.927  31.222  35.056  1.00  0.00     0.023 A 
ATOM     39  C   UNL A   1      40.838  31.271  35.944  1.00  0.00     0.031 A 
ATOM     40  C   UNL A   1      42.942  32.184  35.211  1.00  0.00     0.131 A 
ATOM     41  C   UNL A   1      40.755  32.298  36.897  1.00  0.00     0.055 A 
ATOM     42  C   UNL A   1      42.894  33.153  36.215  1.00  0.00     0.041 A 
ATOM     43  F   UNL A   1      43.997  32.203  34.383  1.00  0.00    -0.206 F 
ATOM     44  C   UNL A   1      41.788  33.224  37.057  1.00  0.00     0.022 A 
BRANCH  41  45
ATOM     45  S   UNL A   1      39.207  32.493  37.823  1.00  0.00     0.124 S 
ATOM     46  O   UNL A   1      39.668  32.346  39.203  1.00  0.00    -0.237 OA
ATOM     47  O   UNL A   1      38.774  33.831  37.435  1.00  0.00    -0.237 OA
ATOM     48  O   UNL A   1      38.374  31.398  37.331  1.00  0.00    -0.744 OA
ENDBRANCH  41  45
ENDBRANCH  24  38
BRANCH  25  49
ATOM     49  C   UNL A   1      42.242  24.631  27.500  1.00  0.00     0.023 A 
ATOM     50  C   UNL A   1      41.472  23.458  27.488  1.00  0.00     0.031 A 
ATOM     51  C   UNL A   1      43.118  24.856  26.422  1.00  0.00     0.131 A 
ATOM     52  C   UNL A   1      41.632  22.530  26.448  1.00  0.00     0.055 A 
ATOM     53  C   UNL A   1      43.223  23.962  25.356  1.00  0.00     0.041 A 
ATOM     54  F   UNL A   1      43.878  25.962  26.382  1.00  0.00    -0.206 F 
ATOM     55  C   UNL A   1      42.488  22.782  25.374  1.00  0.00     0.022 A 
BRANCH  52  56
ATOM     56  S   UNL A   1      40.783  20.933  26.577  1.00  0.00     0.124 S 
ATOM     57  O   UNL A   1      41.658  20.069  25.794  1.00  0.00    -0.237 OA
ATOM     58  O   UNL A   1      40.780  20.708  28.019  1.00  0.00    -0.237 OA
ATOM     59  O   UNL A   1      39.472  21.197  25.986  1.00  0.00    -0.744 OA
ENDBRANCH  52  56
ENDBRANCH  25  49
BRANCH  37  60
ATOM     60  C   UNL A   1      46.266  25.754  33.084  1.00  0.00     0.023 A 
ATOM     61  C   UNL A   1      47.543  26.006  32.550  1.00  0.00     0.031 A 
ATOM     62  C   UNL A   1      46.157  24.796  34.108  1.00  0.00     0.131 A 
ATOM     63  C   UNL A   1      48.647  25.264  32.997  1.00  0.00     0.055 A 
ATOM     64  C   UNL A   1      47.270  24.112  34.598  1.00  0.00     0.041 A 
ATOM     65  F   UNL A   1      44.963  24.509  34.651  1.00  0.00    -0.206 F 
ATOM     66  C   UNL A   1      48.522  24.333  34.031  1.00  0.00     0.022 A 
BRANCH  63  67
ATOM     67  S   UNL A   1      50.230  25.453  32.132  1.00  0.00     0.124 S 
ATOM     68  O   UNL A   1      50.528  24.079  31.744  1.00  0.00    -0.237 OA
ATOM     69  O   UNL A   1      49.885  26.362  31.044  1.00  0.00    -0.237 OA
ATOM     70  O   UNL A   1      51.113  26.014  33.153  1.00  0.00    -0.744 OA
ENDBRANCH  63  67
ENDBRANCH  37  60
ENDBRANCH  11  12
ENDBRANCH   4   6
ENDBRANCH   1   2
BRANCH   1  71
ATOM     71  C   UNL A   1      34.214  35.381  28.628  1.00  0.00     0.042 C 
BRANCH  71  72
ATOM     72  C   UNL A   1      32.905  35.473  29.393  1.00  0.00     0.118 C 
BRANCH  72  73
ATOM     73  N   UNL A   1      32.829  36.659  30.240  1.00  0.00    -0.352 N 
ATOM     74  C   UNL A   1      33.164  36.832  31.553  1.00  0.00     0.252 C 
ATOM     75  H   UNL A   1      32.481  37.464  29.793  1.00  0.00     0.163 HD
ATOM     76  O   UNL A   1      32.903  37.891  32.120  1.00  0.00    -0.269 OA
BRANCH  74  77
ATOM     77  C   UNL A   1      33.832  35.719  32.274  1.00  0.00     0.056 A 
ATOM     78  C   UNL A   1      33.075  34.713  32.734  1.00  0.00     0.099 A 
ATOM     79  C   UNL A   1      35.265  35.679  32.466  1.00  0.00     0.029 A 
ATOM     80  N   UNL A   1      33.667  33.622  33.326  1.00  0.00    -0.328 N 
ATOM     81  C   UNL A   1      35.882  34.592  32.966  1.00  0.00     0.048 A 
ATOM     82  C   UNL A   1      35.028  33.460  33.466  1.00  0.00     0.255 A 
ATOM     83  H   UNL A   1      33.080  32.912  33.674  1.00  0.00     0.169 HD
ATOM     84  O   UNL A   1      35.508  32.455  33.985  1.00  0.00    -0.269 OA
BRANCH  81  85
ATOM     85  C   UNL A   1      37.351  34.510  32.896  1.00  0.00    -0.006 A 
ATOM     86  C   UNL A   1      38.138  34.605  34.055  1.00  0.00     0.009 A 
ATOM     87  C   UNL A   1      37.983  34.429  31.646  1.00  0.00     0.094 A 
ATOM     88  C   UNL A   1      39.533  34.631  33.973  1.00  0.00     0.008 A 
ATOM     89  C   UNL A   1      39.382  34.454  31.569  1.00  0.00     0.270 A 
ATOM     90  C   UNL A   1      40.159  34.559  32.730  1.00  0.00     0.085 A 
BRANCH  89  91
ATOM     91  N   UNL A   1      40.043  34.389  30.259  1.00  0.00     0.062 N 
ATOM     92  O   UNL A   1      39.753  35.262  29.427  1.00  0.00    -0.258 OA
ATOM     93  O   UNL A   1      40.848  33.470  30.064  1.00  0.00    -0.258 OA
ENDBRANCH  89  91
ENDBRANCH  81  85
ENDBRANCH  74  77
ENDBRANCH  72  73
ENDBRANCH  71  72
ENDBRANCH   1  71
TORSDOF 15
ENDMDL
MODEL 2
REMARK VINA RESULT:     -11.3      1.840      2.155
REMARK SMILES O=C(NCCCNC(=O)c1c[nH]c(=O)c(-c2cccc([N+](=O)[O-])c2)c1)c1ccc(-c2c3nc(c(-c4cc(S(=O)(=O)[O-])ccc4F)c4ccc([nH]4)c(-c4cc(S(=O)(=O)[O-])ccc4F)c4nc(c(-c5cc(S(=O)(=O)[O-])ccc5F)c5ccc2[nH]5)C=C4)C=C3)cc1
REMARK SMILES IDX 4 1 3 2 1 3 2 4 26 6 27 7 88 8 28 9 87 10 29 11 30 12 31 13
REMARK SMILES IDX 81 14 32 15 86 16 80 17 82 18 33 19 85 20 79 21 78 22 34 24
REMARK SMILES IDX 66 25 46 26 65 27 47 28 50 29 64 30 83 31 48 32 49 33 63 35
REMARK SMILES IDX 84 36 51 37 35 38 36 39 44 40 37 41 43 42 45 43 42 44 38 45
REMARK SMILES IDX 39 46 40 47 41 48 67 49 68 50 76 51 69 52 75 53 77 54 74 55
REMARK SMILES IDX 70 56 71 57 72 58 73 59 52 60 53 61 61 62 54 63 60 64 62 65
REMARK SMILES IDX 59 66 55 67 56 68 57 69 58 70 5 71 6 72 7 73 8 74 9 76 10 77
REMARK SMILES IDX 11 78 25 79 12 80 15 81 13 82 14 84 16 85 17 86 24 87 18 88
REMARK SMILES IDX 20 89 19 90 21 91 22 92 23 93
REMARK H PARENT 3 5 82 23 50 34 7 75 12 83
REMARK Flexibility Score: inf
ROOT
ATOM      1  C   UNL A   1      34.981  33.926  28.650  1.00  0.00     0.118 C 
ENDROOT
BRANCH   1   2
ATOM      2  N   UNL A   1      34.208  32.852  28.039  1.00  0.00    -0.352 N 
ATOM      3  O   UNL A   1      33.803  30.836  27.125  1.00  0.00    -0.269 OA
ATOM      4  C   UNL A   1      34.540  31.535  27.817  1.00  0.00     0.251 C 
ATOM      5  H   UNL A   1      33.307  33.109  27.736  1.00  0.00     0.163 HD
BRANCH   4   6
ATOM      6  C   UNL A   1      35.781  30.972  28.392  1.00  0.00     0.039 A 
ATOM      7  C   UNL A   1      37.022  31.520  28.071  1.00  0.00     0.014 A 
ATOM      8  C   UNL A   1      35.703  29.891  29.276  1.00  0.00     0.014 A 
ATOM      9  C   UNL A   1      38.186  30.882  28.480  1.00  0.00     0.010 A 
ATOM     10  C   UNL A   1      36.877  29.324  29.784  1.00  0.00     0.010 A 
ATOM     11  C   UNL A   1      38.130  29.795  29.365  1.00  0.00    -0.014 A 
BRANCH  11  12
ATOM     12  C   UNL A   1      39.401  29.226  29.886  1.00  0.00     0.031 A 
ATOM     13  C   UNL A   1      40.047  29.767  31.132  1.00  0.00     0.074 A 
ATOM     14  C   UNL A   1      39.950  28.180  29.237  1.00  0.00     0.049 A 
ATOM     15  N   UNL A   1      41.152  29.380  31.720  1.00  0.00    -0.248 NA
ATOM     16  C   UNL A   1      39.375  30.890  31.798  1.00  0.00     0.031 C 
ATOM     17  C   UNL A   1      39.407  27.568  28.019  1.00  0.00     0.029 A 
ATOM     18  N   UNL A   1      41.064  27.429  29.511  1.00  0.00    -0.354 N 
ATOM     19  C   UNL A   1      41.313  30.215  32.821  1.00  0.00     0.074 A 
ATOM     20  C   UNL A   1      40.213  31.158  32.790  1.00  0.00     0.031 C 
ATOM     21  C   UNL A   1      40.155  26.509  27.685  1.00  0.00     0.029 A 
ATOM     22  C   UNL A   1      41.281  26.416  28.606  1.00  0.00     0.049 A 
ATOM     23  H   UNL A   1      41.652  27.598  30.282  1.00  0.00     0.167 HD
ATOM     24  C   UNL A   1      42.282  30.188  33.771  1.00  0.00     0.034 A 
ATOM     25  C   UNL A   1      42.288  25.529  28.504  1.00  0.00     0.034 A 
ATOM     26  C   UNL A   1      43.375  29.243  33.776  1.00  0.00     0.049 A 
ATOM     27  C   UNL A   1      43.390  25.570  29.528  1.00  0.00     0.074 A 
ATOM     28  C   UNL A   1      44.401  29.118  34.698  1.00  0.00     0.029 A 
ATOM     29  N   UNL A   1      43.596  28.269  32.809  1.00  0.00    -0.354 N 
ATOM     30  N   UNL A   1      43.519  26.360  30.571  1.00  0.00    -0.248 NA
ATOM     31  C   UNL A   1      44.478  24.601  29.366  1.00  0.00     0.031 C 
ATOM     32  C   UNL A   1      45.281  28.127  34.248  1.00  0.00     0.029 A 
ATOM     33  C   UNL A   1      44.759  27.566  33.094  1.00  0.00     0.049 A 
ATOM     34  H   UNL A   1      43.012  28.102  32.034  1.00  0.00     0.167 HD
ATOM     35  C   UNL A   1      44.691  25.960  31.203  1.00  0.00     0.074 A 
ATOM     36  C   UNL A   1      45.216  24.847  30.438  1.00  0.00     0.031 C 
ATOM     37  C   UNL A   1      45.280  26.465  32.317  1.00  0.00     0.034 A 
BRANCH  24  38
ATOM     38  C   UNL A   1      42.225  31.236  34.857  1.00  0.00     0.023 A 
ATOM     39  C   UNL A   1      42.855  32.485  34.715  1.00  0.00     0.031 A 
ATOM     40  C   UNL A   1      41.538  30.982  36.058  1.00  0.00     0.131 A 
ATOM     41  C   UNL A   1      42.846  33.401  35.778  1.00  0.00     0.055 A 
ATOM     42  C   UNL A   1      41.463  31.931  37.081  1.00  0.00     0.041 A 
ATOM     43  F   UNL A   1      40.934  29.802  36.263  1.00  0.00    -0.206 F 
ATOM     44  C   UNL A   1      42.133  33.144  36.950  1.00  0.00     0.022 A 
BRANCH  41  45
ATOM     45  S   UNL A   1      43.906  34.869  35.663  1.00  0.00     0.124 S 
ATOM     46  O   UNL A   1      45.118  34.312  35.066  1.00  0.00    -0.237 OA
ATOM     47  O   UNL A   1      43.124  35.756  34.808  1.00  0.00    -0.237 OA
ATOM     48  O   UNL A   1      44.045  35.301  37.052  1.00  0.00    -0.744 OA
ENDBRANCH  41  45
ENDBRANCH  24  38
BRANCH  25  49
ATOM     49  C   UNL A   1      42.327  24.559  27.371  1.00  0.00     0.023 A 
ATOM     50  C   UNL A   1      41.546  23.394  27.388  1.00  0.00     0.031 A 
ATOM     51  C   UNL A   1      43.182  24.765  26.273  1.00  0.00     0.131 A 
ATOM     52  C   UNL A   1      41.676  22.453  26.355  1.00  0.00     0.055 A 
ATOM     53  C   UNL A   1      43.256  23.858  25.214  1.00  0.00     0.041 A 
ATOM     54  F   UNL A   1      43.951  25.864  26.205  1.00  0.00    -0.206 F 
ATOM     55  C   UNL A   1      42.512  22.685  25.261  1.00  0.00     0.022 A 
BRANCH  52  56
ATOM     56  S   UNL A   1      40.816  20.866  26.519  1.00  0.00     0.124 S 
ATOM     57  O   UNL A   1      40.813  20.679  27.965  1.00  0.00    -0.237 OA
ATOM     58  O   UNL A   1      39.524  21.157  25.907  1.00  0.00    -0.237 OA
ATOM     59  O   UNL A   1      41.665  19.940  25.771  1.00  0.00    -0.744 OA
ENDBRANCH  52  56
ENDBRANCH  25  49
BRANCH  37  60
ATOM     60  C   UNL A   1      46.536  25.778  32.796  1.00  0.00     0.023 A 
ATOM     61  C   UNL A   1      46.501  24.757  33.763  1.00  0.00     0.031 A 
ATOM     62  C   UNL A   1      47.790  26.172  32.297  1.00  0.00     0.131 A 
ATOM     63  C   UNL A   1      47.700  24.210  34.245  1.00  0.00     0.055 A 
ATOM     64  C   UNL A   1      48.975  25.575  32.730  1.00  0.00     0.041 A 
ATOM     65  F   UNL A   1      47.885  27.147  31.379  1.00  0.00    -0.206 F 
ATOM     66  C   UNL A   1      48.935  24.598  33.721  1.00  0.00     0.022 A 
BRANCH  63  67
ATOM     67  S   UNL A   1      47.630  23.061  35.648  1.00  0.00     0.124 S 
ATOM     68  O   UNL A   1      48.116  21.823  35.049  1.00  0.00    -0.237 OA
ATOM     69  O   UNL A   1      48.521  23.695  36.614  1.00  0.00    -0.237 OA
ATOM     70  O   UNL A   1      46.216  23.058  36.018  1.00  0.00    -0.744 OA
ENDBRANCH  63  67
ENDBRANCH  37  60
ENDBRANCH  11  12
ENDBRANCH   4   6
ENDBRANCH   1   2
BRANCH   1  71
ATOM     71  C   UNL A   1      34.314  35.284  28.517  1.00  0.00     0.042 C 
BRANCH  71  72
ATOM     72  C   UNL A   1      32.986  35.388  29.246  1.00  0.00     0.118 C 
BRANCH  72  73
ATOM     73  N   UNL A   1      32.880  36.597  30.056  1.00  0.00    -0.352 N 
ATOM     74  C   UNL A   1      33.183  36.813  31.370  1.00  0.00     0.252 C 
ATOM     75  H   UNL A   1      32.536  37.385  29.577  1.00  0.00     0.163 HD
ATOM     76  O   UNL A   1      32.900  37.885  31.899  1.00  0.00    -0.269 OA
BRANCH  74  77
ATOM     77  C   UNL A   1      33.843  35.728  32.139  1.00  0.00     0.056 A 
ATOM     78  C   UNL A   1      33.080  34.749  32.645  1.00  0.00     0.099 A 
ATOM     79  C   UNL A   1      35.277  35.686  32.332  1.00  0.00     0.029 A 
ATOM     80  N   UNL A   1      33.664  33.682  33.285  1.00  0.00    -0.328 N 
ATOM     81  C   UNL A   1      35.886  34.618  32.878  1.00  0.00     0.048 A 
ATOM     82  C   UNL A   1      35.024  33.515  33.430  1.00  0.00     0.255 A 
ATOM     83  H   UNL A   1      33.073  32.992  33.665  1.00  0.00     0.169 HD
ATOM     84  O   UNL A   1      35.498  32.532  33.993  1.00  0.00    -0.269 OA
BRANCH  81  85
ATOM     85  C   UNL A   1      37.354  34.522  32.811  1.00  0.00    -0.006 A 
ATOM     86  C   UNL A   1      38.137  34.543  33.976  1.00  0.00     0.009 A 
ATOM     87  C   UNL A   1      37.992  34.502  31.560  1.00  0.00     0.094 A 
ATOM     88  C   UNL A   1      39.533  34.556  33.902  1.00  0.00     0.008 A 
ATOM     89  C   UNL A   1      39.391  34.514  31.491  1.00  0.00     0.270 A 
ATOM     90  C   UNL A   1      40.164  34.546  32.659  1.00  0.00     0.085 A 
BRANCH  89  91
ATOM     91  N   UNL A   1      40.058  34.514  30.183  1.00  0.00     0.062 N 
ATOM     92  O   UNL A   1      41.298  34.476  30.172  1.00  0.00    -0.258 OA
ATOM     93  O   UNL A   1      39.346  34.552  29.172  1.00  0.00    -0.258 OA
ENDBRANCH  89  91
ENDBRANCH  81  85
ENDBRANCH  74  77
ENDBRANCH  72  73
ENDBRANCH  71  72
ENDBRANCH   1  71
TORSDOF 15
ENDMDL
MODEL 3
REMARK VINA RESULT:     -11.2      4.186      6.996
REMARK SMILES O=C(NCCCNC(=O)c1c[nH]c(=O)c(-c2cccc([N+](=O)[O-])c2)c1)c1ccc(-c2c3nc(c(-c4cc(S(=O)(=O)[O-])ccc4F)c4ccc([nH]4)c(-c4cc(S(=O)(=O)[O-])ccc4F)c4nc(c(-c5cc(S(=O)(=O)[O-])ccc5F)c5ccc2[nH]5)C=C4)C=C3)cc1
REMARK SMILES IDX 4 1 3 2 1 3 2 4 26 6 27 7 88 8 28 9 87 10 29 11 30 12 31 13
REMARK SMILES IDX 81 14 32 15 86 16 80 17 82 18 33 19 85 20 79 21 78 22 34 24
REMARK SMILES IDX 66 25 46 26 65 27 47 28 50 29 64 30 83 31 48 32 49 33 63 35
REMARK SMILES IDX 84 36 51 37 35 38 36 39 44 40 37 41 43 42 45 43 42 44 38 45
REMARK SMILES IDX 39 46 40 47 41 48 67 49 68 50 76 51 69 52 75 53 77 54 74 55
REMARK SMILES IDX 70 56 71 57 72 58 73 59 52 60 53 61 61 62 54 63 60 64 62 65
REMARK SMILES IDX 59 66 55 67 56 68 57 69 58 70 5 71 6 72 7 73 8 74 9 76 10 77
REMARK SMILES IDX 11 78 25 79 12 80 15 81 13 82 14 84 16 85 17 86 24 87 18 88
REMARK SMILES IDX 20 89 19 90 21 91 22 92 23 93
REMARK H PARENT 3 5 82 23 50 34 7 75 12 83
REMARK Flexibility Score: inf
ROOT
ATOM      1  C   UNL A   1      34.003  28.676  25.892  1.00  0.00     0.118 C 
ENDROOT
BRANCH   1   2
ATOM      2  N   UNL A   1      33.701  30.017  26.380  1.00  0.00    -0.352 N 
ATOM      3  O   UNL A   1      33.796  31.811  27.735  1.00  0.00    -0.269 OA
ATOM      4  C   UNL A   1      34.320  30.766  27.354  1.00  0.00     0.251 C 
ATOM      5  H   UNL A   1      32.934  30.454  25.945  1.00  0.00     0.163 HD
BRANCH   4   6
ATOM      6  C   UNL A   1      35.595  30.309  27.949  1.00  0.00     0.039 A 
ATOM      7  C   UNL A   1      36.805  30.546  27.299  1.00  0.00     0.014 A 
ATOM      8  C   UNL A   1      35.583  29.648  29.182  1.00  0.00     0.014 A 
ATOM      9  C   UNL A   1      37.973  29.969  27.779  1.00  0.00     0.010 A 
ATOM     10  C   UNL A   1      36.781  29.171  29.724  1.00  0.00     0.010 A 
ATOM     11  C   UNL A   1      37.982  29.300  29.012  1.00  0.00    -0.014 A 
BRANCH  11  12
ATOM     12  C   UNL A   1      39.277  28.814  29.556  1.00  0.00     0.031 A 
ATOM     13  C   UNL A   1      39.880  29.415  30.797  1.00  0.00     0.074 A 
ATOM     14  C   UNL A   1      39.891  27.787  28.935  1.00  0.00     0.049 A 
ATOM     15  N   UNL A   1      40.998  29.103  31.402  1.00  0.00    -0.248 NA
ATOM     16  C   UNL A   1      39.139  30.512  31.433  1.00  0.00     0.031 C 
ATOM     17  C   UNL A   1      39.395  27.121  27.725  1.00  0.00     0.029 A 
ATOM     18  N   UNL A   1      41.042  27.105  29.235  1.00  0.00    -0.354 N 
ATOM     19  C   UNL A   1      41.101  29.968  32.487  1.00  0.00     0.074 A 
ATOM     20  C   UNL A   1      39.950  30.847  32.427  1.00  0.00     0.031 C 
ATOM     21  C   UNL A   1      40.205  26.098  27.421  1.00  0.00     0.029 A 
ATOM     22  C   UNL A   1      41.324  26.088  28.353  1.00  0.00     0.049 A 
ATOM     23  H   UNL A   1      41.611  27.323  30.007  1.00  0.00     0.167 HD
ATOM     24  C   UNL A   1      42.061  30.015  33.446  1.00  0.00     0.034 A 
ATOM     25  C   UNL A   1      42.381  25.256  28.279  1.00  0.00     0.034 A 
ATOM     26  C   UNL A   1      43.204  29.133  33.481  1.00  0.00     0.049 A 
ATOM     27  C   UNL A   1      43.468  25.380  29.312  1.00  0.00     0.074 A 
ATOM     28  C   UNL A   1      44.226  29.084  34.415  1.00  0.00     0.029 A 
ATOM     29  N   UNL A   1      43.489  28.154  32.538  1.00  0.00    -0.354 N 
ATOM     30  N   UNL A   1      43.542  26.197  30.339  1.00  0.00    -0.248 NA
ATOM     31  C   UNL A   1      44.610  24.470  29.181  1.00  0.00     0.031 C 
ATOM     32  C   UNL A   1      45.165  28.135  33.994  1.00  0.00     0.029 A 
ATOM     33  C   UNL A   1      44.687  27.523  32.848  1.00  0.00     0.049 A 
ATOM     34  H   UNL A   1      42.923  27.938  31.761  1.00  0.00     0.167 HD
ATOM     35  C   UNL A   1      44.728  25.877  30.990  1.00  0.00     0.074 A 
ATOM     36  C   UNL A   1      45.322  24.780  30.254  1.00  0.00     0.031 C 
ATOM     37  C   UNL A   1      45.276  26.437  32.098  1.00  0.00     0.034 A 
BRANCH  24  38
ATOM     38  C   UNL A   1      41.934  31.081  34.510  1.00  0.00     0.023 A 
ATOM     39  C   UNL A   1      42.545  32.339  34.373  1.00  0.00     0.031 A 
ATOM     40  C   UNL A   1      41.198  30.833  35.683  1.00  0.00     0.131 A 
ATOM     41  C   UNL A   1      42.470  33.273  35.419  1.00  0.00     0.055 A 
ATOM     42  C   UNL A   1      41.059  31.797  36.684  1.00  0.00     0.041 A 
ATOM     43  F   UNL A   1      40.609  29.645  35.882  1.00  0.00    -0.206 F 
ATOM     44  C   UNL A   1      41.709  33.021  36.562  1.00  0.00     0.022 A 
BRANCH  41  45
ATOM     45  S   UNL A   1      43.505  34.760  35.324  1.00  0.00     0.124 S 
ATOM     46  O   UNL A   1      43.695  35.078  36.738  1.00  0.00    -0.237 OA
ATOM     47  O   UNL A   1      44.685  34.278  34.614  1.00  0.00    -0.237 OA
ATOM     48  O   UNL A   1      42.674  35.709  34.585  1.00  0.00    -0.744 OA
ENDBRANCH  41  45
ENDBRANCH  24  38
BRANCH  25  49
ATOM     49  C   UNL A   1      42.485  24.268  27.168  1.00  0.00     0.023 A 
ATOM     50  C   UNL A   1      41.872  23.009  27.257  1.00  0.00     0.031 A 
ATOM     51  C   UNL A   1      43.240  24.553  26.015  1.00  0.00     0.131 A 
ATOM     52  C   UNL A   1      42.068  22.064  26.239  1.00  0.00     0.055 A 
ATOM     53  C   UNL A   1      43.375  23.633  24.974  1.00  0.00     0.041 A 
ATOM     54  F   UNL A   1      43.848  25.742  25.876  1.00  0.00    -0.206 F 
ATOM     55  C   UNL A   1      42.800  22.373  25.091  1.00  0.00     0.022 A 
BRANCH  52  56
ATOM     56  S   UNL A   1      41.441  20.381  26.489  1.00  0.00     0.124 S 
ATOM     57  O   UNL A   1      41.924  20.083  27.833  1.00  0.00    -0.237 OA
ATOM     58  O   UNL A   1      40.001  20.571  26.351  1.00  0.00    -0.237 OA
ATOM     59  O   UNL A   1      42.075  19.619  25.414  1.00  0.00    -0.744 OA
ENDBRANCH  52  56
ENDBRANCH  25  49
BRANCH  37  60
ATOM     60  C   UNL A   1      46.564  25.832  32.604  1.00  0.00     0.023 A 
ATOM     61  C   UNL A   1      47.810  26.163  32.043  1.00  0.00     0.031 A 
ATOM     62  C   UNL A   1      46.538  24.888  33.646  1.00  0.00     0.131 A 
ATOM     63  C   UNL A   1      48.971  25.508  32.482  1.00  0.00     0.055 A 
ATOM     64  C   UNL A   1      47.705  24.292  34.127  1.00  0.00     0.041 A 
ATOM     65  F   UNL A   1      45.377  24.527  34.214  1.00  0.00    -0.206 F 
ATOM     66  C   UNL A   1      48.929  24.589  33.535  1.00  0.00     0.022 A 
BRANCH  63  67
ATOM     67  S   UNL A   1      50.523  25.791  31.587  1.00  0.00     0.124 S 
ATOM     68  O   UNL A   1      50.642  27.244  31.641  1.00  0.00    -0.237 OA
ATOM     69  O   UNL A   1      51.486  25.042  32.387  1.00  0.00    -0.237 OA
ATOM     70  O   UNL A   1      50.258  25.239  30.259  1.00  0.00    -0.744 OA
ENDBRANCH  63  67
ENDBRANCH  37  60
ENDBRANCH  11  12
ENDBRANCH   4   6
ENDBRANCH   1   2
BRANCH   1  71
ATOM     71  C   UNL A   1      33.288  27.588  26.673  1.00  0.00     0.042 C 
BRANCH  71  72
ATOM     72  C   UNL A   1      32.067  27.027  25.965  1.00  0.00     0.118 C 
BRANCH  72  73
ATOM     73  N   UNL A   1      32.405  26.306  24.742  1.00  0.00    -0.352 N 
ATOM     74  C   UNL A   1      31.666  26.076  23.617  1.00  0.00     0.252 C 
ATOM     75  H   UNL A   1      33.312  25.926  24.725  1.00  0.00     0.163 HD
ATOM     76  O   UNL A   1      32.097  25.331  22.740  1.00  0.00    -0.269 OA
BRANCH  74  77
ATOM     77  C   UNL A   1      30.340  26.731  23.485  1.00  0.00     0.056 A 
ATOM     78  C   UNL A   1      29.245  26.016  23.776  1.00  0.00     0.099 A 
ATOM     79  C   UNL A   1      30.203  28.114  23.081  1.00  0.00     0.029 A 
ATOM     80  N   UNL A   1      28.007  26.614  23.753  1.00  0.00    -0.328 N 
ATOM     81  C   UNL A   1      29.018  28.750  23.128  1.00  0.00     0.048 A 
ATOM     82  C   UNL A   1      27.794  27.946  23.471  1.00  0.00     0.255 A 
ATOM     83  H   UNL A   1      27.221  26.054  23.949  1.00  0.00     0.169 HD
ATOM     84  O   UNL A   1      26.669  28.437  23.483  1.00  0.00    -0.269 OA
BRANCH  81  85
ATOM     85  C   UNL A   1      28.987  30.213  22.957  1.00  0.00    -0.006 A 
ATOM     86  C   UNL A   1      29.479  31.070  23.954  1.00  0.00     0.009 A 
ATOM     87  C   UNL A   1      28.371  30.766  21.823  1.00  0.00     0.094 A 
ATOM     88  C   UNL A   1      29.354  32.457  23.832  1.00  0.00     0.008 A 
ATOM     89  C   UNL A   1      28.248  32.156  21.706  1.00  0.00     0.270 A 
ATOM     90  C   UNL A   1      28.734  33.004  22.710  1.00  0.00     0.085 A 
BRANCH  89  91
ATOM     91  N   UNL A   1      27.586  32.735  20.529  1.00  0.00     0.062 N 
ATOM     92  O   UNL A   1      27.397  31.991  19.555  1.00  0.00    -0.258 OA
ATOM     93  O   UNL A   1      27.258  33.926  20.579  1.00  0.00    -0.258 OA
ENDBRANCH  89  91
ENDBRANCH  81  85
ENDBRANCH  74  77
ENDBRANCH  72  73
ENDBRANCH  71  72
ENDBRANCH   1  71
TORSDOF 15
ENDMDL
