MODEL 1
REMARK VINA RESULT:     -12.7      0.000      0.000
REMARK SMILES O=C(NCCCNC(=O)c1ccc(F)cc1-c1ccc(F)c(Cl)c1)c1ccc(-c2c3nc(c(-c4cc(S(=O)(=O)[O-])ccc4F)c4ccc([nH]4)c(-c4cc(S(=O)(=O)[O-])ccc4F)c4nc(c(-c5cc(S(=O)(=O)[O-])ccc5F)c5ccc2[nH]5)C=C4)C=C3)cc1
REMARK SMILES IDX 4 1 3 2 1 3 2 4 25 6 26 7 87 8 27 9 86 10 28 11 29 12 30 13
REMARK SMILES IDX 80 14 31 15 85 16 79 17 81 18 32 19 84 20 78 21 77 22 33 24
REMARK SMILES IDX 65 25 45 26 64 27 46 28 49 29 63 30 82 31 47 32 48 33 62 35
REMARK SMILES IDX 83 36 50 37 34 38 35 39 43 40 36 41 42 42 44 43 41 44 37 45
REMARK SMILES IDX 38 46 39 47 40 48 66 49 67 50 75 51 68 52 74 53 76 54 73 55
REMARK SMILES IDX 69 56 70 57 71 58 72 59 51 60 52 61 60 62 53 63 59 64 61 65
REMARK SMILES IDX 58 66 54 67 55 68 56 69 57 70 5 71 6 72 7 73 8 74 9 76 10 77
REMARK SMILES IDX 11 78 16 79 12 80 15 81 13 82 14 83 17 84 18 85 24 86 19 87
REMARK SMILES IDX 22 88 20 89 23 90 21 91
REMARK H PARENT 3 5 81 23 49 34 7 75
REMARK Flexibility Score: inf
ROOT
ATOM      1  C   UNL A   1      37.247  21.327  24.887  1.00  0.00     0.118 C 
ENDROOT
BRANCH   1   2
ATOM      2  N   UNL A   1      38.176  20.318  25.383  1.00  0.00    -0.352 N 
ATOM      3  O   UNL A   1      40.065  19.444  26.229  1.00  0.00    -0.269 OA
ATOM      4  C   UNL A   1      39.381  20.448  26.032  1.00  0.00     0.251 C 
ATOM      5  H   UNL A   1      37.893  19.388  25.226  1.00  0.00     0.163 HD
BRANCH   4   6
ATOM      6  C   UNL A   1      39.876  21.774  26.467  1.00  0.00     0.039 A 
ATOM      7  C   UNL A   1      39.324  22.951  25.964  1.00  0.00     0.014 A 
ATOM      8  C   UNL A   1      40.902  21.842  27.416  1.00  0.00     0.014 A 
ATOM      9  C   UNL A   1      39.915  24.176  26.259  1.00  0.00     0.010 A 
ATOM     10  C   UNL A   1      41.428  23.084  27.792  1.00  0.00     0.010 A 
ATOM     11  C   UNL A   1      40.970  24.261  27.182  1.00  0.00    -0.014 A 
BRANCH  11  12
ATOM     12  C   UNL A   1      41.553  25.593  27.501  1.00  0.00     0.031 A 
ATOM     13  C   UNL A   1      42.894  26.002  26.951  1.00  0.00     0.074 A 
ATOM     14  C   UNL A   1      40.836  26.460  28.244  1.00  0.00     0.049 A 
ATOM     15  N   UNL A   1      43.544  27.125  27.121  1.00  0.00    -0.248 NA
ATOM     16  C   UNL A   1      43.603  25.028  26.104  1.00  0.00     0.031 C 
ATOM     17  C   UNL A   1      39.518  26.183  28.825  1.00  0.00     0.029 A 
ATOM     18  N   UNL A   1      41.091  27.757  28.616  1.00  0.00    -0.354 N 
ATOM     19  C   UNL A   1      44.737  26.991  26.420  1.00  0.00     0.074 A 
ATOM     20  C   UNL A   1      44.736  25.666  25.840  1.00  0.00     0.031 C 
ATOM     21  C   UNL A   1      39.058  27.289  29.426  1.00  0.00     0.029 A 
ATOM     22  C   UNL A   1      40.073  28.334  29.342  1.00  0.00     0.049 A 
ATOM     23  H   UNL A   1      41.923  28.229  28.385  1.00  0.00     0.167 HD
ATOM     24  C   UNL A   1      45.734  27.895  26.265  1.00  0.00     0.034 A 
ATOM     25  C   UNL A   1      39.972  29.555  29.901  1.00  0.00     0.034 A 
ATOM     26  C   UNL A   1      45.714  29.224  26.821  1.00  0.00     0.049 A 
ATOM     27  C   UNL A   1      41.119  30.518  29.755  1.00  0.00     0.074 A 
ATOM     28  C   UNL A   1      46.663  30.224  26.687  1.00  0.00     0.029 A 
ATOM     29  N   UNL A   1      44.700  29.741  27.614  1.00  0.00    -0.354 N 
ATOM     30  N   UNL A   1      42.244  30.361  29.100  1.00  0.00    -0.248 NA
ATOM     31  C   UNL A   1      40.989  31.814  30.435  1.00  0.00     0.031 C 
ATOM     32  C   UNL A   1      46.250  31.323  27.446  1.00  0.00     0.029 A 
ATOM     33  C   UNL A   1      45.016  31.032  28.003  1.00  0.00     0.049 A 
ATOM     34  H   UNL A   1      43.878  29.261  27.864  1.00  0.00     0.167 HD
ATOM     35  C   UNL A   1      42.957  31.540  29.289  1.00  0.00     0.074 A 
ATOM     36  C   UNL A   1      42.128  32.406  30.100  1.00  0.00     0.031 C 
ATOM     37  C   UNL A   1      44.188  31.873  28.830  1.00  0.00     0.034 A 
BRANCH  24  38
ATOM     38  C   UNL A   1      46.951  27.482  25.482  1.00  0.00     0.023 A 
ATOM     39  C   UNL A   1      47.086  27.785  24.117  1.00  0.00     0.031 A 
ATOM     40  C   UNL A   1      48.020  26.839  26.130  1.00  0.00     0.131 A 
ATOM     41  C   UNL A   1      48.259  27.421  23.436  1.00  0.00     0.055 A 
ATOM     42  C   UNL A   1      49.205  26.528  25.461  1.00  0.00     0.041 A 
ATOM     43  F   UNL A   1      47.935  26.518  27.431  1.00  0.00    -0.206 F 
ATOM     44  C   UNL A   1      49.328  26.817  24.105  1.00  0.00     0.022 A 
BRANCH  41  45
ATOM     45  S   UNL A   1      48.356  27.712  21.650  1.00  0.00     0.124 S 
ATOM     46  O   UNL A   1      49.435  28.694  21.571  1.00  0.00    -0.237 OA
ATOM     47  O   UNL A   1      48.660  26.387  21.124  1.00  0.00    -0.237 OA
ATOM     48  O   UNL A   1      47.028  28.225  21.314  1.00  0.00    -0.744 OA
ENDBRANCH  41  45
ENDBRANCH  24  38
BRANCH  25  49
ATOM     49  C   UNL A   1      38.764  29.916  30.693  1.00  0.00     0.023 A 
ATOM     50  C   UNL A   1      37.766  30.745  30.159  1.00  0.00     0.031 A 
ATOM     51  C   UNL A   1      38.599  29.440  32.007  1.00  0.00     0.131 A 
ATOM     52  C   UNL A   1      36.656  31.092  30.945  1.00  0.00     0.055 A 
ATOM     53  C   UNL A   1      37.471  29.752  32.767  1.00  0.00     0.041 A 
ATOM     54  F   UNL A   1      39.525  28.641  32.560  1.00  0.00    -0.206 F 
ATOM     55  C   UNL A   1      36.495  30.589  32.239  1.00  0.00     0.022 A 
BRANCH  52  56
ATOM     56  S   UNL A   1      35.440  32.253  30.267  1.00  0.00     0.124 S 
ATOM     57  O   UNL A   1      35.004  31.556  29.062  1.00  0.00    -0.237 OA
ATOM     58  O   UNL A   1      34.464  32.337  31.348  1.00  0.00    -0.237 OA
ATOM     59  O   UNL A   1      36.219  33.468  30.039  1.00  0.00    -0.744 OA
ENDBRANCH  52  56
ENDBRANCH  25  49
BRANCH  37  60
ATOM     60  C   UNL A   1      44.712  33.236  29.190  1.00  0.00     0.023 A 
ATOM     61  C   UNL A   1      44.363  34.370  28.438  1.00  0.00     0.031 A 
ATOM     62  C   UNL A   1      45.526  33.407  30.322  1.00  0.00     0.131 A 
ATOM     63  C   UNL A   1      44.850  35.629  28.816  1.00  0.00     0.055 A 
ATOM     64  C   UNL A   1      45.972  34.668  30.717  1.00  0.00     0.041 A 
ATOM     65  F   UNL A   1      45.880  32.352  31.073  1.00  0.00    -0.206 F 
ATOM     66  C   UNL A   1      45.637  35.787  29.959  1.00  0.00     0.022 A 
BRANCH  63  67
ATOM     67  S   UNL A   1      44.454  37.064  27.780  1.00  0.00     0.124 S 
ATOM     68  O   UNL A   1      44.017  38.041  28.772  1.00  0.00    -0.237 OA
ATOM     69  O   UNL A   1      45.727  37.345  27.125  1.00  0.00    -0.237 OA
ATOM     70  O   UNL A   1      43.401  36.566  26.894  1.00  0.00    -0.744 OA
ENDBRANCH  63  67
ENDBRANCH  37  60
ENDBRANCH  11  12
ENDBRANCH   4   6
ENDBRANCH   1   2
BRANCH   1  71
ATOM     71  C   UNL A   1      36.032  21.524  25.784  1.00  0.00     0.042 C 
BRANCH  71  72
ATOM     72  C   UNL A   1      35.451  22.931  25.771  1.00  0.00     0.118 C 
BRANCH  72  73
ATOM     73  N   UNL A   1      35.337  23.490  24.431  1.00  0.00    -0.352 N 
ATOM     74  C   UNL A   1      34.297  24.141  23.817  1.00  0.00     0.251 C 
ATOM     75  H   UNL A   1      36.141  23.384  23.873  1.00  0.00     0.163 HD
ATOM     76  O   UNL A   1      34.415  24.510  22.652  1.00  0.00    -0.269 OA
BRANCH  74  77
ATOM     77  C   UNL A   1      33.047  24.429  24.559  1.00  0.00     0.047 A 
ATOM     78  C   UNL A   1      32.845  25.741  25.027  1.00  0.00     0.017 A 
ATOM     79  C   UNL A   1      32.040  23.449  24.708  1.00  0.00    -0.003 A 
ATOM     80  C   UNL A   1      31.679  26.070  25.714  1.00  0.00     0.040 A 
ATOM     81  C   UNL A   1      30.869  23.810  25.402  1.00  0.00     0.048 A 
ATOM     82  C   UNL A   1      30.706  25.100  25.901  1.00  0.00     0.123 A 
ATOM     83  F   UNL A   1      29.579  25.416  26.552  1.00  0.00    -0.207 F 
BRANCH  79  84
ATOM     84  C   UNL A   1      32.140  22.092  24.146  1.00  0.00    -0.016 A 
ATOM     85  C   UNL A   1      32.005  21.853  22.769  1.00  0.00     0.012 A 
ATOM     86  C   UNL A   1      32.380  20.997  24.999  1.00  0.00     0.032 A 
ATOM     87  C   UNL A   1      32.097  20.553  22.258  1.00  0.00     0.041 A 
ATOM     88  C   UNL A   1      32.471  19.701  24.486  1.00  0.00     0.077 A 
ATOM     89  C   UNL A   1      32.327  19.486  23.120  1.00  0.00     0.141 A 
ATOM     90  Cl  UNL A   1      32.767  18.386  25.561  1.00  0.00    -0.081 Cl
ATOM     91  F   UNL A   1      32.414  18.248  22.609  1.00  0.00    -0.205 F 
ENDBRANCH  79  84
ENDBRANCH  74  77
ENDBRANCH  72  73
ENDBRANCH  71  72
ENDBRANCH   1  71
TORSDOF 14
ENDMDL
MODEL 2
REMARK VINA RESULT:     -12.6      1.504      2.823
REMARK SMILES O=C(NCCCNC(=O)c1ccc(F)cc1-c1ccc(F)c(Cl)c1)c1ccc(-c2c3nc(c(-c4cc(S(=O)(=O)[O-])ccc4F)c4ccc([nH]4)c(-c4cc(S(=O)(=O)[O-])ccc4F)c4nc(c(-c5cc(S(=O)(=O)[O-])ccc5F)c5ccc2[nH]5)C=C4)C=C3)cc1
REMARK SMILES IDX 4 1 3 2 1 3 2 4 25 6 26 7 87 8 27 9 86 10 28 11 29 12 30 13
REMARK SMILES IDX 80 14 31 15 85 16 79 17 81 18 32 19 84 20 78 21 77 22 33 24
REMARK SMILES IDX 65 25 45 26 64 27 46 28 49 29 63 30 82 31 47 32 48 33 62 35
REMARK SMILES IDX 83 36 50 37 34 38 35 39 43 40 36 41 42 42 44 43 41 44 37 45
REMARK SMILES IDX 38 46 39 47 40 48 66 49 67 50 75 51 68 52 74 53 76 54 73 55
REMARK SMILES IDX 69 56 70 57 71 58 72 59 51 60 52 61 60 62 53 63 59 64 61 65
REMARK SMILES IDX 58 66 54 67 55 68 56 69 57 70 5 71 6 72 7 73 8 74 9 76 10 77
REMARK SMILES IDX 11 78 16 79 12 80 15 81 13 82 14 83 17 84 18 85 24 86 19 87
REMARK SMILES IDX 22 88 20 89 23 90 21 91
REMARK H PARENT 3 5 81 23 49 34 7 75
REMARK Flexibility Score: inf
ROOT
ATOM      1  C   UNL A   1      36.443  21.878  25.181  1.00  0.00     0.118 C 
ENDROOT
BRANCH   1   2
ATOM      2  N   UNL A   1      37.436  20.830  25.385  1.00  0.00    -0.352 N 
ATOM      3  O   UNL A   1      39.437  19.885  25.773  1.00  0.00    -0.269 OA
ATOM      4  C   UNL A   1      38.740  20.898  25.816  1.00  0.00     0.251 C 
ATOM      5  H   UNL A   1      37.120  19.920  25.180  1.00  0.00     0.163 HD
BRANCH   4   6
ATOM      6  C   UNL A   1      39.319  22.172  26.299  1.00  0.00     0.039 A 
ATOM      7  C   UNL A   1      38.828  23.402  25.859  1.00  0.00     0.014 A 
ATOM      8  C   UNL A   1      40.363  22.139  27.230  1.00  0.00     0.014 A 
ATOM      9  C   UNL A   1      39.495  24.575  26.197  1.00  0.00     0.010 A 
ATOM     10  C   UNL A   1      40.968  23.330  27.650  1.00  0.00     0.010 A 
ATOM     11  C   UNL A   1      40.568  24.558  27.102  1.00  0.00    -0.014 A 
BRANCH  11  12
ATOM     12  C   UNL A   1      41.234  25.838  27.467  1.00  0.00     0.031 A 
ATOM     13  C   UNL A   1      42.607  26.174  26.944  1.00  0.00     0.074 A 
ATOM     14  C   UNL A   1      40.566  26.729  28.228  1.00  0.00     0.049 A 
ATOM     15  N   UNL A   1      43.326  27.245  27.156  1.00  0.00    -0.248 NA
ATOM     16  C   UNL A   1      43.260  25.180  26.076  1.00  0.00     0.031 C 
ATOM     17  C   UNL A   1      39.226  26.522  28.786  1.00  0.00     0.029 A 
ATOM     18  N   UNL A   1      40.901  27.994  28.643  1.00  0.00    -0.354 N 
ATOM     19  C   UNL A   1      44.517  27.053  26.464  1.00  0.00     0.074 A 
ATOM     20  C   UNL A   1      44.436  25.749  25.844  1.00  0.00     0.031 C 
ATOM     21  C   UNL A   1      38.832  27.638  29.415  1.00  0.00     0.029 A 
ATOM     22  C   UNL A   1      39.915  28.615  29.375  1.00  0.00     0.049 A 
ATOM     23  H   UNL A   1      41.766  28.417  28.436  1.00  0.00     0.167 HD
ATOM     24  C   UNL A   1      45.573  27.893  26.348  1.00  0.00     0.034 A 
ATOM     25  C   UNL A   1      39.887  29.823  29.970  1.00  0.00     0.034 A 
ATOM     26  C   UNL A   1      45.634  29.204  26.944  1.00  0.00     0.049 A 
ATOM     27  C   UNL A   1      41.097  30.712  29.865  1.00  0.00     0.074 A 
ATOM     28  C   UNL A   1      46.648  30.142  26.851  1.00  0.00     0.029 A 
ATOM     29  N   UNL A   1      44.646  29.763  27.741  1.00  0.00    -0.354 N 
ATOM     30  N   UNL A   1      42.218  30.500  29.218  1.00  0.00    -0.248 NA
ATOM     31  C   UNL A   1      41.044  31.993  30.583  1.00  0.00     0.031 C 
ATOM     32  C   UNL A   1      46.299  31.243  27.638  1.00  0.00     0.029 A 
ATOM     33  C   UNL A   1      45.041  31.018  28.172  1.00  0.00     0.049 A 
ATOM     34  H   UNL A   1      43.791  29.331  27.967  1.00  0.00     0.167 HD
ATOM     35  C   UNL A   1      43.004  31.623  29.451  1.00  0.00     0.074 A 
ATOM     36  C   UNL A   1      42.223  32.518  30.279  1.00  0.00     0.031 C 
ATOM     37  C   UNL A   1      44.260  31.887  29.016  1.00  0.00     0.034 A 
BRANCH  24  38
ATOM     38  C   UNL A   1      46.771  27.424  25.565  1.00  0.00     0.023 A 
ATOM     39  C   UNL A   1      46.967  27.796  24.226  1.00  0.00     0.031 A 
ATOM     40  C   UNL A   1      47.763  26.652  26.194  1.00  0.00     0.131 A 
ATOM     41  C   UNL A   1      48.122  27.373  23.548  1.00  0.00     0.055 A 
ATOM     42  C   UNL A   1      48.934  26.280  25.532  1.00  0.00     0.041 A 
ATOM     43  F   UNL A   1      47.617  26.260  27.470  1.00  0.00    -0.206 F 
ATOM     44  C   UNL A   1      49.116  26.639  24.200  1.00  0.00     0.022 A 
BRANCH  41  45
ATOM     45  S   UNL A   1      48.290  27.764  21.786  1.00  0.00     0.124 S 
ATOM     46  O   UNL A   1      46.993  28.369  21.494  1.00  0.00    -0.237 OA
ATOM     47  O   UNL A   1      49.434  28.667  21.765  1.00  0.00    -0.237 OA
ATOM     48  O   UNL A   1      48.516  26.459  21.166  1.00  0.00    -0.744 OA
ENDBRANCH  41  45
ENDBRANCH  24  38
BRANCH  25  49
ATOM     49  C   UNL A   1      38.696  30.240  30.759  1.00  0.00     0.023 A 
ATOM     50  C   UNL A   1      37.671  31.004  30.179  1.00  0.00     0.031 A 
ATOM     51  C   UNL A   1      38.572  29.884  32.115  1.00  0.00     0.131 A 
ATOM     52  C   UNL A   1      36.577  31.407  30.961  1.00  0.00     0.055 A 
ATOM     53  C   UNL A   1      37.461  30.250  32.874  1.00  0.00     0.041 A 
ATOM     54  F   UNL A   1      39.525  29.151  32.712  1.00  0.00    -0.206 F 
ATOM     55  C   UNL A   1      36.459  31.023  32.300  1.00  0.00     0.022 A 
BRANCH  52  56
ATOM     56  S   UNL A   1      35.325  32.486  30.215  1.00  0.00     0.124 S 
ATOM     57  O   UNL A   1      34.390  32.663  31.319  1.00  0.00    -0.237 OA
ATOM     58  O   UNL A   1      36.113  33.656  29.845  1.00  0.00    -0.237 OA
ATOM     59  O   UNL A   1      34.823  31.697  29.091  1.00  0.00    -0.744 OA
ENDBRANCH  52  56
ENDBRANCH  25  49
BRANCH  37  60
ATOM     60  C   UNL A   1      44.868  33.201  29.423  1.00  0.00     0.023 A 
ATOM     61  C   UNL A   1      44.657  34.365  28.666  1.00  0.00     0.031 A 
ATOM     62  C   UNL A   1      45.623  33.298  30.603  1.00  0.00     0.131 A 
ATOM     63  C   UNL A   1      45.218  35.578  29.086  1.00  0.00     0.055 A 
ATOM     64  C   UNL A   1      46.144  34.516  31.040  1.00  0.00     0.041 A 
ATOM     65  F   UNL A   1      45.847  32.213  31.361  1.00  0.00    -0.206 F 
ATOM     66  C   UNL A   1      45.945  35.665  30.277  1.00  0.00     0.022 A 
BRANCH  63  67
ATOM     67  S   UNL A   1      45.001  37.047  28.046  1.00  0.00     0.124 S 
ATOM     68  O   UNL A   1      44.411  36.477  26.839  1.00  0.00    -0.237 OA
ATOM     69  O   UNL A   1      44.117  37.882  28.854  1.00  0.00    -0.237 OA
ATOM     70  O   UNL A   1      46.361  37.560  27.889  1.00  0.00    -0.744 OA
ENDBRANCH  63  67
ENDBRANCH  37  60
ENDBRANCH  11  12
ENDBRANCH   4   6
ENDBRANCH   1   2
BRANCH   1  71
ATOM     71  C   UNL A   1      35.484  22.041  26.353  1.00  0.00     0.042 C 
BRANCH  71  72
ATOM     72  C   UNL A   1      34.769  23.383  26.410  1.00  0.00     0.118 C 
BRANCH  72  73
ATOM     73  N   UNL A   1      33.437  23.297  26.995  1.00  0.00    -0.352 N 
ATOM     74  C   UNL A   1      32.260  22.820  26.476  1.00  0.00     0.251 C 
ATOM     75  H   UNL A   1      33.371  23.637  27.916  1.00  0.00     0.163 HD
ATOM     76  O   UNL A   1      31.235  22.870  27.151  1.00  0.00    -0.269 OA
BRANCH  74  77
ATOM     77  C   UNL A   1      32.224  22.217  25.123  1.00  0.00     0.047 A 
ATOM     78  C   UNL A   1      32.395  20.824  25.016  1.00  0.00     0.017 A 
ATOM     79  C   UNL A   1      31.926  22.995  23.981  1.00  0.00    -0.003 A 
ATOM     80  C   UNL A   1      32.351  20.204  23.770  1.00  0.00     0.040 A 
ATOM     81  C   UNL A   1      31.883  22.342  22.735  1.00  0.00     0.048 A 
ATOM     82  C   UNL A   1      32.102  20.971  22.641  1.00  0.00     0.123 A 
ATOM     83  F   UNL A   1      32.049  20.375  21.442  1.00  0.00    -0.207 F 
BRANCH  79  84
ATOM     84  C   UNL A   1      31.628  24.435  24.037  1.00  0.00    -0.016 A 
ATOM     85  C   UNL A   1      32.644  25.394  24.187  1.00  0.00     0.012 A 
ATOM     86  C   UNL A   1      30.295  24.879  23.936  1.00  0.00     0.032 A 
ATOM     87  C   UNL A   1      32.335  26.757  24.245  1.00  0.00     0.041 A 
ATOM     88  C   UNL A   1      29.990  26.240  23.994  1.00  0.00     0.077 A 
ATOM     89  C   UNL A   1      31.011  27.172  24.150  1.00  0.00     0.141 A 
ATOM     90  Cl  UNL A   1      28.347  26.745  23.865  1.00  0.00    -0.081 Cl
ATOM     91  F   UNL A   1      30.738  28.484  24.205  1.00  0.00    -0.205 F 
ENDBRANCH  79  84
ENDBRANCH  74  77
ENDBRANCH  72  73
ENDBRANCH  71  72
ENDBRANCH   1  71
TORSDOF 14
ENDMDL
MODEL 3
REMARK VINA RESULT:     -12.6      1.582      8.054
REMARK SMILES O=C(NCCCNC(=O)c1ccc(F)cc1-c1ccc(F)c(Cl)c1)c1ccc(-c2c3nc(c(-c4cc(S(=O)(=O)[O-])ccc4F)c4ccc([nH]4)c(-c4cc(S(=O)(=O)[O-])ccc4F)c4nc(c(-c5cc(S(=O)(=O)[O-])ccc5F)c5ccc2[nH]5)C=C4)C=C3)cc1
REMARK SMILES IDX 4 1 3 2 1 3 2 4 25 6 26 7 87 8 27 9 86 10 28 11 29 12 30 13
REMARK SMILES IDX 80 14 31 15 85 16 79 17 81 18 32 19 84 20 78 21 77 22 33 24
REMARK SMILES IDX 65 25 45 26 64 27 46 28 49 29 63 30 82 31 47 32 48 33 62 35
REMARK SMILES IDX 83 36 50 37 34 38 35 39 43 40 36 41 42 42 44 43 41 44 37 45
REMARK SMILES IDX 38 46 39 47 40 48 66 49 67 50 75 51 68 52 74 53 76 54 73 55
REMARK SMILES IDX 69 56 70 57 71 58 72 59 51 60 52 61 60 62 53 63 59 64 61 65
REMARK SMILES IDX 58 66 54 67 55 68 56 69 57 70 5 71 6 72 7 73 8 74 9 76 10 77
REMARK SMILES IDX 11 78 16 79 12 80 15 81 13 82 14 83 17 84 18 85 24 86 19 87
REMARK SMILES IDX 22 88 20 89 23 90 21 91
REMARK H PARENT 3 5 81 23 49 34 7 75
REMARK Flexibility Score: inf
ROOT
ATOM      1  C   UNL A   1      36.273  21.992  25.290  1.00  0.00     0.118 C 
ENDROOT
BRANCH   1   2
ATOM      2  N   UNL A   1      37.273  20.944  25.456  1.00  0.00    -0.352 N 
ATOM      3  O   UNL A   1      39.292  20.000  25.747  1.00  0.00    -0.269 OA
ATOM      4  C   UNL A   1      38.600  21.016  25.811  1.00  0.00     0.251 C 
ATOM      5  H   UNL A   1      36.944  20.032  25.287  1.00  0.00     0.163 HD
BRANCH   4   6
ATOM      6  C   UNL A   1      39.209  22.297  26.237  1.00  0.00     0.039 A 
ATOM      7  C   UNL A   1      38.666  23.520  25.846  1.00  0.00     0.014 A 
ATOM      8  C   UNL A   1      40.338  22.275  27.064  1.00  0.00     0.014 A 
ATOM      9  C   UNL A   1      39.349  24.701  26.118  1.00  0.00     0.010 A 
ATOM     10  C   UNL A   1      40.967  23.473  27.424  1.00  0.00     0.010 A 
ATOM     11  C   UNL A   1      40.504  24.696  26.917  1.00  0.00    -0.014 A 
BRANCH  11  12
ATOM     12  C   UNL A   1      41.187  25.983  27.217  1.00  0.00     0.031 A 
ATOM     13  C   UNL A   1      40.535  27.020  28.095  1.00  0.00     0.074 A 
ATOM     14  C   UNL A   1      42.432  26.190  26.740  1.00  0.00     0.049 A 
ATOM     15  N   UNL A   1      40.993  28.188  28.464  1.00  0.00    -0.248 NA
ATOM     16  C   UNL A   1      39.197  26.710  28.625  1.00  0.00     0.031 C 
ATOM     17  C   UNL A   1      43.173  25.256  25.887  1.00  0.00     0.029 A 
ATOM     18  N   UNL A   1      43.308  27.231  26.924  1.00  0.00    -0.354 N 
ATOM     19  C   UNL A   1      40.001  28.759  29.254  1.00  0.00     0.074 A 
ATOM     20  C   UNL A   1      38.902  27.819  29.292  1.00  0.00     0.031 C 
ATOM     21  C   UNL A   1      44.406  25.736  25.672  1.00  0.00     0.029 A 
ATOM     22  C   UNL A   1      44.524  27.045  26.305  1.00  0.00     0.049 A 
ATOM     23  H   UNL A   1      43.088  28.034  27.449  1.00  0.00     0.167 HD
ATOM     24  C   UNL A   1      40.012  29.951  29.896  1.00  0.00     0.034 A 
ATOM     25  C   UNL A   1      45.606  27.844  26.231  1.00  0.00     0.034 A 
ATOM     26  C   UNL A   1      41.122  30.870  29.878  1.00  0.00     0.049 A 
ATOM     27  C   UNL A   1      45.568  29.184  26.912  1.00  0.00     0.074 A 
ATOM     28  C   UNL A   1      41.240  32.086  30.530  1.00  0.00     0.029 A 
ATOM     29  N   UNL A   1      42.303  30.678  29.177  1.00  0.00    -0.354 N 
ATOM     30  N   UNL A   1      44.610  29.708  27.640  1.00  0.00    -0.248 NA
ATOM     31  C   UNL A   1      46.747  30.047  26.750  1.00  0.00     0.031 C 
ATOM     32  C   UNL A   1      42.467  32.655  30.176  1.00  0.00     0.029 A 
ATOM     33  C   UNL A   1      43.140  31.767  29.353  1.00  0.00     0.049 A 
ATOM     34  H   UNL A   1      42.515  29.885  28.633  1.00  0.00     0.167 HD
ATOM     35  C   UNL A   1      45.072  30.962  28.024  1.00  0.00     0.074 A 
ATOM     36  C   UNL A   1      46.401  31.109  27.466  1.00  0.00     0.031 C 
ATOM     37  C   UNL A   1      44.451  31.906  28.772  1.00  0.00     0.034 A 
BRANCH  24  38
ATOM     38  C   UNL A   1      38.781  30.357  30.662  1.00  0.00     0.023 A 
ATOM     39  C   UNL A   1      37.754  31.104  30.063  1.00  0.00     0.031 A 
ATOM     40  C   UNL A   1      38.606  29.929  31.990  1.00  0.00     0.131 A 
ATOM     41  C   UNL A   1      36.603  31.422  30.802  1.00  0.00     0.055 A 
ATOM     42  C   UNL A   1      37.436  30.202  32.702  1.00  0.00     0.041 A 
ATOM     43  F   UNL A   1      39.564  29.223  32.611  1.00  0.00    -0.206 F 
ATOM     44  C   UNL A   1      36.428  30.955  32.107  1.00  0.00     0.022 A 
BRANCH  41  45
ATOM     45  S   UNL A   1      35.349  32.490  30.045  1.00  0.00     0.124 S 
ATOM     46  O   UNL A   1      36.146  33.654  29.664  1.00  0.00    -0.237 OA
ATOM     47  O   UNL A   1      34.851  31.672  28.946  1.00  0.00    -0.237 OA
ATOM     48  O   UNL A   1      34.397  32.722  31.130  1.00  0.00    -0.744 OA
ENDBRANCH  41  45
ENDBRANCH  24  38
BRANCH  25  49
ATOM     49  C   UNL A   1      46.794  27.420  25.440  1.00  0.00     0.023 A 
ATOM     50  C   UNL A   1      46.961  27.825  24.106  1.00  0.00     0.031 A 
ATOM     51  C   UNL A   1      47.777  26.591  26.010  1.00  0.00     0.131 A 
ATOM     52  C   UNL A   1      48.076  27.379  23.379  1.00  0.00     0.055 A 
ATOM     53  C   UNL A   1      48.906  26.189  25.296  1.00  0.00     0.041 A 
ATOM     54  F   UNL A   1      47.664  26.181  27.283  1.00  0.00    -0.206 F 
ATOM     55  C   UNL A   1      49.056  26.577  23.969  1.00  0.00     0.022 A 
BRANCH  52  56
ATOM     56  S   UNL A   1      48.207  27.827  21.627  1.00  0.00     0.124 S 
ATOM     57  O   UNL A   1      48.594  26.557  21.024  1.00  0.00    -0.237 OA
ATOM     58  O   UNL A   1      46.857  28.294  21.330  1.00  0.00    -0.237 OA
ATOM     59  O   UNL A   1      49.238  28.864  21.616  1.00  0.00    -0.744 OA
ENDBRANCH  52  56
ENDBRANCH  25  49
BRANCH  37  60
ATOM     60  C   UNL A   1      45.204  33.181  29.036  1.00  0.00     0.023 A 
ATOM     61  C   UNL A   1      45.074  34.291  28.185  1.00  0.00     0.031 A 
ATOM     62  C   UNL A   1      46.019  33.301  30.173  1.00  0.00     0.131 A 
ATOM     63  C   UNL A   1      45.771  35.472  28.473  1.00  0.00     0.055 A 
ATOM     64  C   UNL A   1      46.677  34.492  30.479  1.00  0.00     0.041 A 
ATOM     65  F   UNL A   1      46.169  32.268  31.017  1.00  0.00    -0.206 F 
ATOM     66  C   UNL A   1      46.557  35.585  29.623  1.00  0.00     0.022 A 
BRANCH  63  67
ATOM     67  S   UNL A   1      45.651  36.861  27.314  1.00  0.00     0.124 S 
ATOM     68  O   UNL A   1      46.555  36.441  26.247  1.00  0.00    -0.237 OA
ATOM     69  O   UNL A   1      44.231  36.874  26.978  1.00  0.00    -0.237 OA
ATOM     70  O   UNL A   1      46.109  38.005  28.102  1.00  0.00    -0.744 OA
ENDBRANCH  63  67
ENDBRANCH  37  60
ENDBRANCH  11  12
ENDBRANCH   4   6
ENDBRANCH   1   2
BRANCH   1  71
ATOM     71  C   UNL A   1      35.228  22.013  26.398  1.00  0.00     0.042 C 
BRANCH  71  72
ATOM     72  C   UNL A   1      34.617  23.380  26.672  1.00  0.00     0.118 C 
BRANCH  72  73
ATOM     73  N   UNL A   1      33.257  23.304  27.190  1.00  0.00    -0.352 N 
ATOM     74  C   UNL A   1      32.090  22.906  26.590  1.00  0.00     0.251 C 
ATOM     75  H   UNL A   1      33.160  23.586  28.128  1.00  0.00     0.163 HD
ATOM     76  O   UNL A   1      31.037  22.949  27.221  1.00  0.00    -0.269 OA
BRANCH  74  77
ATOM     77  C   UNL A   1      32.097  22.393  25.199  1.00  0.00     0.047 A 
ATOM     78  C   UNL A   1      32.247  21.007  25.007  1.00  0.00     0.017 A 
ATOM     79  C   UNL A   1      31.859  23.250  24.101  1.00  0.00    -0.003 A 
ATOM     80  C   UNL A   1      32.241  20.471  23.722  1.00  0.00     0.040 A 
ATOM     81  C   UNL A   1      31.853  22.681  22.813  1.00  0.00     0.048 A 
ATOM     82  C   UNL A   1      32.051  21.314  22.638  1.00  0.00     0.123 A 
ATOM     83  F   UNL A   1      32.034  20.800  21.401  1.00  0.00    -0.207 F 
BRANCH  79  84
ATOM     84  C   UNL A   1      31.584  24.689  24.240  1.00  0.00    -0.016 A 
ATOM     85  C   UNL A   1      30.274  25.181  24.366  1.00  0.00     0.012 A 
ATOM     86  C   UNL A   1      32.651  25.608  24.252  1.00  0.00     0.032 A 
ATOM     87  C   UNL A   1      30.037  26.554  24.490  1.00  0.00     0.041 A 
ATOM     88  C   UNL A   1      32.411  26.978  24.376  1.00  0.00     0.077 A 
ATOM     89  C   UNL A   1      31.105  27.444  24.493  1.00  0.00     0.141 A 
ATOM     90  Cl  UNL A   1      33.742  28.072  24.389  1.00  0.00    -0.081 Cl
ATOM     91  F   UNL A   1      30.855  28.756  24.615  1.00  0.00    -0.205 F 
ENDBRANCH  79  84
ENDBRANCH  74  77
ENDBRANCH  72  73
ENDBRANCH  71  72
ENDBRANCH   1  71
TORSDOF 14
ENDMDL
