MODEL 1
REMARK VINA RESULT:     -12.2      0.000      0.000
REMARK SMILES O=C(NCCCNC(=O)[C@@H](c1ccsc1)[NH+]1CCC(Oc2cccnc2)CC1)c1ccc(-c2c3nc(c(-c4cc(S(=O)(=O)[O-])ccc4F)c4ccc([nH]4)c(-c4cc(S(=O)(=O)[O-])ccc4F)c4nc(c(-c5cc(S(=O)(=O)[O-])ccc5F)c5ccc2[nH]5)C=C4)C=C3)cc1
REMARK SMILES IDX 5 1 4 2 3 3 1 4 2 5 29 7 30 8 91 9 31 10 90 11 32 12 33 13
REMARK SMILES IDX 34 14 84 15 35 16 89 17 83 18 85 19 36 20 88 21 82 22 81 23
REMARK SMILES IDX 37 25 69 26 49 27 68 28 50 29 53 30 67 31 86 32 51 33 52 34
REMARK SMILES IDX 66 36 87 37 54 38 38 39 39 40 47 41 40 42 46 43 48 44 45 45
REMARK SMILES IDX 41 46 42 47 43 48 44 49 70 50 71 51 79 52 72 53 78 54 80 55
REMARK SMILES IDX 77 56 73 57 74 58 75 59 76 60 55 61 56 62 64 63 57 64 63 65
REMARK SMILES IDX 65 66 62 67 58 68 59 69 60 70 61 71 6 72 7 73 8 74 9 76
REMARK SMILES IDX 10 77 11 78 12 79 15 80 13 81 14 82 16 83 17 84 28 85 18 87
REMARK SMILES IDX 27 88 19 89 20 90 21 91 22 92 26 93 23 94 25 95 24 96
REMARK H PARENT 3 6 85 24 53 35 7 75 16 86
REMARK Flexibility Score: inf
ROOT
ATOM      1  C   UNL A   1      34.935  21.681  26.308  1.00  0.00     0.042 C 
ENDROOT
BRANCH   1   2
ATOM      2  C   UNL A   1      36.090  21.919  25.350  1.00  0.00     0.118 C 
BRANCH   2   3
ATOM      3  N   UNL A   1      37.071  20.836  25.342  1.00  0.00    -0.352 N 
ATOM      4  O   UNL A   1      39.120  19.894  25.467  1.00  0.00    -0.269 OA
ATOM      5  C   UNL A   1      38.410  20.875  25.662  1.00  0.00     0.251 C 
ATOM      6  H   UNL A   1      36.726  19.955  25.070  1.00  0.00     0.163 HD
BRANCH   5   7
ATOM      7  C   UNL A   1      38.983  22.121  26.213  1.00  0.00     0.039 A 
ATOM      8  C   UNL A   1      38.414  23.352  25.889  1.00  0.00     0.014 A 
ATOM      9  C   UNL A   1      40.135  22.063  27.001  1.00  0.00     0.014 A 
ATOM     10  C   UNL A   1      39.110  24.519  26.165  1.00  0.00     0.010 A 
ATOM     11  C   UNL A   1      40.768  23.250  27.385  1.00  0.00     0.010 A 
ATOM     12  C   UNL A   1      40.292  24.487  26.925  1.00  0.00    -0.014 A 
BRANCH  12  13
ATOM     13  C   UNL A   1      40.985  25.768  27.228  1.00  0.00     0.031 A 
ATOM     14  C   UNL A   1      40.363  26.798  28.135  1.00  0.00     0.074 A 
ATOM     15  C   UNL A   1      42.219  25.968  26.722  1.00  0.00     0.049 A 
ATOM     16  N   UNL A   1      40.840  27.955  28.518  1.00  0.00    -0.248 NA
ATOM     17  C   UNL A   1      39.026  26.498  28.666  1.00  0.00     0.031 C 
ATOM     18  C   UNL A   1      42.922  25.040  25.832  1.00  0.00     0.029 A 
ATOM     19  N   UNL A   1      43.115  26.988  26.908  1.00  0.00    -0.354 N 
ATOM     20  C   UNL A   1      39.850  28.541  29.303  1.00  0.00     0.074 A 
ATOM     21  C   UNL A   1      38.735  27.615  29.319  1.00  0.00     0.031 C 
ATOM     22  C   UNL A   1      44.163  25.492  25.613  1.00  0.00     0.029 A 
ATOM     23  C   UNL A   1      44.318  26.783  26.273  1.00  0.00     0.049 A 
ATOM     24  H   UNL A   1      42.917  27.790  27.442  1.00  0.00     0.167 HD
ATOM     25  C   UNL A   1      39.872  29.734  29.949  1.00  0.00     0.034 A 
ATOM     26  C   UNL A   1      45.421  27.552  26.213  1.00  0.00     0.034 A 
ATOM     27  C   UNL A   1      41.008  30.629  29.942  1.00  0.00     0.049 A 
ATOM     28  C   UNL A   1      45.420  28.868  26.937  1.00  0.00     0.074 A 
ATOM     29  C   UNL A   1      41.152  31.847  30.586  1.00  0.00     0.029 A 
ATOM     30  N   UNL A   1      42.197  30.405  29.257  1.00  0.00    -0.354 N 
ATOM     31  N   UNL A   1      44.473  29.407  27.668  1.00  0.00    -0.248 NA
ATOM     32  C   UNL A   1      46.638  29.678  26.828  1.00  0.00     0.031 C 
ATOM     33  C   UNL A   1      42.398  32.384  30.243  1.00  0.00     0.029 A 
ATOM     34  C   UNL A   1      43.065  31.470  29.443  1.00  0.00     0.049 A 
ATOM     35  H   UNL A   1      42.393  29.604  28.718  1.00  0.00     0.167 HD
ATOM     36  C   UNL A   1      44.989  30.615  28.123  1.00  0.00     0.074 A 
ATOM     37  C   UNL A   1      46.338  30.711  27.601  1.00  0.00     0.031 C 
ATOM     38  C   UNL A   1      44.402  31.560  28.902  1.00  0.00     0.034 A 
BRANCH  25  39
ATOM     39  C   UNL A   1      38.613  30.163  30.666  1.00  0.00     0.023 A 
ATOM     40  C   UNL A   1      37.593  30.887  30.024  1.00  0.00     0.031 A 
ATOM     41  C   UNL A   1      38.445  29.867  32.032  1.00  0.00     0.131 A 
ATOM     42  C   UNL A   1      36.491  31.353  30.760  1.00  0.00     0.055 A 
ATOM     43  C   UNL A   1      37.308  30.265  32.741  1.00  0.00     0.041 A 
ATOM     44  F   UNL A   1      39.391  29.197  32.708  1.00  0.00    -0.206 F 
ATOM     45  C   UNL A   1      36.331  31.027  32.109  1.00  0.00     0.022 A 
BRANCH  42  46
ATOM     46  S   UNL A   1      35.347  32.519  29.969  1.00  0.00     0.124 S 
ATOM     47  O   UNL A   1      34.888  31.747  28.817  1.00  0.00    -0.237 OA
ATOM     48  O   UNL A   1      34.360  32.752  31.018  1.00  0.00    -0.237 OA
ATOM     49  O   UNL A   1      36.194  33.665  29.643  1.00  0.00    -0.744 OA
ENDBRANCH  42  46
ENDBRANCH  25  39
BRANCH  26  50
ATOM     50  C   UNL A   1      46.602  27.106  25.422  1.00  0.00     0.023 A 
ATOM     51  C   UNL A   1      46.879  27.658  24.162  1.00  0.00     0.031 A 
ATOM     52  C   UNL A   1      47.462  26.107  25.911  1.00  0.00     0.131 A 
ATOM     53  C   UNL A   1      47.972  27.186  23.420  1.00  0.00     0.055 A 
ATOM     54  C   UNL A   1      48.578  25.677  25.191  1.00  0.00     0.041 A 
ATOM     55  F   UNL A   1      47.244  25.552  27.114  1.00  0.00    -0.206 F 
ATOM     56  C   UNL A   1      48.831  26.210  23.932  1.00  0.00     0.022 A 
BRANCH  53  57
ATOM     57  S   UNL A   1      48.217  27.819  21.738  1.00  0.00     0.124 S 
ATOM     58  O   UNL A   1      49.330  28.741  21.927  1.00  0.00    -0.237 OA
ATOM     59  O   UNL A   1      48.513  26.598  20.995  1.00  0.00    -0.237 OA
ATOM     60  O   UNL A   1      46.935  28.444  21.420  1.00  0.00    -0.744 OA
ENDBRANCH  53  57
ENDBRANCH  26  50
BRANCH  38  61
ATOM     61  C   UNL A   1      45.249  32.753  29.265  1.00  0.00     0.023 A 
ATOM     62  C   UNL A   1      45.257  33.919  28.478  1.00  0.00     0.031 A 
ATOM     63  C   UNL A   1      46.093  32.704  30.387  1.00  0.00     0.131 A 
ATOM     64  C   UNL A   1      46.143  34.962  28.786  1.00  0.00     0.055 A 
ATOM     65  C   UNL A   1      46.928  33.769  30.723  1.00  0.00     0.041 A 
ATOM     66  F   UNL A   1      46.126  31.614  31.169  1.00  0.00    -0.206 F 
ATOM     67  C   UNL A   1      46.969  34.900  29.911  1.00  0.00     0.022 A 
BRANCH  64  68
ATOM     68  S   UNL A   1      46.283  36.355  27.632  1.00  0.00     0.124 S 
ATOM     69  O   UNL A   1      47.726  36.440  27.431  1.00  0.00    -0.237 OA
ATOM     70  O   UNL A   1      45.507  35.888  26.487  1.00  0.00    -0.237 OA
ATOM     71  O   UNL A   1      45.692  37.471  28.367  1.00  0.00    -0.744 OA
ENDBRANCH  64  68
ENDBRANCH  38  61
ENDBRANCH  12  13
ENDBRANCH   5   7
ENDBRANCH   2   3
ENDBRANCH   1   2
BRANCH   1  72
ATOM     72  C   UNL A   1      34.756  22.786  27.331  1.00  0.00     0.118 C 
BRANCH  72  73
ATOM     73  N   UNL A   1      33.356  23.129  27.547  1.00  0.00    -0.351 N 
ATOM     74  C   UNL A   1      32.541  23.920  26.779  1.00  0.00     0.283 C 
ATOM     75  H   UNL A   1      32.940  22.740  28.350  1.00  0.00     0.163 HD
ATOM     76  O   UNL A   1      31.339  23.946  27.064  1.00  0.00    -0.268 OA
BRANCH  74  77
ATOM     77  C   UNL A   1      33.102  24.740  25.576  1.00  0.00     0.306 C 
BRANCH  77  78
ATOM     78  C   UNL A   1      33.031  23.890  24.290  1.00  0.00     0.030 A 
ATOM     79  C   UNL A   1      33.814  24.053  23.088  1.00  0.00     0.022 A 
ATOM     80  C   UNL A   1      32.181  22.801  24.123  1.00  0.00     0.075 A 
ATOM     81  C   UNL A   1      33.524  23.126  22.109  1.00  0.00     0.065 A 
ATOM     82  S   UNL A   1      32.298  22.049  22.594  1.00  0.00    -0.152 S 
ENDBRANCH  77  78
BRANCH  77  83
ATOM     83  N   UNL A   1      32.420  26.067  25.420  1.00  0.00    -0.321 N 
ATOM     84  C   UNL A   1      33.302  27.180  25.018  1.00  0.00     0.267 C 
ATOM     85  C   UNL A   1      31.321  26.004  24.434  1.00  0.00     0.267 C 
ATOM     86  H   UNL A   1      32.071  26.261  26.359  1.00  0.00     0.349 HD
ATOM     87  C   UNL A   1      32.556  28.489  25.248  1.00  0.00     0.107 C 
ATOM     88  C   UNL A   1      30.450  27.261  24.549  1.00  0.00     0.107 C 
ATOM     89  C   UNL A   1      31.289  28.539  24.401  1.00  0.00     0.184 C 
BRANCH  89  90
ATOM     90  O   UNL A   1      30.586  29.787  24.550  1.00  0.00    -0.488 OA
BRANCH  90  91
ATOM     91  C   UNL A   1      29.730  30.128  23.546  1.00  0.00     0.138 A 
ATOM     92  C   UNL A   1      28.642  30.970  23.739  1.00  0.00     0.050 A 
ATOM     93  C   UNL A   1      30.010  29.709  22.252  1.00  0.00     0.157 A 
ATOM     94  C   UNL A   1      27.834  31.297  22.653  1.00  0.00     0.024 A 
ATOM     95  N   UNL A   1      29.251  30.017  21.174  1.00  0.00    -0.261 NA
ATOM     96  C   UNL A   1      28.170  30.796  21.405  1.00  0.00     0.111 A 
ENDBRANCH  90  91
ENDBRANCH  89  90
ENDBRANCH  77  83
ENDBRANCH  74  77
ENDBRANCH  72  73
ENDBRANCH   1  72
TORSDOF 17
ENDMDL
MODEL 2
REMARK VINA RESULT:     -12.1      5.711     11.066
REMARK SMILES O=C(NCCCNC(=O)[C@@H](c1ccsc1)[NH+]1CCC(Oc2cccnc2)CC1)c1ccc(-c2c3nc(c(-c4cc(S(=O)(=O)[O-])ccc4F)c4ccc([nH]4)c(-c4cc(S(=O)(=O)[O-])ccc4F)c4nc(c(-c5cc(S(=O)(=O)[O-])ccc5F)c5ccc2[nH]5)C=C4)C=C3)cc1
REMARK SMILES IDX 5 1 4 2 3 3 1 4 2 5 29 7 30 8 91 9 31 10 90 11 32 12 33 13
REMARK SMILES IDX 34 14 84 15 35 16 89 17 83 18 85 19 36 20 88 21 82 22 81 23
REMARK SMILES IDX 37 25 69 26 49 27 68 28 50 29 53 30 67 31 86 32 51 33 52 34
REMARK SMILES IDX 66 36 87 37 54 38 38 39 39 40 47 41 40 42 46 43 48 44 45 45
REMARK SMILES IDX 41 46 42 47 43 48 44 49 70 50 71 51 79 52 72 53 78 54 80 55
REMARK SMILES IDX 77 56 73 57 74 58 75 59 76 60 55 61 56 62 64 63 57 64 63 65
REMARK SMILES IDX 65 66 62 67 58 68 59 69 60 70 61 71 6 72 7 73 8 74 9 76
REMARK SMILES IDX 10 77 11 78 12 79 15 80 13 81 14 82 16 83 17 84 28 85 18 87
REMARK SMILES IDX 27 88 19 89 20 90 21 91 22 92 26 93 23 94 25 95 24 96
REMARK H PARENT 3 6 85 24 53 35 7 75 16 86
REMARK Flexibility Score: inf
ROOT
ATOM      1  C   UNL A   1      31.808  31.624  26.853  1.00  0.00     0.042 C 
ENDROOT
BRANCH   1   2
ATOM      2  C   UNL A   1      32.991  32.444  27.339  1.00  0.00     0.118 C 
BRANCH   2   3
ATOM      3  N   UNL A   1      32.664  33.847  27.585  1.00  0.00    -0.352 N 
ATOM      4  O   UNL A   1      32.662  35.811  28.701  1.00  0.00    -0.269 OA
ATOM      5  C   UNL A   1      33.152  34.695  28.553  1.00  0.00     0.251 C 
ATOM      6  H   UNL A   1      32.002  34.241  26.971  1.00  0.00     0.163 HD
BRANCH   5   7
ATOM      7  C   UNL A   1      34.249  34.233  29.429  1.00  0.00     0.039 A 
ATOM      8  C   UNL A   1      35.574  34.482  29.076  1.00  0.00     0.014 A 
ATOM      9  C   UNL A   1      33.953  33.490  30.575  1.00  0.00     0.014 A 
ATOM     10  C   UNL A   1      36.594  33.812  29.735  1.00  0.00     0.010 A 
ATOM     11  C   UNL A   1      34.994  32.916  31.312  1.00  0.00     0.010 A 
ATOM     12  C   UNL A   1      36.320  33.026  30.868  1.00  0.00    -0.014 A 
BRANCH  12  13
ATOM     13  C   UNL A   1      37.450  32.355  31.566  1.00  0.00     0.031 A 
ATOM     14  C   UNL A   1      38.256  31.277  30.889  1.00  0.00     0.074 A 
ATOM     15  C   UNL A   1      37.783  32.773  32.803  1.00  0.00     0.049 A 
ATOM     16  N   UNL A   1      39.283  30.605  31.345  1.00  0.00    -0.248 NA
ATOM     17  C   UNL A   1      37.847  30.891  29.531  1.00  0.00     0.031 C 
ATOM     18  C   UNL A   1      37.074  33.810  33.558  1.00  0.00     0.029 A 
ATOM     19  N   UNL A   1      38.815  32.412  33.629  1.00  0.00    -0.354 N 
ATOM     20  C   UNL A   1      39.620  29.691  30.350  1.00  0.00     0.074 A 
ATOM     21  C   UNL A   1      38.668  29.882  29.274  1.00  0.00     0.031 C 
ATOM     22  C   UNL A   1      37.734  34.057  34.697  1.00  0.00     0.029 A 
ATOM     23  C   UNL A   1      38.862  33.139  34.797  1.00  0.00     0.049 A 
ATOM     24  H   UNL A   1      39.460  31.703  33.410  1.00  0.00     0.167 HD
ATOM     25  C   UNL A   1      40.628  28.783  30.337  1.00  0.00     0.034 A 
ATOM     26  C   UNL A   1      39.707  33.066  35.843  1.00  0.00     0.034 A 
ATOM     27  C   UNL A   1      41.584  28.629  31.410  1.00  0.00     0.049 A 
ATOM     28  C   UNL A   1      40.815  32.053  35.802  1.00  0.00     0.074 A 
ATOM     29  C   UNL A   1      42.663  27.764  31.490  1.00  0.00     0.029 A 
ATOM     30  N   UNL A   1      41.578  29.357  32.595  1.00  0.00    -0.354 N 
ATOM     31  N   UNL A   1      41.113  31.194  34.856  1.00  0.00    -0.248 NA
ATOM     32  C   UNL A   1      41.700  32.001  36.972  1.00  0.00     0.031 C 
ATOM     33  C   UNL A   1      43.269  27.927  32.741  1.00  0.00     0.029 A 
ATOM     34  C   UNL A   1      42.616  28.944  33.417  1.00  0.00     0.049 A 
ATOM     35  H   UNL A   1      40.930  30.065  32.817  1.00  0.00     0.167 HD
ATOM     36  C   UNL A   1      42.235  30.509  35.309  1.00  0.00     0.074 A 
ATOM     37  C   UNL A   1      42.570  31.073  36.602  1.00  0.00     0.031 C 
ATOM     38  C   UNL A   1      42.927  29.505  34.712  1.00  0.00     0.034 A 
BRANCH  25  39
ATOM     39  C   UNL A   1      40.712  27.849  29.150  1.00  0.00     0.023 A 
ATOM     40  C   UNL A   1      41.644  28.034  28.115  1.00  0.00     0.031 A 
ATOM     41  C   UNL A   1      39.816  26.769  29.040  1.00  0.00     0.131 A 
ATOM     42  C   UNL A   1      41.612  27.202  26.983  1.00  0.00     0.055 A 
ATOM     43  C   UNL A   1      39.841  25.896  27.950  1.00  0.00     0.041 A 
ATOM     44  F   UNL A   1      38.889  26.551  29.986  1.00  0.00    -0.206 F 
ATOM     45  C   UNL A   1      40.732  26.120  26.905  1.00  0.00     0.022 A 
BRANCH  42  46
ATOM     46  S   UNL A   1      42.631  27.644  25.549  1.00  0.00     0.124 S 
ATOM     47  O   UNL A   1      43.943  27.833  26.165  1.00  0.00    -0.237 OA
ATOM     48  O   UNL A   1      42.491  26.474  24.690  1.00  0.00    -0.237 OA
ATOM     49  O   UNL A   1      42.007  28.867  25.046  1.00  0.00    -0.744 OA
ENDBRANCH  42  46
ENDBRANCH  25  39
BRANCH  26  50
ATOM     50  C   UNL A   1      39.521  33.964  37.017  1.00  0.00     0.023 A 
ATOM     51  C   UNL A   1      38.938  33.492  38.202  1.00  0.00     0.031 A 
ATOM     52  C   UNL A   1      39.914  35.313  36.964  1.00  0.00     0.131 A 
ATOM     53  C   UNL A   1      38.733  34.371  39.276  1.00  0.00     0.055 A 
ATOM     54  C   UNL A   1      39.756  36.170  38.054  1.00  0.00     0.041 A 
ATOM     55  F   UNL A   1      40.484  35.811  35.855  1.00  0.00    -0.206 F 
ATOM     56  C   UNL A   1      39.152  35.702  39.215  1.00  0.00     0.022 A 
BRANCH  53  57
ATOM     57  S   UNL A   1      37.848  33.764  40.738  1.00  0.00     0.124 S 
ATOM     58  O   UNL A   1      36.686  33.119  40.136  1.00  0.00    -0.237 OA
ATOM     59  O   UNL A   1      38.834  32.874  41.342  1.00  0.00    -0.237 OA
ATOM     60  O   UNL A   1      37.565  34.982  41.493  1.00  0.00    -0.744 OA
ENDBRANCH  53  57
ENDBRANCH  26  50
BRANCH  38  61
ATOM     61  C   UNL A   1      44.141  28.995  35.446  1.00  0.00     0.023 A 
ATOM     62  C   UNL A   1      44.063  27.913  36.341  1.00  0.00     0.031 A 
ATOM     63  C   UNL A   1      45.384  29.632  35.281  1.00  0.00     0.131 A 
ATOM     64  C   UNL A   1      45.190  27.543  37.089  1.00  0.00     0.055 A 
ATOM     65  C   UNL A   1      46.517  29.220  35.983  1.00  0.00     0.041 A 
ATOM     66  F   UNL A   1      45.513  30.671  34.442  1.00  0.00    -0.206 F 
ATOM     67  C   UNL A   1      46.420  28.181  36.906  1.00  0.00     0.022 A 
BRANCH  64  68
ATOM     68  S   UNL A   1      45.002  26.290  38.386  1.00  0.00     0.124 S 
ATOM     69  O   UNL A   1      45.999  26.712  39.364  1.00  0.00    -0.237 OA
ATOM     70  O   UNL A   1      43.607  26.462  38.783  1.00  0.00    -0.237 OA
ATOM     71  O   UNL A   1      45.299  25.035  37.698  1.00  0.00    -0.744 OA
ENDBRANCH  64  68
ENDBRANCH  38  61
ENDBRANCH  12  13
ENDBRANCH   5   7
ENDBRANCH   2   3
ENDBRANCH   1   2
BRANCH   1  72
ATOM     72  C   UNL A   1      32.146  30.171  26.583  1.00  0.00     0.118 C 
BRANCH  72  73
ATOM     73  N   UNL A   1      32.837  29.982  25.314  1.00  0.00    -0.351 N 
ATOM     74  C   UNL A   1      32.493  29.170  24.264  1.00  0.00     0.283 C 
ATOM     75  H   UNL A   1      33.661  30.509  25.193  1.00  0.00     0.163 HD
ATOM     76  O   UNL A   1      33.138  29.286  23.217  1.00  0.00    -0.268 OA
BRANCH  74  77
ATOM     77  C   UNL A   1      31.316  28.152  24.376  1.00  0.00     0.306 C 
BRANCH  77  78
ATOM     78  C   UNL A   1      30.062  28.728  23.684  1.00  0.00     0.030 A 
ATOM     79  C   UNL A   1      28.836  28.034  23.372  1.00  0.00     0.022 A 
ATOM     80  C   UNL A   1      29.942  30.052  23.270  1.00  0.00     0.075 A 
ATOM     81  C   UNL A   1      27.891  28.828  22.756  1.00  0.00     0.065 A 
ATOM     82  S   UNL A   1      28.452  30.417  22.518  1.00  0.00    -0.152 S 
ENDBRANCH  77  78
BRANCH  77  83
ATOM     83  N   UNL A   1      31.681  26.794  23.853  1.00  0.00    -0.321 N 
ATOM     84  C   UNL A   1      33.040  26.334  24.203  1.00  0.00     0.267 C 
ATOM     85  C   UNL A   1      30.737  25.757  24.319  1.00  0.00     0.267 C 
ATOM     86  H   UNL A   1      31.638  26.915  22.841  1.00  0.00     0.349 HD
ATOM     87  C   UNL A   1      33.381  25.137  23.324  1.00  0.00     0.107 C 
ATOM     88  C   UNL A   1      30.940  24.471  23.508  1.00  0.00     0.107 C 
ATOM     89  C   UNL A   1      32.400  23.996  23.569  1.00  0.00     0.184 C 
BRANCH  89  90
ATOM     90  O   UNL A   1      32.725  22.825  22.795  1.00  0.00    -0.488 OA
BRANCH  90  91
ATOM     91  C   UNL A   1      33.002  21.690  23.495  1.00  0.00     0.138 A 
ATOM     92  C   UNL A   1      32.307  20.502  23.308  1.00  0.00     0.050 A 
ATOM     93  C   UNL A   1      34.093  21.679  24.354  1.00  0.00     0.157 A 
ATOM     94  C   UNL A   1      32.675  19.375  24.040  1.00  0.00     0.024 A 
ATOM     95  N   UNL A   1      34.483  20.599  25.073  1.00  0.00    -0.261 NA
ATOM     96  C   UNL A   1      33.752  19.473  24.906  1.00  0.00     0.111 A 
ENDBRANCH  90  91
ENDBRANCH  89  90
ENDBRANCH  77  83
ENDBRANCH  74  77
ENDBRANCH  72  73
ENDBRANCH   1  72
TORSDOF 17
ENDMDL
MODEL 3
REMARK VINA RESULT:     -12.1      5.030      9.773
REMARK SMILES O=C(NCCCNC(=O)[C@@H](c1ccsc1)[NH+]1CCC(Oc2cccnc2)CC1)c1ccc(-c2c3nc(c(-c4cc(S(=O)(=O)[O-])ccc4F)c4ccc([nH]4)c(-c4cc(S(=O)(=O)[O-])ccc4F)c4nc(c(-c5cc(S(=O)(=O)[O-])ccc5F)c5ccc2[nH]5)C=C4)C=C3)cc1
REMARK SMILES IDX 5 1 4 2 3 3 1 4 2 5 29 7 30 8 91 9 31 10 90 11 32 12 33 13
REMARK SMILES IDX 34 14 84 15 35 16 89 17 83 18 85 19 36 20 88 21 82 22 81 23
REMARK SMILES IDX 37 25 69 26 49 27 68 28 50 29 53 30 67 31 86 32 51 33 52 34
REMARK SMILES IDX 66 36 87 37 54 38 38 39 39 40 47 41 40 42 46 43 48 44 45 45
REMARK SMILES IDX 41 46 42 47 43 48 44 49 70 50 71 51 79 52 72 53 78 54 80 55
REMARK SMILES IDX 77 56 73 57 74 58 75 59 76 60 55 61 56 62 64 63 57 64 63 65
REMARK SMILES IDX 65 66 62 67 58 68 59 69 60 70 61 71 6 72 7 73 8 74 9 76
REMARK SMILES IDX 10 77 11 78 12 79 15 80 13 81 14 82 16 83 17 84 28 85 18 87
REMARK SMILES IDX 27 88 19 89 20 90 21 91 22 92 26 93 23 94 25 95 24 96
REMARK H PARENT 3 6 85 24 53 35 7 75 16 86
REMARK Flexibility Score: inf
ROOT
ATOM      1  C   UNL A   1      31.500  28.911  26.644  1.00  0.00     0.042 C 
ENDROOT
BRANCH   1   2
ATOM      2  C   UNL A   1      32.689  29.752  26.213  1.00  0.00     0.118 C 
BRANCH   2   3
ATOM      3  N   UNL A   1      32.526  31.177  26.494  1.00  0.00    -0.352 N 
ATOM      4  O   UNL A   1      32.955  33.156  27.497  1.00  0.00    -0.269 OA
ATOM      5  C   UNL A   1      33.318  32.009  27.254  1.00  0.00     0.251 C 
ATOM      6  H   UNL A   1      31.739  31.602  26.082  1.00  0.00     0.163 HD
BRANCH   5   7
ATOM      7  C   UNL A   1      34.592  31.493  27.796  1.00  0.00     0.039 A 
ATOM      8  C   UNL A   1      34.692  30.159  28.191  1.00  0.00     0.014 A 
ATOM      9  C   UNL A   1      35.672  32.362  27.971  1.00  0.00     0.014 A 
ATOM     10  C   UNL A   1      35.777  29.753  28.954  1.00  0.00     0.010 A 
ATOM     11  C   UNL A   1      36.819  31.911  28.633  1.00  0.00     0.010 A 
ATOM     12  C   UNL A   1      36.861  30.619  29.178  1.00  0.00    -0.014 A 
BRANCH  12  13
ATOM     13  C   UNL A   1      38.020  30.128  29.971  1.00  0.00     0.031 A 
ATOM     14  C   UNL A   1      39.053  29.216  29.362  1.00  0.00     0.074 A 
ATOM     15  C   UNL A   1      38.165  30.565  31.238  1.00  0.00     0.049 A 
ATOM     16  N   UNL A   1      40.133  28.714  29.906  1.00  0.00    -0.248 NA
ATOM     17  C   UNL A   1      38.839  28.802  27.968  1.00  0.00     0.031 C 
ATOM     18  C   UNL A   1      37.226  31.450  31.934  1.00  0.00     0.029 A 
ATOM     19  N   UNL A   1      39.164  30.361  32.153  1.00  0.00    -0.354 N 
ATOM     20  C   UNL A   1      40.707  27.894  28.938  1.00  0.00     0.074 A 
ATOM     21  C   UNL A   1      39.838  27.950  27.780  1.00  0.00     0.031 C 
ATOM     22  C   UNL A   1      37.730  31.775  33.131  1.00  0.00     0.029 A 
ATOM     23  C   UNL A   1      38.982  31.055  33.327  1.00  0.00     0.049 A 
ATOM     24  H   UNL A   1      39.936  29.774  31.988  1.00  0.00     0.167 HD
ATOM     25  C   UNL A   1      41.851  27.167  29.010  1.00  0.00     0.034 A 
ATOM     26  C   UNL A   1      39.730  31.099  34.446  1.00  0.00     0.034 A 
ATOM     27  C   UNL A   1      42.718  27.148  30.166  1.00  0.00     0.049 A 
ATOM     28  C   UNL A   1      40.992  30.285  34.499  1.00  0.00     0.074 A 
ATOM     29  C   UNL A   1      43.916  26.472  30.337  1.00  0.00     0.029 A 
ATOM     30  N   UNL A   1      42.483  27.835  31.352  1.00  0.00    -0.354 N 
ATOM     31  N   UNL A   1      41.514  29.511  33.577  1.00  0.00    -0.248 NA
ATOM     32  C   UNL A   1      41.763  30.352  35.745  1.00  0.00     0.031 C 
ATOM     33  C   UNL A   1      44.371  26.703  31.641  1.00  0.00     0.029 A 
ATOM     34  C   UNL A   1      43.497  27.580  32.263  1.00  0.00     0.049 A 
ATOM     35  H   UNL A   1      41.708  28.419  31.519  1.00  0.00     0.167 HD
ATOM     36  C   UNL A   1      42.689  29.012  34.126  1.00  0.00     0.074 A 
ATOM     37  C   UNL A   1      42.807  29.592  35.450  1.00  0.00     0.031 C 
ATOM     38  C   UNL A   1      43.592  28.153  33.586  1.00  0.00     0.034 A 
BRANCH  25  39
ATOM     39  C   UNL A   1      42.196  26.290  27.827  1.00  0.00     0.023 A 
ATOM     40  C   UNL A   1      41.736  24.967  27.715  1.00  0.00     0.031 A 
ATOM     41  C   UNL A   1      43.031  26.782  26.806  1.00  0.00     0.131 A 
ATOM     42  C   UNL A   1      42.170  24.159  26.651  1.00  0.00     0.055 A 
ATOM     43  C   UNL A   1      43.395  25.999  25.708  1.00  0.00     0.041 A 
ATOM     44  F   UNL A   1      43.520  28.030  26.865  1.00  0.00    -0.206 F 
ATOM     45  C   UNL A   1      42.978  24.674  25.634  1.00  0.00     0.022 A 
BRANCH  42  46
ATOM     46  S   UNL A   1      41.790  22.385  26.693  1.00  0.00     0.124 S 
ATOM     47  O   UNL A   1      40.337  22.398  26.849  1.00  0.00    -0.237 OA
ATOM     48  O   UNL A   1      42.290  21.925  25.403  1.00  0.00    -0.237 OA
ATOM     49  O   UNL A   1      42.528  21.902  27.859  1.00  0.00    -0.744 OA
ENDBRANCH  42  46
ENDBRANCH  25  39
BRANCH  26  50
ATOM     50  C   UNL A   1      39.291  31.923  35.606  1.00  0.00     0.023 A 
ATOM     51  C   UNL A   1      38.550  31.359  36.655  1.00  0.00     0.031 A 
ATOM     52  C   UNL A   1      39.597  33.294  35.675  1.00  0.00     0.131 A 
ATOM     53  C   UNL A   1      38.111  32.168  37.713  1.00  0.00     0.055 A 
ATOM     54  C   UNL A   1      39.202  34.084  36.755  1.00  0.00     0.041 A 
ATOM     55  F   UNL A   1      40.310  33.880  34.700  1.00  0.00    -0.206 F 
ATOM     56  C   UNL A   1      38.444  33.523  37.777  1.00  0.00     0.022 A 
BRANCH  53  57
ATOM     57  S   UNL A   1      37.035  31.438  38.976  1.00  0.00     0.124 S 
ATOM     58  O   UNL A   1      35.861  32.299  38.903  1.00  0.00    -0.237 OA
ATOM     59  O   UNL A   1      36.864  30.076  38.478  1.00  0.00    -0.237 OA
ATOM     60  O   UNL A   1      37.821  31.556  40.202  1.00  0.00    -0.744 OA
ENDBRANCH  53  57
ENDBRANCH  26  50
BRANCH  38  61
ATOM     61  C   UNL A   1      44.803  27.834  34.425  1.00  0.00     0.023 A 
ATOM     62  C   UNL A   1      44.821  26.743  35.313  1.00  0.00     0.031 A 
ATOM     63  C   UNL A   1      45.938  28.662  34.369  1.00  0.00     0.131 A 
ATOM     64  C   UNL A   1      45.923  26.548  36.157  1.00  0.00     0.055 A 
ATOM     65  C   UNL A   1      47.056  28.428  35.169  1.00  0.00     0.041 A 
ATOM     66  F   UNL A   1      45.971  29.718  33.542  1.00  0.00    -0.206 F 
ATOM     67  C   UNL A   1      47.047  27.376  36.081  1.00  0.00     0.022 A 
BRANCH  64  68
ATOM     68  S   UNL A   1      45.825  25.266  37.436  1.00  0.00     0.124 S 
ATOM     69  O   UNL A   1      47.093  25.438  38.138  1.00  0.00    -0.237 OA
ATOM     70  O   UNL A   1      44.629  25.657  38.175  1.00  0.00    -0.237 OA
ATOM     71  O   UNL A   1      45.702  24.027  36.671  1.00  0.00    -0.744 OA
ENDBRANCH  64  68
ENDBRANCH  38  61
ENDBRANCH  12  13
ENDBRANCH   5   7
ENDBRANCH   2   3
ENDBRANCH   1   2
BRANCH   1  72
ATOM     72  C   UNL A   1      31.828  27.442  26.823  1.00  0.00     0.118 C 
BRANCH  72  73
ATOM     73  N   UNL A   1      33.073  27.061  26.169  1.00  0.00    -0.351 N 
ATOM     74  C   UNL A   1      33.249  26.345  25.013  1.00  0.00     0.283 C 
ATOM     75  H   UNL A   1      33.899  27.358  26.616  1.00  0.00     0.163 HD
ATOM     76  O   UNL A   1      34.393  26.274  24.553  1.00  0.00    -0.268 OA
BRANCH  74  77
ATOM     77  C   UNL A   1      32.047  25.661  24.290  1.00  0.00     0.306 C 
BRANCH  77  78
ATOM     78  C   UNL A   1      31.663  24.363  25.031  1.00  0.00     0.030 A 
ATOM     79  C   UNL A   1      30.881  24.242  26.238  1.00  0.00     0.022 A 
ATOM     80  C   UNL A   1      32.022  23.088  24.603  1.00  0.00     0.075 A 
ATOM     81  C   UNL A   1      30.702  22.939  26.653  1.00  0.00     0.065 A 
ATOM     82  S   UNL A   1      31.478  21.829  25.622  1.00  0.00    -0.152 S 
ENDBRANCH  77  78
BRANCH  77  83
ATOM     83  N   UNL A   1      30.879  26.587  24.120  1.00  0.00    -0.321 N 
ATOM     84  C   UNL A   1      31.082  27.679  23.148  1.00  0.00     0.267 C 
ATOM     85  C   UNL A   1      29.661  25.859  23.707  1.00  0.00     0.267 C 
ATOM     86  H   UNL A   1      30.774  27.001  25.047  1.00  0.00     0.349 HD
ATOM     87  C   UNL A   1      29.979  28.711  23.349  1.00  0.00     0.107 C 
ATOM     88  C   UNL A   1      28.435  26.767  23.871  1.00  0.00     0.107 C 
ATOM     89  C   UNL A   1      28.610  28.086  23.103  1.00  0.00     0.184 C 
BRANCH  89  90
ATOM     90  O   UNL A   1      27.544  29.046  23.230  1.00  0.00    -0.488 OA
BRANCH  90  91
ATOM     91  C   UNL A   1      27.784  30.292  22.734  1.00  0.00     0.138 A 
ATOM     92  C   UNL A   1      27.905  31.413  23.545  1.00  0.00     0.050 A 
ATOM     93  C   UNL A   1      28.029  30.440  21.375  1.00  0.00     0.157 A 
ATOM     94  C   UNL A   1      28.185  32.648  22.962  1.00  0.00     0.024 A 
ATOM     95  N   UNL A   1      28.313  31.622  20.779  1.00  0.00    -0.261 NA
ATOM     96  C   UNL A   1      28.371  32.703  21.589  1.00  0.00     0.111 A 
ENDBRANCH  90  91
ENDBRANCH  89  90
ENDBRANCH  77  83
ENDBRANCH  74  77
ENDBRANCH  72  73
ENDBRANCH   1  72
TORSDOF 17
ENDMDL
