MODEL 1
REMARK VINA RESULT:     -11.6      0.000      0.000
REMARK SMILES COc1ccc([C@H]2CC(c3ccc(S(C)(=O)=O)cc3)=NN2c2ccc(C(=O)NCCCNC(=O)c3ccc(-c4c5nc(c(-c6cc(S(=O)(=O)[O-])ccc6F)c6ccc([nH]6)c(-c6cc(S(=O)(=O)[O-])ccc6F)c6nc(c(-c7cc(S(=O)(=O)[O-])ccc7F)c7ccc4[nH]7)C=C6)C=C5)cc3)cc2)cc1OC
REMARK SMILES IDX 30 1 29 2 28 3 26 4 27 5 25 7 22 8 23 9 99 10 24 11 98 12
REMARK SMILES IDX 21 13 7 14 8 15 9 16 20 17 6 18 3 19 4 20 101 21 5 22 100 23
REMARK SMILES IDX 2 24 1 25 102 26 103 27 10 28 11 29 19 30 12 31 18 32 13 33
REMARK SMILES IDX 14 34 15 35 16 36 17 37 31 38 32 39 33 40 34 42 35 43 36 44
REMARK SMILES IDX 97 45 37 46 96 47 38 48 39 49 40 50 90 51 41 52 95 53 89 54
REMARK SMILES IDX 91 55 42 56 94 57 88 58 87 59 43 61 75 62 55 63 74 64 56 65
REMARK SMILES IDX 59 66 73 67 92 68 57 69 58 70 72 72 93 73 60 74 44 75 45 76
REMARK SMILES IDX 53 77 46 78 52 79 54 80 51 81 47 82 48 83 49 84 50 85 76 86
REMARK SMILES IDX 77 87 85 88 78 89 84 90 86 91 83 92 79 93 80 94 81 95 82 96
REMARK SMILES IDX 61 97 62 98 70 99 63 100 69 101 71 102 68 103 64 104 65 105
REMARK SMILES IDX 66 106 67 107
REMARK H PARENT 28 6 32 41 91 60 59 71
REMARK Flexibility Score: inf
ROOT
ATOM      1  C   UNL A   1      40.433  26.376  27.007  1.00  0.00     0.042 C 
ENDROOT
BRANCH   1   2
ATOM      2  C   UNL A   1      39.260  25.459  27.353  1.00  0.00     0.118 C 
BRANCH   2   3
ATOM      3  N   UNL A   1      39.537  24.090  26.962  1.00  0.00    -0.352 N 
ATOM      4  C   UNL A   1      38.817  23.169  26.246  1.00  0.00     0.251 C 
ATOM      5  O   UNL A   1      39.350  22.080  26.028  1.00  0.00    -0.269 OA
ATOM      6  H   UNL A   1      40.410  23.758  27.272  1.00  0.00     0.163 HD
BRANCH   4   7
ATOM      7  C   UNL A   1      37.468  23.443  25.679  1.00  0.00     0.039 A 
ATOM      8  C   UNL A   1      34.987  23.945  24.412  1.00  0.00     0.060 A 
ATOM      9  C   UNL A   1      36.022  23.299  23.729  1.00  0.00     0.029 A 
ATOM     10  C   UNL A   1      35.189  24.287  25.750  1.00  0.00     0.029 A 
ATOM     11  C   UNL A   1      37.254  23.070  24.345  1.00  0.00     0.016 A 
ATOM     12  C   UNL A   1      36.402  24.002  26.389  1.00  0.00     0.016 A 
BRANCH   8  13
ATOM     13  N   UNL A   1      33.787  24.201  23.776  1.00  0.00    -0.257 N 
ATOM     14  C   UNL A   1      33.232  23.403  22.685  1.00  0.00     0.144 C 
ATOM     15  C   UNL A   1      32.024  24.244  22.243  1.00  0.00     0.091 C 
ATOM     16  C   UNL A   1      32.129  25.388  23.212  1.00  0.00     0.071 C 
ATOM     17  N   UNL A   1      33.116  25.345  24.048  1.00  0.00    -0.176 NA
BRANCH  14  18
ATOM     18  C   UNL A   1      32.842  22.012  23.167  1.00  0.00    -0.019 A 
ATOM     19  C   UNL A   1      32.265  19.393  24.048  1.00  0.00     0.160 A 
ATOM     20  C   UNL A   1      32.007  19.773  22.722  1.00  0.00     0.051 A 
ATOM     21  C   UNL A   1      32.807  20.318  24.945  1.00  0.00     0.161 A 
ATOM     22  C   UNL A   1      32.286  21.074  22.287  1.00  0.00     0.010 A 
ATOM     23  C   UNL A   1      33.088  21.613  24.493  1.00  0.00     0.056 A 
BRANCH  19  24
ATOM     24  O   UNL A   1      32.110  18.078  24.396  1.00  0.00    -0.493 OA
ATOM     25  C   UNL A   1      33.145  17.248  23.876  1.00  0.00     0.278 C 
ENDBRANCH  19  24
BRANCH  21  26
ATOM     26  O   UNL A   1      33.154  20.129  26.256  1.00  0.00    -0.493 OA
ATOM     27  C   UNL A   1      33.736  21.217  26.956  1.00  0.00     0.278 C 
ENDBRANCH  21  26
ENDBRANCH  14  18
BRANCH  16  28
ATOM     28  C   UNL A   1      31.192  26.512  23.169  1.00  0.00    -0.002 A 
ATOM     29  C   UNL A   1      29.908  26.332  23.694  1.00  0.00     0.011 A 
ATOM     30  C   UNL A   1      31.567  27.716  22.574  1.00  0.00     0.011 A 
ATOM     31  C   UNL A   1      28.989  27.380  23.643  1.00  0.00     0.021 A 
ATOM     32  C   UNL A   1      30.641  28.758  22.498  1.00  0.00     0.021 A 
ATOM     33  C   UNL A   1      29.357  28.582  23.032  1.00  0.00     0.067 A 
BRANCH  33  34
ATOM     34  S   UNL A   1      28.178  29.911  22.947  1.00  0.00     0.175 S 
ATOM     35  C   UNL A   1      28.187  30.400  21.242  1.00  0.00     0.163 C 
ATOM     36  O   UNL A   1      26.879  29.335  23.254  1.00  0.00    -0.224 OA
ATOM     37  O   UNL A   1      28.703  31.015  23.721  1.00  0.00    -0.224 OA
ENDBRANCH  33  34
ENDBRANCH  16  28
ENDBRANCH   8  13
ENDBRANCH   4   7
ENDBRANCH   2   3
ENDBRANCH   1   2
BRANCH   1  38
ATOM     38  C   UNL A   1      41.747  25.938  27.649  1.00  0.00     0.118 C 
BRANCH  38  39
ATOM     39  N   UNL A   1      42.839  25.937  26.686  1.00  0.00    -0.352 N 
ATOM     40  C   UNL A   1      43.683  26.949  26.306  1.00  0.00     0.251 C 
ATOM     41  H   UNL A   1      42.995  25.075  26.237  1.00  0.00     0.163 HD
ATOM     42  O   UNL A   1      44.360  26.805  25.292  1.00  0.00    -0.269 OA
BRANCH  40  43
ATOM     43  C   UNL A   1      43.778  28.199  27.095  1.00  0.00     0.039 A 
ATOM     44  C   UNL A   1      42.962  29.277  26.739  1.00  0.00     0.014 A 
ATOM     45  C   UNL A   1      44.703  28.339  28.133  1.00  0.00     0.014 A 
ATOM     46  C   UNL A   1      43.044  30.476  27.449  1.00  0.00     0.010 A 
ATOM     47  C   UNL A   1      44.736  29.513  28.885  1.00  0.00     0.010 A 
ATOM     48  C   UNL A   1      43.914  30.598  28.544  1.00  0.00    -0.014 A 
BRANCH  48  49
ATOM     49  C   UNL A   1      43.985  31.858  29.330  1.00  0.00     0.031 A 
ATOM     50  C   UNL A   1      43.078  32.066  30.513  1.00  0.00     0.074 A 
ATOM     51  C   UNL A   1      44.832  32.832  28.946  1.00  0.00     0.049 A 
ATOM     52  N   UNL A   1      42.947  33.115  31.284  1.00  0.00    -0.248 NA
ATOM     53  C   UNL A   1      42.177  30.955  30.854  1.00  0.00     0.031 C 
ATOM     54  C   UNL A   1      45.734  32.760  27.794  1.00  0.00     0.029 A 
ATOM     55  N   UNL A   1      45.071  34.076  29.476  1.00  0.00    -0.354 N 
ATOM     56  C   UNL A   1      41.944  32.797  32.193  1.00  0.00     0.074 A 
ATOM     57  C   UNL A   1      41.460  31.480  31.836  1.00  0.00     0.031 C 
ATOM     58  C   UNL A   1      46.442  33.898  27.718  1.00  0.00     0.029 A 
ATOM     59  C   UNL A   1      46.017  34.797  28.785  1.00  0.00     0.049 A 
ATOM     60  H   UNL A   1      44.609  34.418  30.275  1.00  0.00     0.167 HD
ATOM     61  C   UNL A   1      41.484  33.526  33.242  1.00  0.00     0.034 A 
ATOM     62  C   UNL A   1      46.480  36.048  28.982  1.00  0.00     0.034 A 
ATOM     63  C   UNL A   1      41.986  34.836  33.586  1.00  0.00     0.049 A 
ATOM     64  C   UNL A   1      45.943  36.847  30.142  1.00  0.00     0.074 A 
ATOM     65  C   UNL A   1      41.630  35.643  34.654  1.00  0.00     0.029 A 
ATOM     66  N   UNL A   1      42.947  35.535  32.867  1.00  0.00    -0.354 N 
ATOM     67  N   UNL A   1      45.029  36.513  31.023  1.00  0.00    -0.248 NA
ATOM     68  C   UNL A   1      46.511  38.186  30.342  1.00  0.00     0.031 C 
ATOM     69  C   UNL A   1      42.325  36.853  34.541  1.00  0.00     0.029 A 
ATOM     70  C   UNL A   1      43.174  36.773  33.449  1.00  0.00     0.049 A 
ATOM     71  H   UNL A   1      43.402  35.199  32.060  1.00  0.00     0.167 HD
ATOM     72  C   UNL A   1      44.935  37.590  31.900  1.00  0.00     0.074 A 
ATOM     73  C   UNL A   1      45.899  38.574  31.451  1.00  0.00     0.031 C 
ATOM     74  C   UNL A   1      44.130  37.751  32.981  1.00  0.00     0.034 A 
BRANCH  61  75
ATOM     75  C   UNL A   1      40.366  32.931  34.066  1.00  0.00     0.023 A 
ATOM     76  C   UNL A   1      39.024  33.304  33.871  1.00  0.00     0.031 A 
ATOM     77  C   UNL A   1      40.645  31.999  35.081  1.00  0.00     0.131 A 
ATOM     78  C   UNL A   1      38.026  32.812  34.727  1.00  0.00     0.055 A 
ATOM     79  C   UNL A   1      39.637  31.447  35.875  1.00  0.00     0.041 A 
ATOM     80  F   UNL A   1      41.908  31.617  35.331  1.00  0.00    -0.206 F 
ATOM     81  C   UNL A   1      38.319  31.866  35.711  1.00  0.00     0.022 A 
BRANCH  78  82
ATOM     82  S   UNL A   1      36.367  33.540  34.630  1.00  0.00     0.124 S 
ATOM     83  O   UNL A   1      35.664  32.561  33.804  1.00  0.00    -0.237 OA
ATOM     84  O   UNL A   1      35.967  33.601  36.030  1.00  0.00    -0.237 OA
ATOM     85  O   UNL A   1      36.598  34.834  33.989  1.00  0.00    -0.744 OA
ENDBRANCH  78  82
ENDBRANCH  61  75
BRANCH  62  86
ATOM     86  C   UNL A   1      47.500  36.629  28.063  1.00  0.00     0.023 A 
ATOM     87  C   UNL A   1      48.871  36.541  28.353  1.00  0.00     0.031 A 
ATOM     88  C   UNL A   1      47.115  37.313  26.895  1.00  0.00     0.131 A 
ATOM     89  C   UNL A   1      49.805  37.166  27.514  1.00  0.00     0.055 A 
ATOM     90  C   UNL A   1      48.053  37.888  26.036  1.00  0.00     0.041 A 
ATOM     91  F   UNL A   1      45.819  37.420  26.567  1.00  0.00    -0.206 F 
ATOM     92  C   UNL A   1      49.406  37.829  26.350  1.00  0.00     0.022 A 
BRANCH  89  93
ATOM     93  S   UNL A   1      51.549  37.174  28.010  1.00  0.00     0.124 S 
ATOM     94  O   UNL A   1      52.089  38.252  27.188  1.00  0.00    -0.237 OA
ATOM     95  O   UNL A   1      51.456  37.443  29.442  1.00  0.00    -0.237 OA
ATOM     96  O   UNL A   1      52.009  35.831  27.661  1.00  0.00    -0.744 OA
ENDBRANCH  89  93
ENDBRANCH  62  86
BRANCH  74  97
ATOM     97  C   UNL A   1      44.296  39.026  33.773  1.00  0.00     0.023 A 
ATOM     98  C   UNL A   1      43.483  40.150  33.548  1.00  0.00     0.031 A 
ATOM     99  C   UNL A   1      45.301  39.122  34.751  1.00  0.00     0.131 A 
ATOM    100  C   UNL A   1      43.729  41.342  34.245  1.00  0.00     0.055 A 
ATOM    101  C   UNL A   1      45.501  40.291  35.489  1.00  0.00     0.041 A 
ATOM    102  F   UNL A   1      46.110  38.081  35.007  1.00  0.00    -0.206 F 
ATOM    103  C   UNL A   1      44.722  41.415  35.226  1.00  0.00     0.022 A 
BRANCH 100 104
ATOM    104  S   UNL A   1      42.802  42.830  33.780  1.00  0.00     0.124 S 
ATOM    105  O   UNL A   1      41.971  43.051  34.959  1.00  0.00    -0.237 OA
ATOM    106  O   UNL A   1      43.866  43.803  33.559  1.00  0.00    -0.237 OA
ATOM    107  O   UNL A   1      42.077  42.422  32.578  1.00  0.00    -0.744 OA
ENDBRANCH 100 104
ENDBRANCH  74  97
ENDBRANCH  48  49
ENDBRANCH  40  43
ENDBRANCH  38  39
ENDBRANCH   1  38
TORSDOF 19
ENDMDL
MODEL 2
REMARK VINA RESULT:     -11.6      3.968      9.551
REMARK SMILES COc1ccc([C@H]2CC(c3ccc(S(C)(=O)=O)cc3)=NN2c2ccc(C(=O)NCCCNC(=O)c3ccc(-c4c5nc(c(-c6cc(S(=O)(=O)[O-])ccc6F)c6ccc([nH]6)c(-c6cc(S(=O)(=O)[O-])ccc6F)c6nc(c(-c7cc(S(=O)(=O)[O-])ccc7F)c7ccc4[nH]7)C=C6)C=C5)cc3)cc2)cc1OC
REMARK SMILES IDX 30 1 29 2 28 3 26 4 27 5 25 7 22 8 23 9 99 10 24 11 98 12
REMARK SMILES IDX 21 13 7 14 8 15 9 16 20 17 6 18 3 19 4 20 101 21 5 22 100 23
REMARK SMILES IDX 2 24 1 25 102 26 103 27 10 28 11 29 19 30 12 31 18 32 13 33
REMARK SMILES IDX 14 34 15 35 16 36 17 37 31 38 32 39 33 40 34 42 35 43 36 44
REMARK SMILES IDX 97 45 37 46 96 47 38 48 39 49 40 50 90 51 41 52 95 53 89 54
REMARK SMILES IDX 91 55 42 56 94 57 88 58 87 59 43 61 75 62 55 63 74 64 56 65
REMARK SMILES IDX 59 66 73 67 92 68 57 69 58 70 72 72 93 73 60 74 44 75 45 76
REMARK SMILES IDX 53 77 46 78 52 79 54 80 51 81 47 82 48 83 49 84 50 85 76 86
REMARK SMILES IDX 77 87 85 88 78 89 84 90 86 91 83 92 79 93 80 94 81 95 82 96
REMARK SMILES IDX 61 97 62 98 70 99 63 100 69 101 71 102 68 103 64 104 65 105
REMARK SMILES IDX 66 106 67 107
REMARK H PARENT 28 6 32 41 91 60 59 71
REMARK Flexibility Score: inf
ROOT
ATOM      1  C   UNL A   1      36.780  30.425  30.844  1.00  0.00     0.042 C 
ENDROOT
BRANCH   1   2
ATOM      2  C   UNL A   1      36.024  29.826  29.657  1.00  0.00     0.118 C 
BRANCH   2   3
ATOM      3  N   UNL A   1      35.505  30.868  28.792  1.00  0.00    -0.352 N 
ATOM      4  C   UNL A   1      34.582  30.855  27.779  1.00  0.00     0.251 C 
ATOM      5  O   UNL A   1      34.304  31.932  27.252  1.00  0.00    -0.269 OA
ATOM      6  H   UNL A   1      35.891  31.757  28.965  1.00  0.00     0.163 HD
BRANCH   4   7
ATOM      7  C   UNL A   1      33.866  29.625  27.338  1.00  0.00     0.039 A 
ATOM      8  C   UNL A   1      32.660  27.258  26.363  1.00  0.00     0.060 A 
ATOM      9  C   UNL A   1      34.018  27.511  26.148  1.00  0.00     0.029 A 
ATOM     10  C   UNL A   1      31.927  28.176  27.116  1.00  0.00     0.029 A 
ATOM     11  C   UNL A   1      34.611  28.687  26.610  1.00  0.00     0.016 A 
ATOM     12  C   UNL A   1      32.534  29.327  27.634  1.00  0.00     0.016 A 
BRANCH   8  13
ATOM     13  N   UNL A   1      32.078  26.108  25.864  1.00  0.00    -0.257 N 
ATOM     14  C   UNL A   1      30.651  25.941  25.596  1.00  0.00     0.144 C 
ATOM     15  C   UNL A   1      30.550  24.445  25.263  1.00  0.00     0.091 C 
ATOM     16  C   UNL A   1      31.992  24.045  25.402  1.00  0.00     0.071 C 
ATOM     17  N   UNL A   1      32.819  24.982  25.740  1.00  0.00    -0.176 NA
BRANCH  14  18
ATOM     18  C   UNL A   1      30.200  26.835  24.448  1.00  0.00    -0.019 A 
ATOM     19  C   UNL A   1      29.379  28.613  22.415  1.00  0.00     0.160 A 
ATOM     20  C   UNL A   1      28.436  27.852  23.121  1.00  0.00     0.051 A 
ATOM     21  C   UNL A   1      30.739  28.489  22.714  1.00  0.00     0.161 A 
ATOM     22  C   UNL A   1      28.844  26.964  24.124  1.00  0.00     0.010 A 
ATOM     23  C   UNL A   1      31.131  27.604  23.726  1.00  0.00     0.056 A 
BRANCH  19  24
ATOM     24  O   UNL A   1      28.931  29.567  21.542  1.00  0.00    -0.493 OA
ATOM     25  C   UNL A   1      29.049  30.887  22.066  1.00  0.00     0.278 C 
ENDBRANCH  19  24
BRANCH  21  26
ATOM     26  O   UNL A   1      31.795  29.163  22.163  1.00  0.00    -0.493 OA
ATOM     27  C   UNL A   1      33.084  28.954  22.720  1.00  0.00     0.278 C 
ENDBRANCH  21  26
ENDBRANCH  14  18
BRANCH  16  28
ATOM     28  C   UNL A   1      32.421  22.658  25.214  1.00  0.00    -0.002 A 
ATOM     29  C   UNL A   1      31.999  21.976  24.068  1.00  0.00     0.011 A 
ATOM     30  C   UNL A   1      33.195  22.025  26.187  1.00  0.00     0.011 A 
ATOM     31  C   UNL A   1      32.374  20.647  23.879  1.00  0.00     0.021 A 
ATOM     32  C   UNL A   1      33.550  20.686  26.013  1.00  0.00     0.021 A 
ATOM     33  C   UNL A   1      33.135  20.005  24.860  1.00  0.00     0.067 A 
BRANCH  33  34
ATOM     34  S   UNL A   1      33.595  18.303  24.629  1.00  0.00     0.175 S 
ATOM     35  C   UNL A   1      32.904  17.872  23.052  1.00  0.00     0.163 C 
ATOM     36  O   UNL A   1      35.044  18.274  24.519  1.00  0.00    -0.224 OA
ATOM     37  O   UNL A   1      32.910  17.521  25.635  1.00  0.00    -0.224 OA
ENDBRANCH  33  34
ENDBRANCH  16  28
ENDBRANCH   8  13
ENDBRANCH   4   7
ENDBRANCH   2   3
ENDBRANCH   1   2
BRANCH   1  38
ATOM     38  C   UNL A   1      37.685  31.591  30.453  1.00  0.00     0.118 C 
BRANCH  38  39
ATOM     39  N   UNL A   1      37.256  32.834  31.078  1.00  0.00    -0.352 N 
ATOM     40  C   UNL A   1      37.975  33.958  31.394  1.00  0.00     0.251 C 
ATOM     41  H   UNL A   1      36.300  32.873  31.311  1.00  0.00     0.163 HD
ATOM     42  O   UNL A   1      37.477  34.785  32.153  1.00  0.00    -0.269 OA
BRANCH  40  43
ATOM     43  C   UNL A   1      39.332  34.176  30.842  1.00  0.00     0.039 A 
ATOM     44  C   UNL A   1      39.453  34.621  29.523  1.00  0.00     0.014 A 
ATOM     45  C   UNL A   1      40.479  33.886  31.587  1.00  0.00     0.014 A 
ATOM     46  C   UNL A   1      40.719  34.816  28.966  1.00  0.00     0.010 A 
ATOM     47  C   UNL A   1      41.741  34.146  31.054  1.00  0.00     0.010 A 
ATOM     48  C   UNL A   1      41.875  34.603  29.735  1.00  0.00    -0.014 A 
BRANCH  48  49
ATOM     49  C   UNL A   1      43.227  34.840  29.165  1.00  0.00     0.031 A 
ATOM     50  C   UNL A   1      43.710  36.244  28.917  1.00  0.00     0.074 A 
ATOM     51  C   UNL A   1      43.998  33.788  28.827  1.00  0.00     0.049 A 
ATOM     52  N   UNL A   1      44.828  36.653  28.374  1.00  0.00    -0.248 NA
ATOM     53  C   UNL A   1      42.799  37.331  29.306  1.00  0.00     0.031 C 
ATOM     54  C   UNL A   1      43.623  32.381  28.986  1.00  0.00     0.029 A 
ATOM     55  N   UNL A   1      45.253  33.735  28.274  1.00  0.00    -0.354 N 
ATOM     56  C   UNL A   1      44.752  38.041  28.344  1.00  0.00     0.074 A 
ATOM     57  C   UNL A   1      43.451  38.398  28.869  1.00  0.00     0.031 C 
ATOM     58  C   UNL A   1      44.633  31.606  28.562  1.00  0.00     0.029 A 
ATOM     59  C   UNL A   1      45.709  32.454  28.061  1.00  0.00     0.049 A 
ATOM     60  H   UNL A   1      45.778  34.538  28.051  1.00  0.00     0.167 HD
ATOM     61  C   UNL A   1      45.689  38.936  27.938  1.00  0.00     0.034 A 
ATOM     62  C   UNL A   1      46.859  32.013  27.512  1.00  0.00     0.034 A 
ATOM     63  C   UNL A   1      46.984  38.559  27.425  1.00  0.00     0.049 A 
ATOM     64  C   UNL A   1      47.878  33.024  27.051  1.00  0.00     0.074 A 
ATOM     65  C   UNL A   1      48.028  39.380  27.031  1.00  0.00     0.029 A 
ATOM     66  N   UNL A   1      47.414  37.252  27.227  1.00  0.00    -0.354 N 
ATOM     67  N   UNL A   1      47.810  34.336  27.076  1.00  0.00    -0.248 NA
ATOM     68  C   UNL A   1      49.133  32.496  26.504  1.00  0.00     0.031 C 
ATOM     69  C   UNL A   1      49.059  38.572  26.534  1.00  0.00     0.029 A 
ATOM     70  C   UNL A   1      48.693  37.245  26.689  1.00  0.00     0.049 A 
ATOM     71  H   UNL A   1      46.886  36.448  27.437  1.00  0.00     0.167 HD
ATOM     72  C   UNL A   1      49.028  34.787  26.573  1.00  0.00     0.074 A 
ATOM     73  C   UNL A   1      49.814  33.608  26.274  1.00  0.00     0.031 C 
ATOM     74  C   UNL A   1      49.460  36.059  26.382  1.00  0.00     0.034 A 
BRANCH  61  75
ATOM     75  C   UNL A   1      45.327  40.401  28.007  1.00  0.00     0.023 A 
ATOM     76  C   UNL A   1      45.401  41.126  29.211  1.00  0.00     0.031 A 
ATOM     77  C   UNL A   1      44.874  41.080  26.862  1.00  0.00     0.131 A 
ATOM     78  C   UNL A   1      44.953  42.455  29.259  1.00  0.00     0.055 A 
ATOM     79  C   UNL A   1      44.509  42.428  26.897  1.00  0.00     0.041 A 
ATOM     80  F   UNL A   1      44.761  40.439  25.687  1.00  0.00    -0.206 F 
ATOM     81  C   UNL A   1      44.532  43.119  28.106  1.00  0.00     0.022 A 
BRANCH  78  82
ATOM     82  S   UNL A   1      44.789  43.254  30.879  1.00  0.00     0.124 S 
ATOM     83  O   UNL A   1      44.354  44.597  30.504  1.00  0.00    -0.237 OA
ATOM     84  O   UNL A   1      43.794  42.421  31.543  1.00  0.00    -0.237 OA
ATOM     85  O   UNL A   1      46.140  43.178  31.437  1.00  0.00    -0.744 OA
ENDBRANCH  78  82
ENDBRANCH  61  75
BRANCH  62  86
ATOM     86  C   UNL A   1      47.111  30.552  27.360  1.00  0.00     0.023 A 
ATOM     87  C   UNL A   1      46.759  29.876  26.181  1.00  0.00     0.031 A 
ATOM     88  C   UNL A   1      47.675  29.802  28.408  1.00  0.00     0.131 A 
ATOM     89  C   UNL A   1      46.931  28.486  26.095  1.00  0.00     0.055 A 
ATOM     90  C   UNL A   1      47.893  28.428  28.297  1.00  0.00     0.041 A 
ATOM     91  F   UNL A   1      48.036  30.401  29.553  1.00  0.00    -0.206 F 
ATOM     92  C   UNL A   1      47.508  27.760  27.140  1.00  0.00     0.022 A 
BRANCH  89  93
ATOM     93  S   UNL A   1      46.313  27.624  24.623  1.00  0.00     0.124 S 
ATOM     94  O   UNL A   1      46.967  26.326  24.741  1.00  0.00    -0.237 OA
ATOM     95  O   UNL A   1      44.871  27.639  24.848  1.00  0.00    -0.237 OA
ATOM     96  O   UNL A   1      46.778  28.460  23.519  1.00  0.00    -0.744 OA
ENDBRANCH  89  93
ENDBRANCH  62  86
BRANCH  74  97
ATOM     97  C   UNL A   1      50.867  36.232  25.861  1.00  0.00     0.023 A 
ATOM     98  C   UNL A   1      51.984  36.192  26.714  1.00  0.00     0.031 A 
ATOM     99  C   UNL A   1      51.089  36.465  24.493  1.00  0.00     0.131 A 
ATOM    100  C   UNL A   1      53.264  36.444  26.201  1.00  0.00     0.055 A 
ATOM    101  C   UNL A   1      52.372  36.652  23.976  1.00  0.00     0.041 A 
ATOM    102  F   UNL A   1      50.060  36.517  23.631  1.00  0.00    -0.206 F 
ATOM    103  C   UNL A   1      53.468  36.657  24.835  1.00  0.00     0.022 A 
BRANCH 100 104
ATOM    104  S   UNL A   1      54.652  36.594  27.360  1.00  0.00     0.124 S 
ATOM    105  O   UNL A   1      55.362  37.757  26.834  1.00  0.00    -0.237 OA
ATOM    106  O   UNL A   1      53.973  36.785  28.637  1.00  0.00    -0.237 OA
ATOM    107  O   UNL A   1      55.358  35.321  27.218  1.00  0.00    -0.744 OA
ENDBRANCH 100 104
ENDBRANCH  74  97
ENDBRANCH  48  49
ENDBRANCH  40  43
ENDBRANCH  38  39
ENDBRANCH   1  38
TORSDOF 19
ENDMDL
MODEL 3
REMARK VINA RESULT:     -11.5      3.942      8.929
REMARK SMILES COc1ccc([C@H]2CC(c3ccc(S(C)(=O)=O)cc3)=NN2c2ccc(C(=O)NCCCNC(=O)c3ccc(-c4c5nc(c(-c6cc(S(=O)(=O)[O-])ccc6F)c6ccc([nH]6)c(-c6cc(S(=O)(=O)[O-])ccc6F)c6nc(c(-c7cc(S(=O)(=O)[O-])ccc7F)c7ccc4[nH]7)C=C6)C=C5)cc3)cc2)cc1OC
REMARK SMILES IDX 30 1 29 2 28 3 26 4 27 5 25 7 22 8 23 9 99 10 24 11 98 12
REMARK SMILES IDX 21 13 7 14 8 15 9 16 20 17 6 18 3 19 4 20 101 21 5 22 100 23
REMARK SMILES IDX 2 24 1 25 102 26 103 27 10 28 11 29 19 30 12 31 18 32 13 33
REMARK SMILES IDX 14 34 15 35 16 36 17 37 31 38 32 39 33 40 34 42 35 43 36 44
REMARK SMILES IDX 97 45 37 46 96 47 38 48 39 49 40 50 90 51 41 52 95 53 89 54
REMARK SMILES IDX 91 55 42 56 94 57 88 58 87 59 43 61 75 62 55 63 74 64 56 65
REMARK SMILES IDX 59 66 73 67 92 68 57 69 58 70 72 72 93 73 60 74 44 75 45 76
REMARK SMILES IDX 53 77 46 78 52 79 54 80 51 81 47 82 48 83 49 84 50 85 76 86
REMARK SMILES IDX 77 87 85 88 78 89 84 90 86 91 83 92 79 93 80 94 81 95 82 96
REMARK SMILES IDX 61 97 62 98 70 99 63 100 69 101 71 102 68 103 64 104 65 105
REMARK SMILES IDX 66 106 67 107
REMARK H PARENT 28 6 32 41 91 60 59 71
REMARK Flexibility Score: inf
ROOT
ATOM      1  C   UNL A   1      36.838  29.156  29.277  1.00  0.00     0.042 C 
ENDROOT
BRANCH   1   2
ATOM      2  C   UNL A   1      36.813  29.899  27.941  1.00  0.00     0.118 C 
BRANCH   2   3
ATOM      3  N   UNL A   1      35.765  30.902  27.923  1.00  0.00    -0.352 N 
ATOM      4  C   UNL A   1      34.427  30.835  27.633  1.00  0.00     0.251 C 
ATOM      5  O   UNL A   1      33.768  31.868  27.758  1.00  0.00    -0.269 OA
ATOM      6  H   UNL A   1      36.074  31.804  28.166  1.00  0.00     0.163 HD
BRANCH   4   7
ATOM      7  C   UNL A   1      33.734  29.576  27.239  1.00  0.00     0.039 A 
ATOM      8  C   UNL A   1      32.554  27.169  26.335  1.00  0.00     0.060 A 
ATOM      9  C   UNL A   1      33.857  27.512  25.962  1.00  0.00     0.029 A 
ATOM     10  C   UNL A   1      31.871  28.016  27.208  1.00  0.00     0.029 A 
ATOM     11  C   UNL A   1      34.434  28.709  26.390  1.00  0.00     0.016 A 
ATOM     12  C   UNL A   1      32.470  29.187  27.688  1.00  0.00     0.016 A 
BRANCH   8  13
ATOM     13  N   UNL A   1      31.982  26.000  25.871  1.00  0.00    -0.257 N 
ATOM     14  C   UNL A   1      30.549  25.791  25.673  1.00  0.00     0.144 C 
ATOM     15  C   UNL A   1      30.475  24.290  25.352  1.00  0.00     0.091 C 
ATOM     16  C   UNL A   1      31.933  23.932  25.423  1.00  0.00     0.071 C 
ATOM     17  N   UNL A   1      32.748  24.894  25.717  1.00  0.00    -0.176 NA
BRANCH  14  18
ATOM     18  C   UNL A   1      30.018  26.665  24.544  1.00  0.00    -0.019 A 
ATOM     19  C   UNL A   1      29.051  28.406  22.543  1.00  0.00     0.160 A 
ATOM     20  C   UNL A   1      28.164  27.631  23.305  1.00  0.00     0.051 A 
ATOM     21  C   UNL A   1      30.428  28.314  22.770  1.00  0.00     0.161 A 
ATOM     22  C   UNL A   1      28.644  26.761  24.292  1.00  0.00     0.010 A 
ATOM     23  C   UNL A   1      30.892  27.447  23.766  1.00  0.00     0.056 A 
BRANCH  19  24
ATOM     24  O   UNL A   1      28.537  29.342  21.688  1.00  0.00    -0.493 OA
ATOM     25  C   UNL A   1      27.814  30.366  22.367  1.00  0.00     0.278 C 
ENDBRANCH  19  24
BRANCH  21  26
ATOM     26  O   UNL A   1      31.438  29.005  22.158  1.00  0.00    -0.493 OA
ATOM     27  C   UNL A   1      32.688  29.091  22.825  1.00  0.00     0.278 C 
ENDBRANCH  21  26
ENDBRANCH  14  18
BRANCH  16  28
ATOM     28  C   UNL A   1      32.392  22.556  25.222  1.00  0.00    -0.002 A 
ATOM     29  C   UNL A   1      32.138  21.940  23.992  1.00  0.00     0.011 A 
ATOM     30  C   UNL A   1      33.024  21.869  26.258  1.00  0.00     0.011 A 
ATOM     31  C   UNL A   1      32.544  20.622  23.784  1.00  0.00     0.021 A 
ATOM     32  C   UNL A   1      33.408  20.541  26.062  1.00  0.00     0.021 A 
ATOM     33  C   UNL A   1      33.163  19.926  24.827  1.00  0.00     0.067 A 
BRANCH  33  34
ATOM     34  S   UNL A   1      33.660  18.238  24.569  1.00  0.00     0.175 S 
ATOM     35  C   UNL A   1      32.943  17.802  23.005  1.00  0.00     0.163 C 
ATOM     36  O   UNL A   1      35.107  18.247  24.425  1.00  0.00    -0.224 OA
ATOM     37  O   UNL A   1      33.020  17.430  25.584  1.00  0.00    -0.224 OA
ENDBRANCH  33  34
ENDBRANCH  16  28
ENDBRANCH   8  13
ENDBRANCH   4   7
ENDBRANCH   2   3
ENDBRANCH   1   2
BRANCH   1  38
ATOM     38  C   UNL A   1      36.853  30.090  30.484  1.00  0.00     0.118 C 
BRANCH  38  39
ATOM     39  N   UNL A   1      37.286  29.400  31.690  1.00  0.00    -0.352 N 
ATOM     40  C   UNL A   1      38.550  29.149  32.159  1.00  0.00     0.251 C 
ATOM     41  H   UNL A   1      36.558  29.059  32.258  1.00  0.00     0.163 HD
ATOM     42  O   UNL A   1      38.695  28.325  33.058  1.00  0.00    -0.269 OA
BRANCH  40  43
ATOM     43  C   UNL A   1      39.727  29.848  31.593  1.00  0.00     0.039 A 
ATOM     44  C   UNL A   1      40.055  29.625  30.252  1.00  0.00     0.014 A 
ATOM     45  C   UNL A   1      40.540  30.666  32.382  1.00  0.00     0.014 A 
ATOM     46  C   UNL A   1      41.171  30.253  29.695  1.00  0.00     0.010 A 
ATOM     47  C   UNL A   1      41.614  31.346  31.807  1.00  0.00     0.010 A 
ATOM     48  C   UNL A   1      41.947  31.138  30.460  1.00  0.00    -0.014 A 
BRANCH  48  49
ATOM     49  C   UNL A   1      43.116  31.840  29.868  1.00  0.00     0.031 A 
ATOM     50  C   UNL A   1      44.418  31.111  29.671  1.00  0.00     0.074 A 
ATOM     51  C   UNL A   1      43.017  33.146  29.554  1.00  0.00     0.049 A 
ATOM     52  N   UNL A   1      45.563  31.562  29.228  1.00  0.00    -0.248 NA
ATOM     53  C   UNL A   1      44.440  29.690  30.051  1.00  0.00     0.031 C 
ATOM     54  C   UNL A   1      41.817  33.968  29.734  1.00  0.00     0.029 A 
ATOM     55  N   UNL A   1      43.936  34.016  29.024  1.00  0.00    -0.354 N 
ATOM     56  C   UNL A   1      46.445  30.489  29.287  1.00  0.00     0.074 A 
ATOM     57  C   UNL A   1      45.715  29.381  29.866  1.00  0.00     0.031 C 
ATOM     58  C   UNL A   1      42.069  35.214  29.302  1.00  0.00     0.029 A 
ATOM     59  C   UNL A   1      43.455  35.293  28.855  1.00  0.00     0.049 A 
ATOM     60  H   UNL A   1      44.854  33.749  28.787  1.00  0.00     0.167 HD
ATOM     61  C   UNL A   1      47.737  30.426  28.875  1.00  0.00     0.034 A 
ATOM     62  C   UNL A   1      44.067  36.407  28.404  1.00  0.00     0.034 A 
ATOM     63  C   UNL A   1      48.446  31.541  28.293  1.00  0.00     0.049 A 
ATOM     64  C   UNL A   1      45.507  36.319  27.969  1.00  0.00     0.074 A 
ATOM     65  C   UNL A   1      49.738  31.578  27.796  1.00  0.00     0.029 A 
ATOM     66  N   UNL A   1      47.926  32.820  28.133  1.00  0.00    -0.354 N 
ATOM     67  N   UNL A   1      46.313  35.282  27.985  1.00  0.00    -0.248 NA
ATOM     68  C   UNL A   1      46.115  37.547  27.442  1.00  0.00     0.031 C 
ATOM     69  C   UNL A   1      50.020  32.890  27.400  1.00  0.00     0.029 A 
ATOM     70  C   UNL A   1      48.880  33.658  27.575  1.00  0.00     0.049 A 
ATOM     71  H   UNL A   1      47.012  33.091  28.381  1.00  0.00     0.167 HD
ATOM     72  C   UNL A   1      47.515  35.729  27.442  1.00  0.00     0.074 A 
ATOM     73  C   UNL A   1      47.319  37.121  27.092  1.00  0.00     0.031 C 
ATOM     74  C   UNL A   1      48.674  35.050  27.244  1.00  0.00     0.034 A 
BRANCH  61  75
ATOM     75  C   UNL A   1      48.467  29.118  29.073  1.00  0.00     0.023 A 
ATOM     76  C   UNL A   1      48.422  28.093  28.110  1.00  0.00     0.031 A 
ATOM     77  C   UNL A   1      49.195  28.877  30.251  1.00  0.00     0.131 A 
ATOM     78  C   UNL A   1      49.022  26.852  28.376  1.00  0.00     0.055 A 
ATOM     79  C   UNL A   1      49.862  27.670  30.474  1.00  0.00     0.041 A 
ATOM     80  F   UNL A   1      49.260  29.807  31.217  1.00  0.00    -0.206 F 
ATOM     81  C   UNL A   1      49.763  26.642  29.540  1.00  0.00     0.022 A 
BRANCH  78  82
ATOM     82  S   UNL A   1      48.692  25.472  27.246  1.00  0.00     0.124 S 
ATOM     83  O   UNL A   1      48.896  26.101  25.944  1.00  0.00    -0.237 OA
ATOM     84  O   UNL A   1      49.692  24.490  27.646  1.00  0.00    -0.237 OA
ATOM     85  O   UNL A   1      47.306  25.109  27.544  1.00  0.00    -0.744 OA
ENDBRANCH  78  82
ENDBRANCH  61  75
BRANCH  62  86
ATOM     86  C   UNL A   1      43.329  37.701  28.344  1.00  0.00     0.023 A 
ATOM     87  C   UNL A   1      43.404  38.627  29.396  1.00  0.00     0.031 A 
ATOM     88  C   UNL A   1      42.507  38.015  27.246  1.00  0.00     0.131 A 
ATOM     89  C   UNL A   1      42.636  39.800  29.352  1.00  0.00     0.055 A 
ATOM     90  C   UNL A   1      41.785  39.208  27.183  1.00  0.00     0.041 A 
ATOM     91  F   UNL A   1      42.405  37.168  26.211  1.00  0.00    -0.206 F 
ATOM     92  C   UNL A   1      41.837  40.103  28.246  1.00  0.00     0.022 A 
BRANCH  89  93
ATOM     93  S   UNL A   1      42.631  40.890  30.801  1.00  0.00     0.124 S 
ATOM     94  O   UNL A   1      43.187  40.020  31.831  1.00  0.00    -0.237 OA
ATOM     95  O   UNL A   1      43.485  41.987  30.357  1.00  0.00    -0.237 OA
ATOM     96  O   UNL A   1      41.220  41.231  30.966  1.00  0.00    -0.744 OA
ENDBRANCH  89  93
ENDBRANCH  62  86
BRANCH  74  97
ATOM     97  C   UNL A   1      49.802  35.802  26.580  1.00  0.00     0.023 A 
ATOM     98  C   UNL A   1      50.749  36.528  27.324  1.00  0.00     0.031 A 
ATOM     99  C   UNL A   1      49.914  35.812  25.179  1.00  0.00     0.131 A 
ATOM    100  C   UNL A   1      51.728  37.283  26.662  1.00  0.00     0.055 A 
ATOM    101  C   UNL A   1      50.930  36.513  24.527  1.00  0.00     0.041 A 
ATOM    102  F   UNL A   1      49.037  35.139  24.417  1.00  0.00    -0.206 F 
ATOM    103  C   UNL A   1      51.835  37.267  25.269  1.00  0.00     0.022 A 
BRANCH 100 104
ATOM    104  S   UNL A   1      52.797  38.372  27.642  1.00  0.00     0.124 S 
ATOM    105  O   UNL A   1      53.724  37.421  28.249  1.00  0.00    -0.237 OA
ATOM    106  O   UNL A   1      53.362  39.252  26.625  1.00  0.00    -0.237 OA
ATOM    107  O   UNL A   1      51.872  39.016  28.574  1.00  0.00    -0.744 OA
ENDBRANCH 100 104
ENDBRANCH  74  97
ENDBRANCH  48  49
ENDBRANCH  40  43
ENDBRANCH  38  39
ENDBRANCH   1  38
TORSDOF 19
ENDMDL
