MODEL 1
REMARK VINA RESULT:     -12.5      0.000      0.000
REMARK SMILES C[C@H](CN(Cc1ccccc1)C(=O)c1cc2ccccc2oc1=O)C(=O)NCCCNC(=O)c1ccc(-c2c3nc(c(-c4cc(S(=O)(=O)[O-])ccc4F)c4ccc([nH]4)c(-c4cc(S(=O)(=O)[O-])ccc4F)c4nc(c(-c5cc(S(=O)(=O)[O-])ccc5F)c5ccc2[nH]5)C=C4)C=C3)cc1
REMARK SMILES IDX 28 1 27 2 25 3 26 4 2 6 1 7 3 8 4 9 5 10 6 11 7 12 11 13
REMARK SMILES IDX 8 14 10 15 9 16 12 17 13 18 14 19 15 20 23 21 16 22 22 23
REMARK SMILES IDX 24 24 17 25 21 26 18 27 20 28 19 29 29 30 30 31 31 32 32 33
REMARK SMILES IDX 33 35 34 36 35 37 96 38 36 39 95 40 37 41 38 42 39 43 89 44
REMARK SMILES IDX 40 45 94 46 88 47 90 48 41 49 93 50 87 51 86 52 42 54 74 55
REMARK SMILES IDX 54 56 73 57 55 58 58 59 72 60 91 61 56 62 57 63 71 65 92 66
REMARK SMILES IDX 59 67 43 68 44 69 52 70 45 71 51 72 53 73 50 74 46 75 47 76
REMARK SMILES IDX 48 77 49 78 75 79 76 80 84 81 77 82 83 83 85 84 82 85 78 86
REMARK SMILES IDX 79 87 80 88 81 89 60 90 61 91 69 92 62 93 68 94 70 95 67 96
REMARK SMILES IDX 63 97 64 98 65 99 66 100
REMARK H PARENT 27 5 31 34 90 53 58 64
REMARK Flexibility Score: inf
ROOT
ATOM      1  C   UNL A   1      35.200  21.174  24.828  1.00  0.00     0.117 C 
ENDROOT
BRANCH   1   2
ATOM      2  N   UNL A   1      33.976  20.419  25.034  1.00  0.00    -0.356 N 
ATOM      3  C   UNL A   1      32.839  20.251  24.308  1.00  0.00     0.224 C 
ATOM      4  O   UNL A   1      32.164  19.258  24.603  1.00  0.00    -0.275 OA
ATOM      5  H   UNL A   1      33.968  19.921  25.883  1.00  0.00     0.163 HD
BRANCH   3   6
ATOM      6  C   UNL A   1      32.327  21.199  23.226  1.00  0.00     0.095 C 
ATOM      7  C   UNL A   1      31.915  20.578  21.898  1.00  0.00     0.020 C 
BRANCH   6   8
ATOM      8  C   UNL A   1      33.132  22.515  23.072  1.00  0.00     0.133 C 
BRANCH   8   9
ATOM      9  N   UNL A   1      32.372  23.773  23.095  1.00  0.00    -0.333 N 
BRANCH   9  10
ATOM     10  C   UNL A   1      32.649  24.711  21.996  1.00  0.00     0.155 C 
BRANCH  10  11
ATOM     11  C   UNL A   1      32.673  26.192  22.284  1.00  0.00    -0.029 A 
ATOM     12  C   UNL A   1      33.845  26.960  22.324  1.00  0.00     0.005 A 
ATOM     13  C   UNL A   1      31.446  26.831  22.545  1.00  0.00     0.005 A 
ATOM     14  C   UNL A   1      33.775  28.345  22.495  1.00  0.00     0.000 A 
ATOM     15  C   UNL A   1      31.384  28.208  22.749  1.00  0.00     0.000 A 
ATOM     16  C   UNL A   1      32.545  28.968  22.696  1.00  0.00     0.000 A 
ENDBRANCH  10  11
ENDBRANCH   9  10
BRANCH   9  17
ATOM     17  C   UNL A   1      31.569  23.993  24.222  1.00  0.00     0.261 C 
ATOM     18  O   UNL A   1      30.381  24.300  24.101  1.00  0.00    -0.269 OA
BRANCH  17  19
ATOM     19  C   UNL A   1      32.169  23.860  25.597  1.00  0.00     0.126 A 
ATOM     20  C   UNL A   1      33.296  24.556  25.883  1.00  0.00     0.033 A 
ATOM     21  C   UNL A   1      31.222  24.094  26.704  1.00  0.00     0.349 A 
ATOM     22  C   UNL A   1      33.049  26.005  26.084  1.00  0.00     0.018 A 
ATOM     23  O   UNL A   1      30.811  25.421  26.817  1.00  0.00    -0.422 OA
ATOM     24  O   UNL A   1      30.790  23.208  27.427  1.00  0.00    -0.246 OA
ATOM     25  C   UNL A   1      34.030  26.978  25.935  1.00  0.00     0.012 A 
ATOM     26  C   UNL A   1      31.757  26.397  26.458  1.00  0.00     0.138 A 
ATOM     27  C   UNL A   1      33.688  28.327  26.089  1.00  0.00     0.001 A 
ATOM     28  C   UNL A   1      31.393  27.732  26.571  1.00  0.00     0.048 A 
ATOM     29  C   UNL A   1      32.369  28.703  26.376  1.00  0.00     0.004 A 
ENDBRANCH  17  19
ENDBRANCH   9  17
ENDBRANCH   8   9
ENDBRANCH   6   8
ENDBRANCH   3   6
ENDBRANCH   1   2
BRANCH   1  30
ATOM     30  C   UNL A   1      36.513  20.386  24.984  1.00  0.00     0.042 C 
BRANCH  30  31
ATOM     31  C   UNL A   1      37.764  21.222  25.279  1.00  0.00     0.118 C 
BRANCH  31  32
ATOM     32  N   UNL A   1      38.861  20.419  25.790  1.00  0.00    -0.352 N 
ATOM     33  C   UNL A   1      40.033  20.696  26.444  1.00  0.00     0.251 C 
ATOM     34  H   UNL A   1      38.733  19.456  25.630  1.00  0.00     0.163 HD
ATOM     35  O   UNL A   1      40.805  19.742  26.588  1.00  0.00    -0.269 OA
BRANCH  33  36
ATOM     36  C   UNL A   1      40.453  22.029  26.965  1.00  0.00     0.039 A 
ATOM     37  C   UNL A   1      40.094  23.144  26.188  1.00  0.00     0.014 A 
ATOM     38  C   UNL A   1      41.291  22.241  28.061  1.00  0.00     0.014 A 
ATOM     39  C   UNL A   1      40.546  24.434  26.503  1.00  0.00     0.010 A 
ATOM     40  C   UNL A   1      41.709  23.546  28.406  1.00  0.00     0.010 A 
ATOM     41  C   UNL A   1      41.350  24.660  27.627  1.00  0.00    -0.014 A 
BRANCH  41  42
ATOM     42  C   UNL A   1      41.811  26.049  27.955  1.00  0.00     0.031 A 
ATOM     43  C   UNL A   1      43.211  26.508  27.631  1.00  0.00     0.074 A 
ATOM     44  C   UNL A   1      40.962  26.930  28.527  1.00  0.00     0.049 A 
ATOM     45  N   UNL A   1      43.770  27.677  27.840  1.00  0.00    -0.248 NA
ATOM     46  C   UNL A   1      44.098  25.528  26.992  1.00  0.00     0.031 C 
ATOM     47  C   UNL A   1      39.573  26.645  28.884  1.00  0.00     0.029 A 
ATOM     48  N   UNL A   1      41.136  28.241  28.906  1.00  0.00    -0.354 N 
ATOM     49  C   UNL A   1      45.072  27.576  27.359  1.00  0.00     0.074 A 
ATOM     50  C   UNL A   1      45.229  26.213  26.889  1.00  0.00     0.031 C 
ATOM     51  C   UNL A   1      39.021  27.746  29.422  1.00  0.00     0.029 A 
ATOM     52  C   UNL A   1      40.024  28.805  29.488  1.00  0.00     0.049 A 
ATOM     53  H   UNL A   1      41.980  28.732  28.773  1.00  0.00     0.167 HD
ATOM     54  C   UNL A   1      46.038  28.529  27.293  1.00  0.00     0.034 A 
ATOM     55  C   UNL A   1      39.826  30.025  30.033  1.00  0.00     0.034 A 
ATOM     56  C   UNL A   1      45.884  29.890  27.750  1.00  0.00     0.049 A 
ATOM     57  C   UNL A   1      40.938  31.041  30.022  1.00  0.00     0.074 A 
ATOM     58  C   UNL A   1      46.796  30.932  27.673  1.00  0.00     0.029 A 
ATOM     59  N   UNL A   1      44.760  30.402  28.382  1.00  0.00    -0.354 N 
ATOM     60  N   UNL A   1      42.152  30.931  29.535  1.00  0.00    -0.248 NA
ATOM     61  C   UNL A   1      40.651  32.353  30.624  1.00  0.00     0.031 C 
ATOM     62  C   UNL A   1      46.253  32.049  28.319  1.00  0.00     0.029 A 
ATOM     63  C   UNL A   1      44.971  31.730  28.733  1.00  0.00     0.049 A 
ATOM     64  H   UNL A   1      43.932  29.898  28.557  1.00  0.00     0.167 HD
ATOM     65  C   UNL A   1      42.755  32.169  29.739  1.00  0.00     0.074 A 
ATOM     66  C   UNL A   1      41.777  33.011  30.394  1.00  0.00     0.031 C 
ATOM     67  C   UNL A   1      44.005  32.572  29.397  1.00  0.00     0.034 A 
BRANCH  54  68
ATOM     68  C   UNL A   1      47.379  28.120  26.727  1.00  0.00     0.023 A 
ATOM     69  C   UNL A   1      47.593  28.007  25.342  1.00  0.00     0.031 A 
ATOM     70  C   UNL A   1      48.459  27.848  27.585  1.00  0.00     0.131 A 
ATOM     71  C   UNL A   1      48.836  27.569  24.860  1.00  0.00     0.055 A 
ATOM     72  C   UNL A   1      49.715  27.483  27.097  1.00  0.00     0.041 A 
ATOM     73  F   UNL A   1      48.309  27.927  28.917  1.00  0.00    -0.206 F 
ATOM     74  C   UNL A   1      49.905  27.329  25.727  1.00  0.00     0.022 A 
BRANCH  71  75
ATOM     75  S   UNL A   1      48.999  27.193  23.094  1.00  0.00     0.124 S 
ATOM     76  O   UNL A   1      48.329  25.897  23.005  1.00  0.00    -0.237 OA
ATOM     77  O   UNL A   1      48.309  28.314  22.467  1.00  0.00    -0.237 OA
ATOM     78  O   UNL A   1      50.445  27.152  22.883  1.00  0.00    -0.744 OA
ENDBRANCH  71  75
ENDBRANCH  54  68
BRANCH  55  79
ATOM     79  C   UNL A   1      38.524  30.353  30.681  1.00  0.00     0.023 A 
ATOM     80  C   UNL A   1      37.526  31.064  29.996  1.00  0.00     0.031 A 
ATOM     81  C   UNL A   1      38.286  30.003  32.022  1.00  0.00     0.131 A 
ATOM     82  C   UNL A   1      36.351  31.436  30.668  1.00  0.00     0.055 A 
ATOM     83  C   UNL A   1      37.094  30.330  32.670  1.00  0.00     0.041 A 
ATOM     84  F   UNL A   1      39.216  29.335  32.723  1.00  0.00    -0.206 F 
ATOM     85  C   UNL A   1      36.122  31.061  31.995  1.00  0.00     0.022 A 
BRANCH  82  86
ATOM     86  S   UNL A   1      35.155  32.495  29.808  1.00  0.00     0.124 S 
ATOM     87  O   UNL A   1      34.325  32.964  30.913  1.00  0.00    -0.237 OA
ATOM     88  O   UNL A   1      36.023  33.490  29.187  1.00  0.00    -0.237 OA
ATOM     89  O   UNL A   1      34.497  31.578  28.880  1.00  0.00    -0.744 OA
ENDBRANCH  82  86
ENDBRANCH  55  79
BRANCH  67  90
ATOM     90  C   UNL A   1      44.371  34.011  29.672  1.00  0.00     0.023 A 
ATOM     91  C   UNL A   1      44.189  35.025  28.715  1.00  0.00     0.031 A 
ATOM     92  C   UNL A   1      44.909  34.371  30.921  1.00  0.00     0.131 A 
ATOM     93  C   UNL A   1      44.577  36.342  29.008  1.00  0.00     0.055 A 
ATOM     94  C   UNL A   1      45.250  35.691  31.224  1.00  0.00     0.041 A 
ATOM     95  F   UNL A   1      45.108  33.444  31.872  1.00  0.00    -0.206 F 
ATOM     96  C   UNL A   1      45.092  36.684  30.261  1.00  0.00     0.022 A 
BRANCH  93  97
ATOM     97  S   UNL A   1      44.455  37.603  27.708  1.00  0.00     0.124 S 
ATOM     98  O   UNL A   1      44.671  38.835  28.458  1.00  0.00    -0.237 OA
ATOM     99  O   UNL A   1      45.526  37.216  26.794  1.00  0.00    -0.237 OA
ATOM    100  O   UNL A   1      43.102  37.427  27.182  1.00  0.00    -0.744 OA
ENDBRANCH  93  97
ENDBRANCH  67  90
ENDBRANCH  41  42
ENDBRANCH  33  36
ENDBRANCH  31  32
ENDBRANCH  30  31
ENDBRANCH   1  30
TORSDOF 19
ENDMDL
MODEL 2
REMARK VINA RESULT:     -12.4      1.654      2.829
REMARK SMILES C[C@H](CN(Cc1ccccc1)C(=O)c1cc2ccccc2oc1=O)C(=O)NCCCNC(=O)c1ccc(-c2c3nc(c(-c4cc(S(=O)(=O)[O-])ccc4F)c4ccc([nH]4)c(-c4cc(S(=O)(=O)[O-])ccc4F)c4nc(c(-c5cc(S(=O)(=O)[O-])ccc5F)c5ccc2[nH]5)C=C4)C=C3)cc1
REMARK SMILES IDX 28 1 27 2 25 3 26 4 2 6 1 7 3 8 4 9 5 10 6 11 7 12 11 13
REMARK SMILES IDX 8 14 10 15 9 16 12 17 13 18 14 19 15 20 23 21 16 22 22 23
REMARK SMILES IDX 24 24 17 25 21 26 18 27 20 28 19 29 29 30 30 31 31 32 32 33
REMARK SMILES IDX 33 35 34 36 35 37 96 38 36 39 95 40 37 41 38 42 39 43 89 44
REMARK SMILES IDX 40 45 94 46 88 47 90 48 41 49 93 50 87 51 86 52 42 54 74 55
REMARK SMILES IDX 54 56 73 57 55 58 58 59 72 60 91 61 56 62 57 63 71 65 92 66
REMARK SMILES IDX 59 67 43 68 44 69 52 70 45 71 51 72 53 73 50 74 46 75 47 76
REMARK SMILES IDX 48 77 49 78 75 79 76 80 84 81 77 82 83 83 85 84 82 85 78 86
REMARK SMILES IDX 79 87 80 88 81 89 60 90 61 91 69 92 62 93 68 94 70 95 67 96
REMARK SMILES IDX 63 97 64 98 65 99 66 100
REMARK H PARENT 27 5 31 34 90 53 58 64
REMARK Flexibility Score: inf
ROOT
ATOM      1  C   UNL A   1      33.653  21.446  27.014  1.00  0.00     0.117 C 
ENDROOT
BRANCH   1   2
ATOM      2  N   UNL A   1      32.566  22.328  27.405  1.00  0.00    -0.356 N 
ATOM      3  C   UNL A   1      31.745  23.170  26.724  1.00  0.00     0.224 C 
ATOM      4  O   UNL A   1      30.701  23.481  27.310  1.00  0.00    -0.275 OA
ATOM      5  H   UNL A   1      32.385  22.311  28.373  1.00  0.00     0.163 HD
BRANCH   3   6
ATOM      6  C   UNL A   1      32.035  23.782  25.356  1.00  0.00     0.095 C 
ATOM      7  C   UNL A   1      32.319  22.818  24.212  1.00  0.00     0.020 C 
BRANCH   6   8
ATOM      8  C   UNL A   1      32.974  25.015  25.375  1.00  0.00     0.133 C 
BRANCH   8   9
ATOM      9  N   UNL A   1      32.391  26.307  24.984  1.00  0.00    -0.333 N 
BRANCH   9  10
ATOM     10  C   UNL A   1      33.341  27.421  24.834  1.00  0.00     0.155 C 
BRANCH  10  11
ATOM     11  C   UNL A   1      33.212  28.622  25.739  1.00  0.00    -0.029 A 
ATOM     12  C   UNL A   1      34.074  28.887  26.812  1.00  0.00     0.005 A 
ATOM     13  C   UNL A   1      32.151  29.515  25.498  1.00  0.00     0.005 A 
ATOM     14  C   UNL A   1      33.951  30.074  27.539  1.00  0.00     0.000 A 
ATOM     15  C   UNL A   1      32.011  30.682  26.247  1.00  0.00     0.000 A 
ATOM     16  C   UNL A   1      32.928  30.974  27.249  1.00  0.00     0.000 A 
ENDBRANCH  10  11
ENDBRANCH   9  10
BRANCH   9  17
ATOM     17  C   UNL A   1      30.993  26.366  24.924  1.00  0.00     0.261 C 
ATOM     18  O   UNL A   1      30.331  26.710  25.906  1.00  0.00    -0.269 OA
BRANCH  17  19
ATOM     19  C   UNL A   1      30.291  25.997  23.644  1.00  0.00     0.126 A 
ATOM     20  C   UNL A   1      29.001  26.375  23.479  1.00  0.00     0.033 A 
ATOM     21  C   UNL A   1      31.015  26.378  22.416  1.00  0.00     0.349 A 
ATOM     22  C   UNL A   1      28.853  27.824  23.194  1.00  0.00     0.018 A 
ATOM     23  O   UNL A   1      31.065  27.754  22.201  1.00  0.00    -0.422 OA
ATOM     24  O   UNL A   1      31.568  25.576  21.677  1.00  0.00    -0.246 OA
ATOM     25  C   UNL A   1      27.683  28.536  23.431  1.00  0.00     0.012 A 
ATOM     26  C   UNL A   1      29.953  28.492  22.641  1.00  0.00     0.138 A 
ATOM     27  C   UNL A   1      27.656  29.914  23.183  1.00  0.00     0.001 A 
ATOM     28  C   UNL A   1      29.956  29.865  22.433  1.00  0.00     0.048 A 
ATOM     29  C   UNL A   1      28.797  30.580  22.715  1.00  0.00     0.004 A 
ENDBRANCH  17  19
ENDBRANCH   9  17
ENDBRANCH   8   9
ENDBRANCH   6   8
ENDBRANCH   3   6
ENDBRANCH   1   2
BRANCH   1  30
ATOM     30  C   UNL A   1      35.040  22.101  26.884  1.00  0.00     0.042 C 
BRANCH  30  31
ATOM     31  C   UNL A   1      35.687  22.027  25.497  1.00  0.00     0.118 C 
BRANCH  31  32
ATOM     32  N   UNL A   1      36.787  21.081  25.446  1.00  0.00    -0.352 N 
ATOM     33  C   UNL A   1      38.137  21.160  25.674  1.00  0.00     0.251 C 
ATOM     34  H   UNL A   1      36.498  20.176  25.189  1.00  0.00     0.163 HD
ATOM     35  O   UNL A   1      38.790  20.155  25.377  1.00  0.00    -0.269 OA
BRANCH  33  36
ATOM     36  C   UNL A   1      38.865  22.342  26.219  1.00  0.00     0.039 A 
ATOM     37  C   UNL A   1      38.418  23.604  25.790  1.00  0.00     0.014 A 
ATOM     38  C   UNL A   1      40.033  22.290  26.984  1.00  0.00     0.014 A 
ATOM     39  C   UNL A   1      39.105  24.779  26.127  1.00  0.00     0.010 A 
ATOM     40  C   UNL A   1      40.699  23.477  27.362  1.00  0.00     0.010 A 
ATOM     41  C   UNL A   1      40.251  24.738  26.931  1.00  0.00    -0.014 A 
BRANCH  41  42
ATOM     42  C   UNL A   1      40.962  26.007  27.292  1.00  0.00     0.031 A 
ATOM     43  C   UNL A   1      42.352  26.300  26.781  1.00  0.00     0.074 A 
ATOM     44  C   UNL A   1      40.355  26.932  28.066  1.00  0.00     0.049 A 
ATOM     45  N   UNL A   1      43.108  27.352  26.991  1.00  0.00    -0.248 NA
ATOM     46  C   UNL A   1      42.972  25.279  25.927  1.00  0.00     0.031 C 
ATOM     47  C   UNL A   1      39.008  26.806  28.622  1.00  0.00     0.029 A 
ATOM     48  N   UNL A   1      40.783  28.159  28.517  1.00  0.00    -0.354 N 
ATOM     49  C   UNL A   1      44.292  27.123  26.295  1.00  0.00     0.074 A 
ATOM     50  C   UNL A   1      44.166  25.808  25.696  1.00  0.00     0.031 C 
ATOM     51  C   UNL A   1      38.719  27.910  29.331  1.00  0.00     0.029 A 
ATOM     52  C   UNL A   1      39.870  28.808  29.319  1.00  0.00     0.049 A 
ATOM     53  H   UNL A   1      41.662  28.540  28.288  1.00  0.00     0.167 HD
ATOM     54  C   UNL A   1      45.372  27.934  26.150  1.00  0.00     0.034 A 
ATOM     55  C   UNL A   1      39.947  29.979  29.986  1.00  0.00     0.034 A 
ATOM     56  C   UNL A   1      45.499  29.248  26.737  1.00  0.00     0.049 A 
ATOM     57  C   UNL A   1      41.187  30.827  29.876  1.00  0.00     0.074 A 
ATOM     58  C   UNL A   1      46.538  30.157  26.596  1.00  0.00     0.029 A 
ATOM     59  N   UNL A   1      44.575  29.842  27.585  1.00  0.00    -0.354 N 
ATOM     60  N   UNL A   1      42.282  30.601  29.190  1.00  0.00    -0.248 NA
ATOM     61  C   UNL A   1      41.198  32.095  30.623  1.00  0.00     0.031 C 
ATOM     62  C   UNL A   1      46.275  31.263  27.412  1.00  0.00     0.029 A 
ATOM     63  C   UNL A   1      45.037  31.083  28.004  1.00  0.00     0.049 A 
ATOM     64  H   UNL A   1      43.715  29.441  27.851  1.00  0.00     0.167 HD
ATOM     65  C   UNL A   1      43.092  31.716  29.392  1.00  0.00     0.074 A 
ATOM     66  C   UNL A   1      42.364  32.612  30.266  1.00  0.00     0.031 C 
ATOM     67  C   UNL A   1      44.322  31.976  28.884  1.00  0.00     0.034 A 
BRANCH  54  68
ATOM     68  C   UNL A   1      46.534  27.406  25.340  1.00  0.00     0.023 A 
ATOM     69  C   UNL A   1      46.826  27.902  24.058  1.00  0.00     0.031 A 
ATOM     70  C   UNL A   1      47.363  26.397  25.862  1.00  0.00     0.131 A 
ATOM     71  C   UNL A   1      47.878  27.344  23.316  1.00  0.00     0.055 A 
ATOM     72  C   UNL A   1      48.454  25.897  25.148  1.00  0.00     0.041 A 
ATOM     73  F   UNL A   1      47.123  25.877  27.076  1.00  0.00    -0.206 F 
ATOM     74  C   UNL A   1      48.708  26.361  23.861  1.00  0.00     0.022 A 
BRANCH  71  75
ATOM     75  S   UNL A   1      48.068  27.828  21.579  1.00  0.00     0.124 S 
ATOM     76  O   UNL A   1      46.780  28.462  21.306  1.00  0.00    -0.237 OA
ATOM     77  O   UNL A   1      49.222  28.718  21.623  1.00  0.00    -0.237 OA
ATOM     78  O   UNL A   1      48.285  26.557  20.889  1.00  0.00    -0.744 OA
ENDBRANCH  71  75
ENDBRANCH  54  68
BRANCH  55  79
ATOM     79  C   UNL A   1      38.822  30.414  30.864  1.00  0.00     0.023 A 
ATOM     80  C   UNL A   1      37.810  31.261  30.388  1.00  0.00     0.031 A 
ATOM     81  C   UNL A   1      38.781  30.026  32.215  1.00  0.00     0.131 A 
ATOM     82  C   UNL A   1      36.819  31.726  31.269  1.00  0.00     0.055 A 
ATOM     83  C   UNL A   1      37.764  30.448  33.073  1.00  0.00     0.041 A 
ATOM     84  F   UNL A   1      39.734  29.227  32.721  1.00  0.00    -0.206 F 
ATOM     85  C   UNL A   1      36.782  31.313  32.604  1.00  0.00     0.022 A 
BRANCH  82  86
ATOM     86  S   UNL A   1      35.623  32.948  30.665  1.00  0.00     0.124 S 
ATOM     87  O   UNL A   1      34.404  32.535  31.353  1.00  0.00    -0.237 OA
ATOM     88  O   UNL A   1      36.220  34.202  31.112  1.00  0.00    -0.237 OA
ATOM     89  O   UNL A   1      35.624  32.739  29.219  1.00  0.00    -0.744 OA
ENDBRANCH  82  86
ENDBRANCH  55  79
BRANCH  67  90
ATOM     90  C   UNL A   1      44.942  33.313  29.212  1.00  0.00     0.023 A 
ATOM     91  C   UNL A   1      44.653  34.473  28.471  1.00  0.00     0.031 A 
ATOM     92  C   UNL A   1      45.836  33.426  30.293  1.00  0.00     0.131 A 
ATOM     93  C   UNL A   1      45.282  35.686  28.796  1.00  0.00     0.055 A 
ATOM     94  C   UNL A   1      46.422  34.645  30.640  1.00  0.00     0.041 A 
ATOM     95  F   UNL A   1      46.151  32.351  31.033  1.00  0.00    -0.206 F 
ATOM     96  C   UNL A   1      46.152  35.782  29.885  1.00  0.00     0.022 A 
BRANCH  93  97
ATOM     97  S   UNL A   1      44.994  37.134  27.741  1.00  0.00     0.124 S 
ATOM     98  O   UNL A   1      46.290  37.304  27.095  1.00  0.00    -0.237 OA
ATOM     99  O   UNL A   1      43.906  36.682  26.878  1.00  0.00    -0.237 OA
ATOM    100  O   UNL A   1      44.631  38.186  28.690  1.00  0.00    -0.744 OA
ENDBRANCH  93  97
ENDBRANCH  67  90
ENDBRANCH  41  42
ENDBRANCH  33  36
ENDBRANCH  31  32
ENDBRANCH  30  31
ENDBRANCH   1  30
TORSDOF 19
ENDMDL
MODEL 3
REMARK VINA RESULT:     -12.3      1.024      2.231
REMARK SMILES C[C@H](CN(Cc1ccccc1)C(=O)c1cc2ccccc2oc1=O)C(=O)NCCCNC(=O)c1ccc(-c2c3nc(c(-c4cc(S(=O)(=O)[O-])ccc4F)c4ccc([nH]4)c(-c4cc(S(=O)(=O)[O-])ccc4F)c4nc(c(-c5cc(S(=O)(=O)[O-])ccc5F)c5ccc2[nH]5)C=C4)C=C3)cc1
REMARK SMILES IDX 28 1 27 2 25 3 26 4 2 6 1 7 3 8 4 9 5 10 6 11 7 12 11 13
REMARK SMILES IDX 8 14 10 15 9 16 12 17 13 18 14 19 15 20 23 21 16 22 22 23
REMARK SMILES IDX 24 24 17 25 21 26 18 27 20 28 19 29 29 30 30 31 31 32 32 33
REMARK SMILES IDX 33 35 34 36 35 37 96 38 36 39 95 40 37 41 38 42 39 43 89 44
REMARK SMILES IDX 40 45 94 46 88 47 90 48 41 49 93 50 87 51 86 52 42 54 74 55
REMARK SMILES IDX 54 56 73 57 55 58 58 59 72 60 91 61 56 62 57 63 71 65 92 66
REMARK SMILES IDX 59 67 43 68 44 69 52 70 45 71 51 72 53 73 50 74 46 75 47 76
REMARK SMILES IDX 48 77 49 78 75 79 76 80 84 81 77 82 83 83 85 84 82 85 78 86
REMARK SMILES IDX 79 87 80 88 81 89 60 90 61 91 69 92 62 93 68 94 70 95 67 96
REMARK SMILES IDX 63 97 64 98 65 99 66 100
REMARK H PARENT 27 5 31 34 90 53 58 64
REMARK Flexibility Score: inf
ROOT
ATOM      1  C   UNL A   1      35.582  21.044  24.785  1.00  0.00     0.117 C 
ENDROOT
BRANCH   1   2
ATOM      2  N   UNL A   1      34.892  21.528  25.969  1.00  0.00    -0.356 N 
ATOM      3  C   UNL A   1      33.608  21.452  26.409  1.00  0.00     0.224 C 
ATOM      4  O   UNL A   1      33.450  21.649  27.619  1.00  0.00    -0.275 OA
ATOM      5  H   UNL A   1      35.482  22.018  26.586  1.00  0.00     0.163 HD
BRANCH   3   6
ATOM      6  C   UNL A   1      32.382  21.201  25.533  1.00  0.00     0.095 C 
ATOM      7  C   UNL A   1      32.599  20.418  24.245  1.00  0.00     0.020 C 
BRANCH   6   8
ATOM      8  C   UNL A   1      31.433  22.415  25.370  1.00  0.00     0.133 C 
BRANCH   8   9
ATOM      9  N   UNL A   1      32.052  23.748  25.325  1.00  0.00    -0.333 N 
BRANCH   9  10
ATOM     10  C   UNL A   1      31.653  24.677  26.394  1.00  0.00     0.155 C 
BRANCH  10  11
ATOM     11  C   UNL A   1      32.206  26.081  26.390  1.00  0.00    -0.029 A 
ATOM     12  C   UNL A   1      33.546  26.390  26.120  1.00  0.00     0.005 A 
ATOM     13  C   UNL A   1      31.325  27.136  26.692  1.00  0.00     0.005 A 
ATOM     14  C   UNL A   1      33.959  27.722  26.033  1.00  0.00     0.000 A 
ATOM     15  C   UNL A   1      31.748  28.463  26.637  1.00  0.00     0.000 A 
ATOM     16  C   UNL A   1      33.058  28.756  26.280  1.00  0.00     0.000 A 
ENDBRANCH  10  11
ENDBRANCH   9  10
BRANCH   9  17
ATOM     17  C   UNL A   1      32.847  24.027  24.206  1.00  0.00     0.261 C 
ATOM     18  O   UNL A   1      34.069  24.152  24.314  1.00  0.00    -0.269 OA
BRANCH  17  19
ATOM     19  C   UNL A   1      32.198  24.183  22.856  1.00  0.00     0.126 A 
ATOM     20  C   UNL A   1      31.216  25.105  22.712  1.00  0.00     0.033 A 
ATOM     21  C   UNL A   1      33.145  24.379  21.741  1.00  0.00     0.349 A 
ATOM     22  C   UNL A   1      31.727  26.497  22.675  1.00  0.00     0.018 A 
ATOM     23  O   UNL A   1      33.795  25.611  21.769  1.00  0.00    -0.422 OA
ATOM     24  O   UNL A   1      33.383  23.528  20.896  1.00  0.00    -0.246 OA
ATOM     25  C   UNL A   1      30.950  27.607  22.989  1.00  0.00     0.012 A 
ATOM     26  C   UNL A   1      33.059  26.690  22.289  1.00  0.00     0.138 A 
ATOM     27  C   UNL A   1      31.537  28.879  22.982  1.00  0.00     0.001 A 
ATOM     28  C   UNL A   1      33.665  27.939  22.321  1.00  0.00     0.048 A 
ATOM     29  C   UNL A   1      32.895  29.040  22.679  1.00  0.00     0.004 A 
ENDBRANCH  17  19
ENDBRANCH   9  17
ENDBRANCH   8   9
ENDBRANCH   6   8
ENDBRANCH   3   6
ENDBRANCH   1   2
BRANCH   1  30
ATOM     30  C   UNL A   1      36.895  20.280  25.035  1.00  0.00     0.042 C 
BRANCH  30  31
ATOM     31  C   UNL A   1      38.122  21.144  25.348  1.00  0.00     0.118 C 
BRANCH  31  32
ATOM     32  N   UNL A   1      39.211  20.376  25.924  1.00  0.00    -0.352 N 
ATOM     33  C   UNL A   1      40.353  20.691  26.613  1.00  0.00     0.251 C 
ATOM     34  H   UNL A   1      39.105  19.406  25.787  1.00  0.00     0.163 HD
ATOM     35  O   UNL A   1      41.134  19.755  26.813  1.00  0.00    -0.269 OA
BRANCH  33  36
ATOM     36  C   UNL A   1      40.731  22.045  27.111  1.00  0.00     0.039 A 
ATOM     37  C   UNL A   1      40.425  23.127  26.267  1.00  0.00     0.014 A 
ATOM     38  C   UNL A   1      41.489  22.303  28.254  1.00  0.00     0.014 A 
ATOM     39  C   UNL A   1      40.850  24.431  26.564  1.00  0.00     0.010 A 
ATOM     40  C   UNL A   1      41.877  23.623  28.578  1.00  0.00     0.010 A 
ATOM     41  C   UNL A   1      41.572  24.704  27.733  1.00  0.00    -0.014 A 
BRANCH  41  42
ATOM     42  C   UNL A   1      42.004  26.107  28.039  1.00  0.00     0.031 A 
ATOM     43  C   UNL A   1      43.393  26.592  27.702  1.00  0.00     0.074 A 
ATOM     44  C   UNL A   1      41.139  26.978  28.602  1.00  0.00     0.049 A 
ATOM     45  N   UNL A   1      43.927  27.775  27.892  1.00  0.00    -0.248 NA
ATOM     46  C   UNL A   1      44.298  25.621  27.073  1.00  0.00     0.031 C 
ATOM     47  C   UNL A   1      39.757  26.669  28.969  1.00  0.00     0.029 A 
ATOM     48  N   UNL A   1      41.287  28.298  28.961  1.00  0.00    -0.354 N 
ATOM     49  C   UNL A   1      45.229  27.695  27.406  1.00  0.00     0.074 A 
ATOM     50  C   UNL A   1      45.414  26.329  26.956  1.00  0.00     0.031 C 
ATOM     51  C   UNL A   1      39.185  27.765  29.493  1.00  0.00     0.029 A 
ATOM     52  C   UNL A   1      40.165  28.847  29.541  1.00  0.00     0.049 A 
ATOM     53  H   UNL A   1      42.119  28.805  28.818  1.00  0.00     0.167 HD
ATOM     54  C   UNL A   1      46.175  28.667  27.323  1.00  0.00     0.034 A 
ATOM     55  C   UNL A   1      39.944  30.070  30.068  1.00  0.00     0.034 A 
ATOM     56  C   UNL A   1      45.994  30.031  27.761  1.00  0.00     0.049 A 
ATOM     57  C   UNL A   1      41.034  31.109  30.038  1.00  0.00     0.074 A 
ATOM     58  C   UNL A   1      46.882  31.091  27.665  1.00  0.00     0.029 A 
ATOM     59  N   UNL A   1      44.862  30.528  28.391  1.00  0.00    -0.354 N 
ATOM     60  N   UNL A   1      42.248  31.018  29.548  1.00  0.00    -0.248 NA
ATOM     61  C   UNL A   1      40.721  32.422  30.622  1.00  0.00     0.031 C 
ATOM     62  C   UNL A   1      46.318  32.205  28.297  1.00  0.00     0.029 A 
ATOM     63  C   UNL A   1      45.046  31.865  28.722  1.00  0.00     0.049 A 
ATOM     64  H   UNL A   1      44.045  30.009  28.576  1.00  0.00     0.167 HD
ATOM     65  C   UNL A   1      42.825  32.271  29.731  1.00  0.00     0.074 A 
ATOM     66  C   UNL A   1      41.832  33.102  30.378  1.00  0.00     0.031 C 
ATOM     67  C   UNL A   1      44.064  32.696  29.378  1.00  0.00     0.034 A 
BRANCH  54  68
ATOM     68  C   UNL A   1      47.521  28.279  26.756  1.00  0.00     0.023 A 
ATOM     69  C   UNL A   1      47.713  28.075  25.379  1.00  0.00     0.031 A 
ATOM     70  C   UNL A   1      48.630  28.118  27.608  1.00  0.00     0.131 A 
ATOM     71  C   UNL A   1      48.965  27.660  24.901  1.00  0.00     0.055 A 
ATOM     72  C   UNL A   1      49.891  27.775  27.118  1.00  0.00     0.041 A 
ATOM     73  F   UNL A   1      48.503  28.286  28.933  1.00  0.00    -0.206 F 
ATOM     74  C   UNL A   1      50.061  27.531  25.758  1.00  0.00     0.022 A 
BRANCH  71  75
ATOM     75  S   UNL A   1      49.111  27.164  23.163  1.00  0.00     0.124 S 
ATOM     76  O   UNL A   1      50.552  26.964  23.032  1.00  0.00    -0.237 OA
ATOM     77  O   UNL A   1      48.290  25.960  23.108  1.00  0.00    -0.237 OA
ATOM     78  O   UNL A   1      48.581  28.314  22.432  1.00  0.00    -0.744 OA
ENDBRANCH  71  75
ENDBRANCH  54  68
BRANCH  55  79
ATOM     79  C   UNL A   1      38.637  30.379  30.717  1.00  0.00     0.023 A 
ATOM     80  C   UNL A   1      37.625  31.068  30.030  1.00  0.00     0.031 A 
ATOM     81  C   UNL A   1      38.409  30.034  32.061  1.00  0.00     0.131 A 
ATOM     82  C   UNL A   1      36.445  31.424  30.703  1.00  0.00     0.055 A 
ATOM     83  C   UNL A   1      37.213  30.344  32.710  1.00  0.00     0.041 A 
ATOM     84  F   UNL A   1      39.351  29.387  32.764  1.00  0.00    -0.206 F 
ATOM     85  C   UNL A   1      36.227  31.054  32.033  1.00  0.00     0.022 A 
BRANCH  82  86
ATOM     86  S   UNL A   1      35.229  32.456  29.839  1.00  0.00     0.124 S 
ATOM     87  O   UNL A   1      36.050  33.583  29.407  1.00  0.00    -0.237 OA
ATOM     88  O   UNL A   1      34.764  31.558  28.787  1.00  0.00    -0.237 OA
ATOM     89  O   UNL A   1      34.246  32.762  30.876  1.00  0.00    -0.744 OA
ENDBRANCH  82  86
ENDBRANCH  55  79
BRANCH  67  90
ATOM     90  C   UNL A   1      44.400  34.146  29.631  1.00  0.00     0.023 A 
ATOM     91  C   UNL A   1      43.957  35.175  28.781  1.00  0.00     0.031 A 
ATOM     92  C   UNL A   1      45.178  34.501  30.748  1.00  0.00     0.131 A 
ATOM     93  C   UNL A   1      44.326  36.505  29.042  1.00  0.00     0.055 A 
ATOM     94  C   UNL A   1      45.502  35.830  31.028  1.00  0.00     0.041 A 
ATOM     95  F   UNL A   1      45.632  33.559  31.591  1.00  0.00    -0.206 F 
ATOM     96  C   UNL A   1      45.083  36.840  30.168  1.00  0.00     0.022 A 
BRANCH  93  97
ATOM     97  S   UNL A   1      43.852  37.795  27.857  1.00  0.00     0.124 S 
ATOM     98  O   UNL A   1      43.237  37.016  26.788  1.00  0.00    -0.237 OA
ATOM     99  O   UNL A   1      42.945  38.626  28.643  1.00  0.00    -0.237 OA
ATOM    100  O   UNL A   1      45.123  38.428  27.509  1.00  0.00    -0.744 OA
ENDBRANCH  93  97
ENDBRANCH  67  90
ENDBRANCH  41  42
ENDBRANCH  33  36
ENDBRANCH  31  32
ENDBRANCH  30  31
ENDBRANCH   1  30
TORSDOF 19
ENDMDL
