MODEL 1
REMARK VINA RESULT:     -11.8      0.000      0.000
REMARK SMILES O=C(CSc1nnc(-c2ccncc2)s1)Nc1cccc(C(=O)NCCCNC(=O)c2ccc(-c3c4nc(c(-c5cc(S(=O)(=O)[O-])ccc5F)c5ccc([nH]5)c(-c5cc(S(=O)(=O)[O-])ccc5F)c5nc(c(-c6cc(S(=O)(=O)[O-])ccc6F)c6ccc3[nH]6)C=C5)C=C4)cc2)c1
REMARK SMILES IDX 25 1 24 2 22 3 23 4 21 6 17 7 18 8 94 9 19 10 20 11 16 12
REMARK SMILES IDX 1 13 2 14 3 16 4 17 5 18 6 19 15 20 7 21 8 22 9 23 10 24
REMARK SMILES IDX 14 25 11 26 13 27 12 28 26 29 27 30 28 31 29 32 30 34 31 35
REMARK SMILES IDX 32 36 93 37 33 38 92 39 34 40 35 41 36 42 86 43 37 44 91 45
REMARK SMILES IDX 85 46 87 47 38 48 90 49 84 50 83 51 39 53 71 54 51 55 70 56
REMARK SMILES IDX 52 57 55 58 69 59 88 60 53 61 54 62 68 64 89 65 56 66 40 67
REMARK SMILES IDX 41 68 49 69 42 70 48 71 50 72 47 73 43 74 44 75 45 76 46 77
REMARK SMILES IDX 72 78 73 79 81 80 74 81 80 82 82 83 79 84 75 85 76 86 77 87
REMARK SMILES IDX 78 88 57 89 58 90 66 91 59 92 65 93 67 94 64 95 60 96 61 97
REMARK SMILES IDX 62 98 63 99
REMARK H PARENT 24 5 16 15 28 33 87 52 55 63
REMARK Flexibility Score: inf
ROOT
ATOM      1  C   UNL A   1      37.138  20.767  24.698  1.00  0.00     0.118 C 
ENDROOT
BRANCH   1   2
ATOM      2  N   UNL A   1      36.268  21.057  25.838  1.00  0.00    -0.352 N 
ATOM      3  C   UNL A   1      34.905  21.238  25.948  1.00  0.00     0.251 C 
ATOM      4  O   UNL A   1      34.433  21.493  27.057  1.00  0.00    -0.269 OA
ATOM      5  H   UNL A   1      36.749  21.140  26.692  1.00  0.00     0.163 HD
BRANCH   3   6
ATOM      6  C   UNL A   1      33.995  21.204  24.772  1.00  0.00     0.041 A 
ATOM      7  C   UNL A   1      32.531  22.371  23.236  1.00  0.00     0.041 A 
ATOM      8  C   UNL A   1      31.973  21.149  22.849  1.00  0.00     0.026 A 
ATOM      9  C   UNL A   1      33.634  22.360  24.086  1.00  0.00     0.040 A 
ATOM     10  C   UNL A   1      32.470  19.952  23.374  1.00  0.00     0.003 A 
ATOM     11  C   UNL A   1      33.451  19.982  24.367  1.00  0.00     0.014 A 
BRANCH   7  12
ATOM     12  N   UNL A   1      31.877  23.566  22.857  1.00  0.00    -0.325 N 
ATOM     13  O   UNL A   1      33.542  24.629  21.620  1.00  0.00    -0.274 OA
ATOM     14  C   UNL A   1      32.446  24.635  22.180  1.00  0.00     0.234 C 
ATOM     15  H   UNL A   1      30.925  23.647  23.095  1.00  0.00     0.169 HD
BRANCH  14  16
ATOM     16  C   UNL A   1      31.651  25.927  22.227  1.00  0.00     0.177 C 
BRANCH  16  17
ATOM     17  S   UNL A   1      30.617  26.101  23.692  1.00  0.00    -0.084 SA
BRANCH  17  18
ATOM     18  C   UNL A   1      31.456  27.277  24.680  1.00  0.00     0.175 A 
ATOM     19  N   UNL A   1      32.356  26.854  25.542  1.00  0.00    -0.131 NA
ATOM     20  S   UNL A   1      31.259  28.980  24.660  1.00  0.00    -0.086 S 
ATOM     21  N   UNL A   1      32.909  27.885  26.271  1.00  0.00    -0.137 NA
ATOM     22  C   UNL A   1      32.387  29.052  25.952  1.00  0.00     0.148 A 
BRANCH  22  23
ATOM     23  C   UNL A   1      32.746  30.316  26.581  1.00  0.00     0.015 A 
ATOM     24  C   UNL A   1      31.878  31.410  26.565  1.00  0.00     0.031 A 
ATOM     25  C   UNL A   1      33.954  30.419  27.273  1.00  0.00     0.031 A 
ATOM     26  C   UNL A   1      32.257  32.556  27.243  1.00  0.00     0.111 A 
ATOM     27  C   UNL A   1      34.246  31.611  27.910  1.00  0.00     0.111 A 
ATOM     28  N   UNL A   1      33.425  32.682  27.911  1.00  0.00    -0.265 NA
ENDBRANCH  22  23
ENDBRANCH  17  18
ENDBRANCH  16  17
ENDBRANCH  14  16
ENDBRANCH   7  12
ENDBRANCH   3   6
ENDBRANCH   1   2
BRANCH   1  29
ATOM     29  C   UNL A   1      38.166  19.678  24.952  1.00  0.00     0.042 C 
BRANCH  29  30
ATOM     30  C   UNL A   1      39.134  19.966  26.084  1.00  0.00     0.118 C 
BRANCH  30  31
ATOM     31  N   UNL A   1      40.343  19.154  26.016  1.00  0.00    -0.352 N 
ATOM     32  C   UNL A   1      41.673  19.506  26.039  1.00  0.00     0.251 C 
ATOM     33  H   UNL A   1      40.181  18.186  25.943  1.00  0.00     0.163 HD
ATOM     34  O   UNL A   1      42.518  18.660  25.764  1.00  0.00    -0.269 OA
BRANCH  32  35
ATOM     35  C   UNL A   1      42.091  20.892  26.360  1.00  0.00     0.039 A 
ATOM     36  C   UNL A   1      42.330  21.240  27.693  1.00  0.00     0.014 A 
ATOM     37  C   UNL A   1      42.222  21.860  25.363  1.00  0.00     0.014 A 
ATOM     38  C   UNL A   1      42.776  22.527  28.010  1.00  0.00     0.010 A 
ATOM     39  C   UNL A   1      42.772  23.102  25.664  1.00  0.00     0.010 A 
ATOM     40  C   UNL A   1      43.048  23.456  26.993  1.00  0.00    -0.014 A 
BRANCH  40  41
ATOM     41  C   UNL A   1      43.592  24.807  27.289  1.00  0.00     0.031 A 
ATOM     42  C   UNL A   1      42.680  25.886  27.812  1.00  0.00     0.074 A 
ATOM     43  C   UNL A   1      44.886  25.084  27.025  1.00  0.00     0.049 A 
ATOM     44  N   UNL A   1      42.932  27.152  28.031  1.00  0.00    -0.248 NA
ATOM     45  C   UNL A   1      41.289  25.497  28.092  1.00  0.00     0.031 C 
ATOM     46  C   UNL A   1      45.860  24.133  26.485  1.00  0.00     0.029 A 
ATOM     47  N   UNL A   1      45.604  26.245  27.167  1.00  0.00    -0.354 N 
ATOM     48  C   UNL A   1      41.731  27.709  28.459  1.00  0.00     0.074 A 
ATOM     49  C   UNL A   1      40.736  26.660  28.397  1.00  0.00     0.031 C 
ATOM     50  C   UNL A   1      47.053  24.738  26.373  1.00  0.00     0.029 A 
ATOM     51  C   UNL A   1      46.920  26.134  26.776  1.00  0.00     0.049 A 
ATOM     52  H   UNL A   1      45.215  27.079  27.514  1.00  0.00     0.167 HD
ATOM     53  C   UNL A   1      41.486  28.971  28.894  1.00  0.00     0.034 A 
ATOM     54  C   UNL A   1      47.903  27.056  26.733  1.00  0.00     0.034 A 
ATOM     55  C   UNL A   1      42.493  30.001  28.963  1.00  0.00     0.049 A 
ATOM     56  C   UNL A   1      47.595  28.464  27.181  1.00  0.00     0.074 A 
ATOM     57  C   UNL A   1      42.366  31.298  29.425  1.00  0.00     0.029 A 
ATOM     58  N   UNL A   1      43.812  29.852  28.553  1.00  0.00    -0.354 N 
ATOM     59  N   UNL A   1      46.462  28.963  27.623  1.00  0.00    -0.248 NA
ATOM     60  C   UNL A   1      48.699  29.430  27.134  1.00  0.00     0.031 C 
ATOM     61  C   UNL A   1      43.586  31.955  29.228  1.00  0.00     0.029 A 
ATOM     62  C   UNL A   1      44.500  31.043  28.723  1.00  0.00     0.049 A 
ATOM     63  H   UNL A   1      44.202  29.022  28.194  1.00  0.00     0.167 HD
ATOM     64  C   UNL A   1      46.733  30.292  27.942  1.00  0.00     0.074 A 
ATOM     65  C   UNL A   1      48.137  30.509  27.656  1.00  0.00     0.031 C 
ATOM     66  C   UNL A   1      45.899  31.246  28.430  1.00  0.00     0.034 A 
BRANCH  53  67
ATOM     67  C   UNL A   1      40.070  29.302  29.309  1.00  0.00     0.023 A 
ATOM     68  C   UNL A   1      39.680  29.310  30.659  1.00  0.00     0.031 A 
ATOM     69  C   UNL A   1      39.092  29.593  28.342  1.00  0.00     0.131 A 
ATOM     70  C   UNL A   1      38.337  29.523  31.001  1.00  0.00     0.055 A 
ATOM     71  C   UNL A   1      37.774  29.892  28.695  1.00  0.00     0.041 A 
ATOM     72  F   UNL A   1      39.396  29.579  27.035  1.00  0.00    -0.206 F 
ATOM     73  C   UNL A   1      37.386  29.842  30.030  1.00  0.00     0.022 A 
BRANCH  70  74
ATOM     74  S   UNL A   1      37.823  29.226  32.716  1.00  0.00     0.124 S 
ATOM     75  O   UNL A   1      36.437  29.687  32.691  1.00  0.00    -0.237 OA
ATOM     76  O   UNL A   1      38.016  27.788  32.858  1.00  0.00    -0.237 OA
ATOM     77  O   UNL A   1      38.736  30.060  33.495  1.00  0.00    -0.744 OA
ENDBRANCH  70  74
ENDBRANCH  53  67
BRANCH  54  78
ATOM     78  C   UNL A   1      49.267  26.695  26.245  1.00  0.00     0.023 A 
ATOM     79  C   UNL A   1      49.744  27.177  25.016  1.00  0.00     0.031 A 
ATOM     80  C   UNL A   1      50.090  25.815  26.969  1.00  0.00     0.131 A 
ATOM     81  C   UNL A   1      50.978  26.731  24.519  1.00  0.00     0.055 A 
ATOM     82  C   UNL A   1      51.346  25.425  26.501  1.00  0.00     0.041 A 
ATOM     83  F   UNL A   1      49.687  25.324  28.152  1.00  0.00    -0.206 F 
ATOM     84  C   UNL A   1      51.790  25.870  25.260  1.00  0.00     0.022 A 
BRANCH  81  85
ATOM     85  S   UNL A   1      51.459  27.207  22.836  1.00  0.00     0.124 S 
ATOM     86  O   UNL A   1      52.654  26.396  22.629  1.00  0.00    -0.237 OA
ATOM     87  O   UNL A   1      50.281  26.825  22.066  1.00  0.00    -0.237 OA
ATOM     88  O   UNL A   1      51.692  28.646  22.944  1.00  0.00    -0.744 OA
ENDBRANCH  81  85
ENDBRANCH  54  78
BRANCH  66  89
ATOM     89  C   UNL A   1      46.504  32.595  28.738  1.00  0.00     0.023 A 
ATOM     90  C   UNL A   1      46.646  33.588  27.753  1.00  0.00     0.031 A 
ATOM     91  C   UNL A   1      46.951  32.886  30.039  1.00  0.00     0.131 A 
ATOM     92  C   UNL A   1      47.277  34.800  28.070  1.00  0.00     0.055 A 
ATOM     93  C   UNL A   1      47.514  34.121  30.365  1.00  0.00     0.041 A 
ATOM     94  F   UNL A   1      46.844  31.974  31.020  1.00  0.00    -0.206 F 
ATOM     95  C   UNL A   1      47.693  35.081  29.374  1.00  0.00     0.022 A 
BRANCH  92  96
ATOM     96  S   UNL A   1      47.638  35.968  26.730  1.00  0.00     0.124 S 
ATOM     97  O   UNL A   1      46.304  36.272  26.225  1.00  0.00    -0.237 OA
ATOM     98  O   UNL A   1      48.315  37.052  27.435  1.00  0.00    -0.237 OA
ATOM     99  O   UNL A   1      48.485  35.197  25.822  1.00  0.00    -0.744 OA
ENDBRANCH  92  96
ENDBRANCH  66  89
ENDBRANCH  40  41
ENDBRANCH  32  35
ENDBRANCH  30  31
ENDBRANCH  29  30
ENDBRANCH   1  29
TORSDOF 18
ENDMDL
MODEL 2
REMARK VINA RESULT:     -11.6      5.862     11.206
REMARK SMILES O=C(CSc1nnc(-c2ccncc2)s1)Nc1cccc(C(=O)NCCCNC(=O)c2ccc(-c3c4nc(c(-c5cc(S(=O)(=O)[O-])ccc5F)c5ccc([nH]5)c(-c5cc(S(=O)(=O)[O-])ccc5F)c5nc(c(-c6cc(S(=O)(=O)[O-])ccc6F)c6ccc3[nH]6)C=C5)C=C4)cc2)c1
REMARK SMILES IDX 25 1 24 2 22 3 23 4 21 6 17 7 18 8 94 9 19 10 20 11 16 12
REMARK SMILES IDX 1 13 2 14 3 16 4 17 5 18 6 19 15 20 7 21 8 22 9 23 10 24
REMARK SMILES IDX 14 25 11 26 13 27 12 28 26 29 27 30 28 31 29 32 30 34 31 35
REMARK SMILES IDX 32 36 93 37 33 38 92 39 34 40 35 41 36 42 86 43 37 44 91 45
REMARK SMILES IDX 85 46 87 47 38 48 90 49 84 50 83 51 39 53 71 54 51 55 70 56
REMARK SMILES IDX 52 57 55 58 69 59 88 60 53 61 54 62 68 64 89 65 56 66 40 67
REMARK SMILES IDX 41 68 49 69 42 70 48 71 50 72 47 73 43 74 44 75 45 76 46 77
REMARK SMILES IDX 72 78 73 79 81 80 74 81 80 82 82 83 79 84 75 85 76 86 77 87
REMARK SMILES IDX 78 88 57 89 58 90 66 91 59 92 65 93 67 94 64 95 60 96 61 97
REMARK SMILES IDX 62 98 63 99
REMARK H PARENT 24 5 16 15 28 33 87 52 55 63
REMARK Flexibility Score: inf
ROOT
ATOM      1  C   UNL A   1      33.741  35.231  30.695  1.00  0.00     0.118 C 
ENDROOT
BRANCH   1   2
ATOM      2  N   UNL A   1      33.906  33.822  31.054  1.00  0.00    -0.352 N 
ATOM      3  C   UNL A   1      34.855  33.156  31.802  1.00  0.00     0.251 C 
ATOM      4  O   UNL A   1      34.753  31.936  31.930  1.00  0.00    -0.269 OA
ATOM      5  H   UNL A   1      33.204  33.236  30.691  1.00  0.00     0.163 HD
BRANCH   3   6
ATOM      6  C   UNL A   1      36.030  33.844  32.401  1.00  0.00     0.041 A 
ATOM      7  C   UNL A   1      38.335  34.564  32.226  1.00  0.00     0.041 A 
ATOM      8  C   UNL A   1      38.378  34.745  33.611  1.00  0.00     0.026 A 
ATOM      9  C   UNL A   1      37.115  34.255  31.631  1.00  0.00     0.040 A 
ATOM     10  C   UNL A   1      37.229  34.539  34.383  1.00  0.00     0.003 A 
ATOM     11  C   UNL A   1      36.068  34.047  33.783  1.00  0.00     0.014 A 
BRANCH   7  12
ATOM     12  N   UNL A   1      39.551  34.572  31.503  1.00  0.00    -0.325 N 
ATOM     13  O   UNL A   1      38.782  34.772  29.312  1.00  0.00    -0.274 OA
ATOM     14  C   UNL A   1      39.686  34.570  30.122  1.00  0.00     0.234 C 
ATOM     15  H   UNL A   1      40.382  34.582  32.031  1.00  0.00     0.169 HD
BRANCH  14  16
ATOM     16  C   UNL A   1      41.066  34.204  29.609  1.00  0.00     0.177 C 
BRANCH  16  17
ATOM     17  S   UNL A   1      42.338  34.164  30.883  1.00  0.00    -0.084 SA
BRANCH  17  18
ATOM     18  C   UNL A   1      43.139  32.625  30.651  1.00  0.00     0.175 A 
ATOM     19  N   UNL A   1      42.966  31.679  31.549  1.00  0.00    -0.131 NA
ATOM     20  S   UNL A   1      44.151  32.167  29.345  1.00  0.00    -0.086 S 
ATOM     21  N   UNL A   1      43.681  30.538  31.253  1.00  0.00    -0.137 NA
ATOM     22  C   UNL A   1      44.393  30.672  30.153  1.00  0.00     0.148 A 
BRANCH  22  23
ATOM     23  C   UNL A   1      45.276  29.648  29.612  1.00  0.00     0.015 A 
ATOM     24  C   UNL A   1      44.996  29.009  28.401  1.00  0.00     0.031 A 
ATOM     25  C   UNL A   1      46.464  29.344  30.279  1.00  0.00     0.031 A 
ATOM     26  C   UNL A   1      45.916  28.096  27.914  1.00  0.00     0.111 A 
ATOM     27  C   UNL A   1      47.314  28.409  29.715  1.00  0.00     0.111 A 
ATOM     28  N   UNL A   1      47.066  27.780  28.547  1.00  0.00    -0.265 NA
ENDBRANCH  22  23
ENDBRANCH  17  18
ENDBRANCH  16  17
ENDBRANCH  14  16
ENDBRANCH   7  12
ENDBRANCH   3   6
ENDBRANCH   1   2
BRANCH   1  29
ATOM     29  C   UNL A   1      33.794  35.510  29.203  1.00  0.00     0.042 C 
BRANCH  29  30
ATOM     30  C   UNL A   1      34.543  34.473  28.385  1.00  0.00     0.118 C 
BRANCH  30  31
ATOM     31  N   UNL A   1      33.672  33.429  27.859  1.00  0.00    -0.352 N 
ATOM     32  C   UNL A   1      33.893  32.087  27.648  1.00  0.00     0.251 C 
ATOM     33  H   UNL A   1      32.770  33.736  27.614  1.00  0.00     0.163 HD
ATOM     34  O   UNL A   1      33.072  31.443  27.003  1.00  0.00    -0.269 OA
BRANCH  32  35
ATOM     35  C   UNL A   1      35.116  31.424  28.161  1.00  0.00     0.039 A 
ATOM     36  C   UNL A   1      36.325  32.127  28.156  1.00  0.00     0.014 A 
ATOM     37  C   UNL A   1      35.089  30.107  28.622  1.00  0.00     0.014 A 
ATOM     38  C   UNL A   1      37.478  31.538  28.685  1.00  0.00     0.010 A 
ATOM     39  C   UNL A   1      36.205  29.564  29.249  1.00  0.00     0.010 A 
ATOM     40  C   UNL A   1      37.418  30.268  29.281  1.00  0.00    -0.014 A 
BRANCH  40  41
ATOM     41  C   UNL A   1      38.607  29.643  29.918  1.00  0.00     0.031 A 
ATOM     42  C   UNL A   1      39.038  30.078  31.295  1.00  0.00     0.074 A 
ATOM     43  C   UNL A   1      39.338  28.738  29.234  1.00  0.00     0.049 A 
ATOM     44  N   UNL A   1      40.101  29.738  31.978  1.00  0.00    -0.248 NA
ATOM     45  C   UNL A   1      38.175  31.054  31.979  1.00  0.00     0.031 C 
ATOM     46  C   UNL A   1      39.042  28.261  27.881  1.00  0.00     0.029 A 
ATOM     47  N   UNL A   1      40.482  28.062  29.578  1.00  0.00    -0.354 N 
ATOM     48  C   UNL A   1      40.040  30.466  33.162  1.00  0.00     0.074 A 
ATOM     49  C   UNL A   1      38.877  31.322  33.069  1.00  0.00     0.031 C 
ATOM     50  C   UNL A   1      39.960  27.348  27.525  1.00  0.00     0.029 A 
ATOM     51  C   UNL A   1      40.942  27.215  28.596  1.00  0.00     0.049 A 
ATOM     52  H   UNL A   1      40.932  28.174  30.446  1.00  0.00     0.167 HD
ATOM     53  C   UNL A   1      40.861  30.407  34.240  1.00  0.00     0.034 A 
ATOM     54  C   UNL A   1      42.039  26.431  28.555  1.00  0.00     0.034 A 
ATOM     55  C   UNL A   1      42.009  29.538  34.322  1.00  0.00     0.049 A 
ATOM     56  C   UNL A   1      42.960  26.414  29.750  1.00  0.00     0.074 A 
ATOM     57  C   UNL A   1      42.884  29.365  35.380  1.00  0.00     0.029 A 
ATOM     58  N   UNL A   1      42.446  28.700  33.304  1.00  0.00    -0.354 N 
ATOM     59  N   UNL A   1      42.864  27.080  30.879  1.00  0.00    -0.248 NA
ATOM     60  C   UNL A   1      44.132  25.533  29.669  1.00  0.00     0.031 C 
ATOM     61  C   UNL A   1      43.890  28.480  34.976  1.00  0.00     0.029 A 
ATOM     62  C   UNL A   1      43.595  28.032  33.698  1.00  0.00     0.049 A 
ATOM     63  H   UNL A   1      42.004  28.594  32.430  1.00  0.00     0.167 HD
ATOM     64  C   UNL A   1      43.944  26.665  31.656  1.00  0.00     0.074 A 
ATOM     65  C   UNL A   1      44.666  25.683  30.872  1.00  0.00     0.031 C 
ATOM     66  C   UNL A   1      44.306  27.057  32.904  1.00  0.00     0.034 A 
BRANCH  53  67
ATOM     67  C   UNL A   1      40.551  31.320  35.404  1.00  0.00     0.023 A 
ATOM     68  C   UNL A   1      39.502  31.043  36.299  1.00  0.00     0.031 A 
ATOM     69  C   UNL A   1      41.295  32.494  35.610  1.00  0.00     0.131 A 
ATOM     70  C   UNL A   1      39.179  31.963  37.307  1.00  0.00     0.055 A 
ATOM     71  C   UNL A   1      41.024  33.363  36.670  1.00  0.00     0.041 A 
ATOM     72  F   UNL A   1      42.293  32.827  34.776  1.00  0.00    -0.206 F 
ATOM     73  C   UNL A   1      39.950  33.108  37.516  1.00  0.00     0.022 A 
BRANCH  70  74
ATOM     74  S   UNL A   1      37.643  31.717  38.242  1.00  0.00     0.124 S 
ATOM     75  O   UNL A   1      38.087  31.972  39.610  1.00  0.00    -0.237 OA
ATOM     76  O   UNL A   1      36.756  32.718  37.660  1.00  0.00    -0.237 OA
ATOM     77  O   UNL A   1      37.290  30.327  37.958  1.00  0.00    -0.744 OA
ENDBRANCH  70  74
ENDBRANCH  53  67
BRANCH  54  78
ATOM     78  C   UNL A   1      42.340  25.602  27.351  1.00  0.00     0.023 A 
ATOM     79  C   UNL A   1      42.024  24.234  27.319  1.00  0.00     0.031 A 
ATOM     80  C   UNL A   1      43.002  26.149  26.237  1.00  0.00     0.131 A 
ATOM     81  C   UNL A   1      42.423  23.448  26.227  1.00  0.00     0.055 A 
ATOM     82  C   UNL A   1      43.339  25.375  25.125  1.00  0.00     0.041 A 
ATOM     83  F   UNL A   1      43.327  27.451  26.210  1.00  0.00    -0.206 F 
ATOM     84  C   UNL A   1      43.064  24.011  25.123  1.00  0.00     0.022 A 
BRANCH  81  85
ATOM     85  S   UNL A   1      42.187  21.652  26.321  1.00  0.00     0.124 S 
ATOM     86  O   UNL A   1      40.890  21.490  25.674  1.00  0.00    -0.237 OA
ATOM     87  O   UNL A   1      43.342  21.157  25.578  1.00  0.00    -0.237 OA
ATOM     88  O   UNL A   1      42.208  21.380  27.757  1.00  0.00    -0.744 OA
ENDBRANCH  81  85
ENDBRANCH  54  78
BRANCH  66  89
ATOM     89  C   UNL A   1      45.507  26.377  33.518  1.00  0.00     0.023 A 
ATOM     90  C   UNL A   1      45.442  25.067  34.022  1.00  0.00     0.031 A 
ATOM     91  C   UNL A   1      46.734  27.059  33.604  1.00  0.00     0.131 A 
ATOM     92  C   UNL A   1      46.565  24.503  34.646  1.00  0.00     0.055 A 
ATOM     93  C   UNL A   1      47.867  26.466  34.162  1.00  0.00     0.041 A 
ATOM     94  F   UNL A   1      46.853  28.314  33.142  1.00  0.00    -0.206 F 
ATOM     95  C   UNL A   1      47.782  25.187  34.700  1.00  0.00     0.022 A 
BRANCH  92  96
ATOM     96  S   UNL A   1      46.385  22.900  35.476  1.00  0.00     0.124 S 
ATOM     97  O   UNL A   1      47.702  22.721  36.077  1.00  0.00    -0.237 OA
ATOM     98  O   UNL A   1      45.289  23.152  36.407  1.00  0.00    -0.237 OA
ATOM     99  O   UNL A   1      46.071  21.981  34.384  1.00  0.00    -0.744 OA
ENDBRANCH  92  96
ENDBRANCH  66  89
ENDBRANCH  40  41
ENDBRANCH  32  35
ENDBRANCH  30  31
ENDBRANCH  29  30
ENDBRANCH   1  29
TORSDOF 18
ENDMDL
MODEL 3
REMARK VINA RESULT:     -11.3      2.867      8.964
REMARK SMILES O=C(CSc1nnc(-c2ccncc2)s1)Nc1cccc(C(=O)NCCCNC(=O)c2ccc(-c3c4nc(c(-c5cc(S(=O)(=O)[O-])ccc5F)c5ccc([nH]5)c(-c5cc(S(=O)(=O)[O-])ccc5F)c5nc(c(-c6cc(S(=O)(=O)[O-])ccc6F)c6ccc3[nH]6)C=C5)C=C4)cc2)c1
REMARK SMILES IDX 25 1 24 2 22 3 23 4 21 6 17 7 18 8 94 9 19 10 20 11 16 12
REMARK SMILES IDX 1 13 2 14 3 16 4 17 5 18 6 19 15 20 7 21 8 22 9 23 10 24
REMARK SMILES IDX 14 25 11 26 13 27 12 28 26 29 27 30 28 31 29 32 30 34 31 35
REMARK SMILES IDX 32 36 93 37 33 38 92 39 34 40 35 41 36 42 86 43 37 44 91 45
REMARK SMILES IDX 85 46 87 47 38 48 90 49 84 50 83 51 39 53 71 54 51 55 70 56
REMARK SMILES IDX 52 57 55 58 69 59 88 60 53 61 54 62 68 64 89 65 56 66 40 67
REMARK SMILES IDX 41 68 49 69 42 70 48 71 50 72 47 73 43 74 44 75 45 76 46 77
REMARK SMILES IDX 72 78 73 79 81 80 74 81 80 82 82 83 79 84 75 85 76 86 77 87
REMARK SMILES IDX 78 88 57 89 58 90 66 91 59 92 65 93 67 94 64 95 60 96 61 97
REMARK SMILES IDX 62 98 63 99
REMARK H PARENT 24 5 16 15 28 33 87 52 55 63
REMARK Flexibility Score: inf
ROOT
ATOM      1  C   UNL A   1      40.358  21.208  27.135  1.00  0.00     0.118 C 
ENDROOT
BRANCH   1   2
ATOM      2  N   UNL A   1      40.014  22.627  27.228  1.00  0.00    -0.352 N 
ATOM      3  C   UNL A   1      38.988  23.374  26.688  1.00  0.00     0.251 C 
ATOM      4  O   UNL A   1      38.953  24.582  26.925  1.00  0.00    -0.269 OA
ATOM      5  H   UNL A   1      40.636  23.150  27.784  1.00  0.00     0.163 HD
BRANCH   3   6
ATOM      6  C   UNL A   1      37.967  22.793  25.777  1.00  0.00     0.041 A 
ATOM      7  C   UNL A   1      35.942  23.057  24.475  1.00  0.00     0.041 A 
ATOM      8  C   UNL A   1      35.808  21.667  24.412  1.00  0.00     0.026 A 
ATOM      9  C   UNL A   1      37.101  23.590  25.034  1.00  0.00     0.040 A 
ATOM     10  C   UNL A   1      36.787  20.840  24.973  1.00  0.00     0.003 A 
ATOM     11  C   UNL A   1      37.844  21.403  25.692  1.00  0.00     0.014 A 
BRANCH   7  12
ATOM     12  N   UNL A   1      34.845  23.862  24.092  1.00  0.00    -0.325 N 
ATOM     13  O   UNL A   1      33.867  24.322  26.156  1.00  0.00    -0.274 OA
ATOM     14  C   UNL A   1      33.846  24.342  24.926  1.00  0.00     0.234 C 
ATOM     15  H   UNL A   1      34.784  24.107  23.140  1.00  0.00     0.169 HD
BRANCH  14  16
ATOM     16  C   UNL A   1      32.604  24.853  24.220  1.00  0.00     0.177 C 
BRANCH  16  17
ATOM     17  S   UNL A   1      31.152  23.810  24.437  1.00  0.00    -0.084 SA
BRANCH  17  18
ATOM     18  C   UNL A   1      31.726  22.189  24.113  1.00  0.00     0.175 A 
ATOM     19  N   UNL A   1      31.853  21.799  22.863  1.00  0.00    -0.131 NA
ATOM     20  S   UNL A   1      32.178  20.999  25.261  1.00  0.00    -0.086 S 
ATOM     21  N   UNL A   1      32.283  20.493  22.762  1.00  0.00    -0.137 NA
ATOM     22  C   UNL A   1      32.440  19.932  23.942  1.00  0.00     0.148 A 
BRANCH  22  23
ATOM     23  C   UNL A   1      32.849  18.549  24.150  1.00  0.00     0.015 A 
ATOM     24  C   UNL A   1      33.455  17.807  23.133  1.00  0.00     0.031 A 
ATOM     25  C   UNL A   1      32.697  17.971  25.412  1.00  0.00     0.031 A 
ATOM     26  C   UNL A   1      33.880  16.522  23.425  1.00  0.00     0.111 A 
ATOM     27  C   UNL A   1      33.146  16.676  25.600  1.00  0.00     0.111 A 
ATOM     28  N   UNL A   1      33.734  15.940  24.635  1.00  0.00    -0.265 NA
ENDBRANCH  22  23
ENDBRANCH  17  18
ENDBRANCH  16  17
ENDBRANCH  14  16
ENDBRANCH   7  12
ENDBRANCH   3   6
ENDBRANCH   1   2
BRANCH   1  29
ATOM     29  C   UNL A   1      41.403  20.881  26.081  1.00  0.00     0.042 C 
BRANCH  29  30
ATOM     30  C   UNL A   1      42.323  19.726  26.431  1.00  0.00     0.118 C 
BRANCH  30  31
ATOM     31  N   UNL A   1      43.263  19.407  25.363  1.00  0.00    -0.352 N 
ATOM     32  C   UNL A   1      44.146  20.201  24.667  1.00  0.00     0.251 C 
ATOM     33  H   UNL A   1      43.267  18.461  25.094  1.00  0.00     0.163 HD
ATOM     34  O   UNL A   1      44.694  19.746  23.667  1.00  0.00    -0.269 OA
BRANCH  32  35
ATOM     35  C   UNL A   1      44.418  21.595  25.091  1.00  0.00     0.039 A 
ATOM     36  C   UNL A   1      44.033  22.648  24.256  1.00  0.00     0.014 A 
ATOM     37  C   UNL A   1      45.075  21.874  26.290  1.00  0.00     0.014 A 
ATOM     38  C   UNL A   1      44.232  23.971  24.663  1.00  0.00     0.010 A 
ATOM     39  C   UNL A   1      45.171  23.185  26.745  1.00  0.00     0.010 A 
ATOM     40  C   UNL A   1      44.760  24.252  25.933  1.00  0.00    -0.014 A 
BRANCH  40  41
ATOM     41  C   UNL A   1      44.918  25.646  26.426  1.00  0.00     0.031 A 
ATOM     42  C   UNL A   1      46.281  26.288  26.442  1.00  0.00     0.074 A 
ATOM     43  C   UNL A   1      43.852  26.309  26.921  1.00  0.00     0.049 A 
ATOM     44  N   UNL A   1      46.648  27.446  26.929  1.00  0.00    -0.248 NA
ATOM     45  C   UNL A   1      47.386  25.505  25.866  1.00  0.00     0.031 C 
ATOM     46  C   UNL A   1      42.487  25.782  26.992  1.00  0.00     0.029 A 
ATOM     47  N   UNL A   1      43.748  27.564  27.466  1.00  0.00    -0.354 N 
ATOM     48  C   UNL A   1      48.022  27.523  26.729  1.00  0.00     0.074 A 
ATOM     49  C   UNL A   1      48.433  26.264  26.147  1.00  0.00     0.031 C 
ATOM     50  C   UNL A   1      41.679  26.717  27.516  1.00  0.00     0.029 A 
ATOM     51  C   UNL A   1      42.473  27.888  27.873  1.00  0.00     0.049 A 
ATOM     52  H   UNL A   1      44.513  28.176  27.559  1.00  0.00     0.167 HD
ATOM     53  C   UNL A   1      48.862  28.559  26.980  1.00  0.00     0.034 A 
ATOM     54  C   UNL A   1      42.000  28.996  28.479  1.00  0.00     0.034 A 
ATOM     55  C   UNL A   1      48.433  29.814  27.548  1.00  0.00     0.049 A 
ATOM     56  C   UNL A   1      42.961  30.119  28.787  1.00  0.00     0.074 A 
ATOM     57  C   UNL A   1      49.187  30.945  27.806  1.00  0.00     0.029 A 
ATOM     58  N   UNL A   1      47.135  30.101  27.953  1.00  0.00    -0.354 N 
ATOM     59  N   UNL A   1      44.252  30.190  28.554  1.00  0.00    -0.248 NA
ATOM     60  C   UNL A   1      42.399  31.312  29.432  1.00  0.00     0.031 C 
ATOM     61  C   UNL A   1      48.364  31.887  28.432  1.00  0.00     0.029 A 
ATOM     62  C   UNL A   1      47.075  31.380  28.486  1.00  0.00     0.049 A 
ATOM     63  H   UNL A   1      46.369  29.487  27.873  1.00  0.00     0.167 HD
ATOM     64  C   UNL A   1      44.646  31.454  28.989  1.00  0.00     0.074 A 
ATOM     65  C   UNL A   1      43.454  32.113  29.483  1.00  0.00     0.031 C 
ATOM     66  C   UNL A   1      45.879  32.021  28.978  1.00  0.00     0.034 A 
BRANCH  53  67
ATOM     67  C   UNL A   1      50.325  28.366  26.656  1.00  0.00     0.023 A 
ATOM     68  C   UNL A   1      50.829  28.585  25.362  1.00  0.00     0.031 A 
ATOM     69  C   UNL A   1      51.225  27.934  27.645  1.00  0.00     0.131 A 
ATOM     70  C   UNL A   1      52.172  28.298  25.073  1.00  0.00     0.055 A 
ATOM     71  C   UNL A   1      52.581  27.736  27.373  1.00  0.00     0.041 A 
ATOM     72  F   UNL A   1      50.802  27.685  28.894  1.00  0.00    -0.206 F 
ATOM     73  C   UNL A   1      53.058  27.902  26.076  1.00  0.00     0.022 A 
BRANCH  70  74
ATOM     74  S   UNL A   1      52.703  28.305  23.338  1.00  0.00     0.124 S 
ATOM     75  O   UNL A   1      51.896  27.223  22.780  1.00  0.00    -0.237 OA
ATOM     76  O   UNL A   1      52.353  29.653  22.906  1.00  0.00    -0.237 OA
ATOM     77  O   UNL A   1      54.136  28.026  23.419  1.00  0.00    -0.744 OA
ENDBRANCH  70  74
ENDBRANCH  53  67
BRANCH  54  78
ATOM     78  C   UNL A   1      40.557  29.108  28.846  1.00  0.00     0.023 A 
ATOM     79  C   UNL A   1      40.141  28.985  30.181  1.00  0.00     0.031 A 
ATOM     80  C   UNL A   1      39.567  29.280  27.862  1.00  0.00     0.131 A 
ATOM     81  C   UNL A   1      38.772  28.973  30.490  1.00  0.00     0.055 A 
ATOM     82  C   UNL A   1      38.209  29.333  28.183  1.00  0.00     0.041 A 
ATOM     83  F   UNL A   1      39.907  29.406  26.569  1.00  0.00    -0.206 F 
ATOM     84  C   UNL A   1      37.803  29.162  29.503  1.00  0.00     0.022 A 
BRANCH  81  85
ATOM     85  S   UNL A   1      38.271  28.597  32.192  1.00  0.00     0.124 S 
ATOM     86  O   UNL A   1      38.394  27.144  32.223  1.00  0.00    -0.237 OA
ATOM     87  O   UNL A   1      39.256  29.342  32.969  1.00  0.00    -0.237 OA
ATOM     88  O   UNL A   1      36.905  29.110  32.266  1.00  0.00    -0.744 OA
ENDBRANCH  81  85
ENDBRANCH  54  78
BRANCH  66  89
ATOM     89  C   UNL A   1      45.985  33.447  29.466  1.00  0.00     0.023 A 
ATOM     90  C   UNL A   1      46.208  33.754  30.820  1.00  0.00     0.031 A 
ATOM     91  C   UNL A   1      45.852  34.513  28.559  1.00  0.00     0.131 A 
ATOM     92  C   UNL A   1      46.229  35.093  31.237  1.00  0.00     0.055 A 
ATOM     93  C   UNL A   1      45.944  35.844  28.970  1.00  0.00     0.041 A 
ATOM     94  F   UNL A   1      45.634  34.280  27.255  1.00  0.00    -0.206 F 
ATOM     95  C   UNL A   1      46.119  36.140  30.317  1.00  0.00     0.022 A 
BRANCH  92  96
ATOM     96  S   UNL A   1      46.300  35.449  33.014  1.00  0.00     0.124 S 
ATOM     97  O   UNL A   1      47.493  36.284  33.108  1.00  0.00    -0.237 OA
ATOM     98  O   UNL A   1      45.029  36.126  33.248  1.00  0.00    -0.237 OA
ATOM     99  O   UNL A   1      46.419  34.126  33.625  1.00  0.00    -0.744 OA
ENDBRANCH  92  96
ENDBRANCH  66  89
ENDBRANCH  40  41
ENDBRANCH  32  35
ENDBRANCH  30  31
ENDBRANCH  29  30
ENDBRANCH   1  29
TORSDOF 18
ENDMDL
