MODEL 1
REMARK VINA RESULT:     -11.5      0.000      0.000
REMARK SMILES O=C(C[NH+]1CC(c2nc(-c3cccs3)no2)C1)NCCCNC(=O)c1ccc(-c2c3nc(c(-c4cc(S(=O)(=O)[O-])ccc4F)c4ccc([nH]4)c(-c4cc(S(=O)(=O)[O-])ccc4F)c4nc(c(-c5cc(S(=O)(=O)[O-])ccc5F)c5ccc2[nH]5)C=C4)C=C3)cc1
REMARK SMILES IDX 20 1 19 2 18 3 1 4 2 5 3 7 4 8 5 9 17 10 6 12 7 13 8 14
REMARK SMILES IDX 16 15 9 16 15 17 10 18 11 19 14 20 12 21 13 22 21 23 22 24
REMARK SMILES IDX 23 25 24 27 25 28 26 29 87 30 27 31 86 32 28 33 29 34 30 35
REMARK SMILES IDX 80 36 31 37 85 38 79 39 81 40 32 41 84 42 78 43 77 44 33 46
REMARK SMILES IDX 65 47 45 48 64 49 46 50 49 51 63 52 82 53 47 54 48 55 62 57
REMARK SMILES IDX 83 58 50 59 34 60 35 61 43 62 36 63 42 64 44 65 41 66 37 67
REMARK SMILES IDX 38 68 39 69 40 70 66 71 67 72 75 73 68 74 74 75 76 76 73 77
REMARK SMILES IDX 69 78 70 79 71 80 72 81 51 82 52 83 60 84 53 85 59 86 61 87
REMARK SMILES IDX 58 88 54 89 55 90 56 91 57 92
REMARK H PARENT 18 6 4 11 22 26 81 45 49 56
REMARK Flexibility Score: inf
ROOT
ATOM      1  C   UNL A   1      31.686  31.564  26.759  1.00  0.00     0.042 C 
ENDROOT
BRANCH   1   2
ATOM      2  C   UNL A   1      31.835  30.046  26.686  1.00  0.00     0.118 C 
BRANCH   2   3
ATOM      3  N   UNL A   1      32.534  29.608  25.494  1.00  0.00    -0.351 N 
ATOM      4  O   UNL A   1      30.704  29.512  24.096  1.00  0.00    -0.269 OA
ATOM      5  C   UNL A   1      31.910  29.376  24.285  1.00  0.00     0.275 C 
ATOM      6  H   UNL A   1      33.506  29.466  25.551  1.00  0.00     0.163 HD
BRANCH   5   7
ATOM      7  C   UNL A   1      32.855  28.849  23.198  1.00  0.00     0.363 C 
BRANCH   7   8
ATOM      8  N   UNL A   1      32.168  27.821  22.392  1.00  0.00    -0.325 N 
ATOM      9  C   UNL A   1      33.157  26.981  21.662  1.00  0.00     0.282 C 
ATOM     10  C   UNL A   1      31.867  26.621  23.226  1.00  0.00     0.282 C 
ATOM     11  H   UNL A   1      31.440  28.349  21.909  1.00  0.00     0.348 HD
ATOM     12  C   UNL A   1      32.266  25.752  21.995  1.00  0.00     0.188 C 
BRANCH  12  13
ATOM     13  C   UNL A   1      33.004  24.490  22.389  1.00  0.00     0.241 A 
ATOM     14  N   UNL A   1      32.406  23.397  22.815  1.00  0.00    -0.190 NA
ATOM     15  O   UNL A   1      34.367  24.388  22.410  1.00  0.00    -0.338 OA
ATOM     16  C   UNL A   1      33.466  22.605  23.198  1.00  0.00     0.212 A 
ATOM     17  N   UNL A   1      34.668  23.138  22.937  1.00  0.00    -0.056 NA
BRANCH  16  18
ATOM     18  C   UNL A   1      33.284  21.314  23.934  1.00  0.00     0.075 A 
ATOM     19  C   UNL A   1      32.477  20.282  23.500  1.00  0.00     0.024 A 
ATOM     20  S   UNL A   1      34.003  20.965  25.445  1.00  0.00    -0.140 S 
ATOM     21  C   UNL A   1      32.412  19.216  24.448  1.00  0.00     0.012 A 
ATOM     22  C   UNL A   1      33.177  19.472  25.564  1.00  0.00     0.065 A 
ENDBRANCH  16  18
ENDBRANCH  12  13
ENDBRANCH   7   8
ENDBRANCH   5   7
ENDBRANCH   2   3
ENDBRANCH   1   2
BRANCH   1  23
ATOM     23  C   UNL A   1      32.942  32.314  27.199  1.00  0.00     0.118 C 
BRANCH  23  24
ATOM     24  N   UNL A   1      32.681  33.689  27.600  1.00  0.00    -0.352 N 
ATOM     25  C   UNL A   1      33.267  34.464  28.572  1.00  0.00     0.251 C 
ATOM     26  H   UNL A   1      31.968  34.137  27.091  1.00  0.00     0.163 HD
ATOM     27  O   UNL A   1      32.775  35.565  28.825  1.00  0.00    -0.269 OA
BRANCH  25  28
ATOM     28  C   UNL A   1      34.447  33.991  29.333  1.00  0.00     0.039 A 
ATOM     29  C   UNL A   1      34.248  33.103  30.396  1.00  0.00     0.014 A 
ATOM     30  C   UNL A   1      35.740  34.433  29.040  1.00  0.00     0.014 A 
ATOM     31  C   UNL A   1      35.342  32.607  31.111  1.00  0.00     0.010 A 
ATOM     32  C   UNL A   1      36.836  33.881  29.705  1.00  0.00     0.010 A 
ATOM     33  C   UNL A   1      36.652  32.958  30.746  1.00  0.00    -0.014 A 
BRANCH  33  34
ATOM     34  C   UNL A   1      37.833  32.366  31.435  1.00  0.00     0.031 A 
ATOM     35  C   UNL A   1      38.603  31.240  30.797  1.00  0.00     0.074 A 
ATOM     36  C   UNL A   1      38.180  32.804  32.663  1.00  0.00     0.049 A 
ATOM     37  N   UNL A   1      39.601  30.541  31.277  1.00  0.00    -0.248 NA
ATOM     38  C   UNL A   1      38.176  30.828  29.453  1.00  0.00     0.031 C 
ATOM     39  C   UNL A   1      37.502  33.870  33.402  1.00  0.00     0.029 A 
ATOM     40  N   UNL A   1      39.183  32.402  33.512  1.00  0.00    -0.354 N 
ATOM     41  C   UNL A   1      39.915  29.602  30.299  1.00  0.00     0.074 A 
ATOM     42  C   UNL A   1      38.959  29.784  29.227  1.00  0.00     0.031 C 
ATOM     43  C   UNL A   1      38.120  34.054  34.579  1.00  0.00     0.029 A 
ATOM     44  C   UNL A   1      39.203  33.084  34.708  1.00  0.00     0.049 A 
ATOM     45  H   UNL A   1      39.828  31.693  33.287  1.00  0.00     0.167 HD
ATOM     46  C   UNL A   1      40.919  28.688  30.288  1.00  0.00     0.034 A 
ATOM     47  C   UNL A   1      39.988  32.935  35.795  1.00  0.00     0.034 A 
ATOM     48  C   UNL A   1      41.868  28.521  31.362  1.00  0.00     0.049 A 
ATOM     49  C   UNL A   1      41.064  31.878  35.779  1.00  0.00     0.074 A 
ATOM     50  C   UNL A   1      42.949  27.660  31.430  1.00  0.00     0.029 A 
ATOM     51  N   UNL A   1      41.845  29.219  32.564  1.00  0.00    -0.354 N 
ATOM     52  N   UNL A   1      41.375  31.027  34.828  1.00  0.00    -0.248 NA
ATOM     53  C   UNL A   1      41.901  31.766  36.981  1.00  0.00     0.031 C 
ATOM     54  C   UNL A   1      43.528  27.778  32.698  1.00  0.00     0.029 A 
ATOM     55  C   UNL A   1      42.869  28.779  33.392  1.00  0.00     0.049 A 
ATOM     56  H   UNL A   1      41.197  29.924  32.795  1.00  0.00     0.167 HD
ATOM     57  C   UNL A   1      42.465  30.304  35.305  1.00  0.00     0.074 A 
ATOM     58  C   UNL A   1      42.766  30.830  36.621  1.00  0.00     0.031 C 
ATOM     59  C   UNL A   1      43.157  29.300  34.709  1.00  0.00     0.034 A 
BRANCH  46  60
ATOM     60  C   UNL A   1      41.018  27.778  29.085  1.00  0.00     0.023 A 
ATOM     61  C   UNL A   1      41.987  27.975  28.085  1.00  0.00     0.031 A 
ATOM     62  C   UNL A   1      40.120  26.707  28.925  1.00  0.00     0.131 A 
ATOM     63  C   UNL A   1      41.986  27.168  26.937  1.00  0.00     0.055 A 
ATOM     64  C   UNL A   1      40.180  25.852  27.822  1.00  0.00     0.041 A 
ATOM     65  F   UNL A   1      39.159  26.479  29.833  1.00  0.00    -0.206 F 
ATOM     66  C   UNL A   1      41.107  26.090  26.812  1.00  0.00     0.022 A 
BRANCH  63  67
ATOM     67  S   UNL A   1      43.045  27.645  25.545  1.00  0.00     0.124 S 
ATOM     68  O   UNL A   1      44.057  28.461  26.210  1.00  0.00    -0.237 OA
ATOM     69  O   UNL A   1      43.497  26.355  25.036  1.00  0.00    -0.237 OA
ATOM     70  O   UNL A   1      42.141  28.382  24.664  1.00  0.00    -0.744 OA
ENDBRANCH  63  67
ENDBRANCH  46  60
BRANCH  47  71
ATOM     71  C   UNL A   1      39.782  33.788  37.003  1.00  0.00     0.023 A 
ATOM     72  C   UNL A   1      39.119  33.292  38.136  1.00  0.00     0.031 A 
ATOM     73  C   UNL A   1      40.199  35.132  37.020  1.00  0.00     0.131 A 
ATOM     74  C   UNL A   1      38.847  34.144  39.217  1.00  0.00     0.055 A 
ATOM     75  C   UNL A   1      39.979  35.958  38.124  1.00  0.00     0.041 A 
ATOM     76  F   UNL A   1      40.836  35.661  35.963  1.00  0.00    -0.206 F 
ATOM     77  C   UNL A   1      39.286  35.469  39.226  1.00  0.00     0.022 A 
BRANCH  74  78
ATOM     78  S   UNL A   1      37.817  33.521  40.575  1.00  0.00     0.124 S 
ATOM     79  O   UNL A   1      37.532  34.744  41.316  1.00  0.00    -0.237 OA
ATOM     80  O   UNL A   1      36.694  32.928  39.856  1.00  0.00    -0.237 OA
ATOM     81  O   UNL A   1      38.692  32.567  41.254  1.00  0.00    -0.744 OA
ENDBRANCH  74  78
ENDBRANCH  47  71
BRANCH  59  82
ATOM     82  C   UNL A   1      44.343  28.738  35.459  1.00  0.00     0.023 A 
ATOM     83  C   UNL A   1      44.197  27.754  36.452  1.00  0.00     0.031 A 
ATOM     84  C   UNL A   1      45.640  29.205  35.179  1.00  0.00     0.131 A 
ATOM     85  C   UNL A   1      45.319  27.313  37.170  1.00  0.00     0.055 A 
ATOM     86  C   UNL A   1      46.760  28.713  35.850  1.00  0.00     0.041 A 
ATOM     87  F   UNL A   1      45.841  30.147  34.244  1.00  0.00    -0.206 F 
ATOM     88  C   UNL A   1      46.602  27.772  36.861  1.00  0.00     0.022 A 
BRANCH  85  89
ATOM     89  S   UNL A   1      45.068  26.206  38.586  1.00  0.00     0.124 S 
ATOM     90  O   UNL A   1      45.400  24.904  38.015  1.00  0.00    -0.237 OA
ATOM     91  O   UNL A   1      46.015  26.733  39.565  1.00  0.00    -0.237 OA
ATOM     92  O   UNL A   1      43.660  26.395  38.925  1.00  0.00    -0.744 OA
ENDBRANCH  85  89
ENDBRANCH  59  82
ENDBRANCH  33  34
ENDBRANCH  25  28
ENDBRANCH  23  24
ENDBRANCH   1  23
TORSDOF 16
ENDMDL
MODEL 2
REMARK VINA RESULT:     -11.4      5.984     11.279
REMARK SMILES O=C(C[NH+]1CC(c2nc(-c3cccs3)no2)C1)NCCCNC(=O)c1ccc(-c2c3nc(c(-c4cc(S(=O)(=O)[O-])ccc4F)c4ccc([nH]4)c(-c4cc(S(=O)(=O)[O-])ccc4F)c4nc(c(-c5cc(S(=O)(=O)[O-])ccc5F)c5ccc2[nH]5)C=C4)C=C3)cc1
REMARK SMILES IDX 20 1 19 2 18 3 1 4 2 5 3 7 4 8 5 9 17 10 6 12 7 13 8 14
REMARK SMILES IDX 16 15 9 16 15 17 10 18 11 19 14 20 12 21 13 22 21 23 22 24
REMARK SMILES IDX 23 25 24 27 25 28 26 29 87 30 27 31 86 32 28 33 29 34 30 35
REMARK SMILES IDX 80 36 31 37 85 38 79 39 81 40 32 41 84 42 78 43 77 44 33 46
REMARK SMILES IDX 65 47 45 48 64 49 46 50 49 51 63 52 82 53 47 54 48 55 62 57
REMARK SMILES IDX 83 58 50 59 34 60 35 61 43 62 36 63 42 64 44 65 41 66 37 67
REMARK SMILES IDX 38 68 39 69 40 70 66 71 67 72 75 73 68 74 74 75 76 76 73 77
REMARK SMILES IDX 69 78 70 79 71 80 72 81 51 82 52 83 60 84 53 85 59 86 61 87
REMARK SMILES IDX 58 88 54 89 55 90 56 91 57 92
REMARK H PARENT 18 6 4 11 22 26 81 45 49 56
REMARK Flexibility Score: inf
ROOT
ATOM      1  C   UNL A   1      36.037  21.732  25.650  1.00  0.00     0.042 C 
ENDROOT
BRANCH   1   2
ATOM      2  C   UNL A   1      34.745  21.208  25.025  1.00  0.00     0.118 C 
BRANCH   2   3
ATOM      3  N   UNL A   1      33.957  22.256  24.408  1.00  0.00    -0.351 N 
ATOM      4  O   UNL A   1      32.468  20.891  23.297  1.00  0.00    -0.269 OA
ATOM      5  C   UNL A   1      32.872  22.013  23.589  1.00  0.00     0.275 C 
ATOM      6  H   UNL A   1      34.209  23.191  24.581  1.00  0.00     0.163 HD
BRANCH   5   7
ATOM      7  C   UNL A   1      32.250  23.286  23.002  1.00  0.00     0.363 C 
BRANCH   7   8
ATOM      8  N   UNL A   1      32.112  24.309  24.058  1.00  0.00    -0.325 N 
ATOM      9  C   UNL A   1      32.213  25.676  23.479  1.00  0.00     0.282 C 
ATOM     10  C   UNL A   1      30.671  24.599  24.316  1.00  0.00     0.282 C 
ATOM     11  H   UNL A   1      32.744  23.979  24.789  1.00  0.00     0.348 HD
ATOM     12  C   UNL A   1      31.069  26.101  24.440  1.00  0.00     0.188 C 
BRANCH  12  13
ATOM     13  C   UNL A   1      30.026  27.029  23.853  1.00  0.00     0.241 A 
ATOM     14  N   UNL A   1      30.294  28.236  23.400  1.00  0.00    -0.190 NA
ATOM     15  O   UNL A   1      28.693  26.731  23.806  1.00  0.00    -0.338 OA
ATOM     16  C   UNL A   1      29.040  28.741  23.133  1.00  0.00     0.212 A 
ATOM     17  N   UNL A   1      28.045  27.862  23.321  1.00  0.00    -0.056 NA
BRANCH  16  18
ATOM     18  C   UNL A   1      28.808  30.174  22.768  1.00  0.00     0.075 A 
ATOM     19  C   UNL A   1      28.751  31.207  23.682  1.00  0.00     0.024 A 
ATOM     20  S   UNL A   1      28.519  30.721  21.175  1.00  0.00    -0.140 S 
ATOM     21  C   UNL A   1      28.416  32.451  23.066  1.00  0.00     0.012 A 
ATOM     22  C   UNL A   1      28.237  32.322  21.708  1.00  0.00     0.065 A 
ENDBRANCH  16  18
ENDBRANCH  12  13
ENDBRANCH   7   8
ENDBRANCH   5   7
ENDBRANCH   2   3
ENDBRANCH   1   2
BRANCH   1  23
ATOM     23  C   UNL A   1      37.296  21.501  24.817  1.00  0.00     0.118 C 
BRANCH  23  24
ATOM     24  N   UNL A   1      38.178  20.485  25.375  1.00  0.00    -0.352 N 
ATOM     25  C   UNL A   1      39.355  20.609  26.073  1.00  0.00     0.251 C 
ATOM     26  H   UNL A   1      37.881  19.558  25.228  1.00  0.00     0.163 HD
ATOM     27  O   UNL A   1      40.004  19.590  26.321  1.00  0.00    -0.269 OA
BRANCH  25  28
ATOM     28  C   UNL A   1      39.868  21.931  26.500  1.00  0.00     0.039 A 
ATOM     29  C   UNL A   1      40.877  21.978  27.469  1.00  0.00     0.014 A 
ATOM     30  C   UNL A   1      39.351  23.124  25.988  1.00  0.00     0.014 A 
ATOM     31  C   UNL A   1      41.412  23.207  27.867  1.00  0.00     0.010 A 
ATOM     32  C   UNL A   1      39.936  24.345  26.330  1.00  0.00     0.010 A 
ATOM     33  C   UNL A   1      40.976  24.402  27.271  1.00  0.00    -0.014 A 
BRANCH  33  34
ATOM     34  C   UNL A   1      41.600  25.711  27.614  1.00  0.00     0.031 A 
ATOM     35  C   UNL A   1      40.818  26.753  28.368  1.00  0.00     0.074 A 
ATOM     36  C   UNL A   1      42.854  25.985  27.197  1.00  0.00     0.049 A 
ATOM     37  N   UNL A   1      41.157  27.979  28.683  1.00  0.00    -0.248 NA
ATOM     38  C   UNL A   1      39.466  26.376  28.804  1.00  0.00     0.031 C 
ATOM     39  C   UNL A   1      43.709  25.072  26.437  1.00  0.00     0.029 A 
ATOM     40  N   UNL A   1      43.625  27.112  27.344  1.00  0.00    -0.354 N 
ATOM     41  C   UNL A   1      40.059  28.522  29.343  1.00  0.00     0.074 A 
ATOM     42  C   UNL A   1      39.024  27.510  29.327  1.00  0.00     0.031 C 
ATOM     43  C   UNL A   1      44.891  25.663  26.206  1.00  0.00     0.029 A 
ATOM     44  C   UNL A   1      44.863  27.018  26.748  1.00  0.00     0.049 A 
ATOM     45  H   UNL A   1      43.322  27.913  27.829  1.00  0.00     0.167 HD
ATOM     46  C   UNL A   1      39.933  29.741  29.925  1.00  0.00     0.034 A 
ATOM     47  C   UNL A   1      45.857  27.923  26.633  1.00  0.00     0.034 A 
ATOM     48  C   UNL A   1      40.977  30.739  29.936  1.00  0.00     0.049 A 
ATOM     49  C   UNL A   1      45.674  29.290  27.244  1.00  0.00     0.074 A 
ATOM     50  C   UNL A   1      40.969  31.986  30.538  1.00  0.00     0.029 A 
ATOM     51  N   UNL A   1      42.210  30.613  29.308  1.00  0.00    -0.354 N 
ATOM     52  N   UNL A   1      44.645  29.772  27.901  1.00  0.00    -0.248 NA
ATOM     53  C   UNL A   1      46.791  30.234  27.102  1.00  0.00     0.031 C 
ATOM     54  C   UNL A   1      42.160  32.642  30.208  1.00  0.00     0.029 A 
ATOM     55  C   UNL A   1      42.953  31.773  29.476  1.00  0.00     0.049 A 
ATOM     56  H   UNL A   1      42.513  29.816  28.816  1.00  0.00     0.167 HD
ATOM     57  C   UNL A   1      45.006  31.062  28.282  1.00  0.00     0.074 A 
ATOM     58  C   UNL A   1      46.353  31.275  27.793  1.00  0.00     0.031 C 
ATOM     59  C   UNL A   1      44.292  31.984  28.976  1.00  0.00     0.034 A 
BRANCH  46  60
ATOM     60  C   UNL A   1      38.607  30.073  30.568  1.00  0.00     0.023 A 
ATOM     61  C   UNL A   1      37.595  30.757  29.870  1.00  0.00     0.031 A 
ATOM     62  C   UNL A   1      38.353  29.716  31.905  1.00  0.00     0.131 A 
ATOM     63  C   UNL A   1      36.415  31.131  30.532  1.00  0.00     0.055 A 
ATOM     64  C   UNL A   1      37.141  30.014  32.532  1.00  0.00     0.041 A 
ATOM     65  F   UNL A   1      39.286  29.081  32.632  1.00  0.00    -0.206 F 
ATOM     66  C   UNL A   1      36.170  30.739  31.850  1.00  0.00     0.022 A 
BRANCH  63  67
ATOM     67  S   UNL A   1      35.278  32.268  29.694  1.00  0.00     0.124 S 
ATOM     68  O   UNL A   1      34.388  32.653  30.787  1.00  0.00    -0.237 OA
ATOM     69  O   UNL A   1      36.175  33.307  29.203  1.00  0.00    -0.237 OA
ATOM     70  O   UNL A   1      34.660  31.436  28.663  1.00  0.00    -0.744 OA
ENDBRANCH  63  67
ENDBRANCH  46  60
BRANCH  47  71
ATOM     71  C   UNL A   1      47.109  27.584  25.893  1.00  0.00     0.023 A 
ATOM     72  C   UNL A   1      47.237  27.857  24.523  1.00  0.00     0.031 A 
ATOM     73  C   UNL A   1      48.177  26.934  26.538  1.00  0.00     0.131 A 
ATOM     74  C   UNL A   1      48.382  27.435  23.829  1.00  0.00     0.055 A 
ATOM     75  C   UNL A   1      49.340  26.572  25.856  1.00  0.00     0.041 A 
ATOM     76  F   UNL A   1      48.109  26.647  27.848  1.00  0.00    -0.206 F 
ATOM     77  C   UNL A   1      49.441  26.810  24.489  1.00  0.00     0.022 A 
BRANCH  74  78
ATOM     78  S   UNL A   1      48.424  27.628  22.025  1.00  0.00     0.124 S 
ATOM     79  O   UNL A   1      48.651  26.256  21.587  1.00  0.00    -0.237 OA
ATOM     80  O   UNL A   1      47.103  28.181  21.749  1.00  0.00    -0.237 OA
ATOM     81  O   UNL A   1      49.540  28.546  21.808  1.00  0.00    -0.744 OA
ENDBRANCH  74  78
ENDBRANCH  47  71
BRANCH  59  82
ATOM     82  C   UNL A   1      44.977  33.294  29.290  1.00  0.00     0.023 A 
ATOM     83  C   UNL A   1      44.846  34.421  28.460  1.00  0.00     0.031 A 
ATOM     84  C   UNL A   1      45.784  33.411  30.436  1.00  0.00     0.131 A 
ATOM     85  C   UNL A   1      45.556  35.595  28.755  1.00  0.00     0.055 A 
ATOM     86  C   UNL A   1      46.434  34.603  30.761  1.00  0.00     0.041 A 
ATOM     87  F   UNL A   1      45.951  32.368  31.265  1.00  0.00    -0.206 F 
ATOM     88  C   UNL A   1      46.334  35.699  29.911  1.00  0.00     0.022 A 
BRANCH  85  89
ATOM     89  S   UNL A   1      45.535  36.953  27.552  1.00  0.00     0.124 S 
ATOM     90  O   UNL A   1      45.895  38.099  28.382  1.00  0.00    -0.237 OA
ATOM     91  O   UNL A   1      46.540  36.527  26.583  1.00  0.00    -0.237 OA
ATOM     92  O   UNL A   1      44.160  36.953  27.058  1.00  0.00    -0.744 OA
ENDBRANCH  85  89
ENDBRANCH  59  82
ENDBRANCH  33  34
ENDBRANCH  25  28
ENDBRANCH  23  24
ENDBRANCH   1  23
TORSDOF 16
ENDMDL
MODEL 3
REMARK VINA RESULT:     -11.3      5.035     11.129
REMARK SMILES O=C(C[NH+]1CC(c2nc(-c3cccs3)no2)C1)NCCCNC(=O)c1ccc(-c2c3nc(c(-c4cc(S(=O)(=O)[O-])ccc4F)c4ccc([nH]4)c(-c4cc(S(=O)(=O)[O-])ccc4F)c4nc(c(-c5cc(S(=O)(=O)[O-])ccc5F)c5ccc2[nH]5)C=C4)C=C3)cc1
REMARK SMILES IDX 20 1 19 2 18 3 1 4 2 5 3 7 4 8 5 9 17 10 6 12 7 13 8 14
REMARK SMILES IDX 16 15 9 16 15 17 10 18 11 19 14 20 12 21 13 22 21 23 22 24
REMARK SMILES IDX 23 25 24 27 25 28 26 29 87 30 27 31 86 32 28 33 29 34 30 35
REMARK SMILES IDX 80 36 31 37 85 38 79 39 81 40 32 41 84 42 78 43 77 44 33 46
REMARK SMILES IDX 65 47 45 48 64 49 46 50 49 51 63 52 82 53 47 54 48 55 62 57
REMARK SMILES IDX 83 58 50 59 34 60 35 61 43 62 36 63 42 64 44 65 41 66 37 67
REMARK SMILES IDX 38 68 39 69 40 70 66 71 67 72 75 73 68 74 74 75 76 76 73 77
REMARK SMILES IDX 69 78 70 79 71 80 72 81 51 82 52 83 60 84 53 85 59 86 61 87
REMARK SMILES IDX 58 88 54 89 55 90 56 91 57 92
REMARK H PARENT 18 6 4 11 22 26 81 45 49 56
REMARK Flexibility Score: inf
ROOT
ATOM      1  C   UNL A   1      36.139  33.291  29.611  1.00  0.00     0.042 C 
ENDROOT
BRANCH   1   2
ATOM      2  C   UNL A   1      35.781  34.208  28.444  1.00  0.00     0.118 C 
BRANCH   2   3
ATOM      3  N   UNL A   1      35.003  35.360  28.855  1.00  0.00    -0.351 N 
ATOM      4  O   UNL A   1      32.921  34.500  28.370  1.00  0.00    -0.269 OA
ATOM      5  C   UNL A   1      33.625  35.415  28.787  1.00  0.00     0.275 C 
ATOM      6  H   UNL A   1      35.484  36.147  29.200  1.00  0.00     0.163 HD
BRANCH   5   7
ATOM      7  C   UNL A   1      33.044  36.769  29.211  1.00  0.00     0.363 C 
BRANCH   7   8
ATOM      8  N   UNL A   1      32.582  36.699  30.612  1.00  0.00    -0.325 N 
ATOM      9  C   UNL A   1      32.604  35.293  31.100  1.00  0.00     0.282 C 
ATOM     10  C   UNL A   1      33.714  36.968  31.547  1.00  0.00     0.282 C 
ATOM     11  H   UNL A   1      31.731  37.261  30.607  1.00  0.00     0.348 HD
ATOM     12  C   UNL A   1      33.142  35.835  32.452  1.00  0.00     0.188 C 
BRANCH  12  13
ATOM     13  C   UNL A   1      34.230  35.011  33.107  1.00  0.00     0.241 A 
ATOM     14  N   UNL A   1      35.490  35.388  33.179  1.00  0.00    -0.190 NA
ATOM     15  O   UNL A   1      34.023  33.762  33.623  1.00  0.00    -0.338 OA
ATOM     16  C   UNL A   1      36.108  34.270  33.695  1.00  0.00     0.212 A 
ATOM     17  N   UNL A   1      35.265  33.279  34.019  1.00  0.00    -0.056 NA
BRANCH  16  18
ATOM     18  C   UNL A   1      37.597  34.141  33.786  1.00  0.00     0.075 A 
ATOM     19  C   UNL A   1      38.470  34.515  32.785  1.00  0.00     0.024 A 
ATOM     20  S   UNL A   1      38.418  33.455  35.120  1.00  0.00    -0.140 S 
ATOM     21  C   UNL A   1      39.823  34.185  33.101  1.00  0.00     0.012 A 
ATOM     22  C   UNL A   1      39.931  33.580  34.332  1.00  0.00     0.065 A 
ENDBRANCH  16  18
ENDBRANCH  12  13
ENDBRANCH   7   8
ENDBRANCH   5   7
ENDBRANCH   2   3
ENDBRANCH   1   2
BRANCH   1  23
ATOM     23  C   UNL A   1      34.995  32.412  30.115  1.00  0.00     0.118 C 
BRANCH  23  24
ATOM     24  N   UNL A   1      34.389  31.599  29.070  1.00  0.00    -0.352 N 
ATOM     25  C   UNL A   1      34.907  30.565  28.328  1.00  0.00     0.251 C 
ATOM     26  H   UNL A   1      33.455  31.829  28.861  1.00  0.00     0.163 HD
ATOM     27  O   UNL A   1      34.242  30.120  27.391  1.00  0.00    -0.269 OA
BRANCH  25  28
ATOM     28  C   UNL A   1      36.249  30.003  28.612  1.00  0.00     0.039 A 
ATOM     29  C   UNL A   1      37.272  30.207  27.680  1.00  0.00     0.014 A 
ATOM     30  C   UNL A   1      36.506  29.253  29.762  1.00  0.00     0.014 A 
ATOM     31  C   UNL A   1      38.560  29.724  27.933  1.00  0.00     0.010 A 
ATOM     32  C   UNL A   1      37.807  28.836  30.049  1.00  0.00     0.010 A 
ATOM     33  C   UNL A   1      38.851  29.070  29.140  1.00  0.00    -0.014 A 
BRANCH  33  34
ATOM     34  C   UNL A   1      40.238  28.632  29.469  1.00  0.00     0.031 A 
ATOM     35  C   UNL A   1      41.030  29.345  30.533  1.00  0.00     0.074 A 
ATOM     36  C   UNL A   1      40.806  27.628  28.769  1.00  0.00     0.049 A 
ATOM     37  N   UNL A   1      42.274  29.166  30.900  1.00  0.00    -0.248 NA
ATOM     38  C   UNL A   1      40.338  30.417  31.263  1.00  0.00     0.031 C 
ATOM     39  C   UNL A   1      40.156  26.874  27.697  1.00  0.00     0.029 A 
ATOM     40  N   UNL A   1      42.061  27.074  28.847  1.00  0.00    -0.354 N 
ATOM     41  C   UNL A   1      42.518  30.108  31.894  1.00  0.00     0.074 A 
ATOM     42  C   UNL A   1      41.309  30.894  32.027  1.00  0.00     0.031 C 
ATOM     43  C   UNL A   1      41.005  25.943  27.235  1.00  0.00     0.029 A 
ATOM     44  C   UNL A   1      42.280  26.067  27.934  1.00  0.00     0.049 A 
ATOM     45  H   UNL A   1      42.741  27.369  29.495  1.00  0.00     0.167 HD
ATOM     46  C   UNL A   1      43.637  30.288  32.641  1.00  0.00     0.034 A 
ATOM     47  C   UNL A   1      43.384  25.338  27.674  1.00  0.00     0.034 A 
ATOM     48  C   UNL A   1      44.834  29.493  32.500  1.00  0.00     0.049 A 
ATOM     49  C   UNL A   1      44.633  25.591  28.482  1.00  0.00     0.074 A 
ATOM     50  C   UNL A   1      46.005  29.561  33.237  1.00  0.00     0.029 A 
ATOM     51  N   UNL A   1      45.024  28.494  31.553  1.00  0.00    -0.354 N 
ATOM     52  N   UNL A   1      44.832  26.457  29.449  1.00  0.00    -0.248 NA
ATOM     53  C   UNL A   1      45.804  24.761  28.169  1.00  0.00     0.031 C 
ATOM     54  C   UNL A   1      46.925  28.663  32.687  1.00  0.00     0.029 A 
ATOM     55  C   UNL A   1      46.303  27.966  31.664  1.00  0.00     0.049 A 
ATOM     56  H   UNL A   1      44.348  28.201  30.899  1.00  0.00     0.167 HD
ATOM     57  C   UNL A   1      46.140  26.251  29.881  1.00  0.00     0.074 A 
ATOM     58  C   UNL A   1      46.675  25.169  29.080  1.00  0.00     0.031 C 
ATOM     59  C   UNL A   1      46.834  26.894  30.854  1.00  0.00     0.034 A 
BRANCH  46  60
ATOM     60  C   UNL A   1      43.627  31.409  33.654  1.00  0.00     0.023 A 
ATOM     61  C   UNL A   1      43.257  31.193  34.994  1.00  0.00     0.031 A 
ATOM     62  C   UNL A   1      43.974  32.718  33.274  1.00  0.00     0.131 A 
ATOM     63  C   UNL A   1      43.166  32.277  35.881  1.00  0.00     0.055 A 
ATOM     64  C   UNL A   1      43.968  33.778  34.184  1.00  0.00     0.041 A 
ATOM     65  F   UNL A   1      44.316  32.993  32.005  1.00  0.00    -0.206 F 
ATOM     66  C   UNL A   1      43.546  33.563  35.492  1.00  0.00     0.022 A 
BRANCH  63  67
ATOM     67  S   UNL A   1      42.397  32.006  37.500  1.00  0.00     0.124 S 
ATOM     68  O   UNL A   1      43.119  30.829  37.976  1.00  0.00    -0.237 OA
ATOM     69  O   UNL A   1      42.681  33.255  38.198  1.00  0.00    -0.237 OA
ATOM     70  O   UNL A   1      40.990  31.775  37.177  1.00  0.00    -0.744 OA
ENDBRANCH  63  67
ENDBRANCH  46  60
BRANCH  47  71
ATOM     71  C   UNL A   1      43.379  24.313  26.588  1.00  0.00     0.023 A 
ATOM     72  C   UNL A   1      42.865  23.026  26.810  1.00  0.00     0.031 A 
ATOM     73  C   UNL A   1      43.937  24.591  25.327  1.00  0.00     0.131 A 
ATOM     74  C   UNL A   1      42.966  22.050  25.807  1.00  0.00     0.055 A 
ATOM     75  C   UNL A   1      43.978  23.634  24.312  1.00  0.00     0.041 A 
ATOM     76  F   UNL A   1      44.444  25.805  25.060  1.00  0.00    -0.206 F 
ATOM     77  C   UNL A   1      43.504  22.349  24.554  1.00  0.00     0.022 A 
BRANCH  74  78
ATOM     78  S   UNL A   1      42.473  20.348  26.199  1.00  0.00     0.124 S 
ATOM     79  O   UNL A   1      43.636  19.592  25.750  1.00  0.00    -0.237 OA
ATOM     80  O   UNL A   1      42.269  20.417  27.642  1.00  0.00    -0.237 OA
ATOM     81  O   UNL A   1      41.259  20.156  25.408  1.00  0.00    -0.744 OA
ENDBRANCH  74  78
ENDBRANCH  47  71
BRANCH  59  82
ATOM     82  C   UNL A   1      48.237  26.408  31.139  1.00  0.00     0.023 A 
ATOM     83  C   UNL A   1      48.491  25.349  32.029  1.00  0.00     0.031 A 
ATOM     84  C   UNL A   1      49.337  27.024  30.515  1.00  0.00     0.131 A 
ATOM     85  C   UNL A   1      49.814  24.978  32.315  1.00  0.00     0.055 A 
ATOM     86  C   UNL A   1      50.647  26.605  30.753  1.00  0.00     0.041 A 
ATOM     87  F   UNL A   1      49.157  28.042  29.660  1.00  0.00    -0.206 F 
ATOM     88  C   UNL A   1      50.892  25.586  31.667  1.00  0.00     0.022 A 
BRANCH  85  89
ATOM     89  S   UNL A   1      50.114  23.759  33.624  1.00  0.00     0.124 S 
ATOM     90  O   UNL A   1      51.053  24.467  34.489  1.00  0.00    -0.237 OA
ATOM     91  O   UNL A   1      48.776  23.553  34.171  1.00  0.00    -0.237 OA
ATOM     92  O   UNL A   1      50.672  22.615  32.907  1.00  0.00    -0.744 OA
ENDBRANCH  85  89
ENDBRANCH  59  82
ENDBRANCH  33  34
ENDBRANCH  25  28
ENDBRANCH  23  24
ENDBRANCH   1  23
TORSDOF 16
ENDMDL
