MODEL 1
REMARK VINA RESULT:     -11.6      0.000      0.000
REMARK SMILES C[C@@H](CC(=O)NCCCNC(=O)c1ccc(-c2c3nc(c(-c4cc(S(=O)(=O)[O-])ccc4F)c4ccc([nH]4)c(-c4cc(S(=O)(=O)[O-])ccc4F)c4nc(c(-c5cc(S(=O)(=O)[O-])ccc5F)c5ccc2[nH]5)C=C4)C=C3)cc1)CC(=O)NC(=O)NC[C@]1(C)CCCO1
REMARK SMILES IDX 7 1 6 2 4 3 5 4 3 6 2 7 1 8 76 9 77 10 78 11 79 12 80 13
REMARK SMILES IDX 81 15 82 16 83 18 84 19 86 20 89 21 85 22 87 23 88 24 8 25
REMARK SMILES IDX 9 26 10 27 11 28 12 30 13 31 14 32 75 33 15 34 74 35 16 36
REMARK SMILES IDX 17 37 18 38 68 39 19 40 73 41 67 42 69 43 20 44 72 45 66 46
REMARK SMILES IDX 65 47 21 49 53 50 33 51 52 52 34 53 37 54 51 55 70 56 35 57
REMARK SMILES IDX 36 58 50 60 71 61 38 62 22 63 23 64 31 65 24 66 30 67 32 68
REMARK SMILES IDX 29 69 25 70 26 71 27 72 28 73 54 74 55 75 63 76 56 77 62 78
REMARK SMILES IDX 64 79 61 80 57 81 58 82 59 83 60 84 39 85 40 86 48 87 41 88
REMARK SMILES IDX 47 89 49 90 46 91 42 92 43 93 44 94 45 95
REMARK H PARENT 6 5 79 14 82 17 10 29 69 48 37 59
REMARK Flexibility Score: inf
ROOT
ATOM      1  C   UNL A   1      31.018  30.011  24.581  1.00  0.00     0.117 C 
ENDROOT
BRANCH   1   2
ATOM      2  N   UNL A   1      32.372  29.729  24.126  1.00  0.00    -0.356 N 
ATOM      3  C   UNL A   1      33.311  28.812  24.511  1.00  0.00     0.220 C 
ATOM      4  O   UNL A   1      34.125  28.454  23.653  1.00  0.00    -0.275 OA
ATOM      5  H   UNL A   1      32.672  30.316  23.394  1.00  0.00     0.163 HD
BRANCH   3   6
ATOM      6  C   UNL A   1      33.450  28.274  25.934  1.00  0.00     0.103 C 
BRANCH   6   7
ATOM      7  C   UNL A   1      32.273  27.327  26.364  1.00  0.00     0.004 C 
ATOM      8  C   UNL A   1      31.527  27.777  27.640  1.00  0.00     0.009 C 
BRANCH   7   9
ATOM      9  C   UNL A   1      32.592  25.806  26.308  1.00  0.00     0.104 C 
BRANCH   9  10
ATOM     10  C   UNL A   1      31.419  24.843  26.283  1.00  0.00     0.228 C 
ATOM     11  O   UNL A   1      31.014  24.299  27.310  1.00  0.00    -0.275 OA
ATOM     12  N   UNL A   1      30.841  24.539  25.074  1.00  0.00    -0.278 N 
ATOM     13  C   UNL A   1      30.777  25.299  23.937  1.00  0.00     0.321 C 
ATOM     14  H   UNL A   1      30.414  23.655  25.019  1.00  0.00     0.174 HD
ATOM     15  O   UNL A   1      30.246  26.400  23.865  1.00  0.00    -0.248 OA
ATOM     16  N   UNL A   1      31.201  24.646  22.794  1.00  0.00    -0.335 N 
ATOM     17  H   UNL A   1      30.570  24.352  22.098  1.00  0.00     0.165 HD
BRANCH  16  18
ATOM     18  C   UNL A   1      32.628  24.420  22.680  1.00  0.00     0.152 C 
BRANCH  18  19
ATOM     19  C   UNL A   1      33.279  23.050  22.932  1.00  0.00     0.083 C 
ATOM     20  C   UNL A   1      33.507  22.728  24.400  1.00  0.00     0.039 C 
ATOM     21  O   UNL A   1      34.568  23.062  22.295  1.00  0.00    -0.373 OA
ATOM     22  C   UNL A   1      32.462  21.948  22.230  1.00  0.00     0.044 C 
ATOM     23  C   UNL A   1      34.902  23.250  24.635  1.00  0.00     0.031 C 
ATOM     24  C   UNL A   1      35.581  23.047  23.298  1.00  0.00     0.161 C 
ENDBRANCH  18  19
ENDBRANCH  16  18
ENDBRANCH   9  10
ENDBRANCH   7   9
ENDBRANCH   6   7
ENDBRANCH   3   6
ENDBRANCH   1   2
BRANCH   1  25
ATOM     25  C   UNL A   1      30.827  31.290  25.419  1.00  0.00     0.042 C 
BRANCH  25  26
ATOM     26  C   UNL A   1      31.617  31.393  26.730  1.00  0.00     0.118 C 
BRANCH  26  27
ATOM     27  N   UNL A   1      31.950  32.791  27.010  1.00  0.00    -0.352 N 
ATOM     28  C   UNL A   1      32.968  33.433  27.673  1.00  0.00     0.251 C 
ATOM     29  H   UNL A   1      31.289  33.418  26.637  1.00  0.00     0.163 HD
ATOM     30  O   UNL A   1      32.795  34.633  27.906  1.00  0.00    -0.269 OA
BRANCH  28  31
ATOM     31  C   UNL A   1      34.244  32.794  28.100  1.00  0.00     0.039 A 
ATOM     32  C   UNL A   1      34.236  31.407  28.342  1.00  0.00     0.014 A 
ATOM     33  C   UNL A   1      35.399  33.511  28.408  1.00  0.00     0.014 A 
ATOM     34  C   UNL A   1      35.355  30.757  28.886  1.00  0.00     0.010 A 
ATOM     35  C   UNL A   1      36.540  32.852  28.889  1.00  0.00     0.010 A 
ATOM     36  C   UNL A   1      36.522  31.476  29.169  1.00  0.00    -0.014 A 
BRANCH  36  37
ATOM     37  C   UNL A   1      37.689  30.843  29.855  1.00  0.00     0.031 A 
ATOM     38  C   UNL A   1      37.979  31.192  31.296  1.00  0.00     0.074 A 
ATOM     39  C   UNL A   1      38.515  30.007  29.194  1.00  0.00     0.049 A 
ATOM     40  N   UNL A   1      39.015  30.888  32.039  1.00  0.00    -0.248 NA
ATOM     41  C   UNL A   1      36.982  32.030  31.981  1.00  0.00     0.031 C 
ATOM     42  C   UNL A   1      38.364  29.596  27.798  1.00  0.00     0.029 A 
ATOM     43  N   UNL A   1      39.661  29.368  29.604  1.00  0.00    -0.354 N 
ATOM     44  C   UNL A   1      38.820  31.539  33.254  1.00  0.00     0.074 A 
ATOM     45  C   UNL A   1      37.580  32.276  33.137  1.00  0.00     0.031 C 
ATOM     46  C   UNL A   1      39.377  28.777  27.469  1.00  0.00     0.029 A 
ATOM     47  C   UNL A   1      40.270  28.630  28.614  1.00  0.00     0.049 A 
ATOM     48  H   UNL A   1      40.013  29.431  30.522  1.00  0.00     0.167 HD
ATOM     49  C   UNL A   1      39.596  31.519  34.367  1.00  0.00     0.034 A 
ATOM     50  C   UNL A   1      41.425  27.931  28.623  1.00  0.00     0.034 A 
ATOM     51  C   UNL A   1      40.799  30.732  34.495  1.00  0.00     0.049 A 
ATOM     52  C   UNL A   1      42.240  27.874  29.894  1.00  0.00     0.074 A 
ATOM     53  C   UNL A   1      41.626  30.592  35.597  1.00  0.00     0.029 A 
ATOM     54  N   UNL A   1      41.339  29.939  33.491  1.00  0.00    -0.354 N 
ATOM     55  N   UNL A   1      42.026  28.478  31.040  1.00  0.00    -0.248 NA
ATOM     56  C   UNL A   1      43.440  27.026  29.876  1.00  0.00     0.031 C 
ATOM     57  C   UNL A   1      42.688  29.748  35.247  1.00  0.00     0.029 A 
ATOM     58  C   UNL A   1      42.489  29.313  33.947  1.00  0.00     0.049 A 
ATOM     59  H   UNL A   1      40.960  29.836  32.588  1.00  0.00     0.167 HD
ATOM     60  C   UNL A   1      43.044  28.049  31.889  1.00  0.00     0.074 A 
ATOM     61  C   UNL A   1      43.862  27.127  31.128  1.00  0.00     0.031 C 
ATOM     62  C   UNL A   1      43.282  28.383  33.182  1.00  0.00     0.034 A 
BRANCH  49  63
ATOM     63  C   UNL A   1      39.183  32.396  35.525  1.00  0.00     0.023 A 
ATOM     64  C   UNL A   1      39.625  33.725  35.647  1.00  0.00     0.031 A 
ATOM     65  C   UNL A   1      38.343  31.887  36.532  1.00  0.00     0.131 A 
ATOM     66  C   UNL A   1      39.284  34.475  36.784  1.00  0.00     0.055 A 
ATOM     67  C   UNL A   1      37.942  32.664  37.622  1.00  0.00     0.041 A 
ATOM     68  F   UNL A   1      37.902  30.620  36.478  1.00  0.00    -0.206 F 
ATOM     69  C   UNL A   1      38.424  33.962  37.759  1.00  0.00     0.022 A 
BRANCH  66  70
ATOM     70  S   UNL A   1      40.070  36.088  37.021  1.00  0.00     0.124 S 
ATOM     71  O   UNL A   1      39.850  36.717  35.711  1.00  0.00    -0.237 OA
ATOM     72  O   UNL A   1      39.332  36.651  38.133  1.00  0.00    -0.237 OA
ATOM     73  O   UNL A   1      41.473  35.747  37.304  1.00  0.00    -0.744 OA
ENDBRANCH  66  70
ENDBRANCH  49  63
BRANCH  50  74
ATOM     74  C   UNL A   1      41.901  27.229  27.395  1.00  0.00     0.023 A 
ATOM     75  C   UNL A   1      41.814  25.833  27.279  1.00  0.00     0.031 A 
ATOM     76  C   UNL A   1      42.514  27.940  26.347  1.00  0.00     0.131 A 
ATOM     77  C   UNL A   1      42.381  25.183  26.171  1.00  0.00     0.055 A 
ATOM     78  C   UNL A   1      43.029  27.294  25.222  1.00  0.00     0.041 A 
ATOM     79  F   UNL A   1      42.620  29.277  26.404  1.00  0.00    -0.206 F 
ATOM     80  C   UNL A   1      42.979  25.906  25.137  1.00  0.00     0.022 A 
BRANCH  77  81
ATOM     81  S   UNL A   1      42.417  23.369  26.154  1.00  0.00     0.124 S 
ATOM     82  O   UNL A   1      41.041  23.039  26.503  1.00  0.00    -0.237 OA
ATOM     83  O   UNL A   1      42.815  23.091  24.778  1.00  0.00    -0.237 OA
ATOM     84  O   UNL A   1      43.416  23.040  27.169  1.00  0.00    -0.744 OA
ENDBRANCH  77  81
ENDBRANCH  50  74
BRANCH  62  85
ATOM     85  C   UNL A   1      44.428  27.686  33.873  1.00  0.00     0.023 A 
ATOM     86  C   UNL A   1      44.233  26.543  34.667  1.00  0.00     0.031 A 
ATOM     87  C   UNL A   1      45.733  28.191  33.744  1.00  0.00     0.131 A 
ATOM     88  C   UNL A   1      45.320  25.974  35.348  1.00  0.00     0.055 A 
ATOM     89  C   UNL A   1      46.819  27.590  34.382  1.00  0.00     0.041 A 
ATOM     90  F   UNL A   1      45.974  29.280  32.997  1.00  0.00    -0.206 F 
ATOM     91  C   UNL A   1      46.613  26.483  35.201  1.00  0.00     0.022 A 
BRANCH  88  92
ATOM     92  S   UNL A   1      45.008  24.611  36.503  1.00  0.00     0.124 S 
ATOM     93  O   UNL A   1      46.080  24.784  37.477  1.00  0.00    -0.237 OA
ATOM     94  O   UNL A   1      43.660  24.907  36.978  1.00  0.00    -0.237 OA
ATOM     95  O   UNL A   1      45.119  23.419  35.664  1.00  0.00    -0.744 OA
ENDBRANCH  88  92
ENDBRANCH  62  85
ENDBRANCH  36  37
ENDBRANCH  28  31
ENDBRANCH  26  27
ENDBRANCH  25  26
ENDBRANCH   1  25
TORSDOF 18
ENDMDL
MODEL 2
REMARK VINA RESULT:     -11.6      1.923      2.512
REMARK SMILES C[C@@H](CC(=O)NCCCNC(=O)c1ccc(-c2c3nc(c(-c4cc(S(=O)(=O)[O-])ccc4F)c4ccc([nH]4)c(-c4cc(S(=O)(=O)[O-])ccc4F)c4nc(c(-c5cc(S(=O)(=O)[O-])ccc5F)c5ccc2[nH]5)C=C4)C=C3)cc1)CC(=O)NC(=O)NC[C@]1(C)CCCO1
REMARK SMILES IDX 7 1 6 2 4 3 5 4 3 6 2 7 1 8 76 9 77 10 78 11 79 12 80 13
REMARK SMILES IDX 81 15 82 16 83 18 84 19 86 20 89 21 85 22 87 23 88 24 8 25
REMARK SMILES IDX 9 26 10 27 11 28 12 30 13 31 14 32 75 33 15 34 74 35 16 36
REMARK SMILES IDX 17 37 18 38 68 39 19 40 73 41 67 42 69 43 20 44 72 45 66 46
REMARK SMILES IDX 65 47 21 49 53 50 33 51 52 52 34 53 37 54 51 55 70 56 35 57
REMARK SMILES IDX 36 58 50 60 71 61 38 62 22 63 23 64 31 65 24 66 30 67 32 68
REMARK SMILES IDX 29 69 25 70 26 71 27 72 28 73 54 74 55 75 63 76 56 77 62 78
REMARK SMILES IDX 64 79 61 80 57 81 58 82 59 83 60 84 39 85 40 86 48 87 41 88
REMARK SMILES IDX 47 89 49 90 46 91 42 92 43 93 44 94 45 95
REMARK H PARENT 6 5 79 14 82 17 10 29 69 48 37 59
REMARK Flexibility Score: inf
ROOT
ATOM      1  C   UNL A   1      31.558  29.350  25.049  1.00  0.00     0.117 C 
ENDROOT
BRANCH   1   2
ATOM      2  N   UNL A   1      31.260  29.334  23.623  1.00  0.00    -0.356 N 
ATOM      3  C   UNL A   1      30.355  28.639  22.870  1.00  0.00     0.220 C 
ATOM      4  O   UNL A   1      29.969  29.176  21.826  1.00  0.00    -0.275 OA
ATOM      5  H   UNL A   1      31.823  29.947  23.096  1.00  0.00     0.163 HD
BRANCH   3   6
ATOM      6  C   UNL A   1      29.862  27.232  23.204  1.00  0.00     0.103 C 
BRANCH   6   7
ATOM      7  C   UNL A   1      31.018  26.240  23.592  1.00  0.00     0.004 C 
ATOM      8  C   UNL A   1      31.909  25.807  22.406  1.00  0.00     0.009 C 
BRANCH   7   9
ATOM      9  C   UNL A   1      30.604  25.081  24.544  1.00  0.00     0.104 C 
BRANCH   9  10
ATOM     10  C   UNL A   1      30.683  25.338  26.038  1.00  0.00     0.228 C 
ATOM     11  O   UNL A   1      30.464  26.454  26.509  1.00  0.00    -0.275 OA
ATOM     12  N   UNL A   1      31.059  24.309  26.865  1.00  0.00    -0.278 N 
ATOM     13  C   UNL A   1      30.904  22.960  26.685  1.00  0.00     0.321 C 
ATOM     14  H   UNL A   1      31.501  24.577  27.702  1.00  0.00     0.174 HD
ATOM     15  O   UNL A   1      29.825  22.397  26.547  1.00  0.00    -0.248 OA
ATOM     16  N   UNL A   1      32.063  22.227  26.857  1.00  0.00    -0.335 N 
ATOM     17  H   UNL A   1      32.205  21.655  27.646  1.00  0.00     0.165 HD
BRANCH  16  18
ATOM     18  C   UNL A   1      33.059  22.351  25.812  1.00  0.00     0.152 C 
BRANCH  18  19
ATOM     19  C   UNL A   1      33.112  21.415  24.594  1.00  0.00     0.083 C 
ATOM     20  C   UNL A   1      32.256  20.165  24.728  1.00  0.00     0.039 C 
ATOM     21  O   UNL A   1      34.475  20.981  24.442  1.00  0.00    -0.373 OA
ATOM     22  C   UNL A   1      32.766  22.205  23.315  1.00  0.00     0.044 C 
ATOM     23  C   UNL A   1      33.221  19.172  25.326  1.00  0.00     0.031 C 
ATOM     24  C   UNL A   1      34.555  19.591  24.747  1.00  0.00     0.161 C 
ENDBRANCH  18  19
ENDBRANCH  16  18
ENDBRANCH   9  10
ENDBRANCH   7   9
ENDBRANCH   6   7
ENDBRANCH   3   6
ENDBRANCH   1   2
BRANCH   1  25
ATOM     25  C   UNL A   1      31.575  30.731  25.733  1.00  0.00     0.042 C 
BRANCH  25  26
ATOM     26  C   UNL A   1      32.385  30.860  27.029  1.00  0.00     0.118 C 
BRANCH  26  27
ATOM     27  N   UNL A   1      32.839  32.241  27.205  1.00  0.00    -0.352 N 
ATOM     28  C   UNL A   1      33.937  32.837  27.775  1.00  0.00     0.251 C 
ATOM     29  H   UNL A   1      32.209  32.896  26.827  1.00  0.00     0.163 HD
ATOM     30  O   UNL A   1      33.870  34.059  27.942  1.00  0.00    -0.269 OA
BRANCH  28  31
ATOM     31  C   UNL A   1      35.183  32.125  28.177  1.00  0.00     0.039 A 
ATOM     32  C   UNL A   1      35.077  30.768  28.535  1.00  0.00     0.014 A 
ATOM     33  C   UNL A   1      36.410  32.760  28.354  1.00  0.00     0.014 A 
ATOM     34  C   UNL A   1      36.172  30.067  29.063  1.00  0.00     0.010 A 
ATOM     35  C   UNL A   1      37.523  32.044  28.819  1.00  0.00     0.010 A 
ATOM     36  C   UNL A   1      37.411  30.701  29.215  1.00  0.00    -0.014 A 
BRANCH  36  37
ATOM     37  C   UNL A   1      38.565  30.024  29.880  1.00  0.00     0.031 A 
ATOM     38  C   UNL A   1      38.930  30.405  31.296  1.00  0.00     0.074 A 
ATOM     39  C   UNL A   1      39.315  29.119  29.220  1.00  0.00     0.049 A 
ATOM     40  N   UNL A   1      39.974  30.066  32.010  1.00  0.00    -0.248 NA
ATOM     41  C   UNL A   1      38.010  31.322  31.986  1.00  0.00     0.031 C 
ATOM     42  C   UNL A   1      39.088  28.671  27.846  1.00  0.00     0.029 A 
ATOM     43  N   UNL A   1      40.438  28.428  29.611  1.00  0.00    -0.354 N 
ATOM     44  C   UNL A   1      39.864  30.768  33.208  1.00  0.00     0.074 A 
ATOM     45  C   UNL A   1      38.665  31.572  33.109  1.00  0.00     0.031 C 
ATOM     46  C   UNL A   1      40.038  27.782  27.510  1.00  0.00     0.029 A 
ATOM     47  C   UNL A   1      40.965  27.622  28.627  1.00  0.00     0.049 A 
ATOM     48  H   UNL A   1      40.828  28.502  30.512  1.00  0.00     0.167 HD
ATOM     49  C   UNL A   1      40.680  30.740  34.292  1.00  0.00     0.034 A 
ATOM     50  C   UNL A   1      42.077  26.858  28.618  1.00  0.00     0.034 A 
ATOM     51  C   UNL A   1      41.840  29.889  34.404  1.00  0.00     0.049 A 
ATOM     52  C   UNL A   1      42.936  26.796  29.860  1.00  0.00     0.074 A 
ATOM     53  C   UNL A   1      42.699  29.738  35.479  1.00  0.00     0.029 A 
ATOM     54  N   UNL A   1      42.294  29.032  33.411  1.00  0.00    -0.354 N 
ATOM     55  N   UNL A   1      42.802  27.450  30.991  1.00  0.00    -0.248 NA
ATOM     56  C   UNL A   1      44.084  25.879  29.829  1.00  0.00     0.031 C 
ATOM     57  C   UNL A   1      43.696  28.822  35.122  1.00  0.00     0.029 A 
ATOM     58  C   UNL A   1      43.423  28.355  33.847  1.00  0.00     0.049 A 
ATOM     59  H   UNL A   1      41.876  28.920  32.526  1.00  0.00     0.167 HD
ATOM     60  C   UNL A   1      43.826  26.991  31.817  1.00  0.00     0.074 A 
ATOM     61  C   UNL A   1      44.559  25.998  31.061  1.00  0.00     0.031 C 
ATOM     62  C   UNL A   1      44.131  27.355  33.088  1.00  0.00     0.034 A 
BRANCH  49  63
ATOM     63  C   UNL A   1      40.363  31.679  35.431  1.00  0.00     0.023 A 
ATOM     64  C   UNL A   1      39.364  31.391  36.377  1.00  0.00     0.031 A 
ATOM     65  C   UNL A   1      41.066  32.890  35.565  1.00  0.00     0.131 A 
ATOM     66  C   UNL A   1      39.048  32.333  37.370  1.00  0.00     0.055 A 
ATOM     67  C   UNL A   1      40.801  33.788  36.601  1.00  0.00     0.041 A 
ATOM     68  F   UNL A   1      42.021  33.227  34.682  1.00  0.00    -0.206 F 
ATOM     69  C   UNL A   1      39.777  33.517  37.504  1.00  0.00     0.022 A 
BRANCH  66  70
ATOM     70  S   UNL A   1      37.598  32.035  38.411  1.00  0.00     0.124 S 
ATOM     71  O   UNL A   1      36.687  33.096  37.959  1.00  0.00    -0.237 OA
ATOM     72  O   UNL A   1      37.221  30.679  38.066  1.00  0.00    -0.237 OA
ATOM     73  O   UNL A   1      38.113  32.217  39.778  1.00  0.00    -0.744 OA
ENDBRANCH  66  70
ENDBRANCH  49  63
BRANCH  50  74
ATOM     74  C   UNL A   1      42.465  26.088  27.400  1.00  0.00     0.023 A 
ATOM     75  C   UNL A   1      42.102  24.740  27.249  1.00  0.00     0.031 A 
ATOM     76  C   UNL A   1      43.264  26.671  26.400  1.00  0.00     0.131 A 
ATOM     77  C   UNL A   1      42.583  24.002  26.157  1.00  0.00     0.055 A 
ATOM     78  C   UNL A   1      43.695  25.947  25.287  1.00  0.00     0.041 A 
ATOM     79  F   UNL A   1      43.636  27.957  26.490  1.00  0.00    -0.206 F 
ATOM     80  C   UNL A   1      43.369  24.599  25.169  1.00  0.00     0.022 A 
BRANCH  77  81
ATOM     81  S   UNL A   1      42.252  22.219  26.101  1.00  0.00     0.124 S 
ATOM     82  O   UNL A   1      43.086  21.795  24.982  1.00  0.00    -0.237 OA
ATOM     83  O   UNL A   1      42.687  21.791  27.425  1.00  0.00    -0.237 OA
ATOM     84  O   UNL A   1      40.810  22.148  25.867  1.00  0.00    -0.744 OA
ENDBRANCH  77  81
ENDBRANCH  50  74
BRANCH  62  85
ATOM     85  C   UNL A   1      45.261  26.616  33.761  1.00  0.00     0.023 A 
ATOM     86  C   UNL A   1      45.069  25.371  34.383  1.00  0.00     0.031 A 
ATOM     87  C   UNL A   1      46.547  27.182  33.791  1.00  0.00     0.131 A 
ATOM     88  C   UNL A   1      46.135  24.758  35.059  1.00  0.00     0.055 A 
ATOM     89  C   UNL A   1      47.616  26.544  34.421  1.00  0.00     0.041 A 
ATOM     90  F   UNL A   1      46.785  28.370  33.212  1.00  0.00    -0.206 F 
ATOM     91  C   UNL A   1      47.410  25.330  35.071  1.00  0.00     0.022 A 
BRANCH  88  92
ATOM     92  S   UNL A   1      45.812  23.241  36.002  1.00  0.00     0.124 S 
ATOM     93  O   UNL A   1      46.845  22.343  35.496  1.00  0.00    -0.237 OA
ATOM     94  O   UNL A   1      45.975  23.690  37.380  1.00  0.00    -0.237 OA
ATOM     95  O   UNL A   1      44.444  22.888  35.624  1.00  0.00    -0.744 OA
ENDBRANCH  88  92
ENDBRANCH  62  85
ENDBRANCH  36  37
ENDBRANCH  28  31
ENDBRANCH  26  27
ENDBRANCH  25  26
ENDBRANCH   1  25
TORSDOF 18
ENDMDL
MODEL 3
REMARK VINA RESULT:     -11.6      2.056      7.986
REMARK SMILES C[C@@H](CC(=O)NCCCNC(=O)c1ccc(-c2c3nc(c(-c4cc(S(=O)(=O)[O-])ccc4F)c4ccc([nH]4)c(-c4cc(S(=O)(=O)[O-])ccc4F)c4nc(c(-c5cc(S(=O)(=O)[O-])ccc5F)c5ccc2[nH]5)C=C4)C=C3)cc1)CC(=O)NC(=O)NC[C@]1(C)CCCO1
REMARK SMILES IDX 7 1 6 2 4 3 5 4 3 6 2 7 1 8 76 9 77 10 78 11 79 12 80 13
REMARK SMILES IDX 81 15 82 16 83 18 84 19 86 20 89 21 85 22 87 23 88 24 8 25
REMARK SMILES IDX 9 26 10 27 11 28 12 30 13 31 14 32 75 33 15 34 74 35 16 36
REMARK SMILES IDX 17 37 18 38 68 39 19 40 73 41 67 42 69 43 20 44 72 45 66 46
REMARK SMILES IDX 65 47 21 49 53 50 33 51 52 52 34 53 37 54 51 55 70 56 35 57
REMARK SMILES IDX 36 58 50 60 71 61 38 62 22 63 23 64 31 65 24 66 30 67 32 68
REMARK SMILES IDX 29 69 25 70 26 71 27 72 28 73 54 74 55 75 63 76 56 77 62 78
REMARK SMILES IDX 64 79 61 80 57 81 58 82 59 83 60 84 39 85 40 86 48 87 41 88
REMARK SMILES IDX 47 89 49 90 46 91 42 92 43 93 44 94 45 95
REMARK H PARENT 6 5 79 14 82 17 10 29 69 48 37 59
REMARK Flexibility Score: inf
ROOT
ATOM      1  C   UNL A   1      34.158  30.335  27.576  1.00  0.00     0.117 C 
ENDROOT
BRANCH   1   2
ATOM      2  N   UNL A   1      32.921  29.571  27.662  1.00  0.00    -0.356 N 
ATOM      3  C   UNL A   1      32.524  28.380  27.121  1.00  0.00     0.220 C 
ATOM      4  O   UNL A   1      31.675  27.738  27.748  1.00  0.00    -0.275 OA
ATOM      5  H   UNL A   1      32.232  29.999  28.222  1.00  0.00     0.163 HD
BRANCH   3   6
ATOM      6  C   UNL A   1      33.008  27.847  25.774  1.00  0.00     0.103 C 
BRANCH   6   7
ATOM      7  C   UNL A   1      32.109  28.292  24.564  1.00  0.00     0.004 C 
ATOM      8  C   UNL A   1      31.322  29.600  24.804  1.00  0.00     0.009 C 
BRANCH   7   9
ATOM      9  C   UNL A   1      31.280  27.155  23.902  1.00  0.00     0.104 C 
BRANCH   9  10
ATOM     10  C   UNL A   1      30.966  27.285  22.422  1.00  0.00     0.228 C 
ATOM     11  O   UNL A   1      30.131  28.091  22.012  1.00  0.00    -0.275 OA
ATOM     12  N   UNL A   1      31.596  26.444  21.538  1.00  0.00    -0.278 N 
ATOM     13  C   UNL A   1      32.819  25.838  21.649  1.00  0.00     0.321 C 
ATOM     14  H   UNL A   1      31.100  26.250  20.710  1.00  0.00     0.174 HD
ATOM     15  O   UNL A   1      33.881  26.434  21.771  1.00  0.00    -0.248 OA
ATOM     16  N   UNL A   1      32.798  24.474  21.425  1.00  0.00    -0.335 N 
ATOM     17  H   UNL A   1      33.173  24.075  20.606  1.00  0.00     0.165 HD
BRANCH  16  18
ATOM     18  C   UNL A   1      32.193  23.664  22.463  1.00  0.00     0.152 C 
BRANCH  18  19
ATOM     19  C   UNL A   1      33.017  22.879  23.497  1.00  0.00     0.083 C 
ATOM     20  C   UNL A   1      32.909  23.413  24.917  1.00  0.00     0.039 C 
ATOM     21  O   UNL A   1      34.398  22.977  23.112  1.00  0.00    -0.373 OA
ATOM     22  C   UNL A   1      32.653  21.383  23.425  1.00  0.00     0.044 C 
ATOM     23  C   UNL A   1      34.057  24.388  24.987  1.00  0.00     0.031 C 
ATOM     24  C   UNL A   1      35.091  23.775  24.068  1.00  0.00     0.161 C 
ENDBRANCH  18  19
ENDBRANCH  16  18
ENDBRANCH   9  10
ENDBRANCH   7   9
ENDBRANCH   6   7
ENDBRANCH   3   6
ENDBRANCH   1   2
BRANCH   1  25
ATOM     25  C   UNL A   1      34.016  31.867  27.493  1.00  0.00     0.042 C 
BRANCH  25  26
ATOM     26  C   UNL A   1      32.594  32.434  27.385  1.00  0.00     0.118 C 
BRANCH  26  27
ATOM     27  N   UNL A   1      32.601  33.871  27.663  1.00  0.00    -0.352 N 
ATOM     28  C   UNL A   1      33.220  34.678  28.587  1.00  0.00     0.251 C 
ATOM     29  H   UNL A   1      32.028  34.378  27.045  1.00  0.00     0.163 HD
ATOM     30  O   UNL A   1      32.804  35.838  28.663  1.00  0.00    -0.269 OA
BRANCH  28  31
ATOM     31  C   UNL A   1      34.347  34.260  29.467  1.00  0.00     0.039 A 
ATOM     32  C   UNL A   1      35.656  34.555  29.043  1.00  0.00     0.014 A 
ATOM     33  C   UNL A   1      34.184  33.474  30.606  1.00  0.00     0.014 A 
ATOM     34  C   UNL A   1      36.774  34.069  29.739  1.00  0.00     0.010 A 
ATOM     35  C   UNL A   1      35.298  33.042  31.340  1.00  0.00     0.010 A 
ATOM     36  C   UNL A   1      36.606  33.301  30.898  1.00  0.00    -0.014 A 
BRANCH  36  37
ATOM     37  C   UNL A   1      37.765  32.670  31.598  1.00  0.00     0.031 A 
ATOM     38  C   UNL A   1      38.512  31.542  30.924  1.00  0.00     0.074 A 
ATOM     39  C   UNL A   1      38.122  33.055  32.840  1.00  0.00     0.049 A 
ATOM     40  N   UNL A   1      39.440  30.751  31.401  1.00  0.00    -0.248 NA
ATOM     41  C   UNL A   1      38.133  31.244  29.533  1.00  0.00     0.031 C 
ATOM     42  C   UNL A   1      37.479  34.117  33.614  1.00  0.00     0.029 A 
ATOM     43  N   UNL A   1      39.101  32.580  33.680  1.00  0.00    -0.354 N 
ATOM     44  C   UNL A   1      39.716  29.831  30.392  1.00  0.00     0.074 A 
ATOM     45  C   UNL A   1      38.835  30.149  29.288  1.00  0.00     0.031 C 
ATOM     46  C   UNL A   1      38.080  34.212  34.813  1.00  0.00     0.029 A 
ATOM     47  C   UNL A   1      39.126  33.198  34.910  1.00  0.00     0.049 A 
ATOM     48  H   UNL A   1      39.728  31.865  33.425  1.00  0.00     0.167 HD
ATOM     49  C   UNL A   1      40.622  28.822  30.382  1.00  0.00     0.034 A 
ATOM     50  C   UNL A   1      39.888  32.961  35.998  1.00  0.00     0.034 A 
ATOM     51  C   UNL A   1      41.538  28.552  31.464  1.00  0.00     0.049 A 
ATOM     52  C   UNL A   1      40.934  31.872  35.939  1.00  0.00     0.074 A 
ATOM     53  C   UNL A   1      42.536  27.594  31.533  1.00  0.00     0.029 A 
ATOM     54  N   UNL A   1      41.579  29.251  32.663  1.00  0.00    -0.354 N 
ATOM     55  N   UNL A   1      41.194  31.028  34.967  1.00  0.00    -0.248 NA
ATOM     56  C   UNL A   1      41.798  31.717  37.118  1.00  0.00     0.031 C 
ATOM     57  C   UNL A   1      43.152  27.687  32.787  1.00  0.00     0.029 A 
ATOM     58  C   UNL A   1      42.579  28.743  33.476  1.00  0.00     0.049 A 
ATOM     59  H   UNL A   1      40.984  30.000  32.900  1.00  0.00     0.167 HD
ATOM     60  C   UNL A   1      42.279  30.271  35.405  1.00  0.00     0.074 A 
ATOM     61  C   UNL A   1      42.631  30.766  36.719  1.00  0.00     0.031 C 
ATOM     62  C   UNL A   1      42.929  29.260  34.776  1.00  0.00     0.034 A 
BRANCH  49  63
ATOM     63  C   UNL A   1      40.649  27.916  29.174  1.00  0.00     0.023 A 
ATOM     64  C   UNL A   1      41.577  28.090  28.133  1.00  0.00     0.031 A 
ATOM     65  C   UNL A   1      39.719  26.867  29.058  1.00  0.00     0.131 A 
ATOM     66  C   UNL A   1      41.509  27.275  26.991  1.00  0.00     0.055 A 
ATOM     67  C   UNL A   1      39.706  26.009  27.956  1.00  0.00     0.041 A 
ATOM     68  F   UNL A   1      38.798  26.661  30.014  1.00  0.00    -0.206 F 
ATOM     69  C   UNL A   1      40.597  26.219  26.907  1.00  0.00     0.022 A 
BRANCH  66  70
ATOM     70  S   UNL A   1      42.556  27.687  25.574  1.00  0.00     0.124 S 
ATOM     71  O   UNL A   1      41.879  28.880  25.045  1.00  0.00    -0.237 OA
ATOM     72  O   UNL A   1      43.854  27.906  26.179  1.00  0.00    -0.237 OA
ATOM     73  O   UNL A   1      42.454  26.498  24.714  1.00  0.00    -0.744 OA
ENDBRANCH  66  70
ENDBRANCH  49  63
BRANCH  50  74
ATOM     74  C   UNL A   1      39.703  33.755  37.248  1.00  0.00     0.023 A 
ATOM     75  C   UNL A   1      40.498  34.881  37.516  1.00  0.00     0.031 A 
ATOM     76  C   UNL A   1      38.772  33.359  38.225  1.00  0.00     0.131 A 
ATOM     77  C   UNL A   1      40.392  35.537  38.752  1.00  0.00     0.055 A 
ATOM     78  C   UNL A   1      38.632  34.048  39.431  1.00  0.00     0.041 A 
ATOM     79  F   UNL A   1      37.982  32.294  38.019  1.00  0.00    -0.206 F 
ATOM     80  C   UNL A   1      39.457  35.134  39.708  1.00  0.00     0.022 A 
BRANCH  77  81
ATOM     81  S   UNL A   1      41.570  36.864  39.134  1.00  0.00     0.124 S 
ATOM     82  O   UNL A   1      42.137  37.148  37.821  1.00  0.00    -0.237 OA
ATOM     83  O   UNL A   1      40.696  37.889  39.692  1.00  0.00    -0.237 OA
ATOM     84  O   UNL A   1      42.485  36.241  40.089  1.00  0.00    -0.744 OA
ENDBRANCH  77  81
ENDBRANCH  50  74
BRANCH  62  85
ATOM     85  C   UNL A   1      44.133  28.678  35.474  1.00  0.00     0.023 A 
ATOM     86  C   UNL A   1      44.014  27.666  36.442  1.00  0.00     0.031 A 
ATOM     87  C   UNL A   1      45.418  29.161  35.174  1.00  0.00     0.131 A 
ATOM     88  C   UNL A   1      45.157  27.209  37.117  1.00  0.00     0.055 A 
ATOM     89  C   UNL A   1      46.557  28.667  35.811  1.00  0.00     0.041 A 
ATOM     90  F   UNL A   1      45.587  30.128  34.257  1.00  0.00    -0.206 F 
ATOM     91  C   UNL A   1      46.428  27.694  36.798  1.00  0.00     0.022 A 
BRANCH  88  92
ATOM     92  S   UNL A   1      44.950  26.032  38.483  1.00  0.00     0.124 S 
ATOM     93  O   UNL A   1      44.458  24.846  37.792  1.00  0.00    -0.237 OA
ATOM     94  O   UNL A   1      46.303  25.942  39.023  1.00  0.00    -0.237 OA
ATOM     95  O   UNL A   1      43.979  26.689  39.356  1.00  0.00    -0.744 OA
ENDBRANCH  88  92
ENDBRANCH  62  85
ENDBRANCH  36  37
ENDBRANCH  28  31
ENDBRANCH  26  27
ENDBRANCH  25  26
ENDBRANCH   1  25
TORSDOF 18
ENDMDL
