MODEL 1
REMARK VINA RESULT:     -12.3      0.000      0.000
REMARK SMILES Cn1cc(/C=C2\SC(=S)N(c3cccc(C(=O)NCCCNC(=O)c4ccc(-c5c6nc(c(-c7cc(S(=O)(=O)[O-])ccc7F)c7ccc([nH]7)c(-c7cc(S(=O)(=O)[O-])ccc7F)c7nc(c(-c8cc(S(=O)(=O)[O-])ccc8F)c8ccc5[nH]8)C=C7)C=C6)cc4)c3)C2=O)c2ccccc21
REMARK SMILES IDX 20 1 19 2 18 3 16 4 17 5 15 7 11 8 12 9 88 10 13 11 14 12
REMARK SMILES IDX 10 13 5 14 6 15 7 16 89 17 8 18 90 19 9 20 4 21 1 22 2 23
REMARK SMILES IDX 3 24 96 25 91 26 95 27 92 28 94 29 93 30 21 31 22 32 23 33
REMARK SMILES IDX 24 35 25 36 26 37 87 38 27 39 86 40 28 41 29 42 30 43 80 44
REMARK SMILES IDX 31 45 85 46 79 47 81 48 32 49 84 50 78 51 77 52 33 54 65 55
REMARK SMILES IDX 45 56 64 57 46 58 49 59 63 60 82 61 47 62 48 63 62 65 83 66
REMARK SMILES IDX 50 67 34 68 35 69 43 70 36 71 42 72 44 73 41 74 37 75 38 76
REMARK SMILES IDX 39 77 40 78 66 79 67 80 75 81 68 82 74 83 76 84 73 85 69 86
REMARK SMILES IDX 70 87 71 88 72 89 51 90 52 91 60 92 53 93 59 94 61 95 58 96
REMARK SMILES IDX 54 97 55 98 56 99 57 100
REMARK H PARENT 18 6 22 34 81 53 49 64
REMARK Flexibility Score: inf
ROOT
ATOM      1  C   UNL A   1      44.340  38.535  32.027  1.00  0.00     0.042 C 
ENDROOT
BRANCH   1   2
ATOM      2  C   UNL A   1      44.663  39.951  31.548  1.00  0.00     0.118 C 
BRANCH   2   3
ATOM      3  N   UNL A   1      43.467  40.766  31.434  1.00  0.00    -0.352 N 
ATOM      4  C   UNL A   1      42.536  40.983  30.452  1.00  0.00     0.251 C 
ATOM      5  O   UNL A   1      41.581  41.701  30.760  1.00  0.00    -0.269 OA
ATOM      6  H   UNL A   1      43.281  41.280  32.253  1.00  0.00     0.163 HD
BRANCH   4   7
ATOM      7  C   UNL A   1      42.586  40.421  29.068  1.00  0.00     0.041 A 
ATOM      8  C   UNL A   1      43.171  40.447  26.697  1.00  0.00     0.051 A 
ATOM      9  C   UNL A   1      42.515  39.230  26.504  1.00  0.00     0.027 A 
ATOM     10  C   UNL A   1      43.158  41.050  27.965  1.00  0.00     0.040 A 
ATOM     11  C   UNL A   1      41.917  38.593  27.588  1.00  0.00     0.003 A 
ATOM     12  C   UNL A   1      41.965  39.178  28.857  1.00  0.00     0.014 A 
BRANCH   8  13
ATOM     13  N   UNL A   1      43.801  41.129  25.621  1.00  0.00    -0.261 N 
ATOM     14  C   UNL A   1      43.396  43.476  22.904  1.00  0.00     0.031 C 
ATOM     15  C   UNL A   1      43.897  42.607  23.794  1.00  0.00     0.081 C 
ATOM     16  S   UNL A   1      45.554  42.320  24.155  1.00  0.00    -0.054 SA
ATOM     17  C   UNL A   1      43.023  41.795  24.680  1.00  0.00     0.270 C 
ATOM     18  C   UNL A   1      45.178  41.231  25.479  1.00  0.00     0.152 C 
ATOM     19  O   UNL A   1      41.804  41.770  24.572  1.00  0.00    -0.268 OA
ATOM     20  S   UNL A   1      46.396  40.428  26.302  1.00  0.00    -0.051 S 
BRANCH  14  21
ATOM     21  C   UNL A   1      44.145  44.291  22.005  1.00  0.00     0.001 A 
ATOM     22  C   UNL A   1      46.619  46.816  21.266  1.00  0.00     0.149 C 
ATOM     23  N   UNL A   1      45.602  45.790  21.267  1.00  0.00    -0.350 N 
ATOM     24  C   UNL A   1      45.118  45.185  22.394  1.00  0.00     0.094 A 
ATOM     25  C   UNL A   1      44.983  45.284  20.145  1.00  0.00     0.048 A 
ATOM     26  C   UNL A   1      44.059  44.326  20.583  1.00  0.00     0.007 A 
ATOM     27  C   UNL A   1      45.152  45.590  18.785  1.00  0.00     0.027 A 
ATOM     28  C   UNL A   1      43.273  43.656  19.619  1.00  0.00     0.011 A 
ATOM     29  C   UNL A   1      44.365  44.909  17.854  1.00  0.00     0.002 A 
ATOM     30  C   UNL A   1      43.437  43.956  18.262  1.00  0.00     0.001 A 
ENDBRANCH  14  21
ENDBRANCH   8  13
ENDBRANCH   4   7
ENDBRANCH   2   3
ENDBRANCH   1   2
BRANCH   1  31
ATOM     31  C   UNL A   1      44.318  37.523  30.881  1.00  0.00     0.118 C 
BRANCH  31  32
ATOM     32  N   UNL A   1      45.372  37.792  29.905  1.00  0.00    -0.352 N 
ATOM     33  C   UNL A   1      46.118  36.926  29.143  1.00  0.00     0.251 C 
ATOM     34  H   UNL A   1      45.579  38.746  29.771  1.00  0.00     0.163 HD
ATOM     35  O   UNL A   1      47.137  37.327  28.594  1.00  0.00    -0.269 OA
BRANCH  33  36
ATOM     36  C   UNL A   1      45.688  35.521  28.995  1.00  0.00     0.039 A 
ATOM     37  C   UNL A   1      46.145  34.561  29.901  1.00  0.00     0.014 A 
ATOM     38  C   UNL A   1      44.845  35.154  27.944  1.00  0.00     0.014 A 
ATOM     39  C   UNL A   1      45.692  33.242  29.798  1.00  0.00     0.010 A 
ATOM     40  C   UNL A   1      44.332  33.865  27.893  1.00  0.00     0.010 A 
ATOM     41  C   UNL A   1      44.750  32.895  28.818  1.00  0.00    -0.014 A 
BRANCH  41  42
ATOM     42  C   UNL A   1      44.182  31.527  28.708  1.00  0.00     0.031 A 
ATOM     43  C   UNL A   1      44.907  30.495  27.890  1.00  0.00     0.074 A 
ATOM     44  C   UNL A   1      42.973  31.255  29.236  1.00  0.00     0.049 A 
ATOM     45  N   UNL A   1      44.499  29.324  27.479  1.00  0.00    -0.248 NA
ATOM     46  C   UNL A   1      46.262  30.854  27.438  1.00  0.00     0.031 C 
ATOM     47  C   UNL A   1      42.170  32.184  30.035  1.00  0.00     0.029 A 
ATOM     48  N   UNL A   1      42.193  30.128  29.157  1.00  0.00    -0.354 N 
ATOM     49  C   UNL A   1      45.531  28.818  26.695  1.00  0.00     0.074 A 
ATOM     50  C   UNL A   1      46.558  29.836  26.644  1.00  0.00     0.031 C 
ATOM     51  C   UNL A   1      41.018  31.585  30.380  1.00  0.00     0.029 A 
ATOM     52  C   UNL A   1      40.970  30.257  29.774  1.00  0.00     0.049 A 
ATOM     53  H   UNL A   1      42.482  29.304  28.702  1.00  0.00     0.167 HD
ATOM     54  C   UNL A   1      45.619  27.608  26.092  1.00  0.00     0.034 A 
ATOM     55  C   UNL A   1      39.916  29.415  29.819  1.00  0.00     0.034 A 
ATOM     56  C   UNL A   1      44.587  26.603  26.174  1.00  0.00     0.049 A 
ATOM     57  C   UNL A   1      40.018  28.090  29.105  1.00  0.00     0.074 A 
ATOM     58  C   UNL A   1      44.586  25.325  25.645  1.00  0.00     0.029 A 
ATOM     59  N   UNL A   1      43.369  26.767  26.822  1.00  0.00    -0.354 N 
ATOM     60  N   UNL A   1      41.009  27.613  28.387  1.00  0.00    -0.248 NA
ATOM     61  C   UNL A   1      38.864  27.185  29.209  1.00  0.00     0.031 C 
ATOM     62  C   UNL A   1      43.342  24.744  25.909  1.00  0.00     0.029 A 
ATOM     63  C   UNL A   1      42.600  25.623  26.682  1.00  0.00     0.049 A 
ATOM     64  H   UNL A   1      43.094  27.576  27.311  1.00  0.00     0.167 HD
ATOM     65  C   UNL A   1      40.615  26.336  27.994  1.00  0.00     0.074 A 
ATOM     66  C   UNL A   1      39.295  26.120  28.549  1.00  0.00     0.031 C 
ATOM     67  C   UNL A   1      41.290  25.421  27.254  1.00  0.00     0.034 A 
BRANCH  54  68
ATOM     68  C   UNL A   1      46.853  27.324  25.271  1.00  0.00     0.023 A 
ATOM     69  C   UNL A   1      47.003  27.823  23.964  1.00  0.00     0.031 A 
ATOM     70  C   UNL A   1      47.885  26.520  25.787  1.00  0.00     0.131 A 
ATOM     71  C   UNL A   1      48.112  27.445  23.192  1.00  0.00     0.055 A 
ATOM     72  C   UNL A   1      49.030  26.221  25.045  1.00  0.00     0.041 A 
ATOM     73  F   UNL A   1      47.790  25.995  27.019  1.00  0.00    -0.206 F 
ATOM     74  C   UNL A   1      49.140  26.671  23.734  1.00  0.00     0.022 A 
BRANCH  71  75
ATOM     75  S   UNL A   1      48.109  27.849  21.425  1.00  0.00     0.124 S 
ATOM     76  O   UNL A   1      48.335  26.537  20.822  1.00  0.00    -0.237 OA
ATOM     77  O   UNL A   1      46.782  28.422  21.233  1.00  0.00    -0.237 OA
ATOM     78  O   UNL A   1      49.221  28.789  21.287  1.00  0.00    -0.744 OA
ENDBRANCH  71  75
ENDBRANCH  54  68
BRANCH  55  79
ATOM     79  C   UNL A   1      38.672  29.801  30.545  1.00  0.00     0.023 A 
ATOM     80  C   UNL A   1      37.710  30.626  29.939  1.00  0.00     0.031 A 
ATOM     81  C   UNL A   1      38.440  29.383  31.869  1.00  0.00     0.131 A 
ATOM     82  C   UNL A   1      36.588  31.046  30.670  1.00  0.00     0.055 A 
ATOM     83  C   UNL A   1      37.293  29.758  32.571  1.00  0.00     0.041 A 
ATOM     84  F   UNL A   1      39.324  28.591  32.496  1.00  0.00    -0.206 F 
ATOM     85  C   UNL A   1      36.364  30.606  31.976  1.00  0.00     0.022 A 
BRANCH  82  86
ATOM     86  S   UNL A   1      35.468  32.257  29.916  1.00  0.00     0.124 S 
ATOM     87  O   UNL A   1      34.410  32.344  30.916  1.00  0.00    -0.237 OA
ATOM     88  O   UNL A   1      36.330  33.427  29.787  1.00  0.00    -0.237 OA
ATOM     89  O   UNL A   1      35.085  31.625  28.655  1.00  0.00    -0.744 OA
ENDBRANCH  82  86
ENDBRANCH  55  79
BRANCH  67  90
ATOM     90  C   UNL A   1      40.653  24.067  27.068  1.00  0.00     0.023 A 
ATOM     91  C   UNL A   1      39.498  23.881  26.290  1.00  0.00     0.031 A 
ATOM     92  C   UNL A   1      41.255  22.933  27.645  1.00  0.00     0.131 A 
ATOM     93  C   UNL A   1      38.966  22.592  26.133  1.00  0.00     0.055 A 
ATOM     94  C   UNL A   1      40.753  21.649  27.440  1.00  0.00     0.041 A 
ATOM     95  F   UNL A   1      42.359  23.057  28.399  1.00  0.00    -0.206 F 
ATOM     96  C   UNL A   1      39.598  21.474  26.685  1.00  0.00     0.022 A 
BRANCH  93  97
ATOM     97  S   UNL A   1      37.403  22.395  25.234  1.00  0.00     0.124 S 
ATOM     98  O   UNL A   1      37.426  23.540  24.331  1.00  0.00    -0.237 OA
ATOM     99  O   UNL A   1      37.563  21.086  24.609  1.00  0.00    -0.237 OA
ATOM    100  O   UNL A   1      36.391  22.456  26.287  1.00  0.00    -0.744 OA
ENDBRANCH  93  97
ENDBRANCH  67  90
ENDBRANCH  41  42
ENDBRANCH  33  36
ENDBRANCH  31  32
ENDBRANCH   1  31
TORSDOF 15
ENDMDL
MODEL 2
REMARK VINA RESULT:     -11.9      7.315     13.000
REMARK SMILES Cn1cc(/C=C2\SC(=S)N(c3cccc(C(=O)NCCCNC(=O)c4ccc(-c5c6nc(c(-c7cc(S(=O)(=O)[O-])ccc7F)c7ccc([nH]7)c(-c7cc(S(=O)(=O)[O-])ccc7F)c7nc(c(-c8cc(S(=O)(=O)[O-])ccc8F)c8ccc5[nH]8)C=C7)C=C6)cc4)c3)C2=O)c2ccccc21
REMARK SMILES IDX 20 1 19 2 18 3 16 4 17 5 15 7 11 8 12 9 88 10 13 11 14 12
REMARK SMILES IDX 10 13 5 14 6 15 7 16 89 17 8 18 90 19 9 20 4 21 1 22 2 23
REMARK SMILES IDX 3 24 96 25 91 26 95 27 92 28 94 29 93 30 21 31 22 32 23 33
REMARK SMILES IDX 24 35 25 36 26 37 87 38 27 39 86 40 28 41 29 42 30 43 80 44
REMARK SMILES IDX 31 45 85 46 79 47 81 48 32 49 84 50 78 51 77 52 33 54 65 55
REMARK SMILES IDX 45 56 64 57 46 58 49 59 63 60 82 61 47 62 48 63 62 65 83 66
REMARK SMILES IDX 50 67 34 68 35 69 43 70 36 71 42 72 44 73 41 74 37 75 38 76
REMARK SMILES IDX 39 77 40 78 66 79 67 80 75 81 68 82 74 83 76 84 73 85 69 86
REMARK SMILES IDX 70 87 71 88 72 89 51 90 52 91 60 92 53 93 59 94 61 95 58 96
REMARK SMILES IDX 54 97 55 98 56 99 57 100
REMARK H PARENT 18 6 22 34 81 53 49 64
REMARK Flexibility Score: inf
ROOT
ATOM      1  C   UNL A   1      45.601  28.421  26.740  1.00  0.00     0.042 C 
ENDROOT
BRANCH   1   2
ATOM      2  C   UNL A   1      44.146  28.026  26.490  1.00  0.00     0.118 C 
BRANCH   2   3
ATOM      3  N   UNL A   1      43.872  26.672  26.938  1.00  0.00    -0.352 N 
ATOM      4  C   UNL A   1      43.193  26.124  27.994  1.00  0.00     0.251 C 
ATOM      5  O   UNL A   1      43.099  24.893  27.998  1.00  0.00    -0.269 OA
ATOM      6  H   UNL A   1      44.263  25.991  26.343  1.00  0.00     0.163 HD
BRANCH   4   7
ATOM      7  C   UNL A   1      42.565  26.888  29.114  1.00  0.00     0.041 A 
ATOM      8  C   UNL A   1      40.801  28.211  30.165  1.00  0.00     0.051 A 
ATOM      9  C   UNL A   1      41.574  28.357  31.318  1.00  0.00     0.027 A 
ATOM     10  C   UNL A   1      41.325  27.519  29.061  1.00  0.00     0.040 A 
ATOM     11  C   UNL A   1      42.826  27.753  31.386  1.00  0.00     0.003 A 
ATOM     12  C   UNL A   1      43.309  27.016  30.300  1.00  0.00     0.014 A 
BRANCH   8  13
ATOM     13  N   UNL A   1      39.515  28.805  30.054  1.00  0.00    -0.261 N 
ATOM     14  C   UNL A   1      37.184  30.547  27.912  1.00  0.00     0.031 C 
ATOM     15  C   UNL A   1      37.768  29.926  28.948  1.00  0.00     0.081 C 
ATOM     16  S   UNL A   1      37.007  29.312  30.363  1.00  0.00    -0.054 SA
ATOM     17  C   UNL A   1      39.220  29.607  28.958  1.00  0.00     0.270 C 
ATOM     18  C   UNL A   1      38.485  28.577  30.957  1.00  0.00     0.152 C 
ATOM     19  O   UNL A   1      39.993  29.997  28.093  1.00  0.00    -0.268 OA
ATOM     20  S   UNL A   1      38.529  27.827  32.455  1.00  0.00    -0.051 S 
BRANCH  14  21
ATOM     21  C   UNL A   1      35.808  30.905  27.809  1.00  0.00     0.001 A 
ATOM     22  C   UNL A   1      32.332  30.145  27.189  1.00  0.00     0.149 C 
ATOM     23  N   UNL A   1      33.621  30.722  27.491  1.00  0.00    -0.350 N 
ATOM     24  C   UNL A   1      34.794  30.019  27.520  1.00  0.00     0.094 A 
ATOM     25  C   UNL A   1      33.848  32.049  27.788  1.00  0.00     0.048 A 
ATOM     26  C   UNL A   1      35.225  32.192  28.002  1.00  0.00     0.007 A 
ATOM     27  C   UNL A   1      32.961  33.134  27.881  1.00  0.00     0.027 A 
ATOM     28  C   UNL A   1      35.731  33.473  28.315  1.00  0.00     0.011 A 
ATOM     29  C   UNL A   1      33.488  34.388  28.197  1.00  0.00     0.002 A 
ATOM     30  C   UNL A   1      34.852  34.558  28.410  1.00  0.00     0.001 A 
ENDBRANCH  14  21
ENDBRANCH   8  13
ENDBRANCH   4   7
ENDBRANCH   2   3
ENDBRANCH   1   2
BRANCH   1  31
ATOM     31  C   UNL A   1      45.727  29.789  27.411  1.00  0.00     0.118 C 
BRANCH  31  32
ATOM     32  N   UNL A   1      45.456  30.876  26.472  1.00  0.00    -0.352 N 
ATOM     33  C   UNL A   1      44.505  31.867  26.511  1.00  0.00     0.251 C 
ATOM     34  H   UNL A   1      46.049  30.903  25.686  1.00  0.00     0.163 HD
ATOM     35  O   UNL A   1      44.259  32.511  25.500  1.00  0.00    -0.269 OA
BRANCH  33  36
ATOM     36  C   UNL A   1      43.785  32.143  27.771  1.00  0.00     0.039 A 
ATOM     37  C   UNL A   1      43.231  31.084  28.496  1.00  0.00     0.014 A 
ATOM     38  C   UNL A   1      43.645  33.456  28.224  1.00  0.00     0.014 A 
ATOM     39  C   UNL A   1      42.601  31.337  29.717  1.00  0.00     0.010 A 
ATOM     40  C   UNL A   1      43.093  33.697  29.475  1.00  0.00     0.010 A 
ATOM     41  C   UNL A   1      42.565  32.641  30.235  1.00  0.00    -0.014 A 
BRANCH  41  42
ATOM     42  C   UNL A   1      41.972  32.956  31.559  1.00  0.00     0.031 A 
ATOM     43  C   UNL A   1      42.815  32.814  32.796  1.00  0.00     0.074 A 
ATOM     44  C   UNL A   1      40.660  33.248  31.656  1.00  0.00     0.049 A 
ATOM     45  N   UNL A   1      42.456  32.823  34.052  1.00  0.00    -0.248 NA
ATOM     46  C   UNL A   1      44.254  32.590  32.582  1.00  0.00     0.031 C 
ATOM     47  C   UNL A   1      39.739  33.397  30.526  1.00  0.00     0.029 A 
ATOM     48  N   UNL A   1      39.864  33.446  32.758  1.00  0.00    -0.354 N 
ATOM     49  C   UNL A   1      43.616  32.573  34.778  1.00  0.00     0.074 A 
ATOM     50  C   UNL A   1      44.676  32.362  33.816  1.00  0.00     0.031 C 
ATOM     51  C   UNL A   1      38.510  33.670  30.993  1.00  0.00     0.029 A 
ATOM     52  C   UNL A   1      38.538  33.653  32.453  1.00  0.00     0.049 A 
ATOM     53  H   UNL A   1      40.210  33.440  33.680  1.00  0.00     0.167 HD
ATOM     54  C   UNL A   1      43.781  32.543  36.123  1.00  0.00     0.034 A 
ATOM     55  C   UNL A   1      37.463  33.781  33.257  1.00  0.00     0.034 A 
ATOM     56  C   UNL A   1      42.710  32.774  37.060  1.00  0.00     0.049 A 
ATOM     57  C   UNL A   1      37.661  33.703  34.751  1.00  0.00     0.074 A 
ATOM     58  C   UNL A   1      42.769  32.817  38.441  1.00  0.00     0.029 A 
ATOM     59  N   UNL A   1      41.384  32.997  36.710  1.00  0.00    -0.354 N 
ATOM     60  N   UNL A   1      38.768  33.490  35.426  1.00  0.00    -0.248 NA
ATOM     61  C   UNL A   1      36.472  33.885  35.593  1.00  0.00     0.031 C 
ATOM     62  C   UNL A   1      41.469  32.990  38.928  1.00  0.00     0.029 A 
ATOM     63  C   UNL A   1      40.612  33.149  37.851  1.00  0.00     0.049 A 
ATOM     64  H   UNL A   1      41.043  33.042  35.788  1.00  0.00     0.167 HD
ATOM     65  C   UNL A   1      38.413  33.560  36.771  1.00  0.00     0.074 A 
ATOM     66  C   UNL A   1      36.991  33.828  36.811  1.00  0.00     0.031 C 
ATOM     67  C   UNL A   1      39.195  33.428  37.871  1.00  0.00     0.034 A 
BRANCH  54  68
ATOM     68  C   UNL A   1      45.158  32.219  36.650  1.00  0.00     0.023 A 
ATOM     69  C   UNL A   1      45.507  30.919  37.057  1.00  0.00     0.031 A 
ATOM     70  C   UNL A   1      46.130  33.228  36.777  1.00  0.00     0.131 A 
ATOM     71  C   UNL A   1      46.758  30.681  37.647  1.00  0.00     0.055 A 
ATOM     72  C   UNL A   1      47.405  32.965  37.281  1.00  0.00     0.041 A 
ATOM     73  F   UNL A   1      45.850  34.493  36.427  1.00  0.00    -0.206 F 
ATOM     74  C   UNL A   1      47.720  31.689  37.735  1.00  0.00     0.022 A 
BRANCH  71  75
ATOM     75  S   UNL A   1      47.045  29.075  38.438  1.00  0.00     0.124 S 
ATOM     76  O   UNL A   1      45.821  28.908  39.219  1.00  0.00    -0.237 OA
ATOM     77  O   UNL A   1      47.201  28.183  37.296  1.00  0.00    -0.237 OA
ATOM     78  O   UNL A   1      48.255  29.295  39.230  1.00  0.00    -0.744 OA
ENDBRANCH  71  75
ENDBRANCH  54  68
BRANCH  55  79
ATOM     79  C   UNL A   1      36.104  33.978  32.675  1.00  0.00     0.023 A 
ATOM     80  C   UNL A   1      35.529  35.257  32.603  1.00  0.00     0.031 A 
ATOM     81  C   UNL A   1      35.341  32.888  32.215  1.00  0.00     0.131 A 
ATOM     82  C   UNL A   1      34.217  35.410  32.129  1.00  0.00     0.055 A 
ATOM     83  C   UNL A   1      34.057  33.054  31.691  1.00  0.00     0.041 A 
ATOM     84  F   UNL A   1      35.842  31.643  32.256  1.00  0.00    -0.206 F 
ATOM     85  C   UNL A   1      33.482  34.320  31.659  1.00  0.00     0.022 A 
BRANCH  82  86
ATOM     86  S   UNL A   1      33.446  37.050  32.227  1.00  0.00     0.124 S 
ATOM     87  O   UNL A   1      33.341  37.411  30.818  1.00  0.00    -0.237 OA
ATOM     88  O   UNL A   1      32.193  36.755  32.912  1.00  0.00    -0.237 OA
ATOM     89  O   UNL A   1      34.409  37.830  33.002  1.00  0.00    -0.744 OA
ENDBRANCH  82  86
ENDBRANCH  55  79
BRANCH  67  90
ATOM     90  C   UNL A   1      38.553  33.655  39.216  1.00  0.00     0.023 A 
ATOM     91  C   UNL A   1      37.898  32.629  39.917  1.00  0.00     0.031 A 
ATOM     92  C   UNL A   1      38.648  34.920  39.826  1.00  0.00     0.131 A 
ATOM     93  C   UNL A   1      37.341  32.894  41.178  1.00  0.00     0.055 A 
ATOM     94  C   UNL A   1      38.140  35.163  41.101  1.00  0.00     0.041 A 
ATOM     95  F   UNL A   1      39.262  35.936  39.196  1.00  0.00    -0.206 F 
ATOM     96  C   UNL A   1      37.477  34.148  41.782  1.00  0.00     0.022 A 
BRANCH  93  97
ATOM     97  S   UNL A   1      36.389  31.591  42.005  1.00  0.00     0.124 S 
ATOM     98  O   UNL A   1      35.236  31.450  41.122  1.00  0.00    -0.237 OA
ATOM     99  O   UNL A   1      37.327  30.473  42.013  1.00  0.00    -0.237 OA
ATOM    100  O   UNL A   1      36.097  32.160  43.320  1.00  0.00    -0.744 OA
ENDBRANCH  93  97
ENDBRANCH  67  90
ENDBRANCH  41  42
ENDBRANCH  33  36
ENDBRANCH  31  32
ENDBRANCH   1  31
TORSDOF 15
ENDMDL
MODEL 3
REMARK VINA RESULT:     -11.7      6.013     11.705
REMARK SMILES Cn1cc(/C=C2\SC(=S)N(c3cccc(C(=O)NCCCNC(=O)c4ccc(-c5c6nc(c(-c7cc(S(=O)(=O)[O-])ccc7F)c7ccc([nH]7)c(-c7cc(S(=O)(=O)[O-])ccc7F)c7nc(c(-c8cc(S(=O)(=O)[O-])ccc8F)c8ccc5[nH]8)C=C7)C=C6)cc4)c3)C2=O)c2ccccc21
REMARK SMILES IDX 20 1 19 2 18 3 16 4 17 5 15 7 11 8 12 9 88 10 13 11 14 12
REMARK SMILES IDX 10 13 5 14 6 15 7 16 89 17 8 18 90 19 9 20 4 21 1 22 2 23
REMARK SMILES IDX 3 24 96 25 91 26 95 27 92 28 94 29 93 30 21 31 22 32 23 33
REMARK SMILES IDX 24 35 25 36 26 37 87 38 27 39 86 40 28 41 29 42 30 43 80 44
REMARK SMILES IDX 31 45 85 46 79 47 81 48 32 49 84 50 78 51 77 52 33 54 65 55
REMARK SMILES IDX 45 56 64 57 46 58 49 59 63 60 82 61 47 62 48 63 62 65 83 66
REMARK SMILES IDX 50 67 34 68 35 69 43 70 36 71 42 72 44 73 41 74 37 75 38 76
REMARK SMILES IDX 39 77 40 78 66 79 67 80 75 81 68 82 74 83 76 84 73 85 69 86
REMARK SMILES IDX 70 87 71 88 72 89 51 90 52 91 60 92 53 93 59 94 61 95 58 96
REMARK SMILES IDX 54 97 55 98 56 99 57 100
REMARK H PARENT 18 6 22 34 81 53 49 64
REMARK Flexibility Score: inf
ROOT
ATOM      1  C   UNL A   1      36.423  34.869  33.087  1.00  0.00     0.042 C 
ENDROOT
BRANCH   1   2
ATOM      2  C   UNL A   1      35.305  33.914  33.506  1.00  0.00     0.118 C 
BRANCH   2   3
ATOM      3  N   UNL A   1      33.992  34.463  33.218  1.00  0.00    -0.352 N 
ATOM      4  C   UNL A   1      33.289  34.734  32.074  1.00  0.00     0.251 C 
ATOM      5  O   UNL A   1      32.131  35.131  32.231  1.00  0.00    -0.269 OA
ATOM      6  H   UNL A   1      33.492  34.693  34.034  1.00  0.00     0.163 HD
BRANCH   4   7
ATOM      7  C   UNL A   1      33.804  34.579  30.680  1.00  0.00     0.041 A 
ATOM      8  C   UNL A   1      34.938  33.400  28.866  1.00  0.00     0.051 A 
ATOM      9  C   UNL A   1      34.773  34.500  28.024  1.00  0.00     0.027 A 
ATOM     10  C   UNL A   1      34.495  33.470  30.197  1.00  0.00     0.040 A 
ATOM     11  C   UNL A   1      34.105  35.629  28.492  1.00  0.00     0.003 A 
ATOM     12  C   UNL A   1      33.615  35.660  29.802  1.00  0.00     0.014 A 
BRANCH   8  13
ATOM     13  N   UNL A   1      35.608  32.225  28.428  1.00  0.00    -0.261 N 
ATOM     14  C   UNL A   1      38.630  30.252  28.591  1.00  0.00     0.031 C 
ATOM     15  C   UNL A   1      37.398  30.705  28.313  1.00  0.00     0.081 C 
ATOM     16  S   UNL A   1      36.089  29.821  27.635  1.00  0.00    -0.054 SA
ATOM     17  C   UNL A   1      36.973  32.088  28.652  1.00  0.00     0.270 C 
ATOM     18  C   UNL A   1      34.961  31.150  27.834  1.00  0.00     0.152 C 
ATOM     19  O   UNL A   1      37.744  32.935  29.084  1.00  0.00    -0.268 OA
ATOM     20  S   UNL A   1      33.391  31.038  27.260  1.00  0.00    -0.051 S 
BRANCH  14  21
ATOM     21  C   UNL A   1      39.138  28.952  28.300  1.00  0.00     0.001 A 
ATOM     22  C   UNL A   1      39.258  25.373  28.774  1.00  0.00     0.149 C 
ATOM     23  N   UNL A   1      39.414  26.753  28.377  1.00  0.00    -0.350 N 
ATOM     24  C   UNL A   1      38.689  27.792  28.892  1.00  0.00     0.094 A 
ATOM     25  C   UNL A   1      40.309  27.212  27.434  1.00  0.00     0.048 A 
ATOM     26  C   UNL A   1      40.150  28.601  27.360  1.00  0.00     0.007 A 
ATOM     27  C   UNL A   1      41.246  26.524  26.646  1.00  0.00     0.027 A 
ATOM     28  C   UNL A   1      40.966  29.328  26.465  1.00  0.00     0.011 A 
ATOM     29  C   UNL A   1      42.037  27.267  25.767  1.00  0.00     0.002 A 
ATOM     30  C   UNL A   1      41.903  28.649  25.676  1.00  0.00     0.001 A 
ENDBRANCH  14  21
ENDBRANCH   8  13
ENDBRANCH   4   7
ENDBRANCH   2   3
ENDBRANCH   1   2
BRANCH   1  31
ATOM     31  C   UNL A   1      37.744  34.566  33.794  1.00  0.00     0.118 C 
BRANCH  31  32
ATOM     32  N   UNL A   1      37.534  33.805  35.023  1.00  0.00    -0.352 N 
ATOM     33  C   UNL A   1      37.910  32.524  35.350  1.00  0.00     0.251 C 
ATOM     34  H   UNL A   1      37.047  34.285  35.731  1.00  0.00     0.163 HD
ATOM     35  O   UNL A   1      37.402  31.971  36.317  1.00  0.00    -0.269 OA
BRANCH  33  36
ATOM     36  C   UNL A   1      38.920  31.824  34.529  1.00  0.00     0.039 A 
ATOM     37  C   UNL A   1      38.505  30.995  33.484  1.00  0.00     0.014 A 
ATOM     38  C   UNL A   1      40.279  31.977  34.812  1.00  0.00     0.014 A 
ATOM     39  C   UNL A   1      39.460  30.379  32.670  1.00  0.00     0.010 A 
ATOM     40  C   UNL A   1      41.224  31.432  33.954  1.00  0.00     0.010 A 
ATOM     41  C   UNL A   1      40.826  30.628  32.874  1.00  0.00    -0.014 A 
BRANCH  41  42
ATOM     42  C   UNL A   1      41.879  30.056  31.997  1.00  0.00     0.031 A 
ATOM     43  C   UNL A   1      42.528  28.755  32.380  1.00  0.00     0.074 A 
ATOM     44  C   UNL A   1      42.328  30.758  30.938  1.00  0.00     0.049 A 
ATOM     45  N   UNL A   1      43.600  28.187  31.895  1.00  0.00    -0.248 NA
ATOM     46  C   UNL A   1      41.905  28.017  33.491  1.00  0.00     0.031 C 
ATOM     47  C   UNL A   1      41.786  32.040  30.481  1.00  0.00     0.029 A 
ATOM     48  N   UNL A   1      43.362  30.509  30.070  1.00  0.00    -0.354 N 
ATOM     49  C   UNL A   1      43.799  27.042  32.660  1.00  0.00     0.074 A 
ATOM     50  C   UNL A   1      42.769  27.031  33.676  1.00  0.00     0.031 C 
ATOM     51  C   UNL A   1      42.485  32.457  29.413  1.00  0.00     0.029 A 
ATOM     52  C   UNL A   1      43.564  31.510  29.147  1.00  0.00     0.049 A 
ATOM     53  H   UNL A   1      43.907  29.689  30.103  1.00  0.00     0.167 HD
ATOM     54  C   UNL A   1      44.745  26.082  32.514  1.00  0.00     0.034 A 
ATOM     55  C   UNL A   1      44.528  31.664  28.216  1.00  0.00     0.034 A 
ATOM     56  C   UNL A   1      45.750  26.108  31.481  1.00  0.00     0.049 A 
ATOM     57  C   UNL A   1      45.595  30.604  28.097  1.00  0.00     0.074 A 
ATOM     58  C   UNL A   1      46.727  25.168  31.205  1.00  0.00     0.029 A 
ATOM     59  N   UNL A   1      45.911  27.133  30.555  1.00  0.00    -0.354 N 
ATOM     60  N   UNL A   1      45.759  29.514  28.811  1.00  0.00    -0.248 NA
ATOM     61  C   UNL A   1      46.606  30.789  27.046  1.00  0.00     0.031 C 
ATOM     62  C   UNL A   1      47.523  25.657  30.165  1.00  0.00     0.029 A 
ATOM     63  C   UNL A   1      46.989  26.859  29.728  1.00  0.00     0.049 A 
ATOM     64  H   UNL A   1      45.343  27.934  30.496  1.00  0.00     0.167 HD
ATOM     65  C   UNL A   1      46.863  28.863  28.265  1.00  0.00     0.074 A 
ATOM     66  C   UNL A   1      47.327  29.684  27.167  1.00  0.00     0.031 C 
ATOM     67  C   UNL A   1      47.429  27.686  28.629  1.00  0.00     0.034 A 
BRANCH  54  68
ATOM     68  C   UNL A   1      44.749  24.948  33.510  1.00  0.00     0.023 A 
ATOM     69  C   UNL A   1      45.264  25.107  34.809  1.00  0.00     0.031 A 
ATOM     70  C   UNL A   1      44.257  23.680  33.151  1.00  0.00     0.131 A 
ATOM     71  C   UNL A   1      45.354  24.001  35.668  1.00  0.00     0.055 A 
ATOM     72  C   UNL A   1      44.267  22.605  34.043  1.00  0.00     0.041 A 
ATOM     73  F   UNL A   1      43.774  23.459  31.919  1.00  0.00    -0.206 F 
ATOM     74  C   UNL A   1      44.833  22.758  35.304  1.00  0.00     0.022 A 
BRANCH  71  75
ATOM     75  S   UNL A   1      46.305  24.177  37.202  1.00  0.00     0.124 S 
ATOM     76  O   UNL A   1      46.982  22.884  37.279  1.00  0.00    -0.237 OA
ATOM     77  O   UNL A   1      47.155  25.327  36.917  1.00  0.00    -0.237 OA
ATOM     78  O   UNL A   1      45.277  24.396  38.219  1.00  0.00    -0.744 OA
ENDBRANCH  71  75
ENDBRANCH  54  68
BRANCH  55  79
ATOM     79  C   UNL A   1      44.544  32.869  27.338  1.00  0.00     0.023 A 
ATOM     80  C   UNL A   1      45.113  34.075  27.779  1.00  0.00     0.031 A 
ATOM     81  C   UNL A   1      43.958  32.848  26.059  1.00  0.00     0.131 A 
ATOM     82  C   UNL A   1      45.042  35.220  26.970  1.00  0.00     0.055 A 
ATOM     83  C   UNL A   1      43.942  33.975  25.235  1.00  0.00     0.041 A 
ATOM     84  F   UNL A   1      43.403  31.721  25.584  1.00  0.00    -0.206 F 
ATOM     85  C   UNL A   1      44.474  35.175  25.695  1.00  0.00     0.022 A 
BRANCH  82  86
ATOM     86  S   UNL A   1      45.621  36.798  27.651  1.00  0.00     0.124 S 
ATOM     87  O   UNL A   1      46.734  37.112  26.763  1.00  0.00    -0.237 OA
ATOM     88  O   UNL A   1      44.435  37.638  27.520  1.00  0.00    -0.237 OA
ATOM     89  O   UNL A   1      45.993  36.458  29.023  1.00  0.00    -0.744 OA
ENDBRANCH  82  86
ENDBRANCH  55  79
BRANCH  67  90
ATOM     90  C   UNL A   1      48.566  27.166  27.784  1.00  0.00     0.023 A 
ATOM     91  C   UNL A   1      49.908  27.477  28.059  1.00  0.00     0.031 A 
ATOM     92  C   UNL A   1      48.291  26.298  26.711  1.00  0.00     0.131 A 
ATOM     93  C   UNL A   1      50.924  26.943  27.252  1.00  0.00     0.055 A 
ATOM     94  C   UNL A   1      49.308  25.728  25.947  1.00  0.00     0.041 A 
ATOM     95  F   UNL A   1      47.025  25.972  26.405  1.00  0.00    -0.206 F 
ATOM     96  C   UNL A   1      50.634  26.055  26.212  1.00  0.00     0.022 A 
BRANCH  93  97
ATOM     97  S   UNL A   1      52.637  27.462  27.545  1.00  0.00     0.124 S 
ATOM     98  O   UNL A   1      53.096  27.771  26.196  1.00  0.00    -0.237 OA
ATOM     99  O   UNL A   1      52.471  28.603  28.440  1.00  0.00    -0.237 OA
ATOM    100  O   UNL A   1      53.254  26.285  28.155  1.00  0.00    -0.744 OA
ENDBRANCH  93  97
ENDBRANCH  67  90
ENDBRANCH  41  42
ENDBRANCH  33  36
ENDBRANCH  31  32
ENDBRANCH   1  31
TORSDOF 15
ENDMDL
