MODEL 1
REMARK VINA RESULT:     -11.1      0.000      0.000
REMARK SMILES O=C(NCCCNC(=O)[C@@H]([NH2+]CC1CC1)c1cccc(C2CC2)c1)c1ccc(-c2c3nc(c(-c4cc(S(=O)(=O)[O-])ccc4F)c4ccc([nH]4)c(-c4cc(S(=O)(=O)[O-])ccc4F)c4nc(c(-c5cc(S(=O)(=O)[O-])ccc5F)c5ccc2[nH]5)C=C4)C=C3)cc1
REMARK SMILES IDX 5 1 4 2 3 3 1 4 2 5 25 7 26 8 87 9 27 10 86 11 28 12 29 13
REMARK SMILES IDX 30 14 80 15 31 16 85 17 79 18 81 19 32 20 84 21 78 22 77 23
REMARK SMILES IDX 33 25 65 26 45 27 64 28 46 29 49 30 63 31 82 32 47 33 48 34
REMARK SMILES IDX 62 36 83 37 50 38 34 39 35 40 43 41 36 42 42 43 44 44 41 45
REMARK SMILES IDX 37 46 38 47 39 48 40 49 66 50 67 51 75 52 68 53 74 54 76 55
REMARK SMILES IDX 73 56 69 57 70 58 71 59 72 60 51 61 52 62 60 63 53 64 59 65
REMARK SMILES IDX 61 66 58 67 54 68 55 69 56 70 57 71 6 72 7 73 8 74 9 76
REMARK SMILES IDX 10 77 11 78 12 81 13 82 14 83 15 84 16 85 17 86 24 87 18 88
REMARK SMILES IDX 20 89 19 90 21 91 22 92 23 93
REMARK H PARENT 3 6 81 24 49 35 7 75 11 79 11 80
REMARK Flexibility Score: inf
ROOT
ATOM      1  C   UNL A   1      31.488  32.125  26.645  1.00  0.00     0.042 C 
ENDROOT
BRANCH   1   2
ATOM      2  C   UNL A   1      32.800  32.727  27.113  1.00  0.00     0.118 C 
BRANCH   2   3
ATOM      3  N   UNL A   1      32.636  34.036  27.734  1.00  0.00    -0.352 N 
ATOM      4  O   UNL A   1      32.836  35.645  29.295  1.00  0.00    -0.269 OA
ATOM      5  C   UNL A   1      33.263  34.598  28.824  1.00  0.00     0.251 C 
ATOM      6  H   UNL A   1      31.965  34.614  27.304  1.00  0.00     0.163 HD
BRANCH   5   7
ATOM      7  C   UNL A   1      34.432  33.928  29.439  1.00  0.00     0.039 A 
ATOM      8  C   UNL A   1      34.260  32.820  30.264  1.00  0.00     0.014 A 
ATOM      9  C   UNL A   1      35.721  34.401  29.173  1.00  0.00     0.014 A 
ATOM     10  C   UNL A   1      35.333  32.322  30.987  1.00  0.00     0.010 A 
ATOM     11  C   UNL A   1      36.824  33.802  29.795  1.00  0.00     0.010 A 
ATOM     12  C   UNL A   1      36.636  32.780  30.736  1.00  0.00    -0.014 A 
BRANCH  12  13
ATOM     13  C   UNL A   1      37.771  32.109  31.423  1.00  0.00     0.031 A 
ATOM     14  C   UNL A   1      38.576  31.039  30.741  1.00  0.00     0.074 A 
ATOM     15  C   UNL A   1      38.099  32.521  32.666  1.00  0.00     0.049 A 
ATOM     16  N   UNL A   1      39.596  30.359  31.199  1.00  0.00    -0.248 NA
ATOM     17  C   UNL A   1      38.181  30.676  29.372  1.00  0.00     0.031 C 
ATOM     18  C   UNL A   1      37.383  33.553  33.424  1.00  0.00     0.029 A 
ATOM     19  N   UNL A   1      39.122  32.156  33.499  1.00  0.00    -0.354 N 
ATOM     20  C   UNL A   1      39.950  29.469  30.189  1.00  0.00     0.074 A 
ATOM     21  C   UNL A   1      39.016  29.680  29.104  1.00  0.00     0.031 C 
ATOM     22  C   UNL A   1      38.030  33.787  34.573  1.00  0.00     0.029 A 
ATOM     23  C   UNL A   1      39.144  32.857  34.682  1.00  0.00     0.049 A 
ATOM     24  H   UNL A   1      39.780  31.459  33.273  1.00  0.00     0.167 HD
ATOM     25  C   UNL A   1      40.964  28.568  30.174  1.00  0.00     0.034 A 
ATOM     26  C   UNL A   1      39.949  32.746  35.756  1.00  0.00     0.034 A 
ATOM     27  C   UNL A   1      41.891  28.384  31.268  1.00  0.00     0.049 A 
ATOM     28  C   UNL A   1      41.039  31.714  35.726  1.00  0.00     0.074 A 
ATOM     29  C   UNL A   1      42.967  27.517  31.351  1.00  0.00     0.029 A 
ATOM     30  N   UNL A   1      41.848  29.075  32.475  1.00  0.00    -0.354 N 
ATOM     31  N   UNL A   1      41.355  30.877  34.764  1.00  0.00    -0.248 NA
ATOM     32  C   UNL A   1      41.876  31.606  36.924  1.00  0.00     0.031 C 
ATOM     33  C   UNL A   1      43.533  27.636  32.627  1.00  0.00     0.029 A 
ATOM     34  C   UNL A   1      42.859  28.631  33.316  1.00  0.00     0.049 A 
ATOM     35  H   UNL A   1      41.195  29.777  32.699  1.00  0.00     0.167 HD
ATOM     36  C   UNL A   1      42.439  30.149  35.240  1.00  0.00     0.074 A 
ATOM     37  C   UNL A   1      42.737  30.666  36.562  1.00  0.00     0.031 C 
ATOM     38  C   UNL A   1      43.125  29.143  34.641  1.00  0.00     0.034 A 
BRANCH  25  39
ATOM     39  C   UNL A   1      41.088  27.676  28.959  1.00  0.00     0.023 A 
ATOM     40  C   UNL A   1      42.085  27.871  27.989  1.00  0.00     0.031 A 
ATOM     41  C   UNL A   1      40.177  26.621  28.761  1.00  0.00     0.131 A 
ATOM     42  C   UNL A   1      42.108  27.070  26.834  1.00  0.00     0.055 A 
ATOM     43  C   UNL A   1      40.252  25.779  27.649  1.00  0.00     0.041 A 
ATOM     44  F   UNL A   1      39.190  26.396  29.643  1.00  0.00    -0.206 F 
ATOM     45  C   UNL A   1      41.213  26.010  26.670  1.00  0.00     0.022 A 
BRANCH  42  46
ATOM     46  S   UNL A   1      43.237  27.519  25.487  1.00  0.00     0.124 S 
ATOM     47  O   UNL A   1      42.341  28.220  24.570  1.00  0.00    -0.237 OA
ATOM     48  O   UNL A   1      44.228  28.345  26.167  1.00  0.00    -0.237 OA
ATOM     49  O   UNL A   1      43.724  26.229  25.003  1.00  0.00    -0.744 OA
ENDBRANCH  42  46
ENDBRANCH  25  39
BRANCH  26  50
ATOM     50  C   UNL A   1      39.717  33.598  36.956  1.00  0.00     0.023 A 
ATOM     51  C   UNL A   1      39.144  33.071  38.122  1.00  0.00     0.031 A 
ATOM     52  C   UNL A   1      40.058  34.964  36.946  1.00  0.00     0.131 A 
ATOM     53  C   UNL A   1      38.898  33.911  39.220  1.00  0.00     0.055 A 
ATOM     54  C   UNL A   1      39.865  35.782  38.059  1.00  0.00     0.041 A 
ATOM     55  F   UNL A   1      40.614  35.518  35.857  1.00  0.00    -0.206 F 
ATOM     56  C   UNL A   1      39.270  35.258  39.201  1.00  0.00     0.022 A 
BRANCH  53  57
ATOM     57  S   UNL A   1      38.013  33.235  40.650  1.00  0.00     0.124 S 
ATOM     58  O   UNL A   1      36.661  33.091  40.123  1.00  0.00    -0.237 OA
ATOM     59  O   UNL A   1      38.741  31.995  40.897  1.00  0.00    -0.237 OA
ATOM     60  O   UNL A   1      38.179  34.267  41.671  1.00  0.00    -0.744 OA
ENDBRANCH  53  57
ENDBRANCH  26  50
BRANCH  38  61
ATOM     61  C   UNL A   1      44.283  28.566  35.415  1.00  0.00     0.023 A 
ATOM     62  C   UNL A   1      44.107  27.513  36.328  1.00  0.00     0.031 A 
ATOM     63  C   UNL A   1      45.573  29.104  35.262  1.00  0.00     0.131 A 
ATOM     64  C   UNL A   1      45.191  27.070  37.100  1.00  0.00     0.055 A 
ATOM     65  C   UNL A   1      46.661  28.619  35.989  1.00  0.00     0.041 A 
ATOM     66  F   UNL A   1      45.795  30.115  34.407  1.00  0.00    -0.206 F 
ATOM     67  C   UNL A   1      46.470  27.606  36.925  1.00  0.00     0.022 A 
BRANCH  64  68
ATOM     68  S   UNL A   1      44.887  25.852  38.410  1.00  0.00     0.124 S 
ATOM     69  O   UNL A   1      46.213  25.707  39.001  1.00  0.00    -0.237 OA
ATOM     70  O   UNL A   1      43.890  26.525  39.236  1.00  0.00    -0.237 OA
ATOM     71  O   UNL A   1      44.400  24.681  37.683  1.00  0.00    -0.744 OA
ENDBRANCH  64  68
ENDBRANCH  38  61
ENDBRANCH  12  13
ENDBRANCH   5   7
ENDBRANCH   2   3
ENDBRANCH   1   2
BRANCH   1  72
ATOM     72  C   UNL A   1      31.560  30.629  26.407  1.00  0.00     0.118 C 
BRANCH  72  73
ATOM     73  N   UNL A   1      32.829  30.052  26.801  1.00  0.00    -0.351 N 
ATOM     74  C   UNL A   1      33.480  28.971  26.283  1.00  0.00     0.283 C 
ATOM     75  H   UNL A   1      33.286  30.503  27.546  1.00  0.00     0.163 HD
ATOM     76  O   UNL A   1      34.597  28.712  26.751  1.00  0.00    -0.268 OA
BRANCH  74  77
ATOM     77  C   UNL A   1      32.866  28.083  25.170  1.00  0.00     0.303 C 
BRANCH  77  78
ATOM     78  N   UNL A   1      33.308  28.544  23.838  1.00  0.00    -0.332 N 
ATOM     79  H   UNL A   1      33.954  27.849  23.463  1.00  0.00     0.347 HD
ATOM     80  H   UNL A   1      33.731  29.461  23.986  1.00  0.00     0.347 HD
BRANCH  78  81
ATOM     81  C   UNL A   1      32.247  28.746  22.860  1.00  0.00     0.264 C 
BRANCH  81  82
ATOM     82  C   UNL A   1      30.839  28.885  23.359  1.00  0.00     0.044 C 
ATOM     83  C   UNL A   1      29.675  28.951  22.398  1.00  0.00     0.010 C 
ATOM     84  C   UNL A   1      29.783  27.803  23.364  1.00  0.00     0.010 C 
ENDBRANCH  81  82
ENDBRANCH  78  81
ENDBRANCH  77  78
BRANCH  77  85
ATOM     85  C   UNL A   1      33.012  26.596  25.466  1.00  0.00     0.019 A 
ATOM     86  C   UNL A   1      32.153  25.871  26.302  1.00  0.00     0.010 A 
ATOM     87  C   UNL A   1      34.105  25.915  24.898  1.00  0.00     0.014 A 
ATOM     88  C   UNL A   1      32.360  24.517  26.540  1.00  0.00     0.001 A 
ATOM     89  C   UNL A   1      34.394  24.575  25.196  1.00  0.00    -0.044 A 
ATOM     90  C   UNL A   1      33.476  23.881  25.999  1.00  0.00     0.004 A 
BRANCH  89  91
ATOM     91  C   UNL A   1      35.663  23.896  24.740  1.00  0.00     0.019 C 
ATOM     92  C   UNL A   1      35.801  22.396  24.612  1.00  0.00     0.009 C 
ATOM     93  C   UNL A   1      35.624  23.228  23.379  1.00  0.00     0.009 C 
ENDBRANCH  89  91
ENDBRANCH  77  85
ENDBRANCH  74  77
ENDBRANCH  72  73
ENDBRANCH   1  72
TORSDOF 18
ENDMDL
MODEL 2
REMARK VINA RESULT:     -10.9      1.304      8.029
REMARK SMILES O=C(NCCCNC(=O)[C@@H]([NH2+]CC1CC1)c1cccc(C2CC2)c1)c1ccc(-c2c3nc(c(-c4cc(S(=O)(=O)[O-])ccc4F)c4ccc([nH]4)c(-c4cc(S(=O)(=O)[O-])ccc4F)c4nc(c(-c5cc(S(=O)(=O)[O-])ccc5F)c5ccc2[nH]5)C=C4)C=C3)cc1
REMARK SMILES IDX 5 1 4 2 3 3 1 4 2 5 25 7 26 8 87 9 27 10 86 11 28 12 29 13
REMARK SMILES IDX 30 14 80 15 31 16 85 17 79 18 81 19 32 20 84 21 78 22 77 23
REMARK SMILES IDX 33 25 65 26 45 27 64 28 46 29 49 30 63 31 82 32 47 33 48 34
REMARK SMILES IDX 62 36 83 37 50 38 34 39 35 40 43 41 36 42 42 43 44 44 41 45
REMARK SMILES IDX 37 46 38 47 39 48 40 49 66 50 67 51 75 52 68 53 74 54 76 55
REMARK SMILES IDX 73 56 69 57 70 58 71 59 72 60 51 61 52 62 60 63 53 64 59 65
REMARK SMILES IDX 61 66 58 67 54 68 55 69 56 70 57 71 6 72 7 73 8 74 9 76
REMARK SMILES IDX 10 77 11 78 12 81 13 82 14 83 15 84 16 85 17 86 24 87 18 88
REMARK SMILES IDX 20 89 19 90 21 91 22 92 23 93
REMARK H PARENT 3 6 81 24 49 35 7 75 11 79 11 80
REMARK Flexibility Score: inf
ROOT
ATOM      1  C   UNL A   1      31.495  31.984  26.412  1.00  0.00     0.042 C 
ENDROOT
BRANCH   1   2
ATOM      2  C   UNL A   1      32.729  32.459  27.155  1.00  0.00     0.118 C 
BRANCH   2   3
ATOM      3  N   UNL A   1      32.586  33.808  27.691  1.00  0.00    -0.352 N 
ATOM      4  O   UNL A   1      32.849  35.522  29.125  1.00  0.00    -0.269 OA
ATOM      5  C   UNL A   1      33.260  34.447  28.709  1.00  0.00     0.251 C 
ATOM      6  H   UNL A   1      31.891  34.353  27.255  1.00  0.00     0.163 HD
BRANCH   5   7
ATOM      7  C   UNL A   1      34.461  33.826  29.312  1.00  0.00     0.039 A 
ATOM      8  C   UNL A   1      34.342  32.719  30.148  1.00  0.00     0.014 A 
ATOM      9  C   UNL A   1      35.728  34.343  29.024  1.00  0.00     0.014 A 
ATOM     10  C   UNL A   1      35.442  32.267  30.860  1.00  0.00     0.010 A 
ATOM     11  C   UNL A   1      36.861  33.790  29.634  1.00  0.00     0.010 A 
ATOM     12  C   UNL A   1      36.723  32.769  30.587  1.00  0.00    -0.014 A 
BRANCH  12  13
ATOM     13  C   UNL A   1      37.891  32.147  31.263  1.00  0.00     0.031 A 
ATOM     14  C   UNL A   1      38.309  32.565  32.646  1.00  0.00     0.074 A 
ATOM     15  C   UNL A   1      38.545  31.153  30.625  1.00  0.00     0.049 A 
ATOM     16  N   UNL A   1      39.301  32.120  33.375  1.00  0.00    -0.248 NA
ATOM     17  C   UNL A   1      37.521  33.626  33.290  1.00  0.00     0.031 C 
ATOM     18  C   UNL A   1      38.223  30.668  29.279  1.00  0.00     0.029 A 
ATOM     19  N   UNL A   1      39.583  30.353  31.021  1.00  0.00    -0.354 N 
ATOM     20  C   UNL A   1      39.275  32.862  34.552  1.00  0.00     0.074 A 
ATOM     21  C   UNL A   1      38.184  33.805  34.425  1.00  0.00     0.031 C 
ATOM     22  C   UNL A   1      38.997  29.612  28.992  1.00  0.00     0.029 A 
ATOM     23  C   UNL A   1      39.935  29.407  30.087  1.00  0.00     0.049 A 
ATOM     24  H   UNL A   1      40.035  30.446  31.891  1.00  0.00     0.167 HD
ATOM     25  C   UNL A   1      40.086  32.758  35.635  1.00  0.00     0.034 A 
ATOM     26  C   UNL A   1      40.924  28.493  30.089  1.00  0.00     0.034 A 
ATOM     27  C   UNL A   1      41.163  31.800  35.742  1.00  0.00     0.049 A 
ATOM     28  C   UNL A   1      41.829  28.426  31.285  1.00  0.00     0.074 A 
ATOM     29  C   UNL A   1      42.032  31.591  36.799  1.00  0.00     0.029 A 
ATOM     30  N   UNL A   1      41.525  30.893  34.751  1.00  0.00    -0.354 N 
ATOM     31  N   UNL A   1      41.793  29.139  32.387  1.00  0.00    -0.248 NA
ATOM     32  C   UNL A   1      42.909  27.436  31.238  1.00  0.00     0.031 C 
ATOM     33  C   UNL A   1      42.956  30.608  36.424  1.00  0.00     0.029 A 
ATOM     34  C   UNL A   1      42.622  30.147  35.162  1.00  0.00     0.049 A 
ATOM     35  H   UNL A   1      41.070  30.795  33.883  1.00  0.00     0.167 HD
ATOM     36  C   UNL A   1      42.843  28.676  33.171  1.00  0.00     0.074 A 
ATOM     37  C   UNL A   1      43.473  27.603  32.425  1.00  0.00     0.031 C 
ATOM     38  C   UNL A   1      43.251  29.098  34.394  1.00  0.00     0.034 A 
BRANCH  25  39
ATOM     39  C   UNL A   1      39.873  33.740  36.765  1.00  0.00     0.023 A 
ATOM     40  C   UNL A   1      39.353  33.343  38.009  1.00  0.00     0.031 A 
ATOM     41  C   UNL A   1      40.178  35.101  36.585  1.00  0.00     0.131 A 
ATOM     42  C   UNL A   1      39.092  34.305  39.000  1.00  0.00     0.055 A 
ATOM     43  C   UNL A   1      39.989  36.041  37.601  1.00  0.00     0.041 A 
ATOM     44  F   UNL A   1      40.659  35.545  35.413  1.00  0.00    -0.206 F 
ATOM     45  C   UNL A   1      39.429  35.648  38.812  1.00  0.00     0.022 A 
BRANCH  42  46
ATOM     46  S   UNL A   1      38.181  33.799  40.485  1.00  0.00     0.124 S 
ATOM     47  O   UNL A   1      39.126  32.878  41.113  1.00  0.00    -0.237 OA
ATOM     48  O   UNL A   1      37.972  35.067  41.174  1.00  0.00    -0.237 OA
ATOM     49  O   UNL A   1      36.974  33.172  39.951  1.00  0.00    -0.744 OA
ENDBRANCH  42  46
ENDBRANCH  25  39
BRANCH  26  50
ATOM     50  C   UNL A   1      41.133  27.614  28.905  1.00  0.00     0.023 A 
ATOM     51  C   UNL A   1      42.105  27.913  27.940  1.00  0.00     0.031 A 
ATOM     52  C   UNL A   1      40.348  26.461  28.716  1.00  0.00     0.131 A 
ATOM     53  C   UNL A   1      42.246  27.088  26.812  1.00  0.00     0.055 A 
ATOM     54  C   UNL A   1      40.530  25.612  27.625  1.00  0.00     0.041 A 
ATOM     55  F   UNL A   1      39.405  26.125  29.612  1.00  0.00    -0.206 F 
ATOM     56  C   UNL A   1      41.477  25.932  26.657  1.00  0.00     0.022 A 
BRANCH  53  57
ATOM     57  S   UNL A   1      43.401  27.589  25.509  1.00  0.00     0.124 S 
ATOM     58  O   UNL A   1      44.103  26.341  25.234  1.00  0.00    -0.237 OA
ATOM     59  O   UNL A   1      42.495  28.059  24.466  1.00  0.00    -0.237 OA
ATOM     60  O   UNL A   1      44.205  28.629  26.148  1.00  0.00    -0.744 OA
ENDBRANCH  53  57
ENDBRANCH  26  50
BRANCH  38  61
ATOM     61  C   UNL A   1      44.420  28.365  35.001  1.00  0.00     0.023 A 
ATOM     62  C   UNL A   1      44.237  27.240  35.824  1.00  0.00     0.031 A 
ATOM     63  C   UNL A   1      45.732  28.821  34.782  1.00  0.00     0.131 A 
ATOM     64  C   UNL A   1      45.343  26.646  36.449  1.00  0.00     0.055 A 
ATOM     65  C   UNL A   1      46.834  28.188  35.357  1.00  0.00     0.041 A 
ATOM     66  F   UNL A   1      45.962  29.893  34.008  1.00  0.00    -0.206 F 
ATOM     67  C   UNL A   1      46.642  27.103  36.208  1.00  0.00     0.022 A 
BRANCH  64  68
ATOM     68  S   UNL A   1      45.054  25.327  37.662  1.00  0.00     0.124 S 
ATOM     69  O   UNL A   1      46.388  25.132  38.220  1.00  0.00    -0.237 OA
ATOM     70  O   UNL A   1      44.072  25.934  38.553  1.00  0.00    -0.237 OA
ATOM     71  O   UNL A   1      44.553  24.220  36.850  1.00  0.00    -0.744 OA
ENDBRANCH  64  68
ENDBRANCH  38  61
ENDBRANCH  12  13
ENDBRANCH   5   7
ENDBRANCH   2   3
ENDBRANCH   1   2
BRANCH   1  72
ATOM     72  C   UNL A   1      31.489  30.492  26.141  1.00  0.00     0.118 C 
BRANCH  72  73
ATOM     73  N   UNL A   1      32.557  30.071  25.258  1.00  0.00    -0.351 N 
ATOM     74  C   UNL A   1      32.491  29.307  24.129  1.00  0.00     0.283 C 
ATOM     75  H   UNL A   1      33.459  30.379  25.507  1.00  0.00     0.163 HD
ATOM     76  O   UNL A   1      33.545  29.140  23.503  1.00  0.00    -0.268 OA
BRANCH  74  77
ATOM     77  C   UNL A   1      31.170  28.658  23.640  1.00  0.00     0.303 C 
BRANCH  77  78
ATOM     78  N   UNL A   1      30.669  29.350  22.436  1.00  0.00    -0.332 N 
ATOM     79  H   UNL A   1      30.752  28.708  21.647  1.00  0.00     0.347 HD
ATOM     80  H   UNL A   1      31.235  30.193  22.342  1.00  0.00     0.347 HD
BRANCH  78  81
ATOM     81  C   UNL A   1      29.285  29.803  22.503  1.00  0.00     0.264 C 
BRANCH  81  82
ATOM     82  C   UNL A   1      28.956  30.946  23.417  1.00  0.00     0.044 C 
ATOM     83  C   UNL A   1      28.785  32.348  22.880  1.00  0.00     0.010 C 
ATOM     84  C   UNL A   1      27.622  31.647  23.526  1.00  0.00     0.010 C 
ENDBRANCH  81  82
ENDBRANCH  78  81
ENDBRANCH  77  78
BRANCH  77  85
ATOM     85  C   UNL A   1      31.260  27.138  23.574  1.00  0.00     0.019 A 
ATOM     86  C   UNL A   1      31.551  26.417  22.408  1.00  0.00     0.010 A 
ATOM     87  C   UNL A   1      30.992  26.411  24.748  1.00  0.00     0.014 A 
ATOM     88  C   UNL A   1      31.598  25.027  22.421  1.00  0.00     0.001 A 
ATOM     89  C   UNL A   1      30.938  25.009  24.768  1.00  0.00    -0.044 A 
ATOM     90  C   UNL A   1      31.285  24.334  23.588  1.00  0.00     0.004 A 
BRANCH  89  91
ATOM     91  C   UNL A   1      30.469  24.230  25.974  1.00  0.00     0.019 C 
ATOM     92  C   UNL A   1      30.649  22.736  26.117  1.00  0.00     0.009 C 
ATOM     93  C   UNL A   1      31.548  23.663  26.876  1.00  0.00     0.009 C 
ENDBRANCH  89  91
ENDBRANCH  77  85
ENDBRANCH  74  77
ENDBRANCH  72  73
ENDBRANCH   1  72
TORSDOF 18
ENDMDL
MODEL 3
REMARK VINA RESULT:     -10.8      5.456      8.803
REMARK SMILES O=C(NCCCNC(=O)[C@@H]([NH2+]CC1CC1)c1cccc(C2CC2)c1)c1ccc(-c2c3nc(c(-c4cc(S(=O)(=O)[O-])ccc4F)c4ccc([nH]4)c(-c4cc(S(=O)(=O)[O-])ccc4F)c4nc(c(-c5cc(S(=O)(=O)[O-])ccc5F)c5ccc2[nH]5)C=C4)C=C3)cc1
REMARK SMILES IDX 5 1 4 2 3 3 1 4 2 5 25 7 26 8 87 9 27 10 86 11 28 12 29 13
REMARK SMILES IDX 30 14 80 15 31 16 85 17 79 18 81 19 32 20 84 21 78 22 77 23
REMARK SMILES IDX 33 25 65 26 45 27 64 28 46 29 49 30 63 31 82 32 47 33 48 34
REMARK SMILES IDX 62 36 83 37 50 38 34 39 35 40 43 41 36 42 42 43 44 44 41 45
REMARK SMILES IDX 37 46 38 47 39 48 40 49 66 50 67 51 75 52 68 53 74 54 76 55
REMARK SMILES IDX 73 56 69 57 70 58 71 59 72 60 51 61 52 62 60 63 53 64 59 65
REMARK SMILES IDX 61 66 58 67 54 68 55 69 56 70 57 71 6 72 7 73 8 74 9 76
REMARK SMILES IDX 10 77 11 78 12 81 13 82 14 83 15 84 16 85 17 86 24 87 18 88
REMARK SMILES IDX 20 89 19 90 21 91 22 92 23 93
REMARK H PARENT 3 6 81 24 49 35 7 75 11 79 11 80
REMARK Flexibility Score: inf
ROOT
ATOM      1  C   UNL A   1      36.043  22.626  25.238  1.00  0.00     0.042 C 
ENDROOT
BRANCH   1   2
ATOM      2  C   UNL A   1      37.312  23.259  25.777  1.00  0.00     0.118 C 
BRANCH   2   3
ATOM      3  N   UNL A   1      38.344  22.279  26.097  1.00  0.00    -0.352 N 
ATOM      4  O   UNL A   1      40.397  21.490  26.573  1.00  0.00    -0.269 OA
ATOM      5  C   UNL A   1      39.634  22.448  26.550  1.00  0.00     0.251 C 
ATOM      6  H   UNL A   1      38.075  21.341  25.967  1.00  0.00     0.163 HD
BRANCH   5   7
ATOM      7  C   UNL A   1      40.102  23.784  26.984  1.00  0.00     0.039 A 
ATOM      8  C   UNL A   1      40.637  23.968  28.257  1.00  0.00     0.014 A 
ATOM      9  C   UNL A   1      40.024  24.866  26.102  1.00  0.00     0.014 A 
ATOM     10  C   UNL A   1      40.889  25.248  28.723  1.00  0.00     0.010 A 
ATOM     11  C   UNL A   1      40.418  26.141  26.528  1.00  0.00     0.010 A 
ATOM     12  C   UNL A   1      40.820  26.350  27.856  1.00  0.00    -0.014 A 
BRANCH  12  13
ATOM     13  C   UNL A   1      41.249  27.681  28.359  1.00  0.00     0.031 A 
ATOM     14  C   UNL A   1      42.691  28.103  28.325  1.00  0.00     0.074 A 
ATOM     15  C   UNL A   1      40.301  28.531  28.806  1.00  0.00     0.049 A 
ATOM     16  N   UNL A   1      43.229  29.228  28.722  1.00  0.00    -0.248 NA
ATOM     17  C   UNL A   1      43.658  27.135  27.786  1.00  0.00     0.031 C 
ATOM     18  C   UNL A   1      38.868  28.223  28.884  1.00  0.00     0.029 A 
ATOM     19  N   UNL A   1      40.380  29.825  29.245  1.00  0.00    -0.354 N 
ATOM     20  C   UNL A   1      44.598  29.097  28.508  1.00  0.00     0.074 A 
ATOM     21  C   UNL A   1      44.808  27.769  27.970  1.00  0.00     0.031 C 
ATOM     22  C   UNL A   1      38.201  29.318  29.272  1.00  0.00     0.029 A 
ATOM     23  C   UNL A   1      39.160  30.372  29.568  1.00  0.00     0.049 A 
ATOM     24  H   UNL A   1      41.229  30.318  29.322  1.00  0.00     0.167 HD
ATOM     25  C   UNL A   1      45.580  30.005  28.736  1.00  0.00     0.034 A 
ATOM     26  C   UNL A   1      38.844  31.578  30.078  1.00  0.00     0.034 A 
ATOM     27  C   UNL A   1      45.341  31.329  29.264  1.00  0.00     0.049 A 
ATOM     28  C   UNL A   1      39.956  32.549  30.355  1.00  0.00     0.074 A 
ATOM     29  C   UNL A   1      46.257  32.337  29.514  1.00  0.00     0.029 A 
ATOM     30  N   UNL A   1      44.096  31.829  29.632  1.00  0.00    -0.354 N 
ATOM     31  N   UNL A   1      41.245  32.405  30.152  1.00  0.00    -0.248 NA
ATOM     32  C   UNL A   1      39.572  33.839  30.935  1.00  0.00     0.031 C 
ATOM     33  C   UNL A   1      45.579  33.417  30.091  1.00  0.00     0.029 A 
ATOM     34  C   UNL A   1      44.227  33.117  30.134  1.00  0.00     0.049 A 
ATOM     35  H   UNL A   1      43.246  31.340  29.549  1.00  0.00     0.167 HD
ATOM     36  C   UNL A   1      41.827  33.595  30.570  1.00  0.00     0.074 A 
ATOM     37  C   UNL A   1      40.743  34.453  31.010  1.00  0.00     0.031 C 
ATOM     38  C   UNL A   1      43.137  33.948  30.591  1.00  0.00     0.034 A 
BRANCH  25  39
ATOM     39  C   UNL A   1      47.004  29.576  28.467  1.00  0.00     0.023 A 
ATOM     40  C   UNL A   1      47.802  28.976  29.456  1.00  0.00     0.031 A 
ATOM     41  C   UNL A   1      47.579  29.789  27.201  1.00  0.00     0.131 A 
ATOM     42  C   UNL A   1      49.147  28.672  29.185  1.00  0.00     0.055 A 
ATOM     43  C   UNL A   1      48.894  29.413  26.914  1.00  0.00     0.041 A 
ATOM     44  F   UNL A   1      46.875  30.375  26.220  1.00  0.00    -0.206 F 
ATOM     45  C   UNL A   1      49.691  28.865  27.913  1.00  0.00     0.022 A 
BRANCH  42  46
ATOM     46  S   UNL A   1      50.214  28.148  30.556  1.00  0.00     0.124 S 
ATOM     47  O   UNL A   1      49.233  27.852  31.598  1.00  0.00    -0.237 OA
ATOM     48  O   UNL A   1      50.912  26.999  29.991  1.00  0.00    -0.237 OA
ATOM     49  O   UNL A   1      51.046  29.321  30.812  1.00  0.00    -0.744 OA
ENDBRANCH  42  46
ENDBRANCH  25  39
BRANCH  26  50
ATOM     50  C   UNL A   1      37.427  31.905  30.401  1.00  0.00     0.023 A 
ATOM     51  C   UNL A   1      36.534  32.331  29.408  1.00  0.00     0.031 A 
ATOM     52  C   UNL A   1      36.948  31.806  31.721  1.00  0.00     0.131 A 
ATOM     53  C   UNL A   1      35.217  32.674  29.754  1.00  0.00     0.055 A 
ATOM     54  C   UNL A   1      35.624  32.092  32.051  1.00  0.00     0.041 A 
ATOM     55  F   UNL A   1      37.760  31.398  32.710  1.00  0.00    -0.206 F 
ATOM     56  C   UNL A   1      34.752  32.541  31.065  1.00  0.00     0.022 A 
BRANCH  53  57
ATOM     57  S   UNL A   1      34.137  33.370  28.476  1.00  0.00     0.124 S 
ATOM     58  O   UNL A   1      33.289  34.265  29.256  1.00  0.00    -0.237 OA
ATOM     59  O   UNL A   1      35.097  34.012  27.584  1.00  0.00    -0.237 OA
ATOM     60  O   UNL A   1      33.463  32.196  27.923  1.00  0.00    -0.744 OA
ENDBRANCH  53  57
ENDBRANCH  26  50
BRANCH  38  61
ATOM     61  C   UNL A   1      43.450  35.338  31.082  1.00  0.00     0.023 A 
ATOM     62  C   UNL A   1      43.557  36.426  30.198  1.00  0.00     0.031 A 
ATOM     63  C   UNL A   1      43.680  35.569  32.450  1.00  0.00     0.131 A 
ATOM     64  C   UNL A   1      43.946  37.683  30.683  1.00  0.00     0.055 A 
ATOM     65  C   UNL A   1      44.007  36.836  32.935  1.00  0.00     0.041 A 
ATOM     66  F   UNL A   1      43.595  34.565  33.336  1.00  0.00    -0.206 F 
ATOM     67  C   UNL A   1      44.156  37.898  32.047  1.00  0.00     0.022 A 
BRANCH  64  68
ATOM     68  S   UNL A   1      44.272  39.012  29.492  1.00  0.00     0.124 S 
ATOM     69  O   UNL A   1      44.370  40.180  30.362  1.00  0.00    -0.237 OA
ATOM     70  O   UNL A   1      45.516  38.574  28.869  1.00  0.00    -0.237 OA
ATOM     71  O   UNL A   1      43.100  38.985  28.619  1.00  0.00    -0.744 OA
ENDBRANCH  64  68
ENDBRANCH  38  61
ENDBRANCH  12  13
ENDBRANCH   5   7
ENDBRANCH   2   3
ENDBRANCH   1   2
BRANCH   1  72
ATOM     72  C   UNL A   1      35.551  21.456  26.067  1.00  0.00     0.118 C 
BRANCH  72  73
ATOM     73  N   UNL A   1      34.826  21.866  27.254  1.00  0.00    -0.351 N 
ATOM     74  C   UNL A   1      33.563  22.370  27.360  1.00  0.00     0.283 C 
ATOM     75  H   UNL A   1      35.313  21.766  28.103  1.00  0.00     0.163 HD
ATOM     76  O   UNL A   1      33.138  22.582  28.502  1.00  0.00    -0.268 OA
BRANCH  74  77
ATOM     77  C   UNL A   1      32.685  22.683  26.120  1.00  0.00     0.303 C 
BRANCH  77  78
ATOM     78  N   UNL A   1      31.687  21.614  25.910  1.00  0.00    -0.332 N 
ATOM     79  H   UNL A   1      30.796  22.056  25.684  1.00  0.00     0.347 HD
ATOM     80  H   UNL A   1      31.670  21.073  26.776  1.00  0.00     0.347 HD
BRANCH  78  81
ATOM     81  C   UNL A   1      32.000  20.664  24.851  1.00  0.00     0.264 C 
BRANCH  81  82
ATOM     82  C   UNL A   1      32.638  21.184  23.597  1.00  0.00     0.044 C 
ATOM     83  C   UNL A   1      32.037  20.898  22.240  1.00  0.00     0.010 C 
ATOM     84  C   UNL A   1      32.124  22.315  22.736  1.00  0.00     0.010 C 
ENDBRANCH  81  82
ENDBRANCH  78  81
ENDBRANCH  77  78
BRANCH  77  85
ATOM     85  C   UNL A   1      32.167  24.116  26.122  1.00  0.00     0.019 A 
ATOM     86  C   UNL A   1      30.813  24.464  26.045  1.00  0.00     0.010 A 
ATOM     87  C   UNL A   1      33.113  25.157  26.160  1.00  0.00     0.014 A 
ATOM     88  C   UNL A   1      30.417  25.798  26.034  1.00  0.00     0.001 A 
ATOM     89  C   UNL A   1      32.750  26.508  26.053  1.00  0.00    -0.044 A 
ATOM     90  C   UNL A   1      31.378  26.806  26.028  1.00  0.00     0.004 A 
BRANCH  89  91
ATOM     91  C   UNL A   1      33.766  27.615  25.905  1.00  0.00     0.019 C 
ATOM     92  C   UNL A   1      33.394  29.078  25.834  1.00  0.00     0.009 C 
ATOM     93  C   UNL A   1      33.959  28.523  27.105  1.00  0.00     0.009 C 
ENDBRANCH  89  91
ENDBRANCH  77  85
ENDBRANCH  74  77
ENDBRANCH  72  73
ENDBRANCH   1  72
TORSDOF 18
ENDMDL
