MODEL 1
REMARK VINA RESULT:     -12.3      0.000      0.000
REMARK SMILES C[C@H](O)[C@@H](NC(=O)c1ccc(Cl)c(S(C)(=O)=O)c1)C(=O)NCCCNC(=O)c1ccc(-c2c3nc(c(-c4cc(S(=O)(=O)[O-])ccc4F)c4ccc([nH]4)c(-c4cc(S(=O)(=O)[O-])ccc4F)c4nc(c(-c5cc(S(=O)(=O)[O-])ccc5F)c5ccc2[nH]5)C=C4)C=C3)cc1
REMARK SMILES IDX 23 1 22 2 21 3 19 4 20 5 4 7 2 8 1 9 3 10 5 12 6 13 7 15
REMARK SMILES IDX 8 16 9 17 18 18 10 19 13 20 11 21 12 22 14 23 15 24 16 25
REMARK SMILES IDX 17 26 24 27 25 28 26 29 27 31 28 32 29 33 90 34 30 35 89 36
REMARK SMILES IDX 31 37 32 38 33 39 83 40 34 41 88 42 82 43 84 44 35 45 87 46
REMARK SMILES IDX 81 47 80 48 36 50 68 51 48 52 67 53 49 54 52 55 66 56 85 57
REMARK SMILES IDX 50 58 51 59 65 61 86 62 53 63 37 64 38 65 46 66 39 67 45 68
REMARK SMILES IDX 47 69 44 70 40 71 41 72 42 73 43 74 69 75 70 76 78 77 71 78
REMARK SMILES IDX 77 79 79 80 76 81 72 82 73 83 74 84 75 85 54 86 55 87 63 88
REMARK SMILES IDX 56 89 62 90 64 91 61 92 57 93 58 94 59 95 60 96
REMARK H PARENT 21 6 3 11 5 14 25 30 84 49 52 60
REMARK Flexibility Score: inf
ROOT
ATOM      1  C   UNL A   1      36.251  20.880  25.349  1.00  0.00     0.042 C 
ENDROOT
BRANCH   1   2
ATOM      2  C   UNL A   1      35.397  22.110  25.599  1.00  0.00     0.117 C 
BRANCH   2   3
ATOM      3  N   UNL A   1      35.083  22.797  24.360  1.00  0.00    -0.354 N 
ATOM      4  C   UNL A   1      33.892  22.938  23.720  1.00  0.00     0.245 C 
ATOM      5  O   UNL A   1      33.891  23.504  22.623  1.00  0.00    -0.273 OA
ATOM      6  H   UNL A   1      35.848  23.228  23.915  1.00  0.00     0.163 HD
BRANCH   4   7
ATOM      7  C   UNL A   1      32.601  22.310  24.267  1.00  0.00     0.200 C 
BRANCH   7   8
ATOM      8  C   UNL A   1      32.704  20.763  24.149  1.00  0.00     0.143 C 
ATOM      9  C   UNL A   1      32.154  20.192  22.845  1.00  0.00     0.041 C 
BRANCH   8  10
ATOM     10  O   UNL A   1      31.988  20.172  25.246  1.00  0.00    -0.391 OA
ATOM     11  H   UNL A   1      32.428  19.350  25.514  1.00  0.00     0.211 HD
ENDBRANCH   8  10
ENDBRANCH   7   8
BRANCH   7  12
ATOM     12  N   UNL A   1      32.246  22.679  25.657  1.00  0.00    -0.338 N 
ATOM     13  C   UNL A   1      31.956  23.893  26.226  1.00  0.00     0.252 C 
ATOM     14  H   UNL A   1      32.211  21.919  26.283  1.00  0.00     0.164 HD
ATOM     15  O   UNL A   1      31.479  23.958  27.355  1.00  0.00    -0.269 OA
BRANCH  13  16
ATOM     16  C   UNL A   1      32.365  25.147  25.564  1.00  0.00     0.041 A 
ATOM     17  C   UNL A   1      33.585  25.762  25.816  1.00  0.00     0.015 A 
ATOM     18  C   UNL A   1      31.439  25.754  24.708  1.00  0.00     0.035 A 
ATOM     19  C   UNL A   1      33.834  27.029  25.278  1.00  0.00     0.023 A 
ATOM     20  C   UNL A   1      31.687  27.033  24.175  1.00  0.00     0.086 A 
ATOM     21  C   UNL A   1      32.883  27.684  24.475  1.00  0.00     0.059 A 
ATOM     22  Cl  UNL A   1      33.312  29.271  23.964  1.00  0.00    -0.083 Cl
BRANCH  20  23
ATOM     23  S   UNL A   1      30.311  27.786  23.339  1.00  0.00     0.177 S 
ATOM     24  C   UNL A   1      28.922  26.749  23.710  1.00  0.00     0.164 C 
ATOM     25  O   UNL A   1      30.126  29.047  24.038  1.00  0.00    -0.224 OA
ATOM     26  O   UNL A   1      30.500  27.749  21.910  1.00  0.00    -0.224 OA
ENDBRANCH  20  23
ENDBRANCH  13  16
ENDBRANCH   7  12
ENDBRANCH   4   7
ENDBRANCH   2   3
ENDBRANCH   1   2
BRANCH   1  27
ATOM     27  C   UNL A   1      37.712  21.209  25.075  1.00  0.00     0.118 C 
BRANCH  27  28
ATOM     28  N   UNL A   1      38.632  20.207  25.592  1.00  0.00    -0.352 N 
ATOM     29  C   UNL A   1      39.806  20.380  26.283  1.00  0.00     0.251 C 
ATOM     30  H   UNL A   1      38.375  19.271  25.422  1.00  0.00     0.163 HD
ATOM     31  O   UNL A   1      40.568  19.440  26.484  1.00  0.00    -0.269 OA
BRANCH  29  32
ATOM     32  C   UNL A   1      40.155  21.730  26.756  1.00  0.00     0.039 A 
ATOM     33  C   UNL A   1      41.133  21.864  27.741  1.00  0.00     0.014 A 
ATOM     34  C   UNL A   1      39.557  22.855  26.180  1.00  0.00     0.014 A 
ATOM     35  C   UNL A   1      41.585  23.136  28.076  1.00  0.00     0.010 A 
ATOM     36  C   UNL A   1      40.079  24.112  26.442  1.00  0.00     0.010 A 
ATOM     37  C   UNL A   1      41.104  24.260  27.385  1.00  0.00    -0.014 A 
BRANCH  37  38
ATOM     38  C   UNL A   1      41.687  25.598  27.619  1.00  0.00     0.031 A 
ATOM     39  C   UNL A   1      40.908  26.629  28.382  1.00  0.00     0.074 A 
ATOM     40  C   UNL A   1      42.886  25.886  27.077  1.00  0.00     0.049 A 
ATOM     41  N   UNL A   1      41.222  27.870  28.648  1.00  0.00    -0.248 NA
ATOM     42  C   UNL A   1      39.584  26.224  28.877  1.00  0.00     0.031 C 
ATOM     43  C   UNL A   1      43.686  24.969  26.256  1.00  0.00     0.029 A 
ATOM     44  N   UNL A   1      43.645  27.025  27.127  1.00  0.00    -0.354 N 
ATOM     45  C   UNL A   1      40.130  28.396  29.327  1.00  0.00     0.074 A 
ATOM     46  C   UNL A   1      39.121  27.360  29.371  1.00  0.00     0.031 C 
ATOM     47  C   UNL A   1      44.836  25.570  25.917  1.00  0.00     0.029 A 
ATOM     48  C   UNL A   1      44.842  26.924  26.456  1.00  0.00     0.049 A 
ATOM     49  H   UNL A   1      43.361  27.841  27.601  1.00  0.00     0.167 HD
ATOM     50  C   UNL A   1      39.998  29.623  29.887  1.00  0.00     0.034 A 
ATOM     51  C   UNL A   1      45.828  27.826  26.296  1.00  0.00     0.034 A 
ATOM     52  C   UNL A   1      41.032  30.627  29.840  1.00  0.00     0.049 A 
ATOM     53  C   UNL A   1      45.668  29.175  26.948  1.00  0.00     0.074 A 
ATOM     54  C   UNL A   1      41.042  31.885  30.412  1.00  0.00     0.029 A 
ATOM     55  N   UNL A   1      42.246  30.481  29.178  1.00  0.00    -0.354 N 
ATOM     56  N   UNL A   1      44.655  29.638  27.642  1.00  0.00    -0.248 NA
ATOM     57  C   UNL A   1      46.786  30.113  26.808  1.00  0.00     0.031 C 
ATOM     58  C   UNL A   1      42.236  32.520  30.051  1.00  0.00     0.029 A 
ATOM     59  C   UNL A   1      43.002  31.634  29.308  1.00  0.00     0.049 A 
ATOM     60  H   UNL A   1      42.526  29.674  28.687  1.00  0.00     0.167 HD
ATOM     61  C   UNL A   1      45.025  30.917  28.045  1.00  0.00     0.074 A 
ATOM     62  C   UNL A   1      46.362  31.140  27.529  1.00  0.00     0.031 C 
ATOM     63  C   UNL A   1      44.329  31.827  28.772  1.00  0.00     0.034 A 
BRANCH  50  64
ATOM     64  C   UNL A   1      38.687  29.935  30.568  1.00  0.00     0.023 A 
ATOM     65  C   UNL A   1      37.666  30.647  29.911  1.00  0.00     0.031 A 
ATOM     66  C   UNL A   1      38.470  29.559  31.905  1.00  0.00     0.131 A 
ATOM     67  C   UNL A   1      36.515  31.032  30.615  1.00  0.00     0.055 A 
ATOM     68  C   UNL A   1      37.287  29.875  32.575  1.00  0.00     0.041 A 
ATOM     69  F   UNL A   1      39.415  28.897  32.591  1.00  0.00    -0.206 F 
ATOM     70  C   UNL A   1      36.307  30.630  31.936  1.00  0.00     0.022 A 
BRANCH  67  71
ATOM     71  S   UNL A   1      35.361  32.186  29.823  1.00  0.00     0.124 S 
ATOM     72  O   UNL A   1      36.260  33.258  29.401  1.00  0.00    -0.237 OA
ATOM     73  O   UNL A   1      34.788  31.376  28.754  1.00  0.00    -0.237 OA
ATOM     74  O   UNL A   1      34.439  32.542  30.900  1.00  0.00    -0.744 OA
ENDBRANCH  67  71
ENDBRANCH  50  64
BRANCH  51  75
ATOM     75  C   UNL A   1      47.044  27.488  25.503  1.00  0.00     0.023 A 
ATOM     76  C   UNL A   1      47.147  27.846  24.150  1.00  0.00     0.031 A 
ATOM     77  C   UNL A   1      48.113  26.780  26.082  1.00  0.00     0.131 A 
ATOM     78  C   UNL A   1      48.273  27.456  23.406  1.00  0.00     0.055 A 
ATOM     79  C   UNL A   1      49.252  26.437  25.350  1.00  0.00     0.041 A 
ATOM     80  F   UNL A   1      48.071  26.425  27.376  1.00  0.00    -0.206 F 
ATOM     81  C   UNL A   1      49.331  26.763  24.000  1.00  0.00     0.022 A 
BRANCH  78  82
ATOM     82  S   UNL A   1      48.299  27.798  21.626  1.00  0.00     0.124 S 
ATOM     83  O   UNL A   1      49.373  28.780  21.526  1.00  0.00    -0.237 OA
ATOM     84  O   UNL A   1      48.582  26.479  21.069  1.00  0.00    -0.237 OA
ATOM     85  O   UNL A   1      46.957  28.311  21.359  1.00  0.00    -0.744 OA
ENDBRANCH  78  82
ENDBRANCH  51  75
BRANCH  63  86
ATOM     86  C   UNL A   1      45.030  33.125  29.075  1.00  0.00     0.023 A 
ATOM     87  C   UNL A   1      44.862  34.258  28.261  1.00  0.00     0.031 A 
ATOM     88  C   UNL A   1      45.887  33.222  30.185  1.00  0.00     0.131 A 
ATOM     89  C   UNL A   1      45.586  35.425  28.537  1.00  0.00     0.055 A 
ATOM     90  C   UNL A   1      46.561  34.405  30.487  1.00  0.00     0.041 A 
ATOM     91  F   UNL A   1      46.082  32.166  30.992  1.00  0.00    -0.206 F 
ATOM     92  C   UNL A   1      46.422  35.511  29.653  1.00  0.00     0.022 A 
BRANCH  89  93
ATOM     93  S   UNL A   1      45.486  36.805  27.365  1.00  0.00     0.124 S 
ATOM     94  O   UNL A   1      46.494  36.437  26.376  1.00  0.00    -0.237 OA
ATOM     95  O   UNL A   1      44.099  36.736  26.918  1.00  0.00    -0.237 OA
ATOM     96  O   UNL A   1      45.816  37.973  28.182  1.00  0.00    -0.744 OA
ENDBRANCH  89  93
ENDBRANCH  63  86
ENDBRANCH  37  38
ENDBRANCH  29  32
ENDBRANCH  27  28
ENDBRANCH   1  27
TORSDOF 18
ENDMDL
MODEL 2
REMARK VINA RESULT:     -12.2      1.151      7.598
REMARK SMILES C[C@H](O)[C@@H](NC(=O)c1ccc(Cl)c(S(C)(=O)=O)c1)C(=O)NCCCNC(=O)c1ccc(-c2c3nc(c(-c4cc(S(=O)(=O)[O-])ccc4F)c4ccc([nH]4)c(-c4cc(S(=O)(=O)[O-])ccc4F)c4nc(c(-c5cc(S(=O)(=O)[O-])ccc5F)c5ccc2[nH]5)C=C4)C=C3)cc1
REMARK SMILES IDX 23 1 22 2 21 3 19 4 20 5 4 7 2 8 1 9 3 10 5 12 6 13 7 15
REMARK SMILES IDX 8 16 9 17 18 18 10 19 13 20 11 21 12 22 14 23 15 24 16 25
REMARK SMILES IDX 17 26 24 27 25 28 26 29 27 31 28 32 29 33 90 34 30 35 89 36
REMARK SMILES IDX 31 37 32 38 33 39 83 40 34 41 88 42 82 43 84 44 35 45 87 46
REMARK SMILES IDX 81 47 80 48 36 50 68 51 48 52 67 53 49 54 52 55 66 56 85 57
REMARK SMILES IDX 50 58 51 59 65 61 86 62 53 63 37 64 38 65 46 66 39 67 45 68
REMARK SMILES IDX 47 69 44 70 40 71 41 72 42 73 43 74 69 75 70 76 78 77 71 78
REMARK SMILES IDX 77 79 79 80 76 81 72 82 73 83 74 84 75 85 54 86 55 87 63 88
REMARK SMILES IDX 56 89 62 90 64 91 61 92 57 93 58 94 59 95 60 96
REMARK H PARENT 21 6 3 11 5 14 25 30 84 49 52 60
REMARK Flexibility Score: inf
ROOT
ATOM      1  C   UNL A   1      35.762  21.761  25.988  1.00  0.00     0.042 C 
ENDROOT
BRANCH   1   2
ATOM      2  C   UNL A   1      34.956  23.039  26.129  1.00  0.00     0.117 C 
BRANCH   2   3
ATOM      3  N   UNL A   1      34.901  23.773  24.879  1.00  0.00    -0.354 N 
ATOM      4  C   UNL A   1      33.896  23.871  23.970  1.00  0.00     0.245 C 
ATOM      5  O   UNL A   1      34.119  24.498  22.929  1.00  0.00    -0.273 OA
ATOM      6  H   UNL A   1      35.717  24.277  24.654  1.00  0.00     0.163 HD
BRANCH   4   7
ATOM      7  C   UNL A   1      32.562  23.132  24.155  1.00  0.00     0.200 C 
BRANCH   7   8
ATOM      8  C   UNL A   1      32.737  21.656  23.695  1.00  0.00     0.143 C 
ATOM      9  C   UNL A   1      32.103  21.338  22.343  1.00  0.00     0.041 C 
BRANCH   8  10
ATOM     10  O   UNL A   1      32.157  20.795  24.689  1.00  0.00    -0.391 OA
ATOM     11  H   UNL A   1      31.198  20.745  24.553  1.00  0.00     0.211 HD
ENDBRANCH   8  10
ENDBRANCH   7   8
BRANCH   7  12
ATOM     12  N   UNL A   1      31.996  23.160  25.523  1.00  0.00    -0.338 N 
ATOM     13  C   UNL A   1      31.099  24.014  26.114  1.00  0.00     0.252 C 
ATOM     14  H   UNL A   1      32.319  22.440  26.112  1.00  0.00     0.164 HD
ATOM     15  O   UNL A   1      30.596  23.742  27.200  1.00  0.00    -0.269 OA
BRANCH  13  16
ATOM     16  C   UNL A   1      30.849  25.351  25.541  1.00  0.00     0.041 A 
ATOM     17  C   UNL A   1      29.892  25.577  24.560  1.00  0.00     0.015 A 
ATOM     18  C   UNL A   1      31.671  26.399  25.971  1.00  0.00     0.035 A 
ATOM     19  C   UNL A   1      29.824  26.834  23.949  1.00  0.00     0.023 A 
ATOM     20  C   UNL A   1      31.609  27.660  25.349  1.00  0.00     0.086 A 
ATOM     21  C   UNL A   1      30.692  27.876  24.320  1.00  0.00     0.059 A 
ATOM     22  Cl  UNL A   1      30.533  29.330  23.412  1.00  0.00    -0.083 Cl
BRANCH  20  23
ATOM     23  S   UNL A   1      32.894  28.797  25.810  1.00  0.00     0.177 S 
ATOM     24  C   UNL A   1      32.177  29.822  27.065  1.00  0.00     0.164 C 
ATOM     25  O   UNL A   1      33.896  27.954  26.440  1.00  0.00    -0.224 OA
ATOM     26  O   UNL A   1      33.236  29.657  24.703  1.00  0.00    -0.224 OA
ENDBRANCH  20  23
ENDBRANCH  13  16
ENDBRANCH   7  12
ENDBRANCH   4   7
ENDBRANCH   2   3
ENDBRANCH   1   2
BRANCH   1  27
ATOM     27  C   UNL A   1      37.063  21.954  25.221  1.00  0.00     0.118 C 
BRANCH  27  28
ATOM     28  N   UNL A   1      38.062  20.939  25.522  1.00  0.00    -0.352 N 
ATOM     29  C   UNL A   1      39.311  21.086  26.074  1.00  0.00     0.251 C 
ATOM     30  H   UNL A   1      37.804  20.015  25.298  1.00  0.00     0.163 HD
ATOM     31  O   UNL A   1      40.111  20.157  26.089  1.00  0.00    -0.269 OA
BRANCH  29  32
ATOM     32  C   UNL A   1      39.690  22.399  26.624  1.00  0.00     0.039 A 
ATOM     33  C   UNL A   1      40.682  22.455  27.602  1.00  0.00     0.014 A 
ATOM     34  C   UNL A   1      39.104  23.567  26.126  1.00  0.00     0.014 A 
ATOM     35  C   UNL A   1      41.161  23.696  28.009  1.00  0.00     0.010 A 
ATOM     36  C   UNL A   1      39.652  24.796  26.457  1.00  0.00     0.010 A 
ATOM     37  C   UNL A   1      40.691  24.869  27.394  1.00  0.00    -0.014 A 
BRANCH  37  38
ATOM     38  C   UNL A   1      41.301  26.180  27.702  1.00  0.00     0.031 A 
ATOM     39  C   UNL A   1      42.684  26.494  27.211  1.00  0.00     0.074 A 
ATOM     40  C   UNL A   1      40.622  27.044  28.481  1.00  0.00     0.049 A 
ATOM     41  N   UNL A   1      43.409  27.561  27.416  1.00  0.00    -0.248 NA
ATOM     42  C   UNL A   1      43.356  25.453  26.418  1.00  0.00     0.031 C 
ATOM     43  C   UNL A   1      39.299  26.795  29.066  1.00  0.00     0.029 A 
ATOM     44  N   UNL A   1      40.943  28.300  28.921  1.00  0.00    -0.354 N 
ATOM     45  C   UNL A   1      44.625  27.315  26.790  1.00  0.00     0.074 A 
ATOM     46  C   UNL A   1      44.563  25.970  26.259  1.00  0.00     0.031 C 
ATOM     47  C   UNL A   1      38.909  27.880  29.752  1.00  0.00     0.029 A 
ATOM     48  C   UNL A   1      39.964  28.884  29.693  1.00  0.00     0.049 A 
ATOM     49  H   UNL A   1      41.794  28.747  28.703  1.00  0.00     0.167 HD
ATOM     50  C   UNL A   1      45.685  28.148  26.650  1.00  0.00     0.034 A 
ATOM     51  C   UNL A   1      39.929  30.093  30.285  1.00  0.00     0.034 A 
ATOM     52  C   UNL A   1      45.707  29.491  27.177  1.00  0.00     0.049 A 
ATOM     53  C   UNL A   1      41.108  31.010  30.094  1.00  0.00     0.074 A 
ATOM     54  C   UNL A   1      46.695  30.450  27.057  1.00  0.00     0.029 A 
ATOM     55  N   UNL A   1      44.686  30.062  27.929  1.00  0.00    -0.354 N 
ATOM     56  N   UNL A   1      42.229  30.787  29.446  1.00  0.00    -0.248 NA
ATOM     57  C   UNL A   1      41.013  32.343  30.699  1.00  0.00     0.031 C 
ATOM     58  C   UNL A   1      46.297  31.580  27.780  1.00  0.00     0.029 A 
ATOM     59  C   UNL A   1      45.030  31.352  28.298  1.00  0.00     0.049 A 
ATOM     60  H   UNL A   1      43.842  29.613  28.165  1.00  0.00     0.167 HD
ATOM     61  C   UNL A   1      42.963  31.963  29.544  1.00  0.00     0.074 A 
ATOM     62  C   UNL A   1      42.148  32.896  30.299  1.00  0.00     0.031 C 
ATOM     63  C   UNL A   1      44.198  32.252  29.059  1.00  0.00     0.034 A 
BRANCH  50  64
ATOM     64  C   UNL A   1      46.893  27.614  25.921  1.00  0.00     0.023 A 
ATOM     65  C   UNL A   1      47.162  27.964  24.584  1.00  0.00     0.031 A 
ATOM     66  C   UNL A   1      47.764  26.707  26.550  1.00  0.00     0.131 A 
ATOM     67  C   UNL A   1      48.219  27.348  23.897  1.00  0.00     0.055 A 
ATOM     68  C   UNL A   1      48.863  26.160  25.885  1.00  0.00     0.041 A 
ATOM     69  F   UNL A   1      47.547  26.319  27.817  1.00  0.00    -0.206 F 
ATOM     70  C   UNL A   1      49.087  26.467  24.546  1.00  0.00     0.022 A 
BRANCH  67  71
ATOM     71  S   UNL A   1      48.357  27.608  22.107  1.00  0.00     0.124 S 
ATOM     72  O   UNL A   1      47.079  28.247  21.804  1.00  0.00    -0.237 OA
ATOM     73  O   UNL A   1      49.537  28.458  22.001  1.00  0.00    -0.237 OA
ATOM     74  O   UNL A   1      48.512  26.255  21.575  1.00  0.00    -0.744 OA
ENDBRANCH  67  71
ENDBRANCH  50  64
BRANCH  51  75
ATOM     75  C   UNL A   1      38.749  30.506  31.096  1.00  0.00     0.023 A 
ATOM     76  C   UNL A   1      37.660  31.163  30.504  1.00  0.00     0.031 A 
ATOM     77  C   UNL A   1      38.704  30.269  32.481  1.00  0.00     0.131 A 
ATOM     78  C   UNL A   1      36.590  31.604  31.302  1.00  0.00     0.055 A 
ATOM     79  C   UNL A   1      37.616  30.666  33.263  1.00  0.00     0.041 A 
ATOM     80  F   UNL A   1      39.713  29.631  33.096  1.00  0.00    -0.206 F 
ATOM     81  C   UNL A   1      36.556  31.350  32.675  1.00  0.00     0.022 A 
BRANCH  78  82
ATOM     82  S   UNL A   1      35.277  32.587  30.528  1.00  0.00     0.124 S 
ATOM     83  O   UNL A   1      35.006  31.823  29.317  1.00  0.00    -0.237 OA
ATOM     84  O   UNL A   1      34.237  32.560  31.551  1.00  0.00    -0.237 OA
ATOM     85  O   UNL A   1      35.907  33.889  30.318  1.00  0.00    -0.744 OA
ENDBRANCH  78  82
ENDBRANCH  51  75
BRANCH  63  86
ATOM     86  C   UNL A   1      44.709  33.648  29.307  1.00  0.00     0.023 A 
ATOM     87  C   UNL A   1      44.393  34.709  28.443  1.00  0.00     0.031 A 
ATOM     88  C   UNL A   1      45.531  33.911  30.416  1.00  0.00     0.131 A 
ATOM     89  C   UNL A   1      44.945  35.977  28.669  1.00  0.00     0.055 A 
ATOM     90  C   UNL A   1      46.031  35.188  30.667  1.00  0.00     0.041 A 
ATOM     91  F   UNL A   1      45.862  32.929  31.270  1.00  0.00    -0.206 F 
ATOM     92  C   UNL A   1      45.749  36.227  29.785  1.00  0.00     0.022 A 
BRANCH  89  93
ATOM     93  S   UNL A   1      44.667  37.278  27.437  1.00  0.00     0.124 S 
ATOM     94  O   UNL A   1      45.894  37.216  26.649  1.00  0.00    -0.237 OA
ATOM     95  O   UNL A   1      43.456  36.819  26.766  1.00  0.00    -0.237 OA
ATOM     96  O   UNL A   1      44.508  38.486  28.244  1.00  0.00    -0.744 OA
ENDBRANCH  89  93
ENDBRANCH  63  86
ENDBRANCH  37  38
ENDBRANCH  29  32
ENDBRANCH  27  28
ENDBRANCH   1  27
TORSDOF 18
ENDMDL
MODEL 3
REMARK VINA RESULT:     -12.1      4.837      7.637
REMARK SMILES C[C@H](O)[C@@H](NC(=O)c1ccc(Cl)c(S(C)(=O)=O)c1)C(=O)NCCCNC(=O)c1ccc(-c2c3nc(c(-c4cc(S(=O)(=O)[O-])ccc4F)c4ccc([nH]4)c(-c4cc(S(=O)(=O)[O-])ccc4F)c4nc(c(-c5cc(S(=O)(=O)[O-])ccc5F)c5ccc2[nH]5)C=C4)C=C3)cc1
REMARK SMILES IDX 23 1 22 2 21 3 19 4 20 5 4 7 2 8 1 9 3 10 5 12 6 13 7 15
REMARK SMILES IDX 8 16 9 17 18 18 10 19 13 20 11 21 12 22 14 23 15 24 16 25
REMARK SMILES IDX 17 26 24 27 25 28 26 29 27 31 28 32 29 33 90 34 30 35 89 36
REMARK SMILES IDX 31 37 32 38 33 39 83 40 34 41 88 42 82 43 84 44 35 45 87 46
REMARK SMILES IDX 81 47 80 48 36 50 68 51 48 52 67 53 49 54 52 55 66 56 85 57
REMARK SMILES IDX 50 58 51 59 65 61 86 62 53 63 37 64 38 65 46 66 39 67 45 68
REMARK SMILES IDX 47 69 44 70 40 71 41 72 42 73 43 74 69 75 70 76 78 77 71 78
REMARK SMILES IDX 77 79 79 80 76 81 72 82 73 83 74 84 75 85 54 86 55 87 63 88
REMARK SMILES IDX 56 89 62 90 64 91 61 92 57 93 58 94 59 95 60 96
REMARK H PARENT 21 6 3 11 5 14 25 30 84 49 52 60
REMARK Flexibility Score: inf
ROOT
ATOM      1  C   UNL A   1      32.786  28.298  26.891  1.00  0.00     0.042 C 
ENDROOT
BRANCH   1   2
ATOM      2  C   UNL A   1      32.894  26.852  26.444  1.00  0.00     0.117 C 
BRANCH   2   3
ATOM      3  N   UNL A   1      31.720  26.089  26.825  1.00  0.00    -0.354 N 
ATOM      4  C   UNL A   1      31.488  24.752  26.751  1.00  0.00     0.245 C 
ATOM      5  O   UNL A   1      30.365  24.344  27.063  1.00  0.00    -0.273 OA
ATOM      6  H   UNL A   1      30.977  26.621  27.193  1.00  0.00     0.163 HD
BRANCH   4   7
ATOM      7  C   UNL A   1      32.532  23.780  26.182  1.00  0.00     0.200 C 
BRANCH   7   8
ATOM      8  C   UNL A   1      32.952  22.782  27.298  1.00  0.00     0.143 C 
ATOM      9  C   UNL A   1      33.729  21.567  26.798  1.00  0.00     0.041 C 
BRANCH   8  10
ATOM     10  O   UNL A   1      31.767  22.324  27.971  1.00  0.00    -0.391 OA
ATOM     11  H   UNL A   1      31.985  21.557  28.524  1.00  0.00     0.211 HD
ENDBRANCH   8  10
ENDBRANCH   7   8
BRANCH   7  12
ATOM     12  N   UNL A   1      32.120  23.028  24.974  1.00  0.00    -0.338 N 
ATOM     13  C   UNL A   1      32.251  23.317  23.639  1.00  0.00     0.252 C 
ATOM     14  H   UNL A   1      31.675  22.170  25.162  1.00  0.00     0.164 HD
ATOM     15  O   UNL A   1      32.030  22.461  22.788  1.00  0.00    -0.269 OA
BRANCH  13  16
ATOM     16  C   UNL A   1      32.494  24.703  23.193  1.00  0.00     0.041 A 
ATOM     17  C   UNL A   1      33.762  25.174  22.874  1.00  0.00     0.015 A 
ATOM     18  C   UNL A   1      31.399  25.573  23.169  1.00  0.00     0.035 A 
ATOM     19  C   UNL A   1      33.939  26.537  22.618  1.00  0.00     0.023 A 
ATOM     20  C   UNL A   1      31.579  26.947  22.921  1.00  0.00     0.086 A 
ATOM     21  C   UNL A   1      32.858  27.437  22.661  1.00  0.00     0.059 A 
ATOM     22  Cl  UNL A   1      33.262  29.091  22.406  1.00  0.00    -0.083 Cl
BRANCH  20  23
ATOM     23  S   UNL A   1      30.147  27.961  23.197  1.00  0.00     0.177 S 
ATOM     24  C   UNL A   1      28.876  26.838  23.709  1.00  0.00     0.164 C 
ATOM     25  O   UNL A   1      30.512  28.776  24.343  1.00  0.00    -0.224 OA
ATOM     26  O   UNL A   1      29.706  28.568  21.964  1.00  0.00    -0.224 OA
ENDBRANCH  20  23
ENDBRANCH  13  16
ENDBRANCH   7  12
ENDBRANCH   4   7
ENDBRANCH   2   3
ENDBRANCH   1   2
BRANCH   1  27
ATOM     27  C   UNL A   1      33.761  29.222  26.177  1.00  0.00     0.118 C 
BRANCH  27  28
ATOM     28  N   UNL A   1      33.804  30.561  26.747  1.00  0.00    -0.352 N 
ATOM     29  C   UNL A   1      34.665  31.078  27.685  1.00  0.00     0.251 C 
ATOM     30  H   UNL A   1      33.119  31.184  26.413  1.00  0.00     0.163 HD
ATOM     31  O   UNL A   1      34.455  32.167  28.206  1.00  0.00    -0.269 OA
BRANCH  29  32
ATOM     32  C   UNL A   1      35.839  30.281  28.081  1.00  0.00     0.039 A 
ATOM     33  C   UNL A   1      36.986  30.338  27.291  1.00  0.00     0.014 A 
ATOM     34  C   UNL A   1      35.816  29.533  29.262  1.00  0.00     0.014 A 
ATOM     35  C   UNL A   1      38.149  29.723  27.742  1.00  0.00     0.010 A 
ATOM     36  C   UNL A   1      37.000  29.008  29.757  1.00  0.00     0.010 A 
ATOM     37  C   UNL A   1      38.177  29.108  29.004  1.00  0.00    -0.014 A 
BRANCH  37  38
ATOM     38  C   UNL A   1      39.443  28.589  29.565  1.00  0.00     0.031 A 
ATOM     39  C   UNL A   1      40.032  29.223  30.791  1.00  0.00     0.074 A 
ATOM     40  C   UNL A   1      40.080  27.595  28.916  1.00  0.00     0.049 A 
ATOM     41  N   UNL A   1      41.153  28.948  31.404  1.00  0.00    -0.248 NA
ATOM     42  C   UNL A   1      39.281  30.341  31.382  1.00  0.00     0.031 C 
ATOM     43  C   UNL A   1      39.619  26.965  27.673  1.00  0.00     0.029 A 
ATOM     44  N   UNL A   1      41.248  26.939  29.201  1.00  0.00    -0.354 N 
ATOM     45  C   UNL A   1      41.248  29.866  32.442  1.00  0.00     0.074 A 
ATOM     46  C   UNL A   1      40.106  30.748  32.333  1.00  0.00     0.031 C 
ATOM     47  C   UNL A   1      40.474  25.990  27.329  1.00  0.00     0.029 A 
ATOM     48  C   UNL A   1      41.563  25.951  28.298  1.00  0.00     0.049 A 
ATOM     49  H   UNL A   1      41.809  27.154  29.981  1.00  0.00     0.167 HD
ATOM     50  C   UNL A   1      42.189  29.945  33.414  1.00  0.00     0.034 A 
ATOM     51  C   UNL A   1      42.615  25.110  28.260  1.00  0.00     0.034 A 
ATOM     52  C   UNL A   1      43.307  29.037  33.505  1.00  0.00     0.049 A 
ATOM     53  C   UNL A   1      43.635  25.201  29.364  1.00  0.00     0.074 A 
ATOM     54  C   UNL A   1      44.296  28.978  34.468  1.00  0.00     0.029 A 
ATOM     55  N   UNL A   1      43.580  28.027  32.589  1.00  0.00    -0.354 N 
ATOM     56  N   UNL A   1      43.679  26.035  30.377  1.00  0.00    -0.248 NA
ATOM     57  C   UNL A   1      44.735  24.232  29.328  1.00  0.00     0.031 C 
ATOM     58  C   UNL A   1      45.197  27.969  34.107  1.00  0.00     0.029 A 
ATOM     59  C   UNL A   1      44.735  27.353  32.954  1.00  0.00     0.049 A 
ATOM     60  H   UNL A   1      43.032  27.821  31.798  1.00  0.00     0.167 HD
ATOM     61  C   UNL A   1      44.800  25.674  31.116  1.00  0.00     0.074 A 
ATOM     62  C   UNL A   1      45.390  24.535  30.439  1.00  0.00     0.031 C 
ATOM     63  C   UNL A   1      45.301  26.228  32.250  1.00  0.00     0.034 A 
BRANCH  50  64
ATOM     64  C   UNL A   1      42.049  31.057  34.425  1.00  0.00     0.023 A 
ATOM     65  C   UNL A   1      42.622  32.324  34.211  1.00  0.00     0.031 A 
ATOM     66  C   UNL A   1      41.376  30.837  35.639  1.00  0.00     0.131 A 
ATOM     67  C   UNL A   1      42.583  33.292  35.227  1.00  0.00     0.055 A 
ATOM     68  C   UNL A   1      41.271  31.832  36.613  1.00  0.00     0.041 A 
ATOM     69  F   UNL A   1      40.828  29.641  35.910  1.00  0.00    -0.206 F 
ATOM     70  C   UNL A   1      41.890  33.063  36.417  1.00  0.00     0.022 A 
BRANCH  67  71
ATOM     71  S   UNL A   1      43.573  34.799  35.025  1.00  0.00     0.124 S 
ATOM     72  O   UNL A   1      43.934  35.100  36.409  1.00  0.00    -0.237 OA
ATOM     73  O   UNL A   1      44.661  34.350  34.165  1.00  0.00    -0.237 OA
ATOM     74  O   UNL A   1      42.640  35.742  34.411  1.00  0.00    -0.744 OA
ENDBRANCH  67  71
ENDBRANCH  50  64
BRANCH  51  75
ATOM     75  C   UNL A   1      42.752  24.117  27.158  1.00  0.00     0.023 A 
ATOM     76  C   UNL A   1      42.121  22.865  27.230  1.00  0.00     0.031 A 
ATOM     77  C   UNL A   1      43.537  24.395  26.024  1.00  0.00     0.131 A 
ATOM     78  C   UNL A   1      42.321  21.920  26.211  1.00  0.00     0.055 A 
ATOM     79  C   UNL A   1      43.694  23.469  24.990  1.00  0.00     0.041 A 
ATOM     80  F   UNL A   1      44.151  25.582  25.898  1.00  0.00    -0.206 F 
ATOM     81  C   UNL A   1      43.095  22.217  25.087  1.00  0.00     0.022 A 
BRANCH  78  82
ATOM     82  S   UNL A   1      41.619  20.260  26.415  1.00  0.00     0.124 S 
ATOM     83  O   UNL A   1      40.193  20.518  26.260  1.00  0.00    -0.237 OA
ATOM     84  O   UNL A   1      42.261  19.526  25.329  1.00  0.00    -0.237 OA
ATOM     85  O   UNL A   1      42.043  19.875  27.760  1.00  0.00    -0.744 OA
ENDBRANCH  78  82
ENDBRANCH  51  75
BRANCH  63  86
ATOM     86  C   UNL A   1      46.527  25.574  32.833  1.00  0.00     0.023 A 
ATOM     87  C   UNL A   1      46.427  24.558  33.798  1.00  0.00     0.031 A 
ATOM     88  C   UNL A   1      47.808  25.985  32.425  1.00  0.00     0.131 A 
ATOM     89  C   UNL A   1      47.592  24.024  34.367  1.00  0.00     0.055 A 
ATOM     90  C   UNL A   1      48.963  25.409  32.954  1.00  0.00     0.041 A 
ATOM     91  F   UNL A   1      47.954  26.953  31.506  1.00  0.00    -0.206 F 
ATOM     92  C   UNL A   1      48.858  24.432  33.940  1.00  0.00     0.022 A 
BRANCH  89  93
ATOM     93  S   UNL A   1      47.427  22.849  35.738  1.00  0.00     0.124 S 
ATOM     94  O   UNL A   1      47.590  23.714  36.902  1.00  0.00    -0.237 OA
ATOM     95  O   UNL A   1      46.088  22.309  35.528  1.00  0.00    -0.237 OA
ATOM     96  O   UNL A   1      48.519  21.903  35.511  1.00  0.00    -0.744 OA
ENDBRANCH  89  93
ENDBRANCH  63  86
ENDBRANCH  37  38
ENDBRANCH  29  32
ENDBRANCH  27  28
ENDBRANCH   1  27
TORSDOF 18
ENDMDL
