MODEL 1
REMARK VINA RESULT:     -10.2      0.000      0.000
REMARK SMILES O=C(CC(=O)OC/C=C\c1ccccc1)NCCCNC(=O)c1ccc(-c2c3nc(c(-c4cc(S(=O)(=O)[O-])ccc4F)c4ccc([nH]4)c(-c4cc(S(=O)(=O)[O-])ccc4F)c4nc(c(-c5cc(S(=O)(=O)[O-])ccc5F)c5ccc2[nH]5)C=C4)C=C3)cc1
REMARK SMILES IDX 17 1 16 2 1 3 2 4 3 6 4 7 5 8 6 9 7 10 8 11 9 12 10 13 11 14
REMARK SMILES IDX 15 15 12 16 14 17 13 18 18 19 19 20 20 21 21 22 22 24 23 25
REMARK SMILES IDX 24 26 85 27 25 28 84 29 26 30 27 31 28 32 78 33 29 34 83 35
REMARK SMILES IDX 77 36 79 37 30 38 82 39 76 40 75 41 31 43 63 44 43 45 62 46
REMARK SMILES IDX 44 47 47 48 61 49 80 50 45 51 46 52 60 54 81 55 48 56 32 57
REMARK SMILES IDX 33 58 41 59 34 60 40 61 42 62 39 63 35 64 36 65 37 66 38 67
REMARK SMILES IDX 64 68 65 69 73 70 66 71 72 72 74 73 71 74 67 75 68 76 69 77
REMARK SMILES IDX 70 78 49 79 50 80 58 81 51 82 57 83 59 84 56 85 52 86 53 87
REMARK SMILES IDX 54 88 55 89
REMARK H PARENT 16 5 20 23 79 42 47 53
REMARK Flexibility Score: inf
ROOT
ATOM      1  C   UNL A   1      42.056  19.181  26.464  1.00  0.00     0.117 C 
ENDROOT
BRANCH   1   2
ATOM      2  N   UNL A   1      43.413  19.633  26.227  1.00  0.00    -0.356 N 
ATOM      3  O   UNL A   1      43.900  18.085  24.599  1.00  0.00    -0.274 OA
ATOM      4  C   UNL A   1      44.232  19.047  25.286  1.00  0.00     0.231 C 
ATOM      5  H   UNL A   1      43.762  20.386  26.757  1.00  0.00     0.163 HD
BRANCH   4   6
ATOM      6  C   UNL A   1      45.615  19.630  25.211  1.00  0.00     0.222 C 
BRANCH   6   7
ATOM      7  C   UNL A   1      45.712  20.989  24.593  1.00  0.00     0.315 C 
ATOM      8  O   UNL A   1      46.712  21.691  24.710  1.00  0.00    -0.252 OA
BRANCH   7   9
ATOM      9  O   UNL A   1      44.614  21.307  23.862  1.00  0.00    -0.461 OA
BRANCH   9  10
ATOM     10  C   UNL A   1      44.339  22.709  23.728  1.00  0.00     0.260 C 
BRANCH  10  11
ATOM     11  C   UNL A   1      43.382  23.139  24.799  1.00  0.00     0.015 C 
ATOM     12  C   UNL A   1      43.656  23.884  25.884  1.00  0.00     0.007 C 
BRANCH  12  13
ATOM     13  C   UNL A   1      44.971  24.436  26.225  1.00  0.00    -0.026 A 
ATOM     14  C   UNL A   1      45.515  25.453  25.434  1.00  0.00     0.008 A 
ATOM     15  C   UNL A   1      45.705  23.955  27.317  1.00  0.00     0.008 A 
ATOM     16  C   UNL A   1      46.757  26.007  25.750  1.00  0.00     0.001 A 
ATOM     17  C   UNL A   1      46.942  24.517  27.640  1.00  0.00     0.001 A 
ATOM     18  C   UNL A   1      47.467  25.545  26.859  1.00  0.00     0.000 A 
ENDBRANCH  12  13
ENDBRANCH  10  11
ENDBRANCH   9  10
ENDBRANCH   7   9
ENDBRANCH   6   7
ENDBRANCH   4   6
ENDBRANCH   1   2
BRANCH   1  19
ATOM     19  C   UNL A   1      41.357  20.004  27.539  1.00  0.00     0.042 C 
BRANCH  19  20
ATOM     20  C   UNL A   1      41.041  21.442  27.135  1.00  0.00     0.118 C 
BRANCH  20  21
ATOM     21  N   UNL A   1      39.772  21.572  26.436  1.00  0.00    -0.352 N 
ATOM     22  C   UNL A   1      38.945  22.658  26.287  1.00  0.00     0.251 C 
ATOM     23  H   UNL A   1      39.455  20.748  25.998  1.00  0.00     0.163 HD
ATOM     24  O   UNL A   1      37.837  22.490  25.782  1.00  0.00    -0.269 OA
BRANCH  22  25
ATOM     25  C   UNL A   1      39.356  24.007  26.743  1.00  0.00     0.039 A 
ATOM     26  C   UNL A   1      39.042  24.391  28.051  1.00  0.00     0.014 A 
ATOM     27  C   UNL A   1      40.008  24.908  25.899  1.00  0.00     0.014 A 
ATOM     28  C   UNL A   1      39.427  25.650  28.522  1.00  0.00     0.010 A 
ATOM     29  C   UNL A   1      40.464  26.131  26.395  1.00  0.00     0.010 A 
ATOM     30  C   UNL A   1      40.171  26.521  27.710  1.00  0.00    -0.014 A 
BRANCH  30  31
ATOM     31  C   UNL A   1      40.631  27.840  28.225  1.00  0.00     0.031 A 
ATOM     32  C   UNL A   1      42.098  28.188  28.229  1.00  0.00     0.074 A 
ATOM     33  C   UNL A   1      39.733  28.715  28.720  1.00  0.00     0.049 A 
ATOM     34  N   UNL A   1      42.691  29.273  28.659  1.00  0.00    -0.248 NA
ATOM     35  C   UNL A   1      43.020  27.170  27.704  1.00  0.00     0.031 C 
ATOM     36  C   UNL A   1      38.289  28.482  28.809  1.00  0.00     0.029 A 
ATOM     37  N   UNL A   1      39.896  29.976  29.239  1.00  0.00    -0.354 N 
ATOM     38  C   UNL A   1      44.053  29.066  28.465  1.00  0.00     0.074 A 
ATOM     39  C   UNL A   1      44.199  27.724  27.942  1.00  0.00     0.031 C 
ATOM     40  C   UNL A   1      37.697  29.575  29.317  1.00  0.00     0.029 A 
ATOM     41  C   UNL A   1      38.718  30.569  29.635  1.00  0.00     0.049 A 
ATOM     42  H   UNL A   1      40.772  30.415  29.321  1.00  0.00     0.167 HD
ATOM     43  C   UNL A   1      45.084  29.923  28.677  1.00  0.00     0.034 A 
ATOM     44  C   UNL A   1      38.484  31.773  30.194  1.00  0.00     0.034 A 
ATOM     45  C   UNL A   1      44.924  31.261  29.194  1.00  0.00     0.049 A 
ATOM     46  C   UNL A   1      39.649  32.699  30.442  1.00  0.00     0.074 A 
ATOM     47  C   UNL A   1      45.895  32.225  29.409  1.00  0.00     0.029 A 
ATOM     48  N   UNL A   1      43.715  31.825  29.588  1.00  0.00    -0.354 N 
ATOM     49  N   UNL A   1      40.926  32.505  30.206  1.00  0.00    -0.248 NA
ATOM     50  C   UNL A   1      39.335  34.014  31.015  1.00  0.00     0.031 C 
ATOM     51  C   UNL A   1      45.288  33.339  30.000  1.00  0.00     0.029 A 
ATOM     52  C   UNL A   1      43.923  33.110  30.070  1.00  0.00     0.049 A 
ATOM     53  H   UNL A   1      42.840  31.378  29.533  1.00  0.00     0.167 HD
ATOM     54  C   UNL A   1      41.562  33.691  30.568  1.00  0.00     0.074 A 
ATOM     55  C   UNL A   1      40.524  34.595  31.016  1.00  0.00     0.031 C 
ATOM     56  C   UNL A   1      42.883  34.004  30.527  1.00  0.00     0.034 A 
BRANCH  43  57
ATOM     57  C   UNL A   1      46.479  29.421  28.372  1.00  0.00     0.023 A 
ATOM     58  C   UNL A   1      47.221  28.681  29.309  1.00  0.00     0.031 A 
ATOM     59  C   UNL A   1      47.086  29.706  27.135  1.00  0.00     0.131 A 
ATOM     60  C   UNL A   1      48.549  28.323  29.031  1.00  0.00     0.055 A 
ATOM     61  C   UNL A   1      48.376  29.269  26.829  1.00  0.00     0.041 A 
ATOM     62  F   UNL A   1      46.439  30.427  26.205  1.00  0.00    -0.206 F 
ATOM     63  C   UNL A   1      49.123  28.588  27.785  1.00  0.00     0.022 A 
BRANCH  60  64
ATOM     64  S   UNL A   1      49.564  27.647  30.373  1.00  0.00     0.124 S 
ATOM     65  O   UNL A   1      48.871  28.160  31.553  1.00  0.00    -0.237 OA
ATOM     66  O   UNL A   1      49.468  26.209  30.149  1.00  0.00    -0.237 OA
ATOM     67  O   UNL A   1      50.883  28.231  30.133  1.00  0.00    -0.744 OA
ENDBRANCH  60  64
ENDBRANCH  43  57
BRANCH  44  68
ATOM     68  C   UNL A   1      37.096  32.181  30.564  1.00  0.00     0.023 A 
ATOM     69  C   UNL A   1      36.225  32.731  29.611  1.00  0.00     0.031 A 
ATOM     70  C   UNL A   1      36.641  32.076  31.890  1.00  0.00     0.131 A 
ATOM     71  C   UNL A   1      34.964  33.206  30.006  1.00  0.00     0.055 A 
ATOM     72  C   UNL A   1      35.363  32.493  32.267  1.00  0.00     0.041 A 
ATOM     73  F   UNL A   1      37.432  31.554  32.841  1.00  0.00    -0.206 F 
ATOM     74  C   UNL A   1      34.521  33.076  31.325  1.00  0.00     0.022 A 
BRANCH  71  75
ATOM     75  S   UNL A   1      33.945  34.086  28.790  1.00  0.00     0.124 S 
ATOM     76  O   UNL A   1      33.506  32.995  27.927  1.00  0.00    -0.237 OA
ATOM     77  O   UNL A   1      32.920  34.689  29.635  1.00  0.00    -0.237 OA
ATOM     78  O   UNL A   1      34.881  35.028  28.181  1.00  0.00    -0.744 OA
ENDBRANCH  71  75
ENDBRANCH  44  68
BRANCH  56  79
ATOM     79  C   UNL A   1      43.267  35.410  30.932  1.00  0.00     0.023 A 
ATOM     80  C   UNL A   1      43.421  36.441  29.987  1.00  0.00     0.031 A 
ATOM     81  C   UNL A   1      43.521  35.712  32.283  1.00  0.00     0.131 A 
ATOM     82  C   UNL A   1      43.896  37.697  30.394  1.00  0.00     0.055 A 
ATOM     83  C   UNL A   1      43.919  36.986  32.691  1.00  0.00     0.041 A 
ATOM     84  F   UNL A   1      43.393  34.769  33.230  1.00  0.00    -0.206 F 
ATOM     85  C   UNL A   1      44.128  37.982  31.742  1.00  0.00     0.022 A 
BRANCH  82  86
ATOM     86  S   UNL A   1      44.335  38.914  29.123  1.00  0.00     0.124 S 
ATOM     87  O   UNL A   1      43.692  38.359  27.937  1.00  0.00    -0.237 OA
ATOM     88  O   UNL A   1      43.748  40.141  29.649  1.00  0.00    -0.237 OA
ATOM     89  O   UNL A   1      45.797  38.882  29.108  1.00  0.00    -0.744 OA
ENDBRANCH  82  86
ENDBRANCH  56  79
ENDBRANCH  30  31
ENDBRANCH  22  25
ENDBRANCH  20  21
ENDBRANCH  19  20
ENDBRANCH   1  19
TORSDOF 18
ENDMDL
MODEL 2
REMARK VINA RESULT:     -10.2      4.360     12.324
REMARK SMILES O=C(CC(=O)OC/C=C\c1ccccc1)NCCCNC(=O)c1ccc(-c2c3nc(c(-c4cc(S(=O)(=O)[O-])ccc4F)c4ccc([nH]4)c(-c4cc(S(=O)(=O)[O-])ccc4F)c4nc(c(-c5cc(S(=O)(=O)[O-])ccc5F)c5ccc2[nH]5)C=C4)C=C3)cc1
REMARK SMILES IDX 17 1 16 2 1 3 2 4 3 6 4 7 5 8 6 9 7 10 8 11 9 12 10 13 11 14
REMARK SMILES IDX 15 15 12 16 14 17 13 18 18 19 19 20 20 21 21 22 22 24 23 25
REMARK SMILES IDX 24 26 85 27 25 28 84 29 26 30 27 31 28 32 78 33 29 34 83 35
REMARK SMILES IDX 77 36 79 37 30 38 82 39 76 40 75 41 31 43 63 44 43 45 62 46
REMARK SMILES IDX 44 47 47 48 61 49 80 50 45 51 46 52 60 54 81 55 48 56 32 57
REMARK SMILES IDX 33 58 41 59 34 60 40 61 42 62 39 63 35 64 36 65 37 66 38 67
REMARK SMILES IDX 64 68 65 69 73 70 66 71 72 72 74 73 71 74 67 75 68 76 69 77
REMARK SMILES IDX 70 78 49 79 50 80 58 81 51 82 57 83 59 84 56 85 52 86 53 87
REMARK SMILES IDX 54 88 55 89
REMARK H PARENT 16 5 20 23 79 42 47 53
REMARK Flexibility Score: inf
ROOT
ATOM      1  C   UNL A   1      34.668  35.287  28.354  1.00  0.00     0.117 C 
ENDROOT
BRANCH   1   2
ATOM      2  N   UNL A   1      34.147  35.516  29.689  1.00  0.00    -0.356 N 
ATOM      3  O   UNL A   1      32.158  36.447  29.014  1.00  0.00    -0.274 OA
ATOM      4  C   UNL A   1      32.907  36.073  29.912  1.00  0.00     0.231 C 
ATOM      5  H   UNL A   1      34.701  35.263  30.463  1.00  0.00     0.163 HD
BRANCH   4   6
ATOM      6  C   UNL A   1      32.559  36.263  31.361  1.00  0.00     0.222 C 
BRANCH   6   7
ATOM      7  C   UNL A   1      33.528  37.078  32.159  1.00  0.00     0.315 C 
ATOM      8  O   UNL A   1      33.294  38.239  32.482  1.00  0.00    -0.252 OA
BRANCH   7   9
ATOM      9  O   UNL A   1      34.632  36.373  32.514  1.00  0.00    -0.461 OA
BRANCH   9  10
ATOM     10  C   UNL A   1      34.461  35.455  33.603  1.00  0.00     0.260 C 
BRANCH  10  11
ATOM     11  C   UNL A   1      34.395  34.053  33.074  1.00  0.00     0.015 C 
ATOM     12  C   UNL A   1      35.426  33.279  32.692  1.00  0.00     0.007 C 
BRANCH  12  13
ATOM     13  C   UNL A   1      36.840  33.666  32.730  1.00  0.00    -0.026 A 
ATOM     14  C   UNL A   1      37.449  34.154  31.570  1.00  0.00     0.008 A 
ATOM     15  C   UNL A   1      37.601  33.541  33.899  1.00  0.00     0.008 A 
ATOM     16  C   UNL A   1      38.789  34.546  31.586  1.00  0.00     0.001 A 
ATOM     17  C   UNL A   1      38.938  33.944  33.919  1.00  0.00     0.001 A 
ATOM     18  C   UNL A   1      39.531  34.449  32.763  1.00  0.00     0.000 A 
ENDBRANCH  12  13
ENDBRANCH  10  11
ENDBRANCH   9  10
ENDBRANCH   7   9
ENDBRANCH   6   7
ENDBRANCH   4   6
ENDBRANCH   1   2
BRANCH   1  19
ATOM     19  C   UNL A   1      35.210  33.873  28.184  1.00  0.00     0.042 C 
BRANCH  19  20
ATOM     20  C   UNL A   1      34.435  32.799  28.942  1.00  0.00     0.118 C 
BRANCH  20  21
ATOM     21  N   UNL A   1      33.840  31.801  28.067  1.00  0.00    -0.352 N 
ATOM     22  C   UNL A   1      34.348  30.617  27.592  1.00  0.00     0.251 C 
ATOM     23  H   UNL A   1      32.925  32.008  27.767  1.00  0.00     0.163 HD
ATOM     24  O   UNL A   1      33.716  30.008  26.731  1.00  0.00    -0.269 OA
BRANCH  22  25
ATOM     25  C   UNL A   1      35.643  30.084  28.079  1.00  0.00     0.039 A 
ATOM     26  C   UNL A   1      36.768  30.218  27.259  1.00  0.00     0.014 A 
ATOM     27  C   UNL A   1      35.759  29.426  29.305  1.00  0.00     0.014 A 
ATOM     28  C   UNL A   1      38.010  29.742  27.691  1.00  0.00     0.010 A 
ATOM     29  C   UNL A   1      37.012  29.025  29.770  1.00  0.00     0.010 A 
ATOM     30  C   UNL A   1      38.152  29.170  28.965  1.00  0.00    -0.014 A 
BRANCH  30  31
ATOM     31  C   UNL A   1      39.483  28.711  29.452  1.00  0.00     0.031 A 
ATOM     32  C   UNL A   1      40.187  29.455  30.558  1.00  0.00     0.074 A 
ATOM     33  C   UNL A   1      40.073  27.644  28.879  1.00  0.00     0.049 A 
ATOM     34  N   UNL A   1      41.358  29.223  31.098  1.00  0.00    -0.248 NA
ATOM     35  C   UNL A   1      39.495  30.628  31.112  1.00  0.00     0.031 C 
ATOM     36  C   UNL A   1      39.513  26.863  27.773  1.00  0.00     0.029 A 
ATOM     37  N   UNL A   1      41.272  27.028  29.143  1.00  0.00    -0.354 N 
ATOM     38  C   UNL A   1      41.546  30.224  32.046  1.00  0.00     0.074 A 
ATOM     39  C   UNL A   1      40.398  31.101  31.957  1.00  0.00     0.031 C 
ATOM     40  C   UNL A   1      40.348  25.854  27.479  1.00  0.00     0.029 A 
ATOM     41  C   UNL A   1      41.525  25.940  28.338  1.00  0.00     0.049 A 
ATOM     42  H   UNL A   1      41.891  27.335  29.843  1.00  0.00     0.167 HD
ATOM     43  C   UNL A   1      42.567  30.382  32.927  1.00  0.00     0.034 A 
ATOM     44  C   UNL A   1      42.585  25.109  28.293  1.00  0.00     0.034 A 
ATOM     45  C   UNL A   1      43.703  29.496  33.008  1.00  0.00     0.049 A 
ATOM     46  C   UNL A   1      43.718  25.319  29.265  1.00  0.00     0.074 A 
ATOM     47  C   UNL A   1      44.771  29.541  33.889  1.00  0.00     0.029 A 
ATOM     48  N   UNL A   1      43.927  28.407  32.173  1.00  0.00    -0.354 N 
ATOM     49  N   UNL A   1      43.856  26.242  30.189  1.00  0.00    -0.248 NA
ATOM     50  C   UNL A   1      44.829  24.362  29.201  1.00  0.00     0.031 C 
ATOM     51  C   UNL A   1      45.674  28.530  33.540  1.00  0.00     0.029 A 
ATOM     52  C   UNL A   1      45.129  27.794  32.500  1.00  0.00     0.049 A 
ATOM     53  H   UNL A   1      43.322  28.114  31.454  1.00  0.00     0.167 HD
ATOM     54  C   UNL A   1      45.054  25.951  30.839  1.00  0.00     0.074 A 
ATOM     55  C   UNL A   1      45.583  24.756  30.214  1.00  0.00     0.031 C 
ATOM     56  C   UNL A   1      45.657  26.608  31.864  1.00  0.00     0.034 A 
BRANCH  43  57
ATOM     57  C   UNL A   1      42.506  31.577  33.853  1.00  0.00     0.023 A 
ATOM     58  C   UNL A   1      41.848  31.519  35.095  1.00  0.00     0.031 A 
ATOM     59  C   UNL A   1      43.093  32.800  33.481  1.00  0.00     0.131 A 
ATOM     60  C   UNL A   1      41.723  32.675  35.879  1.00  0.00     0.055 A 
ATOM     61  C   UNL A   1      43.043  33.924  34.307  1.00  0.00     0.041 A 
ATOM     62  F   UNL A   1      43.717  32.928  32.299  1.00  0.00    -0.206 F 
ATOM     63  C   UNL A   1      42.340  33.872  35.507  1.00  0.00     0.022 A 
BRANCH  60  64
ATOM     64  S   UNL A   1      40.611  32.634  37.312  1.00  0.00     0.124 S 
ATOM     65  O   UNL A   1      40.262  34.045  37.455  1.00  0.00    -0.237 OA
ATOM     66  O   UNL A   1      39.542  31.753  36.857  1.00  0.00    -0.237 OA
ATOM     67  O   UNL A   1      41.451  32.097  38.382  1.00  0.00    -0.744 OA
ENDBRANCH  60  64
ENDBRANCH  43  57
BRANCH  44  68
ATOM     68  C   UNL A   1      42.637  24.001  27.293  1.00  0.00     0.023 A 
ATOM     69  C   UNL A   1      41.938  22.802  27.503  1.00  0.00     0.031 A 
ATOM     70  C   UNL A   1      43.432  24.106  26.137  1.00  0.00     0.131 A 
ATOM     71  C   UNL A   1      42.089  21.736  26.602  1.00  0.00     0.055 A 
ATOM     72  C   UNL A   1      43.531  23.065  25.212  1.00  0.00     0.041 A 
ATOM     73  F   UNL A   1      44.120  25.232  25.886  1.00  0.00    -0.206 F 
ATOM     74  C   UNL A   1      42.869  21.865  25.450  1.00  0.00     0.022 A 
BRANCH  71  75
ATOM     75  S   UNL A   1      41.328  20.140  27.007  1.00  0.00     0.124 S 
ATOM     76  O   UNL A   1      40.244  20.073  26.034  1.00  0.00    -0.237 OA
ATOM     77  O   UNL A   1      42.437  19.215  26.798  1.00  0.00    -0.237 OA
ATOM     78  O   UNL A   1      40.911  20.306  28.398  1.00  0.00    -0.744 OA
ENDBRANCH  71  75
ENDBRANCH  44  68
BRANCH  56  79
ATOM     79  C   UNL A   1      46.936  26.008  32.405  1.00  0.00     0.023 A 
ATOM     80  C   UNL A   1      46.935  25.090  33.471  1.00  0.00     0.031 A 
ATOM     81  C   UNL A   1      48.179  26.393  31.869  1.00  0.00     0.131 A 
ATOM     82  C   UNL A   1      48.151  24.653  34.019  1.00  0.00     0.055 A 
ATOM     83  C   UNL A   1      49.383  25.895  32.369  1.00  0.00     0.041 A 
ATOM     84  F   UNL A   1      48.244  27.269  30.853  1.00  0.00    -0.206 F 
ATOM     85  C   UNL A   1      49.374  25.035  33.463  1.00  0.00     0.022 A 
BRANCH  82  86
ATOM     86  S   UNL A   1      48.115  23.685  35.553  1.00  0.00     0.124 S 
ATOM     87  O   UNL A   1      48.892  24.525  36.459  1.00  0.00    -0.237 OA
ATOM     88  O   UNL A   1      46.686  23.598  35.833  1.00  0.00    -0.237 OA
ATOM     89  O   UNL A   1      48.751  22.424  35.177  1.00  0.00    -0.744 OA
ENDBRANCH  82  86
ENDBRANCH  56  79
ENDBRANCH  30  31
ENDBRANCH  22  25
ENDBRANCH  20  21
ENDBRANCH  19  20
ENDBRANCH   1  19
TORSDOF 18
ENDMDL
MODEL 3
REMARK VINA RESULT:     -10.1      4.158     12.185
REMARK SMILES O=C(CC(=O)OC/C=C\c1ccccc1)NCCCNC(=O)c1ccc(-c2c3nc(c(-c4cc(S(=O)(=O)[O-])ccc4F)c4ccc([nH]4)c(-c4cc(S(=O)(=O)[O-])ccc4F)c4nc(c(-c5cc(S(=O)(=O)[O-])ccc5F)c5ccc2[nH]5)C=C4)C=C3)cc1
REMARK SMILES IDX 17 1 16 2 1 3 2 4 3 6 4 7 5 8 6 9 7 10 8 11 9 12 10 13 11 14
REMARK SMILES IDX 15 15 12 16 14 17 13 18 18 19 19 20 20 21 21 22 22 24 23 25
REMARK SMILES IDX 24 26 85 27 25 28 84 29 26 30 27 31 28 32 78 33 29 34 83 35
REMARK SMILES IDX 77 36 79 37 30 38 82 39 76 40 75 41 31 43 63 44 43 45 62 46
REMARK SMILES IDX 44 47 47 48 61 49 80 50 45 51 46 52 60 54 81 55 48 56 32 57
REMARK SMILES IDX 33 58 41 59 34 60 40 61 42 62 39 63 35 64 36 65 37 66 38 67
REMARK SMILES IDX 64 68 65 69 73 70 66 71 72 72 74 73 71 74 67 75 68 76 69 77
REMARK SMILES IDX 70 78 49 79 50 80 58 81 51 82 57 83 59 84 56 85 52 86 53 87
REMARK SMILES IDX 54 88 55 89
REMARK H PARENT 16 5 20 23 79 42 47 53
REMARK Flexibility Score: inf
ROOT
ATOM      1  C   UNL A   1      34.444  35.417  28.421  1.00  0.00     0.117 C 
ENDROOT
BRANCH   1   2
ATOM      2  N   UNL A   1      33.904  35.449  29.766  1.00  0.00    -0.356 N 
ATOM      3  O   UNL A   1      33.116  37.605  29.658  1.00  0.00    -0.274 OA
ATOM      4  C   UNL A   1      33.260  36.554  30.277  1.00  0.00     0.231 C 
ATOM      5  H   UNL A   1      34.002  34.651  30.335  1.00  0.00     0.163 HD
BRANCH   4   6
ATOM      6  C   UNL A   1      32.802  36.408  31.701  1.00  0.00     0.222 C 
BRANCH   6   7
ATOM      7  C   UNL A   1      33.869  36.543  32.741  1.00  0.00     0.315 C 
ATOM      8  O   UNL A   1      33.920  37.502  33.504  1.00  0.00    -0.252 OA
BRANCH   7   9
ATOM      9  O   UNL A   1      34.706  35.475  32.768  1.00  0.00    -0.461 OA
BRANCH   9  10
ATOM     10  C   UNL A   1      35.048  34.984  34.072  1.00  0.00     0.260 C 
BRANCH  10  11
ATOM     11  C   UNL A   1      35.180  33.491  34.030  1.00  0.00     0.015 C 
ATOM     12  C   UNL A   1      36.112  32.775  33.378  1.00  0.00     0.007 C 
BRANCH  12  13
ATOM     13  C   UNL A   1      37.206  33.333  32.576  1.00  0.00    -0.026 A 
ATOM     14  C   UNL A   1      37.106  33.326  31.181  1.00  0.00     0.008 A 
ATOM     15  C   UNL A   1      38.359  33.856  33.175  1.00  0.00     0.008 A 
ATOM     16  C   UNL A   1      38.126  33.869  30.397  1.00  0.00     0.001 A 
ATOM     17  C   UNL A   1      39.374  34.408  32.391  1.00  0.00     0.001 A 
ATOM     18  C   UNL A   1      39.256  34.417  31.002  1.00  0.00     0.000 A 
ENDBRANCH  12  13
ENDBRANCH  10  11
ENDBRANCH   9  10
ENDBRANCH   7   9
ENDBRANCH   6   7
ENDBRANCH   4   6
ENDBRANCH   1   2
BRANCH   1  19
ATOM     19  C   UNL A   1      34.961  34.034  28.041  1.00  0.00     0.042 C 
BRANCH  19  20
ATOM     20  C   UNL A   1      34.327  32.883  28.818  1.00  0.00     0.118 C 
BRANCH  20  21
ATOM     21  N   UNL A   1      33.807  31.832  27.957  1.00  0.00    -0.352 N 
ATOM     22  C   UNL A   1      34.389  30.666  27.525  1.00  0.00     0.251 C 
ATOM     23  H   UNL A   1      32.889  31.981  27.632  1.00  0.00     0.163 HD
ATOM     24  O   UNL A   1      33.811  30.002  26.667  1.00  0.00    -0.269 OA
BRANCH  22  25
ATOM     25  C   UNL A   1      35.699  30.218  28.054  1.00  0.00     0.039 A 
ATOM     26  C   UNL A   1      35.739  29.632  29.323  1.00  0.00     0.014 A 
ATOM     27  C   UNL A   1      36.886  30.398  27.341  1.00  0.00     0.014 A 
ATOM     28  C   UNL A   1      36.955  29.183  29.849  1.00  0.00     0.010 A 
ATOM     29  C   UNL A   1      38.085  29.876  27.830  1.00  0.00     0.010 A 
ATOM     30  C   UNL A   1      38.136  29.270  29.094  1.00  0.00    -0.014 A 
BRANCH  30  31
ATOM     31  C   UNL A   1      39.423  28.742  29.626  1.00  0.00     0.031 A 
ATOM     32  C   UNL A   1      40.046  29.352  30.856  1.00  0.00     0.074 A 
ATOM     33  C   UNL A   1      40.048  27.735  28.985  1.00  0.00     0.049 A 
ATOM     34  N   UNL A   1      41.172  29.046  31.453  1.00  0.00    -0.248 NA
ATOM     35  C   UNL A   1      39.322  30.467  31.481  1.00  0.00     0.031 C 
ATOM     36  C   UNL A   1      39.569  27.086  27.762  1.00  0.00     0.029 A 
ATOM     37  N   UNL A   1      41.220  27.077  29.270  1.00  0.00    -0.354 N 
ATOM     38  C   UNL A   1      41.293  29.935  32.515  1.00  0.00     0.074 A 
ATOM     39  C   UNL A   1      40.161  30.834  32.438  1.00  0.00     0.031 C 
ATOM     40  C   UNL A   1      40.418  26.103  27.423  1.00  0.00     0.029 A 
ATOM     41  C   UNL A   1      41.527  26.079  28.372  1.00  0.00     0.049 A 
ATOM     42  H   UNL A   1      41.787  27.298  30.043  1.00  0.00     0.167 HD
ATOM     43  C   UNL A   1      42.246  29.983  33.482  1.00  0.00     0.034 A 
ATOM     44  C   UNL A   1      42.582  25.243  28.315  1.00  0.00     0.034 A 
ATOM     45  C   UNL A   1      43.367  29.077  33.550  1.00  0.00     0.049 A 
ATOM     46  C   UNL A   1      43.640  25.330  29.386  1.00  0.00     0.074 A 
ATOM     47  C   UNL A   1      44.366  29.011  34.508  1.00  0.00     0.029 A 
ATOM     48  N   UNL A   1      43.648  28.082  32.620  1.00  0.00    -0.354 N 
ATOM     49  N   UNL A   1      43.713  26.146  30.413  1.00  0.00    -0.248 NA
ATOM     50  C   UNL A   1      44.747  24.369  29.300  1.00  0.00     0.031 C 
ATOM     51  C   UNL A   1      45.286  28.031  34.119  1.00  0.00     0.029 A 
ATOM     52  C   UNL A   1      44.817  27.420  32.967  1.00  0.00     0.049 A 
ATOM     53  H   UNL A   1      43.097  27.877  31.831  1.00  0.00     0.167 HD
ATOM     54  C   UNL A   1      44.857  25.769  31.115  1.00  0.00     0.074 A 
ATOM     55  C   UNL A   1      45.424  24.642  30.404  1.00  0.00     0.031 C 
ATOM     56  C   UNL A   1      45.385  26.303  32.247  1.00  0.00     0.034 A 
BRANCH  43  57
ATOM     57  C   UNL A   1      42.122  31.072  34.526  1.00  0.00     0.023 A 
ATOM     58  C   UNL A   1      42.571  32.383  34.286  1.00  0.00     0.031 A 
ATOM     59  C   UNL A   1      41.570  30.790  35.789  1.00  0.00     0.131 A 
ATOM     60  C   UNL A   1      42.536  33.337  35.313  1.00  0.00     0.055 A 
ATOM     61  C   UNL A   1      41.455  31.770  36.778  1.00  0.00     0.041 A 
ATOM     62  F   UNL A   1      41.143  29.554  36.089  1.00  0.00    -0.206 F 
ATOM     63  C   UNL A   1      41.955  33.048  36.549  1.00  0.00     0.022 A 
BRANCH  60  64
ATOM     64  S   UNL A   1      43.401  34.912  35.062  1.00  0.00     0.124 S 
ATOM     65  O   UNL A   1      43.375  35.480  36.408  1.00  0.00    -0.237 OA
ATOM     66  O   UNL A   1      44.705  34.481  34.574  1.00  0.00    -0.237 OA
ATOM     67  O   UNL A   1      42.566  35.610  34.085  1.00  0.00    -0.744 OA
ENDBRANCH  60  64
ENDBRANCH  43  57
BRANCH  44  68
ATOM     68  C   UNL A   1      42.703  24.249  27.207  1.00  0.00     0.023 A 
ATOM     69  C   UNL A   1      42.025  23.021  27.258  1.00  0.00     0.031 A 
ATOM     70  C   UNL A   1      43.543  24.492  26.105  1.00  0.00     0.131 A 
ATOM     71  C   UNL A   1      42.239  22.060  26.257  1.00  0.00     0.055 A 
ATOM     72  C   UNL A   1      43.706  23.558  25.081  1.00  0.00     0.041 A 
ATOM     73  F   UNL A   1      44.213  25.651  26.004  1.00  0.00    -0.206 F 
ATOM     74  C   UNL A   1      43.063  22.326  25.161  1.00  0.00     0.022 A 
BRANCH  71  75
ATOM     75  S   UNL A   1      41.500  20.415  26.457  1.00  0.00     0.124 S 
ATOM     76  O   UNL A   1      40.087  20.697  26.238  1.00  0.00    -0.237 OA
ATOM     77  O   UNL A   1      42.174  19.652  25.412  1.00  0.00    -0.237 OA
ATOM     78  O   UNL A   1      41.860  20.046  27.825  1.00  0.00    -0.744 OA
ENDBRANCH  71  75
ENDBRANCH  44  68
BRANCH  56  79
ATOM     79  C   UNL A   1      46.616  25.629  32.813  1.00  0.00     0.023 A 
ATOM     80  C   UNL A   1      47.903  25.889  32.310  1.00  0.00     0.031 A 
ATOM     81  C   UNL A   1      46.491  24.682  33.845  1.00  0.00     0.131 A 
ATOM     82  C   UNL A   1      49.000  25.152  32.782  1.00  0.00     0.055 A 
ATOM     83  C   UNL A   1      47.597  24.007  34.363  1.00  0.00     0.041 A 
ATOM     84  F   UNL A   1      45.287  24.388  34.363  1.00  0.00    -0.206 F 
ATOM     85  C   UNL A   1      48.859  24.226  33.818  1.00  0.00     0.022 A 
BRANCH  82  86
ATOM     86  S   UNL A   1      50.594  25.322  31.931  1.00  0.00     0.124 S 
ATOM     87  O   UNL A   1      50.880  23.945  31.545  1.00  0.00    -0.237 OA
ATOM     88  O   UNL A   1      50.268  26.235  30.840  1.00  0.00    -0.237 OA
ATOM     89  O   UNL A   1      51.474  25.874  32.959  1.00  0.00    -0.744 OA
ENDBRANCH  82  86
ENDBRANCH  56  79
ENDBRANCH  30  31
ENDBRANCH  22  25
ENDBRANCH  20  21
ENDBRANCH  19  20
ENDBRANCH   1  19
TORSDOF 18
ENDMDL
