MODEL 1
REMARK VINA RESULT:     -10.4      0.000      0.000
REMARK SMILES [NH3+][C@@H](CC(=O)NCCCNC(=O)c1ccc(-c2c3nc(c(-c4cc(S(=O)(=O)[O-])ccc4F)c4ccc([nH]4)c(-c4cc(S(=O)(=O)[O-])ccc4F)c4nc(c(-c5cc(S(=O)(=O)[O-])ccc5F)c5ccc2[nH]5)C=C4)C=C3)cc1)c1ccc(C(F)(F)F)cc1F
REMARK SMILES IDX 8 1 7 2 6 3 4 4 5 5 3 7 2 8 1 9 76 13 77 14 85 15 78 16
REMARK SMILES IDX 84 17 86 18 79 19 80 20 81 21 82 22 83 23 9 24 10 25 11 26
REMARK SMILES IDX 12 28 13 29 14 30 75 31 15 32 74 33 16 34 17 35 18 36 68 37
REMARK SMILES IDX 19 38 73 39 67 40 69 41 20 42 72 43 66 44 65 45 21 47 53 48
REMARK SMILES IDX 33 49 52 50 34 51 37 52 51 53 70 54 35 55 36 56 50 58 71 59
REMARK SMILES IDX 38 60 22 61 23 62 31 63 24 64 30 65 32 66 29 67 25 68 26 69
REMARK SMILES IDX 27 70 28 71 54 72 55 73 63 74 56 75 62 76 64 77 61 78 57 79
REMARK SMILES IDX 58 80 59 81 60 82 39 83 40 84 48 85 41 86 47 87 49 88 46 89
REMARK SMILES IDX 42 90 43 91 44 92 45 93
REMARK H PARENT 6 6 1 10 1 11 1 12 10 27 69 46 37 57
REMARK Flexibility Score: inf
ROOT
ATOM      1  C   UNL A   1      33.972  35.013  28.574  1.00  0.00     0.042 C 
ENDROOT
BRANCH   1   2
ATOM      2  C   UNL A   1      33.259  34.963  29.922  1.00  0.00     0.117 C 
BRANCH   2   3
ATOM      3  N   UNL A   1      33.655  36.058  30.787  1.00  0.00    -0.356 N 
ATOM      4  C   UNL A   1      33.815  36.100  32.137  1.00  0.00     0.226 C 
ATOM      5  O   UNL A   1      34.182  37.167  32.635  1.00  0.00    -0.275 OA
ATOM      6  H   UNL A   1      33.837  36.907  30.323  1.00  0.00     0.163 HD
BRANCH   4   7
ATOM      7  C   UNL A   1      33.587  34.879  32.999  1.00  0.00     0.170 C 
BRANCH   7   8
ATOM      8  C   UNL A   1      34.787  34.015  33.447  1.00  0.00     0.224 C 
BRANCH   8   9
ATOM      9  N   UNL A   1      35.119  34.116  34.869  1.00  0.00    -0.351 N 
ATOM     10  H   UNL A   1      36.027  33.683  35.038  1.00  0.00     0.345 HD
ATOM     11  H   UNL A   1      34.406  33.639  35.419  1.00  0.00     0.345 HD
ATOM     12  H   UNL A   1      35.156  35.099  35.140  1.00  0.00     0.345 HD
ENDBRANCH   8   9
BRANCH   8  13
ATOM     13  C   UNL A   1      36.049  34.031  32.606  1.00  0.00     0.045 A 
ATOM     14  C   UNL A   1      37.207  34.739  32.962  1.00  0.00     0.013 A 
ATOM     15  C   UNL A   1      36.110  33.247  31.445  1.00  0.00     0.132 A 
ATOM     16  C   UNL A   1      38.348  34.717  32.150  1.00  0.00     0.014 A 
ATOM     17  C   UNL A   1      37.250  33.197  30.643  1.00  0.00     0.052 A 
ATOM     18  F   UNL A   1      35.051  32.513  31.072  1.00  0.00    -0.206 F 
ATOM     19  C   UNL A   1      38.382  33.947  30.980  1.00  0.00     0.058 A 
BRANCH  19  20
ATOM     20  C   UNL A   1      39.603  33.957  30.098  1.00  0.00     0.416 C 
ATOM     21  F   UNL A   1      39.385  34.618  28.926  1.00  0.00    -0.166 F 
ATOM     22  F   UNL A   1      40.672  34.569  30.678  1.00  0.00    -0.166 F 
ATOM     23  F   UNL A   1      40.029  32.712  29.745  1.00  0.00    -0.166 F 
ENDBRANCH  19  20
ENDBRANCH   8  13
ENDBRANCH   7   8
ENDBRANCH   4   7
ENDBRANCH   2   3
ENDBRANCH   1   2
BRANCH   1  24
ATOM     24  C   UNL A   1      34.765  33.758  28.227  1.00  0.00     0.118 C 
BRANCH  24  25
ATOM     25  N   UNL A   1      33.921  32.676  27.753  1.00  0.00    -0.352 N 
ATOM     26  C   UNL A   1      34.184  31.334  27.617  1.00  0.00     0.251 C 
ATOM     27  H   UNL A   1      33.013  32.945  27.484  1.00  0.00     0.163 HD
ATOM     28  O   UNL A   1      33.382  30.638  26.993  1.00  0.00    -0.269 OA
BRANCH  26  29
ATOM     29  C   UNL A   1      35.411  30.723  28.182  1.00  0.00     0.039 A 
ATOM     30  C   UNL A   1      36.650  31.086  27.645  1.00  0.00     0.014 A 
ATOM     31  C   UNL A   1      35.356  29.765  29.198  1.00  0.00     0.014 A 
ATOM     32  C   UNL A   1      37.827  30.537  28.163  1.00  0.00     0.010 A 
ATOM     33  C   UNL A   1      36.533  29.281  29.769  1.00  0.00     0.010 A 
ATOM     34  C   UNL A   1      37.783  29.654  29.253  1.00  0.00    -0.014 A 
BRANCH  34  35
ATOM     35  C   UNL A   1      39.029  29.099  29.850  1.00  0.00     0.031 A 
ATOM     36  C   UNL A   1      39.536  29.625  31.168  1.00  0.00     0.074 A 
ATOM     37  C   UNL A   1      39.733  28.161  29.185  1.00  0.00     0.049 A 
ATOM     38  N   UNL A   1      40.638  29.330  31.811  1.00  0.00    -0.248 NA
ATOM     39  C   UNL A   1      38.706  30.639  31.835  1.00  0.00     0.031 C 
ATOM     40  C   UNL A   1      39.364  27.592  27.887  1.00  0.00     0.029 A 
ATOM     41  N   UNL A   1      40.907  27.525  29.501  1.00  0.00    -0.354 N 
ATOM     42  C   UNL A   1      40.641  30.131  32.949  1.00  0.00     0.074 A 
ATOM     43  C   UNL A   1      39.462  30.968  32.871  1.00  0.00     0.031 C 
ATOM     44  C   UNL A   1      40.278  26.675  27.532  1.00  0.00     0.029 A 
ATOM     45  C   UNL A   1      41.323  26.623  28.550  1.00  0.00     0.049 A 
ATOM     46  H   UNL A   1      41.406  27.699  30.333  1.00  0.00     0.167 HD
ATOM     47  C   UNL A   1      41.528  30.150  33.975  1.00  0.00     0.034 A 
ATOM     48  C   UNL A   1      42.427  25.852  28.494  1.00  0.00     0.034 A 
ATOM     49  C   UNL A   1      42.692  29.299  34.045  1.00  0.00     0.049 A 
ATOM     50  C   UNL A   1      43.419  25.915  29.629  1.00  0.00     0.074 A 
ATOM     51  C   UNL A   1      43.630  29.201  35.058  1.00  0.00     0.029 A 
ATOM     52  N   UNL A   1      43.084  28.404  33.058  1.00  0.00    -0.354 N 
ATOM     53  N   UNL A   1      43.384  26.647  30.717  1.00  0.00    -0.248 NA
ATOM     54  C   UNL A   1      44.593  25.038  29.530  1.00  0.00     0.031 C 
ATOM     55  C   UNL A   1      44.621  28.300  34.656  1.00  0.00     0.029 A 
ATOM     56  C   UNL A   1      44.264  27.774  33.425  1.00  0.00     0.049 A 
ATOM     57  H   UNL A   1      42.596  28.240  32.218  1.00  0.00     0.167 HD
ATOM     58  C   UNL A   1      44.516  26.294  31.448  1.00  0.00     0.074 A 
ATOM     59  C   UNL A   1      45.202  25.274  30.682  1.00  0.00     0.031 C 
ATOM     60  C   UNL A   1      44.945  26.765  32.647  1.00  0.00     0.034 A 
BRANCH  47  61
ATOM     61  C   UNL A   1      41.280  31.142  35.089  1.00  0.00     0.023 A 
ATOM     62  C   UNL A   1      40.120  31.088  35.881  1.00  0.00     0.031 A 
ATOM     63  C   UNL A   1      42.199  32.176  35.342  1.00  0.00     0.131 A 
ATOM     64  C   UNL A   1      39.867  32.094  36.825  1.00  0.00     0.055 A 
ATOM     65  C   UNL A   1      41.983  33.125  36.344  1.00  0.00     0.041 A 
ATOM     66  F   UNL A   1      43.316  32.294  34.607  1.00  0.00    -0.206 F 
ATOM     67  C   UNL A   1      40.803  33.098  37.082  1.00  0.00     0.022 A 
BRANCH  64  68
ATOM     68  S   UNL A   1      38.228  32.159  37.599  1.00  0.00     0.124 S 
ATOM     69  O   UNL A   1      37.627  33.303  36.918  1.00  0.00    -0.237 OA
ATOM     70  O   UNL A   1      37.670  30.853  37.270  1.00  0.00    -0.237 OA
ATOM     71  O   UNL A   1      38.525  32.373  39.014  1.00  0.00    -0.744 OA
ENDBRANCH  64  68
ENDBRANCH  47  61
BRANCH  48  72
ATOM     72  C   UNL A   1      42.667  24.959  27.325  1.00  0.00     0.023 A 
ATOM     73  C   UNL A   1      42.165  23.647  27.303  1.00  0.00     0.031 A 
ATOM     74  C   UNL A   1      43.439  25.386  26.229  1.00  0.00     0.131 A 
ATOM     75  C   UNL A   1      42.478  22.796  26.233  1.00  0.00     0.055 A 
ATOM     76  C   UNL A   1      43.703  24.552  25.141  1.00  0.00     0.041 A 
ATOM     77  F   UNL A   1      43.939  26.632  26.197  1.00  0.00    -0.206 F 
ATOM     78  C   UNL A   1      43.232  23.242  25.146  1.00  0.00     0.022 A 
BRANCH  75  79
ATOM     79  S   UNL A   1      41.954  21.061  26.323  1.00  0.00     0.124 S 
ATOM     80  O   UNL A   1      40.537  21.162  25.994  1.00  0.00    -0.237 OA
ATOM     81  O   UNL A   1      42.804  20.436  25.315  1.00  0.00    -0.237 OA
ATOM     82  O   UNL A   1      42.250  20.687  27.703  1.00  0.00    -0.744 OA
ENDBRANCH  75  79
ENDBRANCH  48  72
BRANCH  60  83
ATOM     83  C   UNL A   1      46.194  26.141  33.222  1.00  0.00     0.023 A 
ATOM     84  C   UNL A   1      46.144  24.992  34.031  1.00  0.00     0.031 A 
ATOM     85  C   UNL A   1      47.452  26.715  32.965  1.00  0.00     0.131 A 
ATOM     86  C   UNL A   1      47.322  24.487  34.601  1.00  0.00     0.055 A 
ATOM     87  C   UNL A   1      48.628  26.172  33.485  1.00  0.00     0.041 A 
ATOM     88  F   UNL A   1      47.559  27.814  32.202  1.00  0.00    -0.206 F 
ATOM     89  C   UNL A   1      48.566  25.059  34.318  1.00  0.00     0.022 A 
BRANCH  86  90
ATOM     90  S   UNL A   1      47.202  23.124  35.791  1.00  0.00     0.124 S 
ATOM     91  O   UNL A   1      46.708  23.805  36.983  1.00  0.00    -0.237 OA
ATOM     92  O   UNL A   1      46.259  22.221  35.137  1.00  0.00    -0.237 OA
ATOM     93  O   UNL A   1      48.573  22.626  35.883  1.00  0.00    -0.744 OA
ENDBRANCH  86  90
ENDBRANCH  60  83
ENDBRANCH  34  35
ENDBRANCH  26  29
ENDBRANCH  24  25
ENDBRANCH   1  24
TORSDOF 17
ENDMDL
MODEL 2
REMARK VINA RESULT:     -10.2      1.848      2.362
REMARK SMILES [NH3+][C@@H](CC(=O)NCCCNC(=O)c1ccc(-c2c3nc(c(-c4cc(S(=O)(=O)[O-])ccc4F)c4ccc([nH]4)c(-c4cc(S(=O)(=O)[O-])ccc4F)c4nc(c(-c5cc(S(=O)(=O)[O-])ccc5F)c5ccc2[nH]5)C=C4)C=C3)cc1)c1ccc(C(F)(F)F)cc1F
REMARK SMILES IDX 8 1 7 2 6 3 4 4 5 5 3 7 2 8 1 9 76 13 77 14 85 15 78 16
REMARK SMILES IDX 84 17 86 18 79 19 80 20 81 21 82 22 83 23 9 24 10 25 11 26
REMARK SMILES IDX 12 28 13 29 14 30 75 31 15 32 74 33 16 34 17 35 18 36 68 37
REMARK SMILES IDX 19 38 73 39 67 40 69 41 20 42 72 43 66 44 65 45 21 47 53 48
REMARK SMILES IDX 33 49 52 50 34 51 37 52 51 53 70 54 35 55 36 56 50 58 71 59
REMARK SMILES IDX 38 60 22 61 23 62 31 63 24 64 30 65 32 66 29 67 25 68 26 69
REMARK SMILES IDX 27 70 28 71 54 72 55 73 63 74 56 75 62 76 64 77 61 78 57 79
REMARK SMILES IDX 58 80 59 81 60 82 39 83 40 84 48 85 41 86 47 87 49 88 46 89
REMARK SMILES IDX 42 90 43 91 44 92 45 93
REMARK H PARENT 6 6 1 10 1 11 1 12 10 27 69 46 37 57
REMARK Flexibility Score: inf
ROOT
ATOM      1  C   UNL A   1      34.451  34.746  28.195  1.00  0.00     0.042 C 
ENDROOT
BRANCH   1   2
ATOM      2  C   UNL A   1      33.031  34.774  28.752  1.00  0.00     0.117 C 
BRANCH   2   3
ATOM      3  N   UNL A   1      32.738  36.023  29.429  1.00  0.00    -0.356 N 
ATOM      4  C   UNL A   1      33.207  36.518  30.606  1.00  0.00     0.226 C 
ATOM      5  O   UNL A   1      32.807  37.630  30.956  1.00  0.00    -0.275 OA
ATOM      6  H   UNL A   1      32.095  36.605  28.962  1.00  0.00     0.163 HD
BRANCH   4   7
ATOM      7  C   UNL A   1      34.211  35.754  31.441  1.00  0.00     0.170 C 
BRANCH   7   8
ATOM      8  C   UNL A   1      33.803  34.424  32.111  1.00  0.00     0.224 C 
BRANCH   8   9
ATOM      9  N   UNL A   1      32.628  34.509  32.979  1.00  0.00    -0.351 N 
ATOM     10  H   UNL A   1      31.919  33.849  32.658  1.00  0.00     0.345 HD
ATOM     11  H   UNL A   1      32.251  35.455  32.948  1.00  0.00     0.345 HD
ATOM     12  H   UNL A   1      32.895  34.281  33.937  1.00  0.00     0.345 HD
ENDBRANCH   8   9
BRANCH   8  13
ATOM     13  C   UNL A   1      34.881  33.575  32.760  1.00  0.00     0.045 A 
ATOM     14  C   UNL A   1      35.388  32.400  32.186  1.00  0.00     0.013 A 
ATOM     15  C   UNL A   1      35.466  34.007  33.958  1.00  0.00     0.132 A 
ATOM     16  C   UNL A   1      36.387  31.655  32.826  1.00  0.00     0.014 A 
ATOM     17  C   UNL A   1      36.479  33.287  34.590  1.00  0.00     0.052 A 
ATOM     18  F   UNL A   1      35.055  35.146  34.536  1.00  0.00    -0.206 F 
ATOM     19  C   UNL A   1      36.942  32.089  34.037  1.00  0.00     0.058 A 
BRANCH  19  20
ATOM     20  C   UNL A   1      37.993  31.262  34.731  1.00  0.00     0.416 C 
ATOM     21  F   UNL A   1      38.120  30.022  34.179  1.00  0.00    -0.166 F 
ATOM     22  F   UNL A   1      39.232  31.824  34.677  1.00  0.00    -0.166 F 
ATOM     23  F   UNL A   1      37.734  31.053  36.052  1.00  0.00    -0.166 F 
ENDBRANCH  19  20
ENDBRANCH   8  13
ENDBRANCH   7   8
ENDBRANCH   4   7
ENDBRANCH   2   3
ENDBRANCH   1   2
BRANCH   1  24
ATOM     24  C   UNL A   1      35.147  33.393  28.293  1.00  0.00     0.118 C 
BRANCH  24  25
ATOM     25  N   UNL A   1      34.262  32.285  27.978  1.00  0.00    -0.352 N 
ATOM     26  C   UNL A   1      34.520  30.939  27.882  1.00  0.00     0.251 C 
ATOM     27  H   UNL A   1      33.326  32.538  27.806  1.00  0.00     0.163 HD
ATOM     28  O   UNL A   1      33.655  30.209  27.394  1.00  0.00    -0.269 OA
BRANCH  26  29
ATOM     29  C   UNL A   1      35.810  30.362  28.329  1.00  0.00     0.039 A 
ATOM     30  C   UNL A   1      36.905  30.414  27.461  1.00  0.00     0.014 A 
ATOM     31  C   UNL A   1      35.944  29.729  29.568  1.00  0.00     0.014 A 
ATOM     32  C   UNL A   1      38.139  29.888  27.856  1.00  0.00     0.010 A 
ATOM     33  C   UNL A   1      37.195  29.281  29.994  1.00  0.00     0.010 A 
ATOM     34  C   UNL A   1      38.306  29.347  29.140  1.00  0.00    -0.014 A 
BRANCH  34  35
ATOM     35  C   UNL A   1      39.625  28.830  29.597  1.00  0.00     0.031 A 
ATOM     36  C   UNL A   1      40.383  29.546  30.685  1.00  0.00     0.074 A 
ATOM     37  C   UNL A   1      40.166  27.749  29.000  1.00  0.00     0.049 A 
ATOM     38  N   UNL A   1      41.577  29.301  31.164  1.00  0.00    -0.248 NA
ATOM     39  C   UNL A   1      39.720  30.710  31.292  1.00  0.00     0.031 C 
ATOM     40  C   UNL A   1      39.546  26.986  27.914  1.00  0.00     0.029 A 
ATOM     41  N   UNL A   1      41.361  27.108  29.213  1.00  0.00    -0.354 N 
ATOM     42  C   UNL A   1      41.814  30.287  32.117  1.00  0.00     0.074 A 
ATOM     43  C   UNL A   1      40.665  31.168  32.099  1.00  0.00     0.031 C 
ATOM     44  C   UNL A   1      40.352  25.967  27.576  1.00  0.00     0.029 A 
ATOM     45  C   UNL A   1      41.567  26.030  28.383  1.00  0.00     0.049 A 
ATOM     46  H   UNL A   1      42.010  27.393  29.896  1.00  0.00     0.167 HD
ATOM     47  C   UNL A   1      42.877  30.430  32.948  1.00  0.00     0.034 A 
ATOM     48  C   UNL A   1      42.619  25.195  28.273  1.00  0.00     0.034 A 
ATOM     49  C   UNL A   1      44.010  29.535  32.963  1.00  0.00     0.049 A 
ATOM     50  C   UNL A   1      43.807  25.394  29.182  1.00  0.00     0.074 A 
ATOM     51  C   UNL A   1      45.118  29.559  33.794  1.00  0.00     0.029 A 
ATOM     52  N   UNL A   1      44.186  28.460  32.102  1.00  0.00    -0.354 N 
ATOM     53  N   UNL A   1      43.996  26.306  30.107  1.00  0.00    -0.248 NA
ATOM     54  C   UNL A   1      44.917  24.443  29.038  1.00  0.00     0.031 C 
ATOM     55  C   UNL A   1      45.991  28.542  33.393  1.00  0.00     0.029 A 
ATOM     56  C   UNL A   1      45.396  27.833  32.362  1.00  0.00     0.049 A 
ATOM     57  H   UNL A   1      43.546  28.182  31.408  1.00  0.00     0.167 HD
ATOM     58  C   UNL A   1      45.234  26.017  30.676  1.00  0.00     0.074 A 
ATOM     59  C   UNL A   1      45.737  24.840  30.000  1.00  0.00     0.031 C 
ATOM     60  C   UNL A   1      45.892  26.664  31.673  1.00  0.00     0.034 A 
BRANCH  47  61
ATOM     61  C   UNL A   1      42.869  31.615  33.887  1.00  0.00     0.023 A 
ATOM     62  C   UNL A   1      42.552  31.474  35.250  1.00  0.00     0.031 A 
ATOM     63  C   UNL A   1      43.150  32.907  33.410  1.00  0.00     0.131 A 
ATOM     64  C   UNL A   1      42.439  32.609  36.065  1.00  0.00     0.055 A 
ATOM     65  C   UNL A   1      43.121  34.025  34.248  1.00  0.00     0.041 A 
ATOM     66  F   UNL A   1      43.439  33.111  32.116  1.00  0.00    -0.206 F 
ATOM     67  C   UNL A   1      42.747  33.882  35.581  1.00  0.00     0.022 A 
BRANCH  64  68
ATOM     68  S   UNL A   1      41.730  32.414  37.724  1.00  0.00     0.124 S 
ATOM     69  O   UNL A   1      42.051  33.702  38.334  1.00  0.00    -0.237 OA
ATOM     70  O   UNL A   1      40.320  32.175  37.439  1.00  0.00    -0.237 OA
ATOM     71  O   UNL A   1      42.458  31.274  38.276  1.00  0.00    -0.744 OA
ENDBRANCH  64  68
ENDBRANCH  47  61
BRANCH  48  72
ATOM     72  C   UNL A   1      42.613  24.098  27.263  1.00  0.00     0.023 A 
ATOM     73  C   UNL A   1      41.963  22.881  27.524  1.00  0.00     0.031 A 
ATOM     74  C   UNL A   1      43.291  24.233  26.039  1.00  0.00     0.131 A 
ATOM     75  C   UNL A   1      42.045  21.832  26.597  1.00  0.00     0.055 A 
ATOM     76  C   UNL A   1      43.325  23.205  25.096  1.00  0.00     0.041 A 
ATOM     77  F   UNL A   1      43.925  25.378  25.738  1.00  0.00    -0.206 F 
ATOM     78  C   UNL A   1      42.710  21.989  25.379  1.00  0.00     0.022 A 
BRANCH  75  79
ATOM     79  S   UNL A   1      41.338  20.221  27.044  1.00  0.00     0.124 S 
ATOM     80  O   UNL A   1      40.338  20.036  25.999  1.00  0.00    -0.237 OA
ATOM     81  O   UNL A   1      42.505  19.350  26.976  1.00  0.00    -0.237 OA
ATOM     82  O   UNL A   1      40.806  20.444  28.386  1.00  0.00    -0.744 OA
ENDBRANCH  75  79
ENDBRANCH  48  72
BRANCH  60  83
ATOM     83  C   UNL A   1      47.208  26.074  32.120  1.00  0.00     0.023 A 
ATOM     84  C   UNL A   1      47.290  25.176  33.199  1.00  0.00     0.031 A 
ATOM     85  C   UNL A   1      48.399  26.430  31.464  1.00  0.00     0.131 A 
ATOM     86  C   UNL A   1      48.542  24.708  33.624  1.00  0.00     0.055 A 
ATOM     87  C   UNL A   1      49.636  25.913  31.852  1.00  0.00     0.041 A 
ATOM     88  F   UNL A   1      48.381  27.286  30.430  1.00  0.00    -0.206 F 
ATOM     89  C   UNL A   1      49.714  25.056  32.947  1.00  0.00     0.022 A 
BRANCH  86  90
ATOM     90  S   UNL A   1      48.632  23.705  35.133  1.00  0.00     0.124 S 
ATOM     91  O   UNL A   1      47.872  22.518  34.754  1.00  0.00    -0.237 OA
ATOM     92  O   UNL A   1      50.070  23.514  35.296  1.00  0.00    -0.237 OA
ATOM     93  O   UNL A   1      48.001  24.549  36.145  1.00  0.00    -0.744 OA
ENDBRANCH  86  90
ENDBRANCH  60  83
ENDBRANCH  34  35
ENDBRANCH  26  29
ENDBRANCH  24  25
ENDBRANCH   1  24
TORSDOF 17
ENDMDL
MODEL 3
REMARK VINA RESULT:     -10.2      4.263     10.076
REMARK SMILES [NH3+][C@@H](CC(=O)NCCCNC(=O)c1ccc(-c2c3nc(c(-c4cc(S(=O)(=O)[O-])ccc4F)c4ccc([nH]4)c(-c4cc(S(=O)(=O)[O-])ccc4F)c4nc(c(-c5cc(S(=O)(=O)[O-])ccc5F)c5ccc2[nH]5)C=C4)C=C3)cc1)c1ccc(C(F)(F)F)cc1F
REMARK SMILES IDX 8 1 7 2 6 3 4 4 5 5 3 7 2 8 1 9 76 13 77 14 85 15 78 16
REMARK SMILES IDX 84 17 86 18 79 19 80 20 81 21 82 22 83 23 9 24 10 25 11 26
REMARK SMILES IDX 12 28 13 29 14 30 75 31 15 32 74 33 16 34 17 35 18 36 68 37
REMARK SMILES IDX 19 38 73 39 67 40 69 41 20 42 72 43 66 44 65 45 21 47 53 48
REMARK SMILES IDX 33 49 52 50 34 51 37 52 51 53 70 54 35 55 36 56 50 58 71 59
REMARK SMILES IDX 38 60 22 61 23 62 31 63 24 64 30 65 32 66 29 67 25 68 26 69
REMARK SMILES IDX 27 70 28 71 54 72 55 73 63 74 56 75 62 76 64 77 61 78 57 79
REMARK SMILES IDX 58 80 59 81 60 82 39 83 40 84 48 85 41 86 47 87 49 88 46 89
REMARK SMILES IDX 42 90 43 91 44 92 45 93
REMARK H PARENT 6 6 1 10 1 11 1 12 10 27 69 46 37 57
REMARK Flexibility Score: inf
ROOT
ATOM      1  C   UNL A   1      31.754  28.599  25.934  1.00  0.00     0.042 C 
ENDROOT
BRANCH   1   2
ATOM      2  C   UNL A   1      32.272  27.366  26.668  1.00  0.00     0.117 C 
BRANCH   2   3
ATOM      3  N   UNL A   1      31.230  26.379  26.875  1.00  0.00    -0.356 N 
ATOM      4  C   UNL A   1      30.828  25.344  26.089  1.00  0.00     0.226 C 
ATOM      5  O   UNL A   1      29.915  24.630  26.509  1.00  0.00    -0.275 OA
ATOM      6  H   UNL A   1      30.733  26.473  27.720  1.00  0.00     0.163 HD
BRANCH   4   7
ATOM      7  C   UNL A   1      31.496  25.052  24.763  1.00  0.00     0.170 C 
BRANCH   7   8
ATOM      8  C   UNL A   1      30.754  25.353  23.442  1.00  0.00     0.224 C 
BRANCH   8   9
ATOM      9  N   UNL A   1      31.404  24.828  22.240  1.00  0.00    -0.351 N 
ATOM     10  H   UNL A   1      30.693  24.513  21.579  1.00  0.00     0.345 HD
ATOM     11  H   UNL A   1      32.005  24.045  22.493  1.00  0.00     0.345 HD
ATOM     12  H   UNL A   1      31.966  25.563  21.810  1.00  0.00     0.345 HD
ENDBRANCH   8   9
BRANCH   8  13
ATOM     13  C   UNL A   1      30.243  26.760  23.198  1.00  0.00     0.045 A 
ATOM     14  C   UNL A   1      31.007  27.763  22.583  1.00  0.00     0.013 A 
ATOM     15  C   UNL A   1      28.917  27.076  23.528  1.00  0.00     0.132 A 
ATOM     16  C   UNL A   1      30.485  29.047  22.378  1.00  0.00     0.014 A 
ATOM     17  C   UNL A   1      28.380  28.343  23.304  1.00  0.00     0.052 A 
ATOM     18  F   UNL A   1      28.122  26.148  24.080  1.00  0.00    -0.206 F 
ATOM     19  C   UNL A   1      29.166  29.352  22.738  1.00  0.00     0.058 A 
BRANCH  19  20
ATOM     20  C   UNL A   1      28.626  30.745  22.541  1.00  0.00     0.416 C 
ATOM     21  F   UNL A   1      29.166  31.356  21.449  1.00  0.00    -0.166 F 
ATOM     22  F   UNL A   1      27.278  30.770  22.355  1.00  0.00    -0.166 F 
ATOM     23  F   UNL A   1      28.876  31.577  23.591  1.00  0.00    -0.166 F 
ENDBRANCH  19  20
ENDBRANCH   8  13
ENDBRANCH   7   8
ENDBRANCH   4   7
ENDBRANCH   2   3
ENDBRANCH   1   2
BRANCH   1  24
ATOM     24  C   UNL A   1      32.830  29.606  25.543  1.00  0.00     0.118 C 
BRANCH  24  25
ATOM     25  N   UNL A   1      32.503  30.961  25.952  1.00  0.00    -0.352 N 
ATOM     26  C   UNL A   1      33.032  31.742  26.951  1.00  0.00     0.251 C 
ATOM     27  H   UNL A   1      31.786  31.390  25.431  1.00  0.00     0.163 HD
ATOM     28  O   UNL A   1      32.450  32.786  27.251  1.00  0.00    -0.269 OA
BRANCH  26  29
ATOM     29  C   UNL A   1      34.261  31.344  27.678  1.00  0.00     0.039 A 
ATOM     30  C   UNL A   1      35.237  32.314  27.928  1.00  0.00     0.014 A 
ATOM     31  C   UNL A   1      34.488  30.023  28.073  1.00  0.00     0.014 A 
ATOM     32  C   UNL A   1      36.403  31.974  28.621  1.00  0.00     0.010 A 
ATOM     33  C   UNL A   1      35.611  29.703  28.836  1.00  0.00     0.010 A 
ATOM     34  C   UNL A   1      36.587  30.672  29.112  1.00  0.00    -0.014 A 
BRANCH  34  35
ATOM     35  C   UNL A   1      37.798  30.304  29.896  1.00  0.00     0.031 A 
ATOM     36  C   UNL A   1      38.799  29.330  29.329  1.00  0.00     0.074 A 
ATOM     37  C   UNL A   1      37.972  30.802  31.137  1.00  0.00     0.049 A 
ATOM     38  N   UNL A   1      39.870  28.823  29.886  1.00  0.00    -0.248 NA
ATOM     39  C   UNL A   1      38.542  28.842  27.966  1.00  0.00     0.031 C 
ATOM     40  C   UNL A   1      37.059  31.728  31.810  1.00  0.00     0.029 A 
ATOM     41  N   UNL A   1      38.969  30.594  32.057  1.00  0.00    -0.354 N 
ATOM     42  C   UNL A   1      40.407  27.946  28.948  1.00  0.00     0.074 A 
ATOM     43  C   UNL A   1      39.505  27.946  27.815  1.00  0.00     0.031 C 
ATOM     44  C   UNL A   1      37.552  32.029  33.022  1.00  0.00     0.029 A 
ATOM     45  C   UNL A   1      38.788  31.281  33.235  1.00  0.00     0.049 A 
ATOM     46  H   UNL A   1      39.743  30.008  31.890  1.00  0.00     0.167 HD
ATOM     47  C   UNL A   1      41.556  27.229  29.014  1.00  0.00     0.034 A 
ATOM     48  C   UNL A   1      39.523  31.298  34.364  1.00  0.00     0.034 A 
ATOM     49  C   UNL A   1      42.452  27.250  30.145  1.00  0.00     0.049 A 
ATOM     50  C   UNL A   1      40.779  30.464  34.429  1.00  0.00     0.074 A 
ATOM     51  C   UNL A   1      43.665  26.600  30.298  1.00  0.00     0.029 A 
ATOM     52  N   UNL A   1      42.230  27.952  31.323  1.00  0.00    -0.354 N 
ATOM     53  N   UNL A   1      41.294  29.673  33.517  1.00  0.00    -0.248 NA
ATOM     54  C   UNL A   1      41.557  30.536  35.673  1.00  0.00     0.031 C 
ATOM     55  C   UNL A   1      44.142  26.855  31.588  1.00  0.00     0.029 A 
ATOM     56  C   UNL A   1      43.267  27.727  32.217  1.00  0.00     0.049 A 
ATOM     57  H   UNL A   1      41.450  28.526  31.499  1.00  0.00     0.167 HD
ATOM     58  C   UNL A   1      42.474  29.179  34.067  1.00  0.00     0.074 A 
ATOM     59  C   UNL A   1      42.599  29.772  35.382  1.00  0.00     0.031 C 
ATOM     60  C   UNL A   1      43.376  28.317  33.531  1.00  0.00     0.034 A 
BRANCH  47  61
ATOM     61  C   UNL A   1      41.889  26.342  27.835  1.00  0.00     0.023 A 
ATOM     62  C   UNL A   1      41.530  24.983  27.809  1.00  0.00     0.031 A 
ATOM     63  C   UNL A   1      42.604  26.852  26.736  1.00  0.00     0.131 A 
ATOM     64  C   UNL A   1      41.958  24.164  26.754  1.00  0.00     0.055 A 
ATOM     65  C   UNL A   1      42.952  26.050  25.646  1.00  0.00     0.041 A 
ATOM     66  F   UNL A   1      42.993  28.136  26.710  1.00  0.00    -0.206 F 
ATOM     67  C   UNL A   1      42.644  24.693  25.658  1.00  0.00     0.022 A 
BRANCH  64  68
ATOM     68  S   UNL A   1      41.743  22.369  26.912  1.00  0.00     0.124 S 
ATOM     69  O   UNL A   1      42.754  22.039  27.914  1.00  0.00    -0.237 OA
ATOM     70  O   UNL A   1      40.355  22.254  27.341  1.00  0.00    -0.237 OA
ATOM     71  O   UNL A   1      42.025  21.871  25.567  1.00  0.00    -0.744 OA
ENDBRANCH  64  68
ENDBRANCH  47  61
BRANCH  48  72
ATOM     72  C   UNL A   1      39.098  32.120  35.533  1.00  0.00     0.023 A 
ATOM     73  C   UNL A   1      39.561  33.436  35.697  1.00  0.00     0.031 A 
ATOM     74  C   UNL A   1      38.254  31.591  36.526  1.00  0.00     0.131 A 
ATOM     75  C   UNL A   1      39.219  34.159  36.849  1.00  0.00     0.055 A 
ATOM     76  C   UNL A   1      37.872  32.334  37.644  1.00  0.00     0.041 A 
ATOM     77  F   UNL A   1      37.779  30.339  36.415  1.00  0.00    -0.206 F 
ATOM     78  C   UNL A   1      38.367  33.623  37.817  1.00  0.00     0.022 A 
BRANCH  75  79
ATOM     79  S   UNL A   1      39.974  35.789  37.106  1.00  0.00     0.124 S 
ATOM     80  O   UNL A   1      39.278  36.253  38.301  1.00  0.00    -0.237 OA
ATOM     81  O   UNL A   1      41.381  35.447  37.275  1.00  0.00    -0.237 OA
ATOM     82  O   UNL A   1      39.653  36.510  35.877  1.00  0.00    -0.744 OA
ENDBRANCH  75  79
ENDBRANCH  48  72
BRANCH  60  83
ATOM     83  C   UNL A   1      44.603  28.007  34.355  1.00  0.00     0.023 A 
ATOM     84  C   UNL A   1      44.643  26.919  35.245  1.00  0.00     0.031 A 
ATOM     85  C   UNL A   1      45.743  28.824  34.256  1.00  0.00     0.131 A 
ATOM     86  C   UNL A   1      45.778  26.710  36.041  1.00  0.00     0.055 A 
ATOM     87  C   UNL A   1      46.893  28.574  35.007  1.00  0.00     0.041 A 
ATOM     88  F   UNL A   1      45.759  29.878  33.425  1.00  0.00    -0.206 F 
ATOM     89  C   UNL A   1      46.910  27.520  35.915  1.00  0.00     0.022 A 
BRANCH  86  90
ATOM     90  S   UNL A   1      45.727  25.417  37.312  1.00  0.00     0.124 S 
ATOM     91  O   UNL A   1      45.325  24.247  36.538  1.00  0.00    -0.237 OA
ATOM     92  O   UNL A   1      47.100  25.412  37.808  1.00  0.00    -0.237 OA
ATOM     93  O   UNL A   1      44.728  25.907  38.261  1.00  0.00    -0.744 OA
ENDBRANCH  86  90
ENDBRANCH  60  83
ENDBRANCH  34  35
ENDBRANCH  26  29
ENDBRANCH  24  25
ENDBRANCH   1  24
TORSDOF 17
ENDMDL
