MODEL 1
REMARK VINA RESULT:     -11.4      0.000      0.000
REMARK SMILES CCN(C(=O)Nc1cc(OC)ccc1F)[C@H](C)CC(=O)NCCCNC(=O)c1ccc(-c2c3nc(c(-c4cc(S(=O)(=O)[O-])ccc4F)c4ccc([nH]4)c(-c4cc(S(=O)(=O)[O-])ccc4F)c4nc(c(-c5cc(S(=O)(=O)[O-])ccc5F)c5ccc2[nH]5)C=C4)C=C3)cc1
REMARK SMILES IDX 22 1 21 2 19 3 20 4 18 6 16 7 17 8 3 9 2 10 1 11 4 12 5 13
REMARK SMILES IDX 6 14 7 16 8 17 14 18 9 19 13 20 15 21 12 22 10 23 11 24
REMARK SMILES IDX 23 25 24 26 25 27 26 28 27 30 28 31 29 32 90 33 30 34 89 35
REMARK SMILES IDX 31 36 32 37 33 38 83 39 34 40 88 41 82 42 84 43 35 44 87 45
REMARK SMILES IDX 81 46 80 47 36 49 68 50 48 51 67 52 49 53 52 54 66 55 85 56
REMARK SMILES IDX 50 57 51 58 65 60 86 61 53 62 37 63 38 64 46 65 39 66 45 67
REMARK SMILES IDX 47 68 44 69 40 70 41 71 42 72 43 73 69 74 70 75 78 76 71 77
REMARK SMILES IDX 77 78 79 79 76 80 72 81 73 82 74 83 75 84 54 85 55 86 63 87
REMARK SMILES IDX 56 88 62 89 64 90 61 91 57 92 58 93 59 94 60 95
REMARK H PARENT 21 5 6 15 25 29 84 48 52 59
REMARK Flexibility Score: inf
ROOT
ATOM      1  C   UNL A   1      33.807  21.948  25.175  1.00  0.00     0.117 C 
ENDROOT
BRANCH   1   2
ATOM      2  N   UNL A   1      33.822  22.180  23.737  1.00  0.00    -0.356 N 
ATOM      3  C   UNL A   1      32.882  22.737  22.920  1.00  0.00     0.222 C 
ATOM      4  O   UNL A   1      33.121  22.809  21.715  1.00  0.00    -0.275 OA
ATOM      5  H   UNL A   1      34.644  21.889  23.282  1.00  0.00     0.163 HD
BRANCH   3   6
ATOM      6  C   UNL A   1      31.584  23.243  23.501  1.00  0.00     0.124 C 
BRANCH   6   7
ATOM      7  C   UNL A   1      31.319  24.723  23.194  1.00  0.00     0.093 C 
ATOM      8  C   UNL A   1      29.982  25.289  23.683  1.00  0.00     0.031 C 
BRANCH   7   9
ATOM      9  N   UNL A   1      32.464  25.598  23.602  1.00  0.00    -0.322 N 
BRANCH   9  10
ATOM     10  C   UNL A   1      32.805  25.685  25.041  1.00  0.00     0.118 C 
ATOM     11  C   UNL A   1      34.266  25.872  25.415  1.00  0.00     0.027 C 
ENDBRANCH   9  10
BRANCH   9  12
ATOM     12  C   UNL A   1      33.031  26.352  22.582  1.00  0.00     0.322 C 
ATOM     13  O   UNL A   1      33.975  25.930  21.903  1.00  0.00    -0.248 OA
ATOM     14  N   UNL A   1      32.504  27.530  22.165  1.00  0.00    -0.305 N 
ATOM     15  H   UNL A   1      32.695  27.730  21.220  1.00  0.00     0.171 HD
BRANCH  14  16
ATOM     16  C   UNL A   1      31.745  28.520  22.798  1.00  0.00     0.082 A 
ATOM     17  C   UNL A   1      30.484  28.778  22.255  1.00  0.00     0.075 A 
ATOM     18  C   UNL A   1      32.131  29.172  23.973  1.00  0.00     0.147 A 
ATOM     19  C   UNL A   1      29.555  29.538  22.968  1.00  0.00     0.121 A 
ATOM     20  C   UNL A   1      31.227  29.976  24.662  1.00  0.00     0.045 A 
ATOM     21  F   UNL A   1      33.356  28.991  24.491  1.00  0.00    -0.205 F 
ATOM     22  C   UNL A   1      29.926  30.136  24.174  1.00  0.00     0.049 A 
BRANCH  19  23
ATOM     23  O   UNL A   1      28.318  29.608  22.390  1.00  0.00    -0.497 OA
ATOM     24  C   UNL A   1      27.290  28.843  23.011  1.00  0.00     0.278 C 
ENDBRANCH  19  23
ENDBRANCH  14  16
ENDBRANCH   9  12
ENDBRANCH   7   9
ENDBRANCH   6   7
ENDBRANCH   3   6
ENDBRANCH   1   2
BRANCH   1  25
ATOM     25  C   UNL A   1      35.140  22.287  25.832  1.00  0.00     0.042 C 
BRANCH  25  26
ATOM     26  C   UNL A   1      36.333  22.165  24.894  1.00  0.00     0.118 C 
BRANCH  26  27
ATOM     27  N   UNL A   1      37.181  21.035  25.237  1.00  0.00    -0.352 N 
ATOM     28  C   UNL A   1      38.468  21.015  25.724  1.00  0.00     0.251 C 
ATOM     29  H   UNL A   1      36.774  20.150  25.100  1.00  0.00     0.163 HD
ATOM     30  O   UNL A   1      39.091  19.958  25.715  1.00  0.00    -0.269 OA
BRANCH  28  31
ATOM     31  C   UNL A   1      39.111  22.254  26.226  1.00  0.00     0.039 A 
ATOM     32  C   UNL A   1      40.288  22.148  26.974  1.00  0.00     0.014 A 
ATOM     33  C   UNL A   1      38.552  23.513  25.993  1.00  0.00     0.014 A 
ATOM     34  C   UNL A   1      40.940  23.303  27.416  1.00  0.00     0.010 A 
ATOM     35  C   UNL A   1      39.242  24.666  26.366  1.00  0.00     0.010 A 
ATOM     36  C   UNL A   1      40.448  24.574  27.077  1.00  0.00    -0.014 A 
BRANCH  36  37
ATOM     37  C   UNL A   1      41.182  25.814  27.443  1.00  0.00     0.031 A 
ATOM     38  C   UNL A   1      40.525  26.871  28.288  1.00  0.00     0.074 A 
ATOM     39  C   UNL A   1      42.428  26.013  26.972  1.00  0.00     0.049 A 
ATOM     40  N   UNL A   1      40.969  28.055  28.625  1.00  0.00    -0.248 NA
ATOM     41  C   UNL A   1      39.183  26.561  28.801  1.00  0.00     0.031 C 
ATOM     42  C   UNL A   1      43.178  25.072  26.138  1.00  0.00     0.029 A 
ATOM     43  N   UNL A   1      43.286  27.073  27.130  1.00  0.00    -0.354 N 
ATOM     44  C   UNL A   1      39.963  28.635  29.390  1.00  0.00     0.074 A 
ATOM     45  C   UNL A   1      38.862  27.691  29.414  1.00  0.00     0.031 C 
ATOM     46  C   UNL A   1      44.398  25.576  25.895  1.00  0.00     0.029 A 
ATOM     47  C   UNL A   1      44.500  26.898  26.509  1.00  0.00     0.049 A 
ATOM     48  H   UNL A   1      43.055  27.882  27.642  1.00  0.00     0.167 HD
ATOM     49  C   UNL A   1      39.962  29.830  30.030  1.00  0.00     0.034 A 
ATOM     50  C   UNL A   1      45.574  27.705  26.433  1.00  0.00     0.034 A 
ATOM     51  C   UNL A   1      41.059  30.768  29.995  1.00  0.00     0.049 A 
ATOM     52  C   UNL A   1      45.534  29.051  27.101  1.00  0.00     0.074 A 
ATOM     53  C   UNL A   1      41.153  32.010  30.602  1.00  0.00     0.029 A 
ATOM     54  N   UNL A   1      42.256  30.568  29.320  1.00  0.00    -0.354 N 
ATOM     55  N   UNL A   1      44.559  29.605  27.781  1.00  0.00    -0.248 NA
ATOM     56  C   UNL A   1      46.742  29.879  26.990  1.00  0.00     0.031 C 
ATOM     57  C   UNL A   1      42.382  32.579  30.251  1.00  0.00     0.029 A 
ATOM     58  C   UNL A   1      43.088  31.666  29.485  1.00  0.00     0.049 A 
ATOM     59  H   UNL A   1      42.482  29.763  28.799  1.00  0.00     0.167 HD
ATOM     60  C   UNL A   1      45.045  30.837  28.204  1.00  0.00     0.074 A 
ATOM     61  C   UNL A   1      46.398  30.948  27.697  1.00  0.00     0.031 C 
ATOM     62  C   UNL A   1      44.428  31.781  28.959  1.00  0.00     0.034 A 
BRANCH  49  63
ATOM     63  C   UNL A   1      38.715  30.195  30.800  1.00  0.00     0.023 A 
ATOM     64  C   UNL A   1      37.647  30.872  30.186  1.00  0.00     0.031 A 
ATOM     65  C   UNL A   1      38.602  29.890  32.167  1.00  0.00     0.131 A 
ATOM     66  C   UNL A   1      36.547  31.286  30.950  1.00  0.00     0.055 A 
ATOM     67  C   UNL A   1      37.470  30.236  32.906  1.00  0.00     0.041 A 
ATOM     68  F   UNL A   1      39.598  29.262  32.812  1.00  0.00    -0.206 F 
ATOM     69  C   UNL A   1      36.439  30.950  32.303  1.00  0.00     0.022 A 
BRANCH  66  70
ATOM     70  S   UNL A   1      35.320  32.379  30.184  1.00  0.00     0.124 S 
ATOM     71  O   UNL A   1      34.827  31.544  29.091  1.00  0.00    -0.237 OA
ATOM     72  O   UNL A   1      34.385  32.620  31.276  1.00  0.00    -0.237 OA
ATOM     73  O   UNL A   1      36.106  33.539  29.769  1.00  0.00    -0.744 OA
ENDBRANCH  66  70
ENDBRANCH  49  63
BRANCH  50  74
ATOM     74  C   UNL A   1      46.784  27.243  25.705  1.00  0.00     0.023 A 
ATOM     75  C   UNL A   1      47.006  27.628  24.374  1.00  0.00     0.031 A 
ATOM     76  C   UNL A   1      47.757  26.455  26.345  1.00  0.00     0.131 A 
ATOM     77  C   UNL A   1      48.176  27.220  23.719  1.00  0.00     0.055 A 
ATOM     78  C   UNL A   1      48.932  26.075  25.696  1.00  0.00     0.041 A 
ATOM     79  F   UNL A   1      47.593  26.082  27.623  1.00  0.00    -0.206 F 
ATOM     80  C   UNL A   1      49.146  26.456  24.375  1.00  0.00     0.022 A 
BRANCH  77  81
ATOM     81  S   UNL A   1      48.431  27.718  21.994  1.00  0.00     0.124 S 
ATOM     82  O   UNL A   1      48.569  26.428  21.329  1.00  0.00    -0.237 OA
ATOM     83  O   UNL A   1      47.209  28.463  21.706  1.00  0.00    -0.237 OA
ATOM     84  O   UNL A   1      49.646  28.528  22.052  1.00  0.00    -0.744 OA
ENDBRANCH  77  81
ENDBRANCH  50  74
BRANCH  62  85
ATOM     85  C   UNL A   1      45.230  33.003  29.328  1.00  0.00     0.023 A 
ATOM     86  C   UNL A   1      45.245  34.153  28.520  1.00  0.00     0.031 A 
ATOM     87  C   UNL A   1      45.981  33.015  30.516  1.00  0.00     0.131 A 
ATOM     88  C   UNL A   1      46.029  35.256  28.895  1.00  0.00     0.055 A 
ATOM     89  C   UNL A   1      46.720  34.132  30.908  1.00  0.00     0.041 A 
ATOM     90  F   UNL A   1      46.001  31.941  31.322  1.00  0.00    -0.206 F 
ATOM     91  C   UNL A   1      46.753  35.258  30.091  1.00  0.00     0.022 A 
BRANCH  88  92
ATOM     92  S   UNL A   1      46.136  36.675  27.770  1.00  0.00     0.124 S 
ATOM     93  O   UNL A   1      45.514  36.149  26.559  1.00  0.00    -0.237 OA
ATOM     94  O   UNL A   1      45.380  37.700  28.482  1.00  0.00    -0.237 OA
ATOM     95  O   UNL A   1      47.573  36.926  27.669  1.00  0.00    -0.744 OA
ENDBRANCH  88  92
ENDBRANCH  62  85
ENDBRANCH  36  37
ENDBRANCH  28  31
ENDBRANCH  26  27
ENDBRANCH  25  26
ENDBRANCH   1  25
TORSDOF 19
ENDMDL
MODEL 2
REMARK VINA RESULT:     -11.3      5.161     10.469
REMARK SMILES CCN(C(=O)Nc1cc(OC)ccc1F)[C@H](C)CC(=O)NCCCNC(=O)c1ccc(-c2c3nc(c(-c4cc(S(=O)(=O)[O-])ccc4F)c4ccc([nH]4)c(-c4cc(S(=O)(=O)[O-])ccc4F)c4nc(c(-c5cc(S(=O)(=O)[O-])ccc5F)c5ccc2[nH]5)C=C4)C=C3)cc1
REMARK SMILES IDX 22 1 21 2 19 3 20 4 18 6 16 7 17 8 3 9 2 10 1 11 4 12 5 13
REMARK SMILES IDX 6 14 7 16 8 17 14 18 9 19 13 20 15 21 12 22 10 23 11 24
REMARK SMILES IDX 23 25 24 26 25 27 26 28 27 30 28 31 29 32 90 33 30 34 89 35
REMARK SMILES IDX 31 36 32 37 33 38 83 39 34 40 88 41 82 42 84 43 35 44 87 45
REMARK SMILES IDX 81 46 80 47 36 49 68 50 48 51 67 52 49 53 52 54 66 55 85 56
REMARK SMILES IDX 50 57 51 58 65 60 86 61 53 62 37 63 38 64 46 65 39 66 45 67
REMARK SMILES IDX 47 68 44 69 40 70 41 71 42 72 43 73 69 74 70 75 78 76 71 77
REMARK SMILES IDX 77 78 79 79 76 80 72 81 73 82 74 83 75 84 54 85 55 86 63 87
REMARK SMILES IDX 56 88 62 89 64 90 61 91 57 92 58 93 59 94 60 95
REMARK H PARENT 21 5 6 15 25 29 84 48 52 59
REMARK Flexibility Score: inf
ROOT
ATOM      1  C   UNL A   1      31.502  26.949  25.085  1.00  0.00     0.117 C 
ENDROOT
BRANCH   1   2
ATOM      2  N   UNL A   1      32.265  27.039  23.847  1.00  0.00    -0.356 N 
ATOM      3  C   UNL A   1      33.294  26.274  23.384  1.00  0.00     0.222 C 
ATOM      4  O   UNL A   1      33.797  26.563  22.298  1.00  0.00    -0.275 OA
ATOM      5  H   UNL A   1      31.993  27.771  23.248  1.00  0.00     0.163 HD
BRANCH   3   6
ATOM      6  C   UNL A   1      33.792  25.105  24.200  1.00  0.00     0.124 C 
BRANCH   6   7
ATOM      7  C   UNL A   1      33.169  23.766  23.785  1.00  0.00     0.093 C 
ATOM      8  C   UNL A   1      33.288  23.392  22.304  1.00  0.00     0.031 C 
BRANCH   7   9
ATOM      9  N   UNL A   1      33.608  22.640  24.669  1.00  0.00    -0.322 N 
BRANCH   9  10
ATOM     10  C   UNL A   1      34.971  22.091  24.484  1.00  0.00     0.118 C 
ATOM     11  C   UNL A   1      35.683  21.530  25.703  1.00  0.00     0.027 C 
ENDBRANCH   9  10
BRANCH   9  12
ATOM     12  C   UNL A   1      32.631  22.132  25.516  1.00  0.00     0.322 C 
ATOM     13  O   UNL A   1      32.172  22.789  26.457  1.00  0.00    -0.248 OA
ATOM     14  N   UNL A   1      32.012  20.946  25.287  1.00  0.00    -0.305 N 
ATOM     15  H   UNL A   1      31.099  20.906  25.654  1.00  0.00     0.171 HD
BRANCH  14  16
ATOM     16  C   UNL A   1      32.401  19.769  24.638  1.00  0.00     0.082 A 
ATOM     17  C   UNL A   1      32.807  18.714  25.458  1.00  0.00     0.075 A 
ATOM     18  C   UNL A   1      32.307  19.568  23.257  1.00  0.00     0.147 A 
ATOM     19  C   UNL A   1      32.947  17.429  24.930  1.00  0.00     0.121 A 
ATOM     20  C   UNL A   1      32.499  18.299  22.716  1.00  0.00     0.045 A 
ATOM     21  F   UNL A   1      31.975  20.575  22.436  1.00  0.00    -0.205 F 
ATOM     22  C   UNL A   1      32.790  17.221  23.558  1.00  0.00     0.049 A 
BRANCH  19  23
ATOM     23  O   UNL A   1      33.220  16.462  25.857  1.00  0.00    -0.497 OA
ATOM     24  C   UNL A   1      32.836  15.135  25.514  1.00  0.00     0.278 C 
ENDBRANCH  19  23
ENDBRANCH  14  16
ENDBRANCH   9  12
ENDBRANCH   7   9
ENDBRANCH   6   7
ENDBRANCH   3   6
ENDBRANCH   1   2
BRANCH   1  25
ATOM     25  C   UNL A   1      31.833  28.078  26.055  1.00  0.00     0.042 C 
BRANCH  25  26
ATOM     26  C   UNL A   1      32.740  29.147  25.463  1.00  0.00     0.118 C 
BRANCH  26  27
ATOM     27  N   UNL A   1      32.348  30.484  25.879  1.00  0.00    -0.352 N 
ATOM     28  C   UNL A   1      32.865  31.285  26.871  1.00  0.00     0.251 C 
ATOM     29  H   UNL A   1      31.598  30.875  25.375  1.00  0.00     0.163 HD
ATOM     30  O   UNL A   1      32.234  32.277  27.224  1.00  0.00    -0.269 OA
BRANCH  28  31
ATOM     31  C   UNL A   1      34.149  30.946  27.531  1.00  0.00     0.039 A 
ATOM     32  C   UNL A   1      35.099  31.956  27.717  1.00  0.00     0.014 A 
ATOM     33  C   UNL A   1      34.437  29.642  27.941  1.00  0.00     0.014 A 
ATOM     34  C   UNL A   1      36.297  31.672  28.381  1.00  0.00     0.010 A 
ATOM     35  C   UNL A   1      35.595  29.377  28.671  1.00  0.00     0.010 A 
ATOM     36  C   UNL A   1      36.537  30.391  28.904  1.00  0.00    -0.014 A 
BRANCH  36  37
ATOM     37  C   UNL A   1      37.753  30.095  29.707  1.00  0.00     0.031 A 
ATOM     38  C   UNL A   1      38.847  29.231  29.146  1.00  0.00     0.074 A 
ATOM     39  C   UNL A   1      37.850  30.566  30.965  1.00  0.00     0.049 A 
ATOM     40  N   UNL A   1      39.931  28.784  29.729  1.00  0.00    -0.248 NA
ATOM     41  C   UNL A   1      38.690  28.793  27.751  1.00  0.00     0.031 C 
ATOM     42  C   UNL A   1      36.858  31.410  31.632  1.00  0.00     0.029 A 
ATOM     43  N   UNL A   1      38.834  30.403  31.908  1.00  0.00    -0.354 N 
ATOM     44  C   UNL A   1      40.586  28.013  28.776  1.00  0.00     0.074 A 
ATOM     45  C   UNL A   1      39.744  28.006  27.596  1.00  0.00     0.031 C 
ATOM     46  C   UNL A   1      37.302  31.726  32.859  1.00  0.00     0.029 A 
ATOM     47  C   UNL A   1      38.585  31.066  33.086  1.00  0.00     0.049 A 
ATOM     48  H   UNL A   1      39.643  29.863  31.755  1.00  0.00     0.167 HD
ATOM     49  C   UNL A   1      41.786  27.386  28.866  1.00  0.00     0.034 A 
ATOM     50  C   UNL A   1      39.300  31.135  34.225  1.00  0.00     0.034 A 
ATOM     51  C   UNL A   1      42.615  27.392  30.047  1.00  0.00     0.049 A 
ATOM     52  C   UNL A   1      40.600  30.388  34.327  1.00  0.00     0.074 A 
ATOM     53  C   UNL A   1      43.843  26.781  30.244  1.00  0.00     0.029 A 
ATOM     54  N   UNL A   1      42.306  28.045  31.234  1.00  0.00    -0.354 N 
ATOM     55  N   UNL A   1      41.184  29.625  33.434  1.00  0.00    -0.248 NA
ATOM     56  C   UNL A   1      41.336  30.513  35.591  1.00  0.00     0.031 C 
ATOM     57  C   UNL A   1      44.249  27.020  31.561  1.00  0.00     0.029 A 
ATOM     58  C   UNL A   1      43.312  27.840  32.168  1.00  0.00     0.049 A 
ATOM     59  H   UNL A   1      41.491  28.575  31.390  1.00  0.00     0.167 HD
ATOM     60  C   UNL A   1      42.373  29.200  34.018  1.00  0.00     0.074 A 
ATOM     61  C   UNL A   1      42.418  29.788  35.343  1.00  0.00     0.031 C 
ATOM     62  C   UNL A   1      43.343  28.410  33.494  1.00  0.00     0.034 A 
BRANCH  49  63
ATOM     63  C   UNL A   1      42.251  26.620  27.652  1.00  0.00     0.023 A 
ATOM     64  C   UNL A   1      42.148  25.220  27.586  1.00  0.00     0.031 A 
ATOM     65  C   UNL A   1      42.831  27.289  26.560  1.00  0.00     0.131 A 
ATOM     66  C   UNL A   1      42.682  24.528  26.488  1.00  0.00     0.055 A 
ATOM     67  C   UNL A   1      43.290  26.602  25.435  1.00  0.00     0.041 A 
ATOM     68  F   UNL A   1      42.974  28.624  26.574  1.00  0.00    -0.206 F 
ATOM     69  C   UNL A   1      43.230  25.212  25.400  1.00  0.00     0.022 A 
BRANCH  66  70
ATOM     70  S   UNL A   1      42.765  22.718  26.561  1.00  0.00     0.124 S 
ATOM     71  O   UNL A   1      42.567  22.473  27.988  1.00  0.00    -0.237 OA
ATOM     72  O   UNL A   1      41.671  22.315  25.686  1.00  0.00    -0.237 OA
ATOM     73  O   UNL A   1      44.105  22.417  26.062  1.00  0.00    -0.744 OA
ENDBRANCH  66  70
ENDBRANCH  49  63
BRANCH  50  74
ATOM     74  C   UNL A   1      38.797  31.962  35.352  1.00  0.00     0.023 A 
ATOM     75  C   UNL A   1      38.177  31.360  36.457  1.00  0.00     0.031 A 
ATOM     76  C   UNL A   1      38.976  33.356  35.363  1.00  0.00     0.131 A 
ATOM     77  C   UNL A   1      37.751  32.154  37.532  1.00  0.00     0.055 A 
ATOM     78  C   UNL A   1      38.575  34.137  36.447  1.00  0.00     0.041 A 
ATOM     79  F   UNL A   1      39.583  33.970  34.335  1.00  0.00    -0.206 F 
ATOM     80  C   UNL A   1      37.956  33.536  37.540  1.00  0.00     0.022 A 
BRANCH  77  81
ATOM     81  S   UNL A   1      36.937  31.351  38.941  1.00  0.00     0.124 S 
ATOM     82  O   UNL A   1      37.906  31.572  40.008  1.00  0.00    -0.237 OA
ATOM     83  O   UNL A   1      35.688  32.099  39.041  1.00  0.00    -0.237 OA
ATOM     84  O   UNL A   1      36.791  29.965  38.502  1.00  0.00    -0.744 OA
ENDBRANCH  77  81
ENDBRANCH  50  74
BRANCH  62  85
ATOM     85  C   UNL A   1      44.568  28.170  34.339  1.00  0.00     0.023 A 
ATOM     86  C   UNL A   1      44.639  27.112  35.261  1.00  0.00     0.031 A 
ATOM     87  C   UNL A   1      45.687  29.011  34.205  1.00  0.00     0.131 A 
ATOM     88  C   UNL A   1      45.794  26.947  36.043  1.00  0.00     0.055 A 
ATOM     89  C   UNL A   1      46.850  28.813  34.949  1.00  0.00     0.041 A 
ATOM     90  F   UNL A   1      45.669  30.037  33.339  1.00  0.00    -0.206 F 
ATOM     91  C   UNL A   1      46.905  27.780  35.881  1.00  0.00     0.022 A 
BRANCH  88  92
ATOM     92  S   UNL A   1      45.809  25.656  37.318  1.00  0.00     0.124 S 
ATOM     93  O   UNL A   1      47.005  26.000  38.082  1.00  0.00    -0.237 OA
ATOM     94  O   UNL A   1      44.535  25.870  37.998  1.00  0.00    -0.237 OA
ATOM     95  O   UNL A   1      45.900  24.415  36.551  1.00  0.00    -0.744 OA
ENDBRANCH  88  92
ENDBRANCH  62  85
ENDBRANCH  36  37
ENDBRANCH  28  31
ENDBRANCH  26  27
ENDBRANCH  25  26
ENDBRANCH   1  25
TORSDOF 19
ENDMDL
MODEL 3
REMARK VINA RESULT:     -11.0      3.315      8.859
REMARK SMILES CCN(C(=O)Nc1cc(OC)ccc1F)[C@H](C)CC(=O)NCCCNC(=O)c1ccc(-c2c3nc(c(-c4cc(S(=O)(=O)[O-])ccc4F)c4ccc([nH]4)c(-c4cc(S(=O)(=O)[O-])ccc4F)c4nc(c(-c5cc(S(=O)(=O)[O-])ccc5F)c5ccc2[nH]5)C=C4)C=C3)cc1
REMARK SMILES IDX 22 1 21 2 19 3 20 4 18 6 16 7 17 8 3 9 2 10 1 11 4 12 5 13
REMARK SMILES IDX 6 14 7 16 8 17 14 18 9 19 13 20 15 21 12 22 10 23 11 24
REMARK SMILES IDX 23 25 24 26 25 27 26 28 27 30 28 31 29 32 90 33 30 34 89 35
REMARK SMILES IDX 31 36 32 37 33 38 83 39 34 40 88 41 82 42 84 43 35 44 87 45
REMARK SMILES IDX 81 46 80 47 36 49 68 50 48 51 67 52 49 53 52 54 66 55 85 56
REMARK SMILES IDX 50 57 51 58 65 60 86 61 53 62 37 63 38 64 46 65 39 66 45 67
REMARK SMILES IDX 47 68 44 69 40 70 41 71 42 72 43 73 69 74 70 75 78 76 71 77
REMARK SMILES IDX 77 78 79 79 76 80 72 81 73 82 74 83 75 84 54 85 55 86 63 87
REMARK SMILES IDX 56 88 62 89 64 90 61 91 57 92 58 93 59 94 60 95
REMARK H PARENT 21 5 6 15 25 29 84 48 52 59
REMARK Flexibility Score: inf
ROOT
ATOM      1  C   UNL A   1      36.947  20.572  24.936  1.00  0.00     0.117 C 
ENDROOT
BRANCH   1   2
ATOM      2  N   UNL A   1      37.288  21.771  24.184  1.00  0.00    -0.356 N 
ATOM      3  C   UNL A   1      36.492  22.654  23.517  1.00  0.00     0.222 C 
ATOM      4  O   UNL A   1      37.023  23.598  22.930  1.00  0.00    -0.275 OA
ATOM      5  H   UNL A   1      38.250  21.978  24.152  1.00  0.00     0.163 HD
BRANCH   3   6
ATOM      6  C   UNL A   1      34.994  22.461  23.507  1.00  0.00     0.124 C 
BRANCH   6   7
ATOM      7  C   UNL A   1      34.307  22.982  24.776  1.00  0.00     0.093 C 
ATOM      8  C   UNL A   1      34.817  24.319  25.323  1.00  0.00     0.031 C 
BRANCH   7   9
ATOM      9  N   UNL A   1      32.815  22.977  24.653  1.00  0.00    -0.322 N 
BRANCH   9  10
ATOM     10  C   UNL A   1      32.192  23.819  23.606  1.00  0.00     0.118 C 
ATOM     11  C   UNL A   1      30.678  23.796  23.482  1.00  0.00     0.027 C 
ENDBRANCH   9  10
BRANCH   9  12
ATOM     12  C   UNL A   1      32.139  22.259  25.631  1.00  0.00     0.322 C 
ATOM     13  O   UNL A   1      31.698  22.798  26.654  1.00  0.00    -0.248 OA
ATOM     14  N   UNL A   1      31.788  20.958  25.471  1.00  0.00    -0.305 N 
ATOM     15  H   UNL A   1      30.984  20.706  25.980  1.00  0.00     0.171 HD
BRANCH  14  16
ATOM     16  C   UNL A   1      32.331  19.901  24.733  1.00  0.00     0.082 A 
ATOM     17  C   UNL A   1      32.895  18.856  25.468  1.00  0.00     0.075 A 
ATOM     18  C   UNL A   1      32.248  19.792  23.341  1.00  0.00     0.147 A 
ATOM     19  C   UNL A   1      33.210  17.647  24.844  1.00  0.00     0.121 A 
ATOM     20  C   UNL A   1      32.610  18.608  22.704  1.00  0.00     0.045 A 
ATOM     21  F   UNL A   1      31.763  20.800  22.600  1.00  0.00    -0.205 F 
ATOM     22  C   UNL A   1      33.065  17.523  23.460  1.00  0.00     0.049 A 
BRANCH  19  23
ATOM     23  O   UNL A   1      33.631  16.663  25.693  1.00  0.00    -0.497 OA
ATOM     24  C   UNL A   1      34.776  15.923  25.282  1.00  0.00     0.278 C 
ENDBRANCH  19  23
ENDBRANCH  14  16
ENDBRANCH   9  12
ENDBRANCH   7   9
ENDBRANCH   6   7
ENDBRANCH   3   6
ENDBRANCH   1   2
BRANCH   1  25
ATOM     25  C   UNL A   1      38.123  19.609  25.058  1.00  0.00     0.042 C 
BRANCH  25  26
ATOM     26  C   UNL A   1      39.301  20.177  25.836  1.00  0.00     0.118 C 
BRANCH  26  27
ATOM     27  N   UNL A   1      40.375  19.207  25.983  1.00  0.00    -0.352 N 
ATOM     28  C   UNL A   1      41.723  19.407  26.171  1.00  0.00     0.251 C 
ATOM     29  H   UNL A   1      40.094  18.265  25.941  1.00  0.00     0.163 HD
ATOM     30  O   UNL A   1      42.490  18.460  26.024  1.00  0.00    -0.269 OA
BRANCH  28  31
ATOM     31  C   UNL A   1      42.253  20.748  26.514  1.00  0.00     0.039 A 
ATOM     32  C   UNL A   1      42.787  21.545  25.495  1.00  0.00     0.014 A 
ATOM     33  C   UNL A   1      42.257  21.217  27.831  1.00  0.00     0.014 A 
ATOM     34  C   UNL A   1      43.247  22.833  25.785  1.00  0.00     0.010 A 
ATOM     35  C   UNL A   1      42.644  22.528  28.106  1.00  0.00     0.010 A 
ATOM     36  C   UNL A   1      43.138  23.353  27.085  1.00  0.00    -0.014 A 
BRANCH  36  37
ATOM     37  C   UNL A   1      43.521  24.756  27.394  1.00  0.00     0.031 A 
ATOM     38  C   UNL A   1      44.959  25.191  27.320  1.00  0.00     0.074 A 
ATOM     39  C   UNL A   1      42.577  25.631  27.792  1.00  0.00     0.049 A 
ATOM     40  N   UNL A   1      45.494  26.340  27.646  1.00  0.00    -0.248 NA
ATOM     41  C   UNL A   1      45.923  24.193  26.834  1.00  0.00     0.031 C 
ATOM     42  C   UNL A   1      41.149  25.338  27.912  1.00  0.00     0.029 A 
ATOM     43  N   UNL A   1      42.678  26.948  28.166  1.00  0.00    -0.354 N 
ATOM     44  C   UNL A   1      46.857  26.206  27.408  1.00  0.00     0.074 A 
ATOM     45  C   UNL A   1      47.070  24.842  26.965  1.00  0.00     0.031 C 
ATOM     46  C   UNL A   1      40.501  26.452  28.289  1.00  0.00     0.029 A 
ATOM     47  C   UNL A   1      41.472  27.524  28.488  1.00  0.00     0.049 A 
ATOM     48  H   UNL A   1      43.533  27.435  28.199  1.00  0.00     0.167 HD
ATOM     49  C   UNL A   1      47.838  27.136  27.525  1.00  0.00     0.034 A 
ATOM     50  C   UNL A   1      41.175  28.770  28.902  1.00  0.00     0.034 A 
ATOM     51  C   UNL A   1      47.619  28.491  27.974  1.00  0.00     0.049 A 
ATOM     52  C   UNL A   1      42.282  29.772  29.080  1.00  0.00     0.074 A 
ATOM     53  C   UNL A   1      48.545  29.507  28.136  1.00  0.00     0.029 A 
ATOM     54  N   UNL A   1      46.385  29.022  28.328  1.00  0.00    -0.354 N 
ATOM     55  N   UNL A   1      43.571  29.618  28.896  1.00  0.00    -0.248 NA
ATOM     56  C   UNL A   1      41.890  31.116  29.524  1.00  0.00     0.031 C 
ATOM     57  C   UNL A   1      47.882  30.633  28.636  1.00  0.00     0.029 A 
ATOM     58  C   UNL A   1      46.529  30.345  28.719  1.00  0.00     0.049 A 
ATOM     59  H   UNL A   1      45.532  28.531  28.306  1.00  0.00     0.167 HD
ATOM     60  C   UNL A   1      44.144  30.854  29.174  1.00  0.00     0.074 A 
ATOM     61  C   UNL A   1      43.059  31.742  29.544  1.00  0.00     0.031 C 
ATOM     62  C   UNL A   1      45.449  31.220  29.109  1.00  0.00     0.034 A 
BRANCH  49  63
ATOM     63  C   UNL A   1      49.242  26.699  27.185  1.00  0.00     0.023 A 
ATOM     64  C   UNL A   1      50.244  26.626  28.168  1.00  0.00     0.031 A 
ATOM     65  C   UNL A   1      49.593  26.378  25.862  1.00  0.00     0.131 A 
ATOM     66  C   UNL A   1      51.562  26.315  27.803  1.00  0.00     0.055 A 
ATOM     67  C   UNL A   1      50.889  25.993  25.518  1.00  0.00     0.041 A 
ATOM     68  F   UNL A   1      48.683  26.449  24.877  1.00  0.00    -0.206 F 
ATOM     69  C   UNL A   1      51.887  25.973  26.488  1.00  0.00     0.022 A 
BRANCH  66  70
ATOM     70  S   UNL A   1      52.870  26.487  29.047  1.00  0.00     0.124 S 
ATOM     71  O   UNL A   1      52.367  25.633  30.121  1.00  0.00    -0.237 OA
ATOM     72  O   UNL A   1      54.047  25.998  28.340  1.00  0.00    -0.237 OA
ATOM     73  O   UNL A   1      52.872  27.918  29.346  1.00  0.00    -0.744 OA
ENDBRANCH  66  70
ENDBRANCH  49  63
BRANCH  50  74
ATOM     74  C   UNL A   1      39.758  29.136  29.156  1.00  0.00     0.023 A 
ATOM     75  C   UNL A   1      39.266  29.213  30.468  1.00  0.00     0.031 A 
ATOM     76  C   UNL A   1      38.893  29.461  28.098  1.00  0.00     0.131 A 
ATOM     77  C   UNL A   1      37.938  29.604  30.690  1.00  0.00     0.055 A 
ATOM     78  C   UNL A   1      37.580  29.876  28.327  1.00  0.00     0.041 A 
ATOM     79  F   UNL A   1      39.329  29.420  26.829  1.00  0.00    -0.206 F 
ATOM     80  C   UNL A   1      37.096  29.948  29.629  1.00  0.00     0.022 A 
BRANCH  77  81
ATOM     81  S   UNL A   1      37.324  29.680  32.396  1.00  0.00     0.124 S 
ATOM     82  O   UNL A   1      38.191  30.697  32.978  1.00  0.00    -0.237 OA
ATOM     83  O   UNL A   1      35.927  30.058  32.202  1.00  0.00    -0.237 OA
ATOM     84  O   UNL A   1      37.531  28.321  32.890  1.00  0.00    -0.744 OA
ENDBRANCH  77  81
ENDBRANCH  50  74
BRANCH  62  85
ATOM     85  C   UNL A   1      45.776  32.663  29.400  1.00  0.00     0.023 A 
ATOM     86  C   UNL A   1      45.688  33.658  28.412  1.00  0.00     0.031 A 
ATOM     87  C   UNL A   1      46.169  33.044  30.695  1.00  0.00     0.131 A 
ATOM     88  C   UNL A   1      46.028  34.983  28.728  1.00  0.00     0.055 A 
ATOM     89  C   UNL A   1      46.459  34.371  31.015  1.00  0.00     0.041 A 
ATOM     90  F   UNL A   1      46.270  32.131  31.674  1.00  0.00    -0.206 F 
ATOM     91  C   UNL A   1      46.397  35.348  30.025  1.00  0.00     0.022 A 
BRANCH  88  92
ATOM     92  S   UNL A   1      46.035  36.223  27.403  1.00  0.00     0.124 S 
ATOM     93  O   UNL A   1      47.460  36.500  27.255  1.00  0.00    -0.237 OA
ATOM     94  O   UNL A   1      45.407  35.507  26.297  1.00  0.00    -0.237 OA
ATOM     95  O   UNL A   1      45.245  37.322  27.957  1.00  0.00    -0.744 OA
ENDBRANCH  88  92
ENDBRANCH  62  85
ENDBRANCH  36  37
ENDBRANCH  28  31
ENDBRANCH  26  27
ENDBRANCH  25  26
ENDBRANCH   1  25
TORSDOF 19
ENDMDL
