MODEL 1
REMARK VINA RESULT:     -10.9      0.000      0.000
REMARK SMILES COc1cc(Br)c(OC)c(C(=O)NCCC(=O)NCCCNC(=O)c2ccc(-c3c4nc(c(-c5cc(S(=O)(=O)[O-])ccc5F)c5ccc([nH]5)c(-c5cc(S(=O)(=O)[O-])ccc5F)c5nc(c(-c6cc(S(=O)(=O)[O-])ccc6F)c6ccc3[nH]6)C=C5)C=C4)cc2)c1
REMARK SMILES IDX 19 1 18 2 16 3 17 4 15 6 14 7 13 8 11 9 12 10 10 12 3 13
REMARK SMILES IDX 4 14 88 15 5 16 6 17 7 18 2 19 1 20 8 21 9 22 20 23 21 24
REMARK SMILES IDX 22 25 23 26 24 28 25 29 26 30 87 31 27 32 86 33 28 34 29 35
REMARK SMILES IDX 30 36 80 37 31 38 85 39 79 40 81 41 32 42 84 43 78 44 77 45
REMARK SMILES IDX 33 47 65 48 45 49 64 50 46 51 49 52 63 53 82 54 47 55 48 56
REMARK SMILES IDX 62 58 83 59 50 60 34 61 35 62 43 63 36 64 42 65 44 66 41 67
REMARK SMILES IDX 37 68 38 69 39 70 40 71 66 72 67 73 75 74 68 75 74 76 76 77
REMARK SMILES IDX 73 78 69 79 70 80 71 81 72 82 51 83 52 84 60 85 53 86 59 87
REMARK SMILES IDX 61 88 58 89 54 90 55 91 56 92 57 93
REMARK H PARENT 18 5 13 11 22 27 81 46 49 57
REMARK Flexibility Score: inf
ROOT
ATOM      1  C   UNL A   1      31.966  28.270  24.054  1.00  0.00     0.117 C 
ENDROOT
BRANCH   1   2
ATOM      2  N   UNL A   1      31.316  27.696  25.222  1.00  0.00    -0.356 N 
ATOM      3  C   UNL A   1      30.750  26.471  25.384  1.00  0.00     0.221 C 
ATOM      4  O   UNL A   1      30.207  26.211  26.459  1.00  0.00    -0.275 OA
ATOM      5  H   UNL A   1      31.283  28.282  26.012  1.00  0.00     0.163 HD
BRANCH   3   6
ATOM      6  C   UNL A   1      30.776  25.453  24.265  1.00  0.00     0.121 C 
BRANCH   6   7
ATOM      7  C   UNL A   1      31.834  24.388  24.509  1.00  0.00     0.126 C 
BRANCH   7   8
ATOM      8  N   UNL A   1      32.003  24.021  25.913  1.00  0.00    -0.351 N 
ATOM      9  C   UNL A   1      32.397  22.920  26.634  1.00  0.00     0.255 C 
ATOM     10  O   UNL A   1      32.197  22.986  27.848  1.00  0.00    -0.269 OA
ATOM     11  H   UNL A   1      31.767  24.770  26.506  1.00  0.00     0.163 HD
BRANCH   9  12
ATOM     12  C   UNL A   1      33.106  21.732  26.071  1.00  0.00     0.086 A 
ATOM     13  C   UNL A   1      33.003  19.569  24.970  1.00  0.00     0.121 A 
ATOM     14  C   UNL A   1      34.366  19.607  24.716  1.00  0.00     0.066 A 
ATOM     15  C   UNL A   1      32.369  20.652  25.570  1.00  0.00     0.064 A 
ATOM     16  C   UNL A   1      35.126  20.683  25.178  1.00  0.00     0.064 A 
ATOM     17  Br  UNL A   1      36.996  20.554  24.851  1.00  0.00    -0.047 Br
ATOM     18  C   UNL A   1      34.514  21.744  25.876  1.00  0.00     0.146 A 
BRANCH  13  19
ATOM     19  O   UNL A   1      32.214  18.511  24.613  1.00  0.00    -0.497 OA
ATOM     20  C   UNL A   1      32.611  17.305  25.272  1.00  0.00     0.278 C 
ENDBRANCH  13  19
BRANCH  18  21
ATOM     21  O   UNL A   1      35.259  22.708  26.513  1.00  0.00    -0.495 OA
ATOM     22  C   UNL A   1      35.654  23.809  25.690  1.00  0.00     0.278 C 
ENDBRANCH  18  21
ENDBRANCH   9  12
ENDBRANCH   7   8
ENDBRANCH   6   7
ENDBRANCH   3   6
ENDBRANCH   1   2
BRANCH   1  23
ATOM     23  C   UNL A   1      33.178  29.111  24.433  1.00  0.00     0.042 C 
BRANCH  23  24
ATOM     24  C   UNL A   1      33.337  29.345  25.929  1.00  0.00     0.118 C 
BRANCH  24  25
ATOM     25  N   UNL A   1      33.127  30.732  26.302  1.00  0.00    -0.352 N 
ATOM     26  C   UNL A   1      33.762  31.504  27.245  1.00  0.00     0.251 C 
ATOM     27  H   UNL A   1      32.418  31.193  25.798  1.00  0.00     0.163 HD
ATOM     28  O   UNL A   1      33.272  32.589  27.546  1.00  0.00    -0.269 OA
BRANCH  26  29
ATOM     29  C   UNL A   1      35.004  31.039  27.911  1.00  0.00     0.039 A 
ATOM     30  C   UNL A   1      35.002  29.788  28.537  1.00  0.00     0.014 A 
ATOM     31  C   UNL A   1      36.150  31.835  27.972  1.00  0.00     0.014 A 
ATOM     32  C   UNL A   1      36.157  29.320  29.171  1.00  0.00     0.010 A 
ATOM     33  C   UNL A   1      37.328  31.330  28.522  1.00  0.00     0.010 A 
ATOM     34  C   UNL A   1      37.341  30.072  29.143  1.00  0.00    -0.014 A 
BRANCH  34  35
ATOM     35  C   UNL A   1      38.590  29.579  29.789  1.00  0.00     0.031 A 
ATOM     36  C   UNL A   1      39.007  30.116  31.134  1.00  0.00     0.074 A 
ATOM     37  C   UNL A   1      39.375  28.691  29.146  1.00  0.00     0.049 A 
ATOM     38  N   UNL A   1      40.095  29.880  31.823  1.00  0.00    -0.248 NA
ATOM     39  C   UNL A   1      38.091  31.074  31.774  1.00  0.00     0.031 C 
ATOM     40  C   UNL A   1      39.104  28.125  27.824  1.00  0.00     0.029 A 
ATOM     41  N   UNL A   1      40.567  28.115  29.513  1.00  0.00    -0.354 N 
ATOM     42  C   UNL A   1      40.004  30.674  32.962  1.00  0.00     0.074 A 
ATOM     43  C   UNL A   1      38.785  31.444  32.838  1.00  0.00     0.031 C 
ATOM     44  C   UNL A   1      40.084  27.265  27.503  1.00  0.00     0.029 A 
ATOM     45  C   UNL A   1      41.079  27.253  28.571  1.00  0.00     0.049 A 
ATOM     46  H   UNL A   1      41.013  28.301  30.371  1.00  0.00     0.167 HD
ATOM     47  C   UNL A   1      40.846  30.738  34.025  1.00  0.00     0.034 A 
ATOM     48  C   UNL A   1      42.224  26.542  28.562  1.00  0.00     0.034 A 
ATOM     49  C   UNL A   1      42.046  29.947  34.145  1.00  0.00     0.049 A 
ATOM     50  C   UNL A   1      43.151  26.637  29.748  1.00  0.00     0.074 A 
ATOM     51  C   UNL A   1      42.938  29.886  35.201  1.00  0.00     0.029 A 
ATOM     52  N   UNL A   1      42.528  29.078  33.173  1.00  0.00    -0.354 N 
ATOM     53  N   UNL A   1      43.027  27.357  30.838  1.00  0.00    -0.248 NA
ATOM     54  C   UNL A   1      44.366  25.813  29.706  1.00  0.00     0.031 C 
ATOM     55  C   UNL A   1      43.989  29.035  34.843  1.00  0.00     0.029 A 
ATOM     56  C   UNL A   1      43.717  28.502  33.594  1.00  0.00     0.049 A 
ATOM     57  H   UNL A   1      42.088  28.898  32.311  1.00  0.00     0.167 HD
ATOM     58  C   UNL A   1      44.135  27.050  31.624  1.00  0.00     0.074 A 
ATOM     59  C   UNL A   1      44.905  26.068  30.889  1.00  0.00     0.031 C 
ATOM     60  C   UNL A   1      44.481  27.532  32.845  1.00  0.00     0.034 A 
BRANCH  47  61
ATOM     61  C   UNL A   1      40.504  31.716  35.126  1.00  0.00     0.023 A 
ATOM     62  C   UNL A   1      39.557  31.409  36.120  1.00  0.00     0.031 A 
ATOM     63  C   UNL A   1      41.109  32.985  35.166  1.00  0.00     0.131 A 
ATOM     64  C   UNL A   1      39.183  32.385  37.058  1.00  0.00     0.055 A 
ATOM     65  C   UNL A   1      40.797  33.920  36.155  1.00  0.00     0.041 A 
ATOM     66  F   UNL A   1      42.007  33.343  34.235  1.00  0.00    -0.206 F 
ATOM     67  C   UNL A   1      39.816  33.629  37.098  1.00  0.00     0.022 A 
BRANCH  64  68
ATOM     68  S   UNL A   1      37.755  32.055  38.126  1.00  0.00     0.124 S 
ATOM     69  O   UNL A   1      36.833  33.113  37.719  1.00  0.00    -0.237 OA
ATOM     70  O   UNL A   1      37.381  30.699  37.746  1.00  0.00    -0.237 OA
ATOM     71  O   UNL A   1      38.298  32.199  39.476  1.00  0.00    -0.744 OA
ENDBRANCH  64  68
ENDBRANCH  47  61
BRANCH  48  72
ATOM     72  C   UNL A   1      42.572  25.685  27.391  1.00  0.00     0.023 A 
ATOM     73  C   UNL A   1      42.140  24.352  27.317  1.00  0.00     0.031 A 
ATOM     74  C   UNL A   1      43.377  26.177  26.349  1.00  0.00     0.131 A 
ATOM     75  C   UNL A   1      42.551  23.541  26.246  1.00  0.00     0.055 A 
ATOM     76  C   UNL A   1      43.740  25.383  25.259  1.00  0.00     0.041 A 
ATOM     77  F   UNL A   1      43.815  27.446  26.370  1.00  0.00    -0.206 F 
ATOM     78  C   UNL A   1      43.337  24.053  25.210  1.00  0.00     0.022 A 
BRANCH  75  79
ATOM     79  S   UNL A   1      42.112  21.782  26.269  1.00  0.00     0.124 S 
ATOM     80  O   UNL A   1      42.956  21.251  25.204  1.00  0.00    -0.237 OA
ATOM     81  O   UNL A   1      42.475  21.396  27.628  1.00  0.00    -0.237 OA
ATOM     82  O   UNL A   1      40.678  21.785  25.985  1.00  0.00    -0.744 OA
ENDBRANCH  75  79
ENDBRANCH  48  72
BRANCH  60  83
ATOM     83  C   UNL A   1      45.729  26.963  33.477  1.00  0.00     0.023 A 
ATOM     84  C   UNL A   1      45.690  25.817  34.291  1.00  0.00     0.031 A 
ATOM     85  C   UNL A   1      46.971  27.586  33.269  1.00  0.00     0.131 A 
ATOM     86  C   UNL A   1      46.863  25.363  34.913  1.00  0.00     0.055 A 
ATOM     87  C   UNL A   1      48.145  27.095  33.841  1.00  0.00     0.041 A 
ATOM     88  F   UNL A   1      47.066  28.685  32.503  1.00  0.00    -0.206 F 
ATOM     89  C   UNL A   1      48.093  25.984  34.679  1.00  0.00     0.022 A 
BRANCH  86  90
ATOM     90  S   UNL A   1      46.748  24.000  36.104  1.00  0.00     0.124 S 
ATOM     91  O   UNL A   1      46.633  24.713  37.372  1.00  0.00    -0.237 OA
ATOM     92  O   UNL A   1      45.549  23.296  35.658  1.00  0.00    -0.237 OA
ATOM     93  O   UNL A   1      48.001  23.270  35.914  1.00  0.00    -0.744 OA
ENDBRANCH  86  90
ENDBRANCH  60  83
ENDBRANCH  34  35
ENDBRANCH  26  29
ENDBRANCH  24  25
ENDBRANCH  23  24
ENDBRANCH   1  23
TORSDOF 18
ENDMDL
MODEL 2
REMARK VINA RESULT:     -10.9      1.732      2.139
REMARK SMILES COc1cc(Br)c(OC)c(C(=O)NCCC(=O)NCCCNC(=O)c2ccc(-c3c4nc(c(-c5cc(S(=O)(=O)[O-])ccc5F)c5ccc([nH]5)c(-c5cc(S(=O)(=O)[O-])ccc5F)c5nc(c(-c6cc(S(=O)(=O)[O-])ccc6F)c6ccc3[nH]6)C=C5)C=C4)cc2)c1
REMARK SMILES IDX 19 1 18 2 16 3 17 4 15 6 14 7 13 8 11 9 12 10 10 12 3 13
REMARK SMILES IDX 4 14 88 15 5 16 6 17 7 18 2 19 1 20 8 21 9 22 20 23 21 24
REMARK SMILES IDX 22 25 23 26 24 28 25 29 26 30 87 31 27 32 86 33 28 34 29 35
REMARK SMILES IDX 30 36 80 37 31 38 85 39 79 40 81 41 32 42 84 43 78 44 77 45
REMARK SMILES IDX 33 47 65 48 45 49 64 50 46 51 49 52 63 53 82 54 47 55 48 56
REMARK SMILES IDX 62 58 83 59 50 60 34 61 35 62 43 63 36 64 42 65 44 66 41 67
REMARK SMILES IDX 37 68 38 69 39 70 40 71 66 72 67 73 75 74 68 75 74 76 76 77
REMARK SMILES IDX 73 78 69 79 70 80 71 81 72 82 51 83 52 84 60 85 53 86 59 87
REMARK SMILES IDX 61 88 58 89 54 90 55 91 56 92 57 93
REMARK H PARENT 18 5 13 11 22 27 81 46 49 57
REMARK Flexibility Score: inf
ROOT
ATOM      1  C   UNL A   1      31.799  28.506  24.718  1.00  0.00     0.117 C 
ENDROOT
BRANCH   1   2
ATOM      2  N   UNL A   1      31.191  27.570  25.651  1.00  0.00    -0.356 N 
ATOM      3  C   UNL A   1      30.471  26.444  25.404  1.00  0.00     0.221 C 
ATOM      4  O   UNL A   1      30.005  25.821  26.360  1.00  0.00    -0.275 OA
ATOM      5  H   UNL A   1      31.323  27.784  26.602  1.00  0.00     0.163 HD
BRANCH   3   6
ATOM      6  C   UNL A   1      30.237  25.972  23.986  1.00  0.00     0.121 C 
BRANCH   6   7
ATOM      7  C   UNL A   1      30.631  24.513  23.814  1.00  0.00     0.126 C 
BRANCH   7   8
ATOM      8  N   UNL A   1      31.559  24.268  22.713  1.00  0.00    -0.351 N 
ATOM      9  C   UNL A   1      32.710  23.551  22.495  1.00  0.00     0.255 C 
ATOM     10  O   UNL A   1      33.290  23.792  21.435  1.00  0.00    -0.269 OA
ATOM     11  H   UNL A   1      31.283  24.754  21.902  1.00  0.00     0.163 HD
BRANCH   9  12
ATOM     12  C   UNL A   1      33.234  22.475  23.389  1.00  0.00     0.086 A 
ATOM     13  C   UNL A   1      33.028  20.231  24.297  1.00  0.00     0.121 A 
ATOM     14  C   UNL A   1      34.316  20.294  24.807  1.00  0.00     0.066 A 
ATOM     15  C   UNL A   1      32.523  21.278  23.533  1.00  0.00     0.064 A 
ATOM     16  C   UNL A   1      35.064  21.463  24.658  1.00  0.00     0.064 A 
ATOM     17  Br  UNL A   1      36.773  21.445  25.495  1.00  0.00    -0.047 Br
ATOM     18  C   UNL A   1      34.528  22.571  23.970  1.00  0.00     0.146 A 
BRANCH  13  19
ATOM     19  O   UNL A   1      32.215  19.145  24.474  1.00  0.00    -0.497 OA
ATOM     20  C   UNL A   1      32.526  18.094  23.556  1.00  0.00     0.278 C 
ENDBRANCH  13  19
BRANCH  18  21
ATOM     21  O   UNL A   1      35.156  23.794  23.982  1.00  0.00    -0.495 OA
ATOM     22  C   UNL A   1      34.838  24.626  25.101  1.00  0.00     0.278 C 
ENDBRANCH  18  21
ENDBRANCH   9  12
ENDBRANCH   7   8
ENDBRANCH   6   7
ENDBRANCH   3   6
ENDBRANCH   1   2
BRANCH   1  23
ATOM     23  C   UNL A   1      33.320  28.422  24.737  1.00  0.00     0.042 C 
BRANCH  23  24
ATOM     24  C   UNL A   1      33.944  28.651  26.106  1.00  0.00     0.118 C 
BRANCH  24  25
ATOM     25  N   UNL A   1      33.757  30.010  26.583  1.00  0.00    -0.352 N 
ATOM     26  C   UNL A   1      34.480  30.737  27.499  1.00  0.00     0.251 C 
ATOM     27  H   UNL A   1      32.992  30.486  26.188  1.00  0.00     0.163 HD
ATOM     28  O   UNL A   1      34.011  31.793  27.916  1.00  0.00    -0.269 OA
BRANCH  26  29
ATOM     29  C   UNL A   1      35.792  30.258  27.999  1.00  0.00     0.039 A 
ATOM     30  C   UNL A   1      35.852  29.661  29.262  1.00  0.00     0.014 A 
ATOM     31  C   UNL A   1      36.968  30.432  27.265  1.00  0.00     0.014 A 
ATOM     32  C   UNL A   1      37.074  29.196  29.760  1.00  0.00     0.010 A 
ATOM     33  C   UNL A   1      38.168  29.886  27.721  1.00  0.00     0.010 A 
ATOM     34  C   UNL A   1      38.239  29.276  28.982  1.00  0.00    -0.014 A 
BRANCH  34  35
ATOM     35  C   UNL A   1      39.544  28.762  29.483  1.00  0.00     0.031 A 
ATOM     36  C   UNL A   1      40.241  29.458  30.624  1.00  0.00     0.074 A 
ATOM     37  C   UNL A   1      40.129  27.706  28.882  1.00  0.00     0.049 A 
ATOM     38  N   UNL A   1      41.416  29.220  31.150  1.00  0.00    -0.248 NA
ATOM     39  C   UNL A   1      39.534  30.596  31.233  1.00  0.00     0.031 C 
ATOM     40  C   UNL A   1      39.577  26.970  27.743  1.00  0.00     0.029 A 
ATOM     41  N   UNL A   1      41.320  27.073  29.137  1.00  0.00    -0.354 N 
ATOM     42  C   UNL A   1      41.597  30.189  32.133  1.00  0.00     0.074 A 
ATOM     43  C   UNL A   1      40.437  31.054  32.083  1.00  0.00     0.031 C 
ATOM     44  C   UNL A   1      40.413  25.972  27.416  1.00  0.00     0.029 A 
ATOM     45  C   UNL A   1      41.583  26.024  28.286  1.00  0.00     0.049 A 
ATOM     46  H   UNL A   1      41.929  27.344  29.861  1.00  0.00     0.167 HD
ATOM     47  C   UNL A   1      42.622  30.331  33.010  1.00  0.00     0.034 A 
ATOM     48  C   UNL A   1      42.650  25.204  28.208  1.00  0.00     0.034 A 
ATOM     49  C   UNL A   1      43.761  29.447  33.061  1.00  0.00     0.049 A 
ATOM     50  C   UNL A   1      43.784  25.386  29.186  1.00  0.00     0.074 A 
ATOM     51  C   UNL A   1      44.825  29.460  33.946  1.00  0.00     0.029 A 
ATOM     52  N   UNL A   1      43.988  28.389  32.188  1.00  0.00    -0.354 N 
ATOM     53  N   UNL A   1      43.917  26.279  30.139  1.00  0.00    -0.248 NA
ATOM     54  C   UNL A   1      44.905  24.443  29.083  1.00  0.00     0.031 C 
ATOM     55  C   UNL A   1      45.725  28.458  33.570  1.00  0.00     0.029 A 
ATOM     56  C   UNL A   1      45.188  27.766  32.497  1.00  0.00     0.049 A 
ATOM     57  H   UNL A   1      43.385  28.123  31.458  1.00  0.00     0.167 HD
ATOM     58  C   UNL A   1      45.125  25.985  30.767  1.00  0.00     0.074 A 
ATOM     59  C   UNL A   1      45.670  24.823  30.096  1.00  0.00     0.031 C 
ATOM     60  C   UNL A   1      45.726  26.614  31.810  1.00  0.00     0.034 A 
BRANCH  47  61
ATOM     61  C   UNL A   1      42.564  31.501  33.966  1.00  0.00     0.023 A 
ATOM     62  C   UNL A   1      41.848  31.433  35.175  1.00  0.00     0.031 A 
ATOM     63  C   UNL A   1      43.206  32.712  33.651  1.00  0.00     0.131 A 
ATOM     64  C   UNL A   1      41.723  32.576  35.981  1.00  0.00     0.055 A 
ATOM     65  C   UNL A   1      43.149  33.820  34.500  1.00  0.00     0.041 A 
ATOM     66  F   UNL A   1      43.888  32.845  32.503  1.00  0.00    -0.206 F 
ATOM     67  C   UNL A   1      42.390  33.761  35.665  1.00  0.00     0.022 A 
BRANCH  64  68
ATOM     68  S   UNL A   1      40.554  32.533  37.368  1.00  0.00     0.124 S 
ATOM     69  O   UNL A   1      41.398  32.031  38.449  1.00  0.00    -0.237 OA
ATOM     70  O   UNL A   1      40.138  33.925  37.475  1.00  0.00    -0.237 OA
ATOM     71  O   UNL A   1      39.519  31.604  36.913  1.00  0.00    -0.744 OA
ENDBRANCH  64  68
ENDBRANCH  47  61
BRANCH  48  72
ATOM     72  C   UNL A   1      42.711  24.141  27.163  1.00  0.00     0.023 A 
ATOM     73  C   UNL A   1      42.050  22.915  27.338  1.00  0.00     0.031 A 
ATOM     74  C   UNL A   1      43.466  24.322  25.990  1.00  0.00     0.131 A 
ATOM     75  C   UNL A   1      42.192  21.900  26.378  1.00  0.00     0.055 A 
ATOM     76  C   UNL A   1      43.561  23.329  25.013  1.00  0.00     0.041 A 
ATOM     77  F   UNL A   1      44.115  25.477  25.772  1.00  0.00    -0.206 F 
ATOM     78  C   UNL A   1      42.932  22.104  25.210  1.00  0.00     0.022 A 
BRANCH  75  79
ATOM     79  S   UNL A   1      41.462  20.275  26.718  1.00  0.00     0.124 S 
ATOM     80  O   UNL A   1      41.748  19.556  25.481  1.00  0.00    -0.237 OA
ATOM     81  O   UNL A   1      42.209  19.847  27.896  1.00  0.00    -0.237 OA
ATOM     82  O   UNL A   1      40.051  20.577  26.951  1.00  0.00    -0.744 OA
ENDBRANCH  75  79
ENDBRANCH  48  72
BRANCH  60  83
ATOM     83  C   UNL A   1      47.022  26.024  32.312  1.00  0.00     0.023 A 
ATOM     84  C   UNL A   1      47.051  25.077  33.350  1.00  0.00     0.031 A 
ATOM     85  C   UNL A   1      48.244  26.427  31.747  1.00  0.00     0.131 A 
ATOM     86  C   UNL A   1      48.283  24.605  33.830  1.00  0.00     0.055 A 
ATOM     87  C   UNL A   1      49.463  25.910  32.188  1.00  0.00     0.041 A 
ATOM     88  F   UNL A   1      48.275  27.330  30.755  1.00  0.00    -0.206 F 
ATOM     89  C   UNL A   1      49.487  25.003  33.245  1.00  0.00     0.022 A 
BRANCH  86  90
ATOM     90  S   UNL A   1      48.296  23.532  35.292  1.00  0.00     0.124 S 
ATOM     91  O   UNL A   1      49.579  22.851  35.158  1.00  0.00    -0.237 OA
ATOM     92  O   UNL A   1      48.196  24.494  36.386  1.00  0.00    -0.237 OA
ATOM     93  O   UNL A   1      47.120  22.683  35.106  1.00  0.00    -0.744 OA
ENDBRANCH  86  90
ENDBRANCH  60  83
ENDBRANCH  34  35
ENDBRANCH  26  29
ENDBRANCH  24  25
ENDBRANCH  23  24
ENDBRANCH   1  23
TORSDOF 18
ENDMDL
MODEL 3
REMARK VINA RESULT:     -10.7      5.767      8.595
REMARK SMILES COc1cc(Br)c(OC)c(C(=O)NCCC(=O)NCCCNC(=O)c2ccc(-c3c4nc(c(-c5cc(S(=O)(=O)[O-])ccc5F)c5ccc([nH]5)c(-c5cc(S(=O)(=O)[O-])ccc5F)c5nc(c(-c6cc(S(=O)(=O)[O-])ccc6F)c6ccc3[nH]6)C=C5)C=C4)cc2)c1
REMARK SMILES IDX 19 1 18 2 16 3 17 4 15 6 14 7 13 8 11 9 12 10 10 12 3 13
REMARK SMILES IDX 4 14 88 15 5 16 6 17 7 18 2 19 1 20 8 21 9 22 20 23 21 24
REMARK SMILES IDX 22 25 23 26 24 28 25 29 26 30 87 31 27 32 86 33 28 34 29 35
REMARK SMILES IDX 30 36 80 37 31 38 85 39 79 40 81 41 32 42 84 43 78 44 77 45
REMARK SMILES IDX 33 47 65 48 45 49 64 50 46 51 49 52 63 53 82 54 47 55 48 56
REMARK SMILES IDX 62 58 83 59 50 60 34 61 35 62 43 63 36 64 42 65 44 66 41 67
REMARK SMILES IDX 37 68 38 69 39 70 40 71 66 72 67 73 75 74 68 75 74 76 76 77
REMARK SMILES IDX 73 78 69 79 70 80 71 81 72 82 51 83 52 84 60 85 53 86 59 87
REMARK SMILES IDX 61 88 58 89 54 90 55 91 56 92 57 93
REMARK H PARENT 18 5 13 11 22 27 81 46 49 57
REMARK Flexibility Score: inf
ROOT
ATOM      1  C   UNL A   1      36.831  20.331  24.998  1.00  0.00     0.117 C 
ENDROOT
BRANCH   1   2
ATOM      2  N   UNL A   1      36.852  21.782  24.903  1.00  0.00    -0.356 N 
ATOM      3  C   UNL A   1      36.098  22.705  25.555  1.00  0.00     0.221 C 
ATOM      4  O   UNL A   1      36.255  23.896  25.280  1.00  0.00    -0.275 OA
ATOM      5  H   UNL A   1      37.512  22.150  24.273  1.00  0.00     0.163 HD
BRANCH   3   6
ATOM      6  C   UNL A   1      35.079  22.279  26.590  1.00  0.00     0.121 C 
BRANCH   6   7
ATOM      7  C   UNL A   1      33.809  21.755  25.936  1.00  0.00     0.126 C 
BRANCH   7   8
ATOM      8  N   UNL A   1      32.582  22.375  26.430  1.00  0.00    -0.351 N 
ATOM      9  C   UNL A   1      32.034  23.633  26.495  1.00  0.00     0.255 C 
ATOM     10  O   UNL A   1      31.026  23.734  27.195  1.00  0.00    -0.269 OA
ATOM     11  H   UNL A   1      31.981  21.704  26.828  1.00  0.00     0.163 HD
BRANCH   9  12
ATOM     12  C   UNL A   1      32.517  24.821  25.728  1.00  0.00     0.086 A 
ATOM     13  C   UNL A   1      33.665  26.961  25.701  1.00  0.00     0.121 A 
ATOM     14  C   UNL A   1      33.725  26.938  24.316  1.00  0.00     0.066 A 
ATOM     15  C   UNL A   1      33.138  25.881  26.400  1.00  0.00     0.064 A 
ATOM     16  C   UNL A   1      33.140  25.882  23.615  1.00  0.00     0.064 A 
ATOM     17  Br  UNL A   1      33.205  26.032  21.719  1.00  0.00    -0.047 Br
ATOM     18  C   UNL A   1      32.513  24.826  24.306  1.00  0.00     0.146 A 
BRANCH  13  19
ATOM     19  O   UNL A   1      34.150  28.002  26.444  1.00  0.00    -0.497 OA
ATOM     20  C   UNL A   1      33.489  29.231  26.133  1.00  0.00     0.278 C 
ENDBRANCH  13  19
BRANCH  18  21
ATOM     21  O   UNL A   1      31.759  23.884  23.647  1.00  0.00    -0.495 OA
ATOM     22  C   UNL A   1      30.398  24.255  23.412  1.00  0.00     0.278 C 
ENDBRANCH  18  21
ENDBRANCH   9  12
ENDBRANCH   7   8
ENDBRANCH   6   7
ENDBRANCH   3   6
ENDBRANCH   1   2
BRANCH   1  23
ATOM     23  C   UNL A   1      38.220  19.729  24.830  1.00  0.00     0.042 C 
BRANCH  23  24
ATOM     24  C   UNL A   1      39.208  20.115  25.921  1.00  0.00     0.118 C 
BRANCH  24  25
ATOM     25  N   UNL A   1      40.336  19.205  25.999  1.00  0.00    -0.352 N 
ATOM     26  C   UNL A   1      41.683  19.466  26.091  1.00  0.00     0.251 C 
ATOM     27  H   UNL A   1      40.100  18.250  25.985  1.00  0.00     0.163 HD
ATOM     28  O   UNL A   1      42.476  18.543  25.921  1.00  0.00    -0.269 OA
BRANCH  26  29
ATOM     29  C   UNL A   1      42.184  20.835  26.369  1.00  0.00     0.039 A 
ATOM     30  C   UNL A   1      42.480  21.186  27.690  1.00  0.00     0.014 A 
ATOM     31  C   UNL A   1      42.319  21.790  25.358  1.00  0.00     0.014 A 
ATOM     32  C   UNL A   1      42.956  22.468  27.984  1.00  0.00     0.010 A 
ATOM     33  C   UNL A   1      42.882  23.034  25.638  1.00  0.00     0.010 A 
ATOM     34  C   UNL A   1      43.192  23.395  26.957  1.00  0.00    -0.014 A 
BRANCH  34  35
ATOM     35  C   UNL A   1      43.725  24.756  27.247  1.00  0.00     0.031 A 
ATOM     36  C   UNL A   1      42.809  25.827  27.780  1.00  0.00     0.074 A 
ATOM     37  C   UNL A   1      45.015  25.044  26.983  1.00  0.00     0.049 A 
ATOM     38  N   UNL A   1      43.056  27.091  28.015  1.00  0.00    -0.248 NA
ATOM     39  C   UNL A   1      41.418  25.431  28.050  1.00  0.00     0.031 C 
ATOM     40  C   UNL A   1      45.994  24.107  26.429  1.00  0.00     0.029 A 
ATOM     41  N   UNL A   1      45.725  26.210  27.135  1.00  0.00    -0.354 N 
ATOM     42  C   UNL A   1      41.852  27.643  28.441  1.00  0.00     0.074 A 
ATOM     43  C   UNL A   1      40.862  26.589  28.368  1.00  0.00     0.031 C 
ATOM     44  C   UNL A   1      47.180  24.725  26.314  1.00  0.00     0.029 A 
ATOM     45  C   UNL A   1      47.039  26.115  26.738  1.00  0.00     0.049 A 
ATOM     46  H   UNL A   1      45.330  27.037  27.496  1.00  0.00     0.167 HD
ATOM     47  C   UNL A   1      41.598  28.903  28.874  1.00  0.00     0.034 A 
ATOM     48  C   UNL A   1      48.016  27.044  26.706  1.00  0.00     0.034 A 
ATOM     49  C   UNL A   1      42.600  29.937  28.963  1.00  0.00     0.049 A 
ATOM     50  C   UNL A   1      47.709  28.441  27.182  1.00  0.00     0.074 A 
ATOM     51  C   UNL A   1      42.468  31.228  29.443  1.00  0.00     0.029 A 
ATOM     52  N   UNL A   1      43.923  29.800  28.558  1.00  0.00    -0.354 N 
ATOM     53  N   UNL A   1      46.575  28.934  27.624  1.00  0.00    -0.248 NA
ATOM     54  C   UNL A   1      48.817  29.404  27.164  1.00  0.00     0.031 C 
ATOM     55  C   UNL A   1      43.688  31.890  29.269  1.00  0.00     0.029 A 
ATOM     56  C   UNL A   1      44.606  30.992  28.752  1.00  0.00     0.049 A 
ATOM     57  H   UNL A   1      44.316  28.978  28.188  1.00  0.00     0.167 HD
ATOM     58  C   UNL A   1      46.844  30.257  27.964  1.00  0.00     0.074 A 
ATOM     59  C   UNL A   1      48.249  30.479  27.691  1.00  0.00     0.031 C 
ATOM     60  C   UNL A   1      46.006  31.203  28.463  1.00  0.00     0.034 A 
BRANCH  47  61
ATOM     61  C   UNL A   1      40.174  29.233  29.260  1.00  0.00     0.023 A 
ATOM     62  C   UNL A   1      39.758  29.258  30.604  1.00  0.00     0.031 A 
ATOM     63  C   UNL A   1      39.209  29.497  28.271  1.00  0.00     0.131 A 
ATOM     64  C   UNL A   1      38.404  29.456  30.917  1.00  0.00     0.055 A 
ATOM     65  C   UNL A   1      37.880  29.781  28.594  1.00  0.00     0.041 A 
ATOM     66  F   UNL A   1      39.540  29.471  26.971  1.00  0.00    -0.206 F 
ATOM     67  C   UNL A   1      37.467  29.743  29.922  1.00  0.00     0.022 A 
BRANCH  64  68
ATOM     68  S   UNL A   1      37.862  29.183  32.626  1.00  0.00     0.124 S 
ATOM     69  O   UNL A   1      38.815  30.003  33.371  1.00  0.00    -0.237 OA
ATOM     70  O   UNL A   1      36.487  29.664  32.603  1.00  0.00    -0.237 OA
ATOM     71  O   UNL A   1      38.017  27.741  32.808  1.00  0.00    -0.744 OA
ENDBRANCH  64  68
ENDBRANCH  47  61
BRANCH  48  72
ATOM     72  C   UNL A   1      49.374  26.694  26.198  1.00  0.00     0.023 A 
ATOM     73  C   UNL A   1      49.813  27.139  24.941  1.00  0.00     0.031 A 
ATOM     74  C   UNL A   1      50.237  25.874  26.946  1.00  0.00     0.131 A 
ATOM     75  C   UNL A   1      51.062  26.726  24.449  1.00  0.00     0.055 A 
ATOM     76  C   UNL A   1      51.500  25.510  26.476  1.00  0.00     0.041 A 
ATOM     77  F   UNL A   1      49.867  25.424  28.156  1.00  0.00    -0.206 F 
ATOM     78  C   UNL A   1      51.914  25.925  25.215  1.00  0.00     0.022 A 
BRANCH  75  79
ATOM     79  S   UNL A   1      51.524  27.183  22.756  1.00  0.00     0.124 S 
ATOM     80  O   UNL A   1      52.687  26.333  22.525  1.00  0.00    -0.237 OA
ATOM     81  O   UNL A   1      50.319  26.837  22.009  1.00  0.00    -0.237 OA
ATOM     82  O   UNL A   1      51.806  28.614  22.854  1.00  0.00    -0.744 OA
ENDBRANCH  75  79
ENDBRANCH  48  72
BRANCH  60  83
ATOM     83  C   UNL A   1      46.607  32.549  28.786  1.00  0.00     0.023 A 
ATOM     84  C   UNL A   1      46.633  33.594  27.847  1.00  0.00     0.031 A 
ATOM     85  C   UNL A   1      47.173  32.782  30.052  1.00  0.00     0.131 A 
ATOM     86  C   UNL A   1      47.263  34.806  28.167  1.00  0.00     0.055 A 
ATOM     87  C   UNL A   1      47.745  34.010  30.387  1.00  0.00     0.041 A 
ATOM     88  F   UNL A   1      47.179  31.818  30.987  1.00  0.00    -0.206 F 
ATOM     89  C   UNL A   1      47.804  35.026  29.437  1.00  0.00     0.022 A 
BRANCH  86  90
ATOM     90  S   UNL A   1      47.446  36.063  26.873  1.00  0.00     0.124 S 
ATOM     91  O   UNL A   1      47.505  37.295  27.651  1.00  0.00    -0.237 OA
ATOM     92  O   UNL A   1      48.689  35.660  26.221  1.00  0.00    -0.237 OA
ATOM     93  O   UNL A   1      46.241  35.899  26.061  1.00  0.00    -0.744 OA
ENDBRANCH  86  90
ENDBRANCH  60  83
ENDBRANCH  34  35
ENDBRANCH  26  29
ENDBRANCH  24  25
ENDBRANCH  23  24
ENDBRANCH   1  23
TORSDOF 18
ENDMDL
