MODEL 1
REMARK VINA RESULT:     -12.2      0.000      0.000
REMARK SMILES C[C@@H](C(=O)NCCCNC(=O)c1ccc(-c2c3nc(c(-c4cc(S(=O)(=O)[O-])ccc4F)c4ccc([nH]4)c(-c4cc(S(=O)(=O)[O-])ccc4F)c4nc(c(-c5cc(S(=O)(=O)[O-])ccc5F)c5ccc2[nH]5)C=C4)C=C3)cc1)c1ccc(N[C@H]2CCC[C@@H]2O)cc1F
REMARK SMILES IDX 6 1 5 2 3 3 4 4 2 6 1 7 75 8 76 9 87 10 77 11 86 12 88 13
REMARK SMILES IDX 78 14 79 15 80 17 81 18 84 19 82 20 83 21 85 22 7 24 8 25
REMARK SMILES IDX 9 26 10 27 11 29 12 30 13 31 74 32 14 33 73 34 15 35 16 36
REMARK SMILES IDX 17 37 67 38 18 39 72 40 66 41 68 42 19 43 71 44 65 45 64 46
REMARK SMILES IDX 20 48 52 49 32 50 51 51 33 52 36 53 50 54 69 55 34 56 35 57
REMARK SMILES IDX 49 59 70 60 37 61 21 62 22 63 30 64 23 65 29 66 31 67 28 68
REMARK SMILES IDX 24 69 25 70 26 71 27 72 53 73 54 74 62 75 55 76 61 77 63 78
REMARK SMILES IDX 60 79 56 80 57 81 58 82 59 83 38 84 39 85 47 86 40 87 46 88
REMARK SMILES IDX 48 89 45 90 41 91 42 92 43 93 44 94
REMARK H PARENT 5 5 79 16 85 23 9 28 68 47 36 58
REMARK Flexibility Score: inf
ROOT
ATOM      1  C   UNL A   1      31.801  27.650  27.222  1.00  0.00     0.117 C 
ENDROOT
BRANCH   1   2
ATOM      2  N   UNL A   1      31.169  26.433  26.753  1.00  0.00    -0.356 N 
ATOM      3  C   UNL A   1      31.716  25.305  26.212  1.00  0.00     0.227 C 
ATOM      4  O   UNL A   1      30.932  24.408  25.894  1.00  0.00    -0.274 OA
ATOM      5  H   UNL A   1      30.189  26.417  26.838  1.00  0.00     0.163 HD
BRANCH   3   6
ATOM      6  C   UNL A   1      33.243  25.177  26.092  1.00  0.00     0.108 C 
ATOM      7  C   UNL A   1      33.845  26.144  25.070  1.00  0.00     0.023 C 
BRANCH   6   8
ATOM      8  C   UNL A   1      33.671  23.749  25.802  1.00  0.00     0.000 A 
ATOM      9  C   UNL A   1      34.095  23.390  24.520  1.00  0.00     0.009 A 
ATOM     10  C   UNL A   1      33.662  22.757  26.784  1.00  0.00     0.129 A 
ATOM     11  C   UNL A   1      34.479  22.073  24.240  1.00  0.00     0.026 A 
ATOM     12  C   UNL A   1      34.053  21.450  26.500  1.00  0.00     0.065 A 
ATOM     13  F   UNL A   1      33.259  23.043  28.030  1.00  0.00    -0.207 F 
ATOM     14  C   UNL A   1      34.482  21.079  25.221  1.00  0.00     0.037 A 
BRANCH  14  15
ATOM     15  N   UNL A   1      34.836  19.764  25.001  1.00  0.00    -0.380 N 
ATOM     16  H   UNL A   1      35.804  19.585  25.018  1.00  0.00     0.160 HD
BRANCH  15  17
ATOM     17  C   UNL A   1      33.993  18.601  24.747  1.00  0.00     0.107 C 
ATOM     18  C   UNL A   1      32.875  18.851  23.729  1.00  0.00     0.027 C 
ATOM     19  C   UNL A   1      34.757  17.357  24.265  1.00  0.00     0.136 C 
ATOM     20  C   UNL A   1      32.903  17.657  22.775  1.00  0.00     0.005 C 
ATOM     21  C   UNL A   1      33.695  16.579  23.501  1.00  0.00     0.034 C 
BRANCH  19  22
ATOM     22  O   UNL A   1      35.245  16.578  25.352  1.00  0.00    -0.391 OA
ATOM     23  H   UNL A   1      35.391  17.152  26.120  1.00  0.00     0.211 HD
ENDBRANCH  19  22
ENDBRANCH  15  17
ENDBRANCH  14  15
ENDBRANCH   6   8
ENDBRANCH   3   6
ENDBRANCH   1   2
BRANCH   1  24
ATOM     24  C   UNL A   1      31.431  28.853  26.359  1.00  0.00     0.042 C 
BRANCH  24  25
ATOM     25  C   UNL A   1      32.623  29.697  25.919  1.00  0.00     0.118 C 
BRANCH  25  26
ATOM     26  N   UNL A   1      32.450  31.109  26.225  1.00  0.00    -0.352 N 
ATOM     27  C   UNL A   1      33.114  31.906  27.121  1.00  0.00     0.251 C 
ATOM     28  H   UNL A   1      31.745  31.563  25.709  1.00  0.00     0.163 HD
ATOM     29  O   UNL A   1      32.660  33.027  27.367  1.00  0.00    -0.269 OA
BRANCH  27  30
ATOM     30  C   UNL A   1      34.339  31.435  27.804  1.00  0.00     0.039 A 
ATOM     31  C   UNL A   1      35.376  32.345  28.023  1.00  0.00     0.014 A 
ATOM     32  C   UNL A   1      34.490  30.102  28.199  1.00  0.00     0.014 A 
ATOM     33  C   UNL A   1      36.532  31.937  28.692  1.00  0.00     0.010 A 
ATOM     34  C   UNL A   1      35.612  29.715  28.931  1.00  0.00     0.010 A 
ATOM     35  C   UNL A   1      36.645  30.627  29.188  1.00  0.00    -0.014 A 
BRANCH  35  36
ATOM     36  C   UNL A   1      37.831  30.211  29.983  1.00  0.00     0.031 A 
ATOM     37  C   UNL A   1      38.842  29.259  29.404  1.00  0.00     0.074 A 
ATOM     38  C   UNL A   1      37.970  30.661  31.247  1.00  0.00     0.049 A 
ATOM     39  N   UNL A   1      39.910  28.748  29.963  1.00  0.00    -0.248 NA
ATOM     40  C   UNL A   1      38.611  28.803  28.025  1.00  0.00     0.031 C 
ATOM     41  C   UNL A   1      37.032  31.555  31.933  1.00  0.00     0.029 A 
ATOM     42  N   UNL A   1      38.945  30.427  32.184  1.00  0.00    -0.354 N 
ATOM     43  C   UNL A   1      40.477  27.911  29.007  1.00  0.00     0.074 A 
ATOM     44  C   UNL A   1      39.598  27.936  27.857  1.00  0.00     0.031 C 
ATOM     45  C   UNL A   1      37.490  31.810  33.168  1.00  0.00     0.029 A 
ATOM     46  C   UNL A   1      38.727  31.066  33.383  1.00  0.00     0.049 A 
ATOM     47  H   UNL A   1      39.728  29.855  32.014  1.00  0.00     0.167 HD
ATOM     48  C   UNL A   1      41.633  27.205  29.075  1.00  0.00     0.034 A 
ATOM     49  C   UNL A   1      39.433  31.045  34.531  1.00  0.00     0.034 A 
ATOM     50  C   UNL A   1      42.502  27.191  30.228  1.00  0.00     0.049 A 
ATOM     51  C   UNL A   1      40.702  30.232  34.587  1.00  0.00     0.074 A 
ATOM     52  C   UNL A   1      43.715  26.544  30.386  1.00  0.00     0.029 A 
ATOM     53  N   UNL A   1      42.248  27.851  31.424  1.00  0.00    -0.354 N 
ATOM     54  N   UNL A   1      41.247  29.485  33.655  1.00  0.00    -0.248 NA
ATOM     55  C   UNL A   1      41.457  30.270  35.846  1.00  0.00     0.031 C 
ATOM     56  C   UNL A   1      44.162  26.758  31.695  1.00  0.00     0.029 A 
ATOM     57  C   UNL A   1      43.267  27.602  32.332  1.00  0.00     0.049 A 
ATOM     58  H   UNL A   1      41.460  28.413  31.602  1.00  0.00     0.167 HD
ATOM     59  C   UNL A   1      42.424  28.989  34.209  1.00  0.00     0.074 A 
ATOM     60  C   UNL A   1      42.520  29.543  35.543  1.00  0.00     0.031 C 
ATOM     61  C   UNL A   1      43.343  28.150  33.666  1.00  0.00     0.034 A 
BRANCH  48  62
ATOM     62  C   UNL A   1      42.014  26.374  27.873  1.00  0.00     0.023 A 
ATOM     63  C   UNL A   1      41.575  25.047  27.724  1.00  0.00     0.031 A 
ATOM     64  C   UNL A   1      42.828  26.914  26.861  1.00  0.00     0.131 A 
ATOM     65  C   UNL A   1      42.002  24.284  26.627  1.00  0.00     0.055 A 
ATOM     66  C   UNL A   1      43.187  26.174  25.731  1.00  0.00     0.041 A 
ATOM     67  F   UNL A   1      43.294  28.169  26.955  1.00  0.00    -0.206 F 
ATOM     68  C   UNL A   1      42.784  24.847  25.615  1.00  0.00     0.022 A 
BRANCH  65  69
ATOM     69  S   UNL A   1      41.622  22.511  26.600  1.00  0.00     0.124 S 
ATOM     70  O   UNL A   1      40.161  22.524  26.576  1.00  0.00    -0.237 OA
ATOM     71  O   UNL A   1      42.278  22.066  25.376  1.00  0.00    -0.237 OA
ATOM     72  O   UNL A   1      42.213  22.014  27.841  1.00  0.00    -0.744 OA
ENDBRANCH  65  69
ENDBRANCH  48  62
BRANCH  49  73
ATOM     73  C   UNL A   1      38.960  31.799  35.729  1.00  0.00     0.023 A 
ATOM     74  C   UNL A   1      38.320  31.143  36.792  1.00  0.00     0.031 A 
ATOM     75  C   UNL A   1      39.086  33.198  35.799  1.00  0.00     0.131 A 
ATOM     76  C   UNL A   1      37.778  31.888  37.851  1.00  0.00     0.055 A 
ATOM     77  C   UNL A   1      38.598  33.929  36.883  1.00  0.00     0.041 A 
ATOM     78  F   UNL A   1      39.692  33.877  34.812  1.00  0.00    -0.206 F 
ATOM     79  C   UNL A   1      37.924  33.276  37.910  1.00  0.00     0.022 A 
BRANCH  76  80
ATOM     80  S   UNL A   1      36.783  31.026  39.098  1.00  0.00     0.124 S 
ATOM     81  O   UNL A   1      36.639  29.703  38.501  1.00  0.00    -0.237 OA
ATOM     82  O   UNL A   1      37.639  31.109  40.277  1.00  0.00    -0.237 OA
ATOM     83  O   UNL A   1      35.556  31.819  39.162  1.00  0.00    -0.744 OA
ENDBRANCH  76  80
ENDBRANCH  49  73
BRANCH  61  84
ATOM     84  C   UNL A   1      44.547  27.817  34.514  1.00  0.00     0.023 A 
ATOM     85  C   UNL A   1      44.567  26.695  35.362  1.00  0.00     0.031 A 
ATOM     86  C   UNL A   1      45.679  28.653  34.498  1.00  0.00     0.131 A 
ATOM     87  C   UNL A   1      45.664  26.477  36.207  1.00  0.00     0.055 A 
ATOM     88  C   UNL A   1      46.796  28.393  35.292  1.00  0.00     0.041 A 
ATOM     89  F   UNL A   1      45.715  29.739  33.709  1.00  0.00    -0.206 F 
ATOM     90  C   UNL A   1      46.787  27.308  36.165  1.00  0.00     0.022 A 
BRANCH  87  91
ATOM     91  S   UNL A   1      45.562  25.152  37.442  1.00  0.00     0.124 S 
ATOM     92  O   UNL A   1      44.166  25.235  37.860  1.00  0.00    -0.237 OA
ATOM     93  O   UNL A   1      45.924  23.972  36.663  1.00  0.00    -0.237 OA
ATOM     94  O   UNL A   1      46.538  25.550  38.454  1.00  0.00    -0.744 OA
ENDBRANCH  87  91
ENDBRANCH  61  84
ENDBRANCH  35  36
ENDBRANCH  27  30
ENDBRANCH  25  26
ENDBRANCH  24  25
ENDBRANCH   1  24
TORSDOF 17
ENDMDL
MODEL 2
REMARK VINA RESULT:     -11.9      2.903      9.035
REMARK SMILES C[C@@H](C(=O)NCCCNC(=O)c1ccc(-c2c3nc(c(-c4cc(S(=O)(=O)[O-])ccc4F)c4ccc([nH]4)c(-c4cc(S(=O)(=O)[O-])ccc4F)c4nc(c(-c5cc(S(=O)(=O)[O-])ccc5F)c5ccc2[nH]5)C=C4)C=C3)cc1)c1ccc(N[C@H]2CCC[C@@H]2O)cc1F
REMARK SMILES IDX 6 1 5 2 3 3 4 4 2 6 1 7 75 8 76 9 87 10 77 11 86 12 88 13
REMARK SMILES IDX 78 14 79 15 80 17 81 18 84 19 82 20 83 21 85 22 7 24 8 25
REMARK SMILES IDX 9 26 10 27 11 29 12 30 13 31 74 32 14 33 73 34 15 35 16 36
REMARK SMILES IDX 17 37 67 38 18 39 72 40 66 41 68 42 19 43 71 44 65 45 64 46
REMARK SMILES IDX 20 48 52 49 32 50 51 51 33 52 36 53 50 54 69 55 34 56 35 57
REMARK SMILES IDX 49 59 70 60 37 61 21 62 22 63 30 64 23 65 29 66 31 67 28 68
REMARK SMILES IDX 24 69 25 70 26 71 27 72 53 73 54 74 62 75 55 76 61 77 63 78
REMARK SMILES IDX 60 79 56 80 57 81 58 82 59 83 38 84 39 85 47 86 40 87 46 88
REMARK SMILES IDX 48 89 45 90 41 91 42 92 43 93 44 94
REMARK H PARENT 5 5 79 16 85 23 9 28 68 47 36 58
REMARK Flexibility Score: inf
ROOT
ATOM      1  C   UNL A   1      32.169  27.482  26.817  1.00  0.00     0.117 C 
ENDROOT
BRANCH   1   2
ATOM      2  N   UNL A   1      33.128  27.243  25.759  1.00  0.00    -0.356 N 
ATOM      3  C   UNL A   1      33.043  26.448  24.651  1.00  0.00     0.227 C 
ATOM      4  O   UNL A   1      34.025  26.431  23.906  1.00  0.00    -0.274 OA
ATOM      5  H   UNL A   1      33.978  27.731  25.852  1.00  0.00     0.163 HD
BRANCH   3   6
ATOM      6  C   UNL A   1      31.740  25.689  24.354  1.00  0.00     0.108 C 
ATOM      7  C   UNL A   1      31.945  24.495  23.418  1.00  0.00     0.023 C 
BRANCH   6   8
ATOM      8  C   UNL A   1      30.656  26.610  23.822  1.00  0.00     0.000 A 
ATOM      9  C   UNL A   1      30.964  27.580  22.865  1.00  0.00     0.009 A 
ATOM     10  C   UNL A   1      29.331  26.525  24.256  1.00  0.00     0.129 A 
ATOM     11  C   UNL A   1      29.974  28.442  22.379  1.00  0.00     0.026 A 
ATOM     12  C   UNL A   1      28.349  27.382  23.763  1.00  0.00     0.065 A 
ATOM     13  F   UNL A   1      28.979  25.617  25.177  1.00  0.00    -0.207 F 
ATOM     14  C   UNL A   1      28.646  28.355  22.803  1.00  0.00     0.037 A 
BRANCH  14  15
ATOM     15  N   UNL A   1      27.632  29.184  22.370  1.00  0.00    -0.380 N 
ATOM     16  H   UNL A   1      26.858  28.724  21.971  1.00  0.00     0.160 HD
BRANCH  15  17
ATOM     17  C   UNL A   1      27.533  30.638  22.414  1.00  0.00     0.107 C 
ATOM     18  C   UNL A   1      27.941  31.251  23.759  1.00  0.00     0.027 C 
ATOM     19  C   UNL A   1      28.354  31.363  21.334  1.00  0.00     0.136 C 
ATOM     20  C   UNL A   1      28.856  32.428  23.421  1.00  0.00     0.005 C 
ATOM     21  C   UNL A   1      28.600  32.732  21.953  1.00  0.00     0.034 C 
BRANCH  19  22
ATOM     22  O   UNL A   1      27.628  31.500  20.117  1.00  0.00    -0.391 OA
ATOM     23  H   UNL A   1      27.183  30.664  19.912  1.00  0.00     0.211 HD
ENDBRANCH  19  22
ENDBRANCH  15  17
ENDBRANCH  14  15
ENDBRANCH   6   8
ENDBRANCH   3   6
ENDBRANCH   1   2
BRANCH   1  24
ATOM     24  C   UNL A   1      31.706  28.936  26.848  1.00  0.00     0.042 C 
BRANCH  24  25
ATOM     25  C   UNL A   1      32.525  29.870  25.963  1.00  0.00     0.118 C 
BRANCH  25  26
ATOM     26  N   UNL A   1      32.364  31.270  26.329  1.00  0.00    -0.352 N 
ATOM     27  C   UNL A   1      33.072  32.037  27.217  1.00  0.00     0.251 C 
ATOM     28  H   UNL A   1      31.631  31.738  25.869  1.00  0.00     0.163 HD
ATOM     29  O   UNL A   1      32.628  33.147  27.527  1.00  0.00    -0.269 OA
BRANCH  27  30
ATOM     30  C   UNL A   1      34.333  31.549  27.815  1.00  0.00     0.039 A 
ATOM     31  C   UNL A   1      35.332  32.476  28.125  1.00  0.00     0.014 A 
ATOM     32  C   UNL A   1      34.557  30.187  28.043  1.00  0.00     0.014 A 
ATOM     33  C   UNL A   1      36.521  32.048  28.719  1.00  0.00     0.010 A 
ATOM     34  C   UNL A   1      35.712  29.770  28.703  1.00  0.00     0.010 A 
ATOM     35  C   UNL A   1      36.707  30.695  29.049  1.00  0.00    -0.014 A 
BRANCH  35  36
ATOM     36  C   UNL A   1      37.930  30.246  29.767  1.00  0.00     0.031 A 
ATOM     37  C   UNL A   1      38.230  30.750  31.153  1.00  0.00     0.074 A 
ATOM     38  C   UNL A   1      38.793  29.415  29.148  1.00  0.00     0.049 A 
ATOM     39  N   UNL A   1      39.267  30.508  31.914  1.00  0.00    -0.248 NA
ATOM     40  C   UNL A   1      37.246  31.664  31.754  1.00  0.00     0.031 C 
ATOM     41  C   UNL A   1      38.632  28.893  27.788  1.00  0.00     0.029 A 
ATOM     42  N   UNL A   1      39.978  28.868  29.571  1.00  0.00    -0.354 N 
ATOM     43  C   UNL A   1      39.064  31.239  33.080  1.00  0.00     0.074 A 
ATOM     44  C   UNL A   1      37.834  31.981  32.898  1.00  0.00     0.031 C 
ATOM     45  C   UNL A   1      39.664  28.085  27.501  1.00  0.00     0.029 A 
ATOM     46  C   UNL A   1      40.585  28.065  28.633  1.00  0.00     0.049 A 
ATOM     47  H   UNL A   1      40.359  29.035  30.464  1.00  0.00     0.167 HD
ATOM     48  C   UNL A   1      39.820  31.271  34.205  1.00  0.00     0.034 A 
ATOM     49  C   UNL A   1      41.757  27.400  28.672  1.00  0.00     0.034 A 
ATOM     50  C   UNL A   1      41.043  30.523  34.375  1.00  0.00     0.049 A 
ATOM     51  C   UNL A   1      42.591  27.473  29.926  1.00  0.00     0.074 A 
ATOM     52  C   UNL A   1      41.864  30.451  35.488  1.00  0.00     0.029 A 
ATOM     53  N   UNL A   1      41.627  29.720  33.403  1.00  0.00    -0.354 N 
ATOM     54  N   UNL A   1      42.356  28.131  31.038  1.00  0.00    -0.248 NA
ATOM     55  C   UNL A   1      43.840  26.701  29.935  1.00  0.00     0.031 C 
ATOM     56  C   UNL A   1      42.973  29.660  35.168  1.00  0.00     0.029 A 
ATOM     57  C   UNL A   1      42.809  29.174  33.881  1.00  0.00     0.049 A 
ATOM     58  H   UNL A   1      41.256  29.562  32.504  1.00  0.00     0.167 HD
ATOM     59  C   UNL A   1      43.417  27.828  31.887  1.00  0.00     0.074 A 
ATOM     60  C   UNL A   1      44.274  26.909  31.168  1.00  0.00     0.031 C 
ATOM     61  C   UNL A   1      43.663  28.269  33.147  1.00  0.00     0.034 A 
BRANCH  48  62
ATOM     62  C   UNL A   1      39.353  32.159  35.334  1.00  0.00     0.023 A 
ATOM     63  C   UNL A   1      39.742  33.507  35.421  1.00  0.00     0.031 A 
ATOM     64  C   UNL A   1      38.510  31.653  36.339  1.00  0.00     0.131 A 
ATOM     65  C   UNL A   1      39.342  34.284  36.518  1.00  0.00     0.055 A 
ATOM     66  C   UNL A   1      38.051  32.452  37.389  1.00  0.00     0.041 A 
ATOM     67  F   UNL A   1      38.120  30.368  36.322  1.00  0.00    -0.206 F 
ATOM     68  C   UNL A   1      38.478  33.774  37.490  1.00  0.00     0.022 A 
BRANCH  65  69
ATOM     69  S   UNL A   1      40.065  35.935  36.724  1.00  0.00     0.124 S 
ATOM     70  O   UNL A   1      41.484  35.620  36.860  1.00  0.00    -0.237 OA
ATOM     71  O   UNL A   1      39.675  36.606  35.488  1.00  0.00    -0.237 OA
ATOM     72  O   UNL A   1      39.427  36.441  37.937  1.00  0.00    -0.744 OA
ENDBRANCH  65  69
ENDBRANCH  48  62
BRANCH  49  73
ATOM     73  C   UNL A   1      42.228  26.620  27.490  1.00  0.00     0.023 A 
ATOM     74  C   UNL A   1      41.891  25.268  27.332  1.00  0.00     0.031 A 
ATOM     75  C   UNL A   1      43.076  27.204  26.531  1.00  0.00     0.131 A 
ATOM     76  C   UNL A   1      42.444  24.526  26.276  1.00  0.00     0.055 A 
ATOM     77  C   UNL A   1      43.576  26.478  25.449  1.00  0.00     0.041 A 
ATOM     78  F   UNL A   1      43.429  28.495  26.631  1.00  0.00    -0.206 F 
ATOM     79  C   UNL A   1      43.274  25.125  25.326  1.00  0.00     0.022 A 
BRANCH  76  80
ATOM     80  S   UNL A   1      42.149  22.737  26.224  1.00  0.00     0.124 S 
ATOM     81  O   UNL A   1      42.751  22.374  24.947  1.00  0.00    -0.237 OA
ATOM     82  O   UNL A   1      42.851  22.281  27.419  1.00  0.00    -0.237 OA
ATOM     83  O   UNL A   1      40.691  22.632  26.281  1.00  0.00    -0.744 OA
ENDBRANCH  76  80
ENDBRANCH  49  73
BRANCH  61  84
ATOM     84  C   UNL A   1      44.894  27.727  33.832  1.00  0.00     0.023 A 
ATOM     85  C   UNL A   1      44.861  26.532  34.573  1.00  0.00     0.031 A 
ATOM     86  C   UNL A   1      46.110  28.432  33.770  1.00  0.00     0.131 A 
ATOM     87  C   UNL A   1      45.999  26.114  35.277  1.00  0.00     0.055 A 
ATOM     88  C   UNL A   1      47.258  27.976  34.419  1.00  0.00     0.041 A 
ATOM     89  F   UNL A   1      46.200  29.580  33.079  1.00  0.00    -0.206 F 
ATOM     90  C   UNL A   1      47.203  26.818  35.190  1.00  0.00     0.022 A 
BRANCH  87  91
ATOM     91  S   UNL A   1      45.858  24.694  36.396  1.00  0.00     0.124 S 
ATOM     92  O   UNL A   1      46.314  25.259  37.662  1.00  0.00    -0.237 OA
ATOM     93  O   UNL A   1      44.435  24.376  36.318  1.00  0.00    -0.237 OA
ATOM     94  O   UNL A   1      46.749  23.699  35.804  1.00  0.00    -0.744 OA
ENDBRANCH  87  91
ENDBRANCH  61  84
ENDBRANCH  35  36
ENDBRANCH  27  30
ENDBRANCH  25  26
ENDBRANCH  24  25
ENDBRANCH   1  24
TORSDOF 17
ENDMDL
MODEL 3
REMARK VINA RESULT:     -11.8      2.841      7.908
REMARK SMILES C[C@@H](C(=O)NCCCNC(=O)c1ccc(-c2c3nc(c(-c4cc(S(=O)(=O)[O-])ccc4F)c4ccc([nH]4)c(-c4cc(S(=O)(=O)[O-])ccc4F)c4nc(c(-c5cc(S(=O)(=O)[O-])ccc5F)c5ccc2[nH]5)C=C4)C=C3)cc1)c1ccc(N[C@H]2CCC[C@@H]2O)cc1F
REMARK SMILES IDX 6 1 5 2 3 3 4 4 2 6 1 7 75 8 76 9 87 10 77 11 86 12 88 13
REMARK SMILES IDX 78 14 79 15 80 17 81 18 84 19 82 20 83 21 85 22 7 24 8 25
REMARK SMILES IDX 9 26 10 27 11 29 12 30 13 31 74 32 14 33 73 34 15 35 16 36
REMARK SMILES IDX 17 37 67 38 18 39 72 40 66 41 68 42 19 43 71 44 65 45 64 46
REMARK SMILES IDX 20 48 52 49 32 50 51 51 33 52 36 53 50 54 69 55 34 56 35 57
REMARK SMILES IDX 49 59 70 60 37 61 21 62 22 63 30 64 23 65 29 66 31 67 28 68
REMARK SMILES IDX 24 69 25 70 26 71 27 72 53 73 54 74 62 75 55 76 61 77 63 78
REMARK SMILES IDX 60 79 56 80 57 81 58 82 59 83 38 84 39 85 47 86 40 87 46 88
REMARK SMILES IDX 48 89 45 90 41 91 42 92 43 93 44 94
REMARK H PARENT 5 5 79 16 85 23 9 28 68 47 36 58
REMARK Flexibility Score: inf
ROOT
ATOM      1  C   UNL A   1      32.340  27.124  26.031  1.00  0.00     0.117 C 
ENDROOT
BRANCH   1   2
ATOM      2  N   UNL A   1      31.400  26.142  26.532  1.00  0.00    -0.356 N 
ATOM      3  C   UNL A   1      30.983  24.961  25.988  1.00  0.00     0.227 C 
ATOM      4  O   UNL A   1      30.160  24.313  26.640  1.00  0.00    -0.274 OA
ATOM      5  H   UNL A   1      30.998  26.361  27.404  1.00  0.00     0.163 HD
BRANCH   3   6
ATOM      6  C   UNL A   1      31.589  24.472  24.664  1.00  0.00     0.108 C 
ATOM      7  C   UNL A   1      30.568  24.413  23.525  1.00  0.00     0.023 C 
BRANCH   6   8
ATOM      8  C   UNL A   1      32.297  23.137  24.824  1.00  0.00     0.000 A 
ATOM      9  C   UNL A   1      31.838  22.012  24.135  1.00  0.00     0.009 A 
ATOM     10  C   UNL A   1      33.415  22.984  25.646  1.00  0.00     0.129 A 
ATOM     11  C   UNL A   1      32.476  20.775  24.286  1.00  0.00     0.026 A 
ATOM     12  C   UNL A   1      34.050  21.751  25.786  1.00  0.00     0.065 A 
ATOM     13  F   UNL A   1      33.895  24.028  26.335  1.00  0.00    -0.207 F 
ATOM     14  C   UNL A   1      33.601  20.618  25.099  1.00  0.00     0.037 A 
BRANCH  14  15
ATOM     15  N   UNL A   1      34.262  19.424  25.297  1.00  0.00    -0.380 N 
ATOM     16  H   UNL A   1      35.005  19.460  25.942  1.00  0.00     0.160 HD
BRANCH  15  17
ATOM     17  C   UNL A   1      34.028  18.117  24.693  1.00  0.00     0.107 C 
ATOM     18  C   UNL A   1      35.286  17.249  24.576  1.00  0.00     0.027 C 
ATOM     19  C   UNL A   1      32.971  17.264  25.414  1.00  0.00     0.136 C 
ATOM     20  C   UNL A   1      34.883  15.860  25.074  1.00  0.00     0.005 C 
ATOM     21  C   UNL A   1      33.362  15.843  25.036  1.00  0.00     0.034 C 
BRANCH  19  22
ATOM     22  O   UNL A   1      31.654  17.547  24.952  1.00  0.00    -0.391 OA
ATOM     23  H   UNL A   1      31.216  16.720  24.700  1.00  0.00     0.211 HD
ENDBRANCH  19  22
ENDBRANCH  15  17
ENDBRANCH  14  15
ENDBRANCH   6   8
ENDBRANCH   3   6
ENDBRANCH   1   2
BRANCH   1  24
ATOM     24  C   UNL A   1      32.519  28.288  27.003  1.00  0.00     0.042 C 
BRANCH  24  25
ATOM     25  C   UNL A   1      33.828  29.051  26.828  1.00  0.00     0.118 C 
BRANCH  25  26
ATOM     26  N   UNL A   1      33.702  30.461  27.167  1.00  0.00    -0.352 N 
ATOM     27  C   UNL A   1      34.460  31.239  28.002  1.00  0.00     0.251 C 
ATOM     28  H   UNL A   1      32.954  30.928  26.730  1.00  0.00     0.163 HD
ATOM     29  O   UNL A   1      34.045  32.362  28.306  1.00  0.00    -0.269 OA
BRANCH  27  30
ATOM     30  C   UNL A   1      35.741  30.748  28.554  1.00  0.00     0.039 A 
ATOM     31  C   UNL A   1      35.710  29.802  29.582  1.00  0.00     0.014 A 
ATOM     32  C   UNL A   1      36.970  31.233  28.094  1.00  0.00     0.014 A 
ATOM     33  C   UNL A   1      36.905  29.298  30.102  1.00  0.00     0.010 A 
ATOM     34  C   UNL A   1      38.159  30.676  28.562  1.00  0.00     0.010 A 
ATOM     35  C   UNL A   1      38.141  29.701  29.570  1.00  0.00    -0.014 A 
BRANCH  35  36
ATOM     36  C   UNL A   1      39.412  29.099  30.053  1.00  0.00     0.031 A 
ATOM     37  C   UNL A   1      40.119  29.668  31.253  1.00  0.00     0.074 A 
ATOM     38  C   UNL A   1      39.952  28.064  29.378  1.00  0.00     0.049 A 
ATOM     39  N   UNL A   1      41.258  29.308  31.790  1.00  0.00    -0.248 NA
ATOM     40  C   UNL A   1      39.473  30.806  31.925  1.00  0.00     0.031 C 
ATOM     41  C   UNL A   1      39.382  27.452  28.174  1.00  0.00     0.029 A 
ATOM     42  N   UNL A   1      41.100  27.345  29.598  1.00  0.00    -0.354 N 
ATOM     43  C   UNL A   1      41.465  30.174  32.859  1.00  0.00     0.074 A 
ATOM     44  C   UNL A   1      40.365  31.115  32.855  1.00  0.00     0.031 C 
ATOM     45  C   UNL A   1      40.168  26.439  27.780  1.00  0.00     0.029 A 
ATOM     46  C   UNL A   1      41.322  26.354  28.669  1.00  0.00     0.049 A 
ATOM     47  H   UNL A   1      41.709  27.521  30.352  1.00  0.00     0.167 HD
ATOM     48  C   UNL A   1      42.468  30.170  33.772  1.00  0.00     0.034 A 
ATOM     49  C   UNL A   1      42.344  25.485  28.539  1.00  0.00     0.034 A 
ATOM     50  C   UNL A   1      43.558  29.223  33.767  1.00  0.00     0.049 A 
ATOM     51  C   UNL A   1      43.459  25.519  29.553  1.00  0.00     0.074 A 
ATOM     52  C   UNL A   1      44.602  29.104  34.668  1.00  0.00     0.029 A 
ATOM     53  N   UNL A   1      43.749  28.234  32.811  1.00  0.00    -0.354 N 
ATOM     54  N   UNL A   1      43.612  26.314  30.587  1.00  0.00    -0.248 NA
ATOM     55  C   UNL A   1      44.531  24.528  29.391  1.00  0.00     0.031 C 
ATOM     56  C   UNL A   1      45.457  28.090  34.222  1.00  0.00     0.029 A 
ATOM     57  C   UNL A   1      44.908  27.522  33.085  1.00  0.00     0.049 A 
ATOM     58  H   UNL A   1      43.150  28.063  32.048  1.00  0.00     0.167 HD
ATOM     59  C   UNL A   1      44.785  25.898  31.212  1.00  0.00     0.074 A 
ATOM     60  C   UNL A   1      45.280  24.768  30.455  1.00  0.00     0.031 C 
ATOM     61  C   UNL A   1      45.399  26.405  32.312  1.00  0.00     0.034 A 
BRANCH  48  62
ATOM     62  C   UNL A   1      42.441  31.235  34.843  1.00  0.00     0.023 A 
ATOM     63  C   UNL A   1      42.939  32.529  34.608  1.00  0.00     0.031 A 
ATOM     64  C   UNL A   1      41.912  30.956  36.115  1.00  0.00     0.131 A 
ATOM     65  C   UNL A   1      42.957  33.473  35.645  1.00  0.00     0.055 A 
ATOM     66  C   UNL A   1      41.862  31.923  37.121  1.00  0.00     0.041 A 
ATOM     67  F   UNL A   1      41.439  29.734  36.406  1.00  0.00    -0.206 F 
ATOM     68  C   UNL A   1      42.398  33.188  36.894  1.00  0.00     0.022 A 
BRANCH  65  69
ATOM     69  S   UNL A   1      43.831  35.040  35.379  1.00  0.00     0.124 S 
ATOM     70  O   UNL A   1      44.780  35.040  36.489  1.00  0.00    -0.237 OA
ATOM     71  O   UNL A   1      44.403  34.860  34.049  1.00  0.00    -0.237 OA
ATOM     72  O   UNL A   1      42.773  36.044  35.472  1.00  0.00    -0.744 OA
ENDBRANCH  65  69
ENDBRANCH  48  62
BRANCH  49  73
ATOM     73  C   UNL A   1      42.380  24.520  27.401  1.00  0.00     0.023 A 
ATOM     74  C   UNL A   1      41.593  23.358  27.410  1.00  0.00     0.031 A 
ATOM     75  C   UNL A   1      43.251  24.716  26.314  1.00  0.00     0.131 A 
ATOM     76  C   UNL A   1      41.734  22.408  26.387  1.00  0.00     0.055 A 
ATOM     77  C   UNL A   1      43.344  23.798  25.268  1.00  0.00     0.041 A 
ATOM     78  F   UNL A   1      44.025  25.812  26.252  1.00  0.00    -0.206 F 
ATOM     79  C   UNL A   1      42.595  22.626  25.308  1.00  0.00     0.022 A 
BRANCH  76  80
ATOM     80  S   UNL A   1      40.853  20.830  26.540  1.00  0.00     0.124 S 
ATOM     81  O   UNL A   1      39.528  21.180  26.042  1.00  0.00    -0.237 OA
ATOM     82  O   UNL A   1      41.651  19.955  25.687  1.00  0.00    -0.237 OA
ATOM     83  O   UNL A   1      40.926  20.538  27.971  1.00  0.00    -0.744 OA
ENDBRANCH  76  80
ENDBRANCH  49  73
BRANCH  61  84
ATOM     84  C   UNL A   1      46.655  25.706  32.774  1.00  0.00     0.023 A 
ATOM     85  C   UNL A   1      46.617  24.664  33.718  1.00  0.00     0.031 A 
ATOM     86  C   UNL A   1      47.911  26.112  32.289  1.00  0.00     0.131 A 
ATOM     87  C   UNL A   1      47.812  24.109  34.196  1.00  0.00     0.055 A 
ATOM     88  C   UNL A   1      49.095  25.510  32.719  1.00  0.00     0.041 A 
ATOM     89  F   UNL A   1      48.009  27.103  31.389  1.00  0.00    -0.206 F 
ATOM     90  C   UNL A   1      49.051  24.513  33.690  1.00  0.00     0.022 A 
BRANCH  87  91
ATOM     91  S   UNL A   1      47.735  22.927  35.569  1.00  0.00     0.124 S 
ATOM     92  O   UNL A   1      46.801  21.928  35.056  1.00  0.00    -0.237 OA
ATOM     93  O   UNL A   1      49.124  22.497  35.688  1.00  0.00    -0.237 OA
ATOM     94  O   UNL A   1      47.236  23.727  36.685  1.00  0.00    -0.744 OA
ENDBRANCH  87  91
ENDBRANCH  61  84
ENDBRANCH  35  36
ENDBRANCH  27  30
ENDBRANCH  25  26
ENDBRANCH  24  25
ENDBRANCH   1  24
TORSDOF 17
ENDMDL
