MODEL 1
REMARK VINA RESULT:     -12.6      0.000      0.000
REMARK SMILES CC1(C)OC(=O)C(=CNc2ccccc2C(=O)NCCCNC(=O)c2ccc(-c3c4nc(c(-c5cc(S(=O)(=O)[O-])ccc5F)c5ccc([nH]5)c(-c5cc(S(=O)(=O)[O-])ccc5F)c5nc(c(-c6cc(S(=O)(=O)[O-])ccc6F)c6ccc3[nH]6)C=C5)C=C4)cc2)C(=O)O1
REMARK SMILES IDX 20 1 19 2 18 3 16 4 17 5 15 7 10 8 11 9 12 10 14 11 13 12
REMARK SMILES IDX 9 13 8 15 1 16 2 17 3 18 4 19 90 20 5 21 88 22 6 23 7 24
REMARK SMILES IDX 89 25 21 26 22 27 23 28 24 30 25 31 26 32 87 33 27 34 86 35
REMARK SMILES IDX 28 36 29 37 30 38 80 39 31 40 85 41 79 42 81 43 32 44 84 45
REMARK SMILES IDX 78 46 77 47 33 49 65 50 45 51 64 52 46 53 49 54 63 55 82 56
REMARK SMILES IDX 47 57 48 58 62 60 83 61 50 62 34 63 35 64 43 65 36 66 42 67
REMARK SMILES IDX 44 68 41 69 37 70 38 71 39 72 40 73 66 74 67 75 75 76 68 77
REMARK SMILES IDX 74 78 76 79 73 80 69 81 70 82 71 83 72 84 51 85 52 86 60 87
REMARK SMILES IDX 53 88 59 89 61 90 58 91 54 92 55 93 56 94 57 95
REMARK H PARENT 18 6 9 14 22 29 81 48 49 59
REMARK Flexibility Score: inf
ROOT
ATOM      1  C   UNL A   1      32.849  27.684  25.680  1.00  0.00     0.042 C 
ENDROOT
BRANCH   1   2
ATOM      2  C   UNL A   1      33.702  26.534  25.146  1.00  0.00     0.118 C 
BRANCH   2   3
ATOM      3  N   UNL A   1      33.578  26.215  23.742  1.00  0.00    -0.352 N 
ATOM      4  C   UNL A   1      32.576  26.462  22.829  1.00  0.00     0.253 C 
ATOM      5  O   UNL A   1      32.916  26.381  21.641  1.00  0.00    -0.269 OA
ATOM      6  H   UNL A   1      34.351  25.733  23.370  1.00  0.00     0.163 HD
BRANCH   4   7
ATOM      7  C   UNL A   1      31.110  26.652  23.107  1.00  0.00     0.063 A 
ATOM      8  C   UNL A   1      30.146  25.809  23.696  1.00  0.00     0.051 A 
ATOM      9  C   UNL A   1      28.828  26.326  23.873  1.00  0.00     0.027 A 
ATOM     10  C   UNL A   1      28.450  27.611  23.496  1.00  0.00     0.002 A 
ATOM     11  C   UNL A   1      30.692  27.962  22.729  1.00  0.00     0.016 A 
ATOM     12  C   UNL A   1      29.391  28.437  22.917  1.00  0.00     0.001 A 
BRANCH   8  13
ATOM     13  N   UNL A   1      30.281  24.519  24.238  1.00  0.00    -0.360 N 
ATOM     14  H   UNL A   1      29.794  23.825  23.737  1.00  0.00     0.166 HD
BRANCH  13  15
ATOM     15  C   UNL A   1      30.954  24.038  25.324  1.00  0.00     0.106 C 
ATOM     16  C   UNL A   1      35.262  23.296  24.173  1.00  0.00     0.106 C 
ATOM     17  C   UNL A   1      34.478  22.254  24.976  1.00  0.00     0.252 C 
ATOM     18  C   UNL A   1      35.373  21.082  25.372  1.00  0.00     0.106 C 
ATOM     19  O   UNL A   1      34.033  22.800  26.225  1.00  0.00    -0.419 OA
ATOM     20  O   UNL A   1      33.449  21.728  24.132  1.00  0.00    -0.419 OA
ATOM     21  C   UNL A   1      32.722  22.920  26.491  1.00  0.00     0.350 C 
ATOM     22  C   UNL A   1      32.311  22.440  24.044  1.00  0.00     0.350 C 
ATOM     23  O   UNL A   1      32.279  23.051  27.625  1.00  0.00    -0.246 OA
ATOM     24  C   UNL A   1      31.919  23.097  25.291  1.00  0.00     0.161 C 
ATOM     25  O   UNL A   1      31.633  22.478  23.022  1.00  0.00    -0.246 OA
ENDBRANCH  13  15
ENDBRANCH   8  13
ENDBRANCH   4   7
ENDBRANCH   2   3
ENDBRANCH   1   2
BRANCH   1  26
ATOM     26  C   UNL A   1      33.207  29.091  25.187  1.00  0.00     0.118 C 
BRANCH  26  27
ATOM     27  N   UNL A   1      32.650  30.214  25.938  1.00  0.00    -0.352 N 
ATOM     28  C   UNL A   1      33.118  31.118  26.866  1.00  0.00     0.251 C 
ATOM     29  H   UNL A   1      31.699  30.361  25.728  1.00  0.00     0.163 HD
ATOM     30  O   UNL A   1      32.371  32.059  27.145  1.00  0.00    -0.269 OA
BRANCH  28  31
ATOM     31  C   UNL A   1      34.392  30.987  27.633  1.00  0.00     0.039 A 
ATOM     32  C   UNL A   1      34.676  29.724  28.194  1.00  0.00     0.014 A 
ATOM     33  C   UNL A   1      35.330  32.000  27.801  1.00  0.00     0.014 A 
ATOM     34  C   UNL A   1      35.907  29.447  28.809  1.00  0.00     0.010 A 
ATOM     35  C   UNL A   1      36.565  31.728  28.404  1.00  0.00     0.010 A 
ATOM     36  C   UNL A   1      36.871  30.450  28.902  1.00  0.00    -0.014 A 
BRANCH  36  37
ATOM     37  C   UNL A   1      38.134  30.269  29.667  1.00  0.00     0.031 A 
ATOM     38  C   UNL A   1      39.152  29.309  29.118  1.00  0.00     0.074 A 
ATOM     39  C   UNL A   1      38.335  30.855  30.864  1.00  0.00     0.049 A 
ATOM     40  N   UNL A   1      40.200  28.784  29.692  1.00  0.00    -0.248 NA
ATOM     41  C   UNL A   1      38.923  28.854  27.738  1.00  0.00     0.031 C 
ATOM     42  C   UNL A   1      37.440  31.823  31.495  1.00  0.00     0.029 A 
ATOM     43  N   UNL A   1      39.347  30.691  31.781  1.00  0.00    -0.354 N 
ATOM     44  C   UNL A   1      40.733  27.899  28.760  1.00  0.00     0.074 A 
ATOM     45  C   UNL A   1      39.873  27.945  27.596  1.00  0.00     0.031 C 
ATOM     46  C   UNL A   1      37.927  32.146  32.707  1.00  0.00     0.029 A 
ATOM     47  C   UNL A   1      39.145  31.376  32.960  1.00  0.00     0.049 A 
ATOM     48  H   UNL A   1      40.142  30.136  31.610  1.00  0.00     0.167 HD
ATOM     49  C   UNL A   1      41.839  27.122  28.865  1.00  0.00     0.034 A 
ATOM     50  C   UNL A   1      39.841  31.351  34.116  1.00  0.00     0.034 A 
ATOM     51  C   UNL A   1      42.697  27.104  30.021  1.00  0.00     0.049 A 
ATOM     52  C   UNL A   1      41.060  30.457  34.220  1.00  0.00     0.074 A 
ATOM     53  C   UNL A   1      43.862  26.384  30.220  1.00  0.00     0.029 A 
ATOM     54  N   UNL A   1      42.479  27.837  31.180  1.00  0.00    -0.354 N 
ATOM     55  N   UNL A   1      41.565  29.638  33.325  1.00  0.00    -0.248 NA
ATOM     56  C   UNL A   1      41.802  30.485  35.489  1.00  0.00     0.031 C 
ATOM     57  C   UNL A   1      44.316  26.637  31.519  1.00  0.00     0.029 A 
ATOM     58  C   UNL A   1      43.474  27.569  32.106  1.00  0.00     0.049 A 
ATOM     59  H   UNL A   1      41.728  28.458  31.323  1.00  0.00     0.167 HD
ATOM     60  C   UNL A   1      42.701  29.083  33.914  1.00  0.00     0.074 A 
ATOM     61  C   UNL A   1      42.815  29.669  35.232  1.00  0.00     0.031 C 
ATOM     62  C   UNL A   1      43.574  28.172  33.413  1.00  0.00     0.034 A 
BRANCH  49  63
ATOM     63  C   UNL A   1      42.137  26.195  27.713  1.00  0.00     0.023 A 
ATOM     64  C   UNL A   1      41.528  24.934  27.604  1.00  0.00     0.031 A 
ATOM     65  C   UNL A   1      43.095  26.552  26.748  1.00  0.00     0.131 A 
ATOM     66  C   UNL A   1      41.948  24.041  26.608  1.00  0.00     0.055 A 
ATOM     67  C   UNL A   1      43.444  25.691  25.706  1.00  0.00     0.041 A 
ATOM     68  F   UNL A   1      43.727  27.735  26.817  1.00  0.00    -0.206 F 
ATOM     69  C   UNL A   1      42.883  24.420  25.642  1.00  0.00     0.022 A 
BRANCH  66  70
ATOM     70  S   UNL A   1      41.373  22.323  26.692  1.00  0.00     0.124 S 
ATOM     71  O   UNL A   1      39.935  22.487  26.499  1.00  0.00    -0.237 OA
ATOM     72  O   UNL A   1      42.097  21.693  25.595  1.00  0.00    -0.237 OA
ATOM     73  O   UNL A   1      41.771  21.894  28.031  1.00  0.00    -0.744 OA
ENDBRANCH  66  70
ENDBRANCH  49  63
BRANCH  50  74
ATOM     74  C   UNL A   1      39.398  32.145  35.303  1.00  0.00     0.023 A 
ATOM     75  C   UNL A   1      38.745  31.528  36.384  1.00  0.00     0.031 A 
ATOM     76  C   UNL A   1      39.533  33.545  35.331  1.00  0.00     0.131 A 
ATOM     77  C   UNL A   1      38.194  32.313  37.412  1.00  0.00     0.055 A 
ATOM     78  C   UNL A   1      39.032  34.315  36.384  1.00  0.00     0.041 A 
ATOM     79  F   UNL A   1      40.146  34.188  34.325  1.00  0.00    -0.206 F 
ATOM     80  C   UNL A   1      38.343  33.701  37.424  1.00  0.00     0.022 A 
BRANCH  77  81
ATOM     81  S   UNL A   1      37.176  31.499  38.676  1.00  0.00     0.124 S 
ATOM     82  O   UNL A   1      35.979  32.331  38.674  1.00  0.00    -0.237 OA
ATOM     83  O   UNL A   1      37.027  30.157  38.122  1.00  0.00    -0.237 OA
ATOM     84  O   UNL A   1      37.997  31.586  39.881  1.00  0.00    -0.744 OA
ENDBRANCH  77  81
ENDBRANCH  50  74
BRANCH  62  85
ATOM     85  C   UNL A   1      44.760  27.803  34.271  1.00  0.00     0.023 A 
ATOM     86  C   UNL A   1      44.716  26.730  35.179  1.00  0.00     0.031 A 
ATOM     87  C   UNL A   1      45.958  28.531  34.163  1.00  0.00     0.131 A 
ATOM     88  C   UNL A   1      45.836  26.443  35.973  1.00  0.00     0.055 A 
ATOM     89  C   UNL A   1      47.087  28.206  34.917  1.00  0.00     0.041 A 
ATOM     90  F   UNL A   1      46.055  29.566  33.312  1.00  0.00    -0.206 F 
ATOM     91  C   UNL A   1      47.026  27.163  35.836  1.00  0.00     0.022 A 
BRANCH  88  92
ATOM     92  S   UNL A   1      45.697  25.157  37.245  1.00  0.00     0.124 S 
ATOM     93  O   UNL A   1      46.161  25.857  38.438  1.00  0.00    -0.237 OA
ATOM     94  O   UNL A   1      44.276  24.834  37.208  1.00  0.00    -0.237 OA
ATOM     95  O   UNL A   1      46.585  24.100  36.762  1.00  0.00    -0.744 OA
ENDBRANCH  88  92
ENDBRANCH  62  85
ENDBRANCH  36  37
ENDBRANCH  28  31
ENDBRANCH  26  27
ENDBRANCH   1  26
TORSDOF 15
ENDMDL
MODEL 2
REMARK VINA RESULT:     -12.6      1.405      1.700
REMARK SMILES CC1(C)OC(=O)C(=CNc2ccccc2C(=O)NCCCNC(=O)c2ccc(-c3c4nc(c(-c5cc(S(=O)(=O)[O-])ccc5F)c5ccc([nH]5)c(-c5cc(S(=O)(=O)[O-])ccc5F)c5nc(c(-c6cc(S(=O)(=O)[O-])ccc6F)c6ccc3[nH]6)C=C5)C=C4)cc2)C(=O)O1
REMARK SMILES IDX 20 1 19 2 18 3 16 4 17 5 15 7 10 8 11 9 12 10 14 11 13 12
REMARK SMILES IDX 9 13 8 15 1 16 2 17 3 18 4 19 90 20 5 21 88 22 6 23 7 24
REMARK SMILES IDX 89 25 21 26 22 27 23 28 24 30 25 31 26 32 87 33 27 34 86 35
REMARK SMILES IDX 28 36 29 37 30 38 80 39 31 40 85 41 79 42 81 43 32 44 84 45
REMARK SMILES IDX 78 46 77 47 33 49 65 50 45 51 64 52 46 53 49 54 63 55 82 56
REMARK SMILES IDX 47 57 48 58 62 60 83 61 50 62 34 63 35 64 43 65 36 66 42 67
REMARK SMILES IDX 44 68 41 69 37 70 38 71 39 72 40 73 66 74 67 75 75 76 68 77
REMARK SMILES IDX 74 78 76 79 73 80 69 81 70 82 71 83 72 84 51 85 52 86 60 87
REMARK SMILES IDX 53 88 59 89 61 90 58 91 54 92 55 93 56 94 57 95
REMARK H PARENT 18 6 9 14 22 29 81 48 49 59
REMARK Flexibility Score: inf
ROOT
ATOM      1  C   UNL A   1      32.960  27.559  25.284  1.00  0.00     0.042 C 
ENDROOT
BRANCH   1   2
ATOM      2  C   UNL A   1      33.855  26.472  24.690  1.00  0.00     0.118 C 
BRANCH   2   3
ATOM      3  N   UNL A   1      33.605  26.084  23.320  1.00  0.00    -0.352 N 
ATOM      4  C   UNL A   1      32.543  26.327  22.475  1.00  0.00     0.253 C 
ATOM      5  O   UNL A   1      32.783  26.168  21.271  1.00  0.00    -0.269 OA
ATOM      6  H   UNL A   1      34.325  25.548  22.917  1.00  0.00     0.163 HD
BRANCH   4   7
ATOM      7  C   UNL A   1      31.114  26.600  22.857  1.00  0.00     0.063 A 
ATOM      8  C   UNL A   1      30.160  25.828  23.550  1.00  0.00     0.051 A 
ATOM      9  C   UNL A   1      28.886  26.416  23.806  1.00  0.00     0.027 A 
ATOM     10  C   UNL A   1      28.540  27.704  23.407  1.00  0.00     0.002 A 
ATOM     11  C   UNL A   1      30.729  27.914  22.458  1.00  0.00     0.016 A 
ATOM     12  C   UNL A   1      29.470  28.460  22.725  1.00  0.00     0.001 A 
BRANCH   8  13
ATOM     13  N   UNL A   1      30.277  24.554  24.133  1.00  0.00    -0.360 N 
ATOM     14  H   UNL A   1      29.780  23.852  23.654  1.00  0.00     0.166 HD
BRANCH  13  15
ATOM     15  C   UNL A   1      30.945  24.098  25.233  1.00  0.00     0.106 C 
ATOM     16  C   UNL A   1      35.222  23.190  24.085  1.00  0.00     0.106 C 
ATOM     17  C   UNL A   1      34.415  22.203  24.933  1.00  0.00     0.252 C 
ATOM     18  C   UNL A   1      35.280  21.023  25.370  1.00  0.00     0.106 C 
ATOM     19  O   UNL A   1      33.995  22.811  26.162  1.00  0.00    -0.419 OA
ATOM     20  O   UNL A   1      33.366  21.673  24.117  1.00  0.00    -0.419 OA
ATOM     21  C   UNL A   1      32.690  22.977  26.432  1.00  0.00     0.350 C 
ATOM     22  C   UNL A   1      32.248  22.413  24.008  1.00  0.00     0.350 C 
ATOM     23  O   UNL A   1      32.259  23.165  27.562  1.00  0.00    -0.246 OA
ATOM     24  C   UNL A   1      31.883  23.129  25.231  1.00  0.00     0.161 C 
ATOM     25  O   UNL A   1      31.564  22.430  22.990  1.00  0.00    -0.246 OA
ENDBRANCH  13  15
ENDBRANCH   8  13
ENDBRANCH   4   7
ENDBRANCH   2   3
ENDBRANCH   1   2
BRANCH   1  26
ATOM     26  C   UNL A   1      33.312  29.008  24.928  1.00  0.00     0.118 C 
BRANCH  26  27
ATOM     27  N   UNL A   1      32.659  30.056  25.710  1.00  0.00    -0.352 N 
ATOM     28  C   UNL A   1      33.040  30.951  26.685  1.00  0.00     0.251 C 
ATOM     29  H   UNL A   1      31.705  30.143  25.483  1.00  0.00     0.163 HD
ATOM     30  O   UNL A   1      32.221  31.823  26.984  1.00  0.00    -0.269 OA
BRANCH  28  31
ATOM     31  C   UNL A   1      34.304  30.879  27.477  1.00  0.00     0.039 A 
ATOM     32  C   UNL A   1      34.752  29.595  27.854  1.00  0.00     0.014 A 
ATOM     33  C   UNL A   1      35.084  31.973  27.835  1.00  0.00     0.014 A 
ATOM     34  C   UNL A   1      35.996  29.399  28.473  1.00  0.00     0.010 A 
ATOM     35  C   UNL A   1      36.332  31.784  28.442  1.00  0.00     0.010 A 
ATOM     36  C   UNL A   1      36.806  30.498  28.756  1.00  0.00    -0.014 A 
BRANCH  36  37
ATOM     37  C   UNL A   1      38.066  30.376  29.538  1.00  0.00     0.031 A 
ATOM     38  C   UNL A   1      39.120  29.435  29.024  1.00  0.00     0.074 A 
ATOM     39  C   UNL A   1      38.234  30.997  30.722  1.00  0.00     0.049 A 
ATOM     40  N   UNL A   1      40.177  28.957  29.621  1.00  0.00    -0.248 NA
ATOM     41  C   UNL A   1      38.920  28.939  27.653  1.00  0.00     0.031 C 
ATOM     42  C   UNL A   1      37.303  31.951  31.320  1.00  0.00     0.029 A 
ATOM     43  N   UNL A   1      39.241  30.887  31.653  1.00  0.00    -0.354 N 
ATOM     44  C   UNL A   1      40.747  28.067  28.717  1.00  0.00     0.074 A 
ATOM     45  C   UNL A   1      39.899  28.057  27.544  1.00  0.00     0.031 C 
ATOM     46  C   UNL A   1      37.767  32.319  32.528  1.00  0.00     0.029 A 
ATOM     47  C   UNL A   1      39.005  31.595  32.812  1.00  0.00     0.049 A 
ATOM     48  H   UNL A   1      40.055  30.354  31.505  1.00  0.00     0.167 HD
ATOM     49  C   UNL A   1      41.876  27.329  28.853  1.00  0.00     0.034 A 
ATOM     50  C   UNL A   1      39.689  31.621  33.976  1.00  0.00     0.034 A 
ATOM     51  C   UNL A   1      42.721  27.366  30.019  1.00  0.00     0.049 A 
ATOM     52  C   UNL A   1      40.933  30.768  34.115  1.00  0.00     0.074 A 
ATOM     53  C   UNL A   1      43.905  26.689  30.248  1.00  0.00     0.029 A 
ATOM     54  N   UNL A   1      42.467  28.121  31.157  1.00  0.00    -0.354 N 
ATOM     55  N   UNL A   1      41.474  29.944  33.246  1.00  0.00    -0.248 NA
ATOM     56  C   UNL A   1      41.660  30.851  35.391  1.00  0.00     0.031 C 
ATOM     57  C   UNL A   1      44.337  26.988  31.544  1.00  0.00     0.029 A 
ATOM     58  C   UNL A   1      43.460  27.907  32.099  1.00  0.00     0.049 A 
ATOM     59  H   UNL A   1      41.696  28.721  31.276  1.00  0.00     0.167 HD
ATOM     60  C   UNL A   1      42.620  29.440  33.860  1.00  0.00     0.074 A 
ATOM     61  C   UNL A   1      42.701  30.062  35.165  1.00  0.00     0.031 C 
ATOM     62  C   UNL A   1      43.527  28.545  33.391  1.00  0.00     0.034 A 
BRANCH  49  63
ATOM     63  C   UNL A   1      42.216  26.384  27.728  1.00  0.00     0.023 A 
ATOM     64  C   UNL A   1      41.721  25.069  27.694  1.00  0.00     0.031 A 
ATOM     65  C   UNL A   1      43.101  26.783  26.712  1.00  0.00     0.131 A 
ATOM     66  C   UNL A   1      42.185  24.175  26.719  1.00  0.00     0.055 A 
ATOM     67  C   UNL A   1      43.490  25.913  25.692  1.00  0.00     0.041 A 
ATOM     68  F   UNL A   1      43.624  28.020  26.708  1.00  0.00    -0.206 F 
ATOM     69  C   UNL A   1      43.045  24.595  25.701  1.00  0.00     0.022 A 
BRANCH  66  70
ATOM     70  S   UNL A   1      41.773  22.418  26.894  1.00  0.00     0.124 S 
ATOM     71  O   UNL A   1      42.753  21.987  27.888  1.00  0.00    -0.237 OA
ATOM     72  O   UNL A   1      40.386  22.461  27.341  1.00  0.00    -0.237 OA
ATOM     73  O   UNL A   1      41.980  21.882  25.550  1.00  0.00    -0.744 OA
ENDBRANCH  66  70
ENDBRANCH  49  63
BRANCH  50  74
ATOM     74  C   UNL A   1      39.208  32.429  35.139  1.00  0.00     0.023 A 
ATOM     75  C   UNL A   1      39.658  33.744  35.343  1.00  0.00     0.031 A 
ATOM     76  C   UNL A   1      38.367  31.864  36.116  1.00  0.00     0.131 A 
ATOM     77  C   UNL A   1      39.321  34.426  36.525  1.00  0.00     0.055 A 
ATOM     78  C   UNL A   1      37.989  32.568  37.262  1.00  0.00     0.041 A 
ATOM     79  F   UNL A   1      37.908  30.611  35.975  1.00  0.00    -0.206 F 
ATOM     80  C   UNL A   1      38.481  33.851  37.481  1.00  0.00     0.022 A 
BRANCH  77  81
ATOM     81  S   UNL A   1      40.094  36.037  36.849  1.00  0.00     0.124 S 
ATOM     82  O   UNL A   1      39.398  36.461  38.058  1.00  0.00    -0.237 OA
ATOM     83  O   UNL A   1      41.496  35.669  37.010  1.00  0.00    -0.237 OA
ATOM     84  O   UNL A   1      39.787  36.809  35.647  1.00  0.00    -0.744 OA
ENDBRANCH  77  81
ENDBRANCH  50  74
BRANCH  62  85
ATOM     85  C   UNL A   1      44.714  28.235  34.271  1.00  0.00     0.023 A 
ATOM     86  C   UNL A   1      44.698  27.177  35.196  1.00  0.00     0.031 A 
ATOM     87  C   UNL A   1      45.886  29.005  34.165  1.00  0.00     0.131 A 
ATOM     88  C   UNL A   1      45.817  26.945  36.010  1.00  0.00     0.055 A 
ATOM     89  C   UNL A   1      47.016  28.735  34.938  1.00  0.00     0.041 A 
ATOM     90  F   UNL A   1      45.956  30.028  33.296  1.00  0.00    -0.206 F 
ATOM     91  C   UNL A   1      46.982  27.706  35.874  1.00  0.00     0.022 A 
BRANCH  88  92
ATOM     92  S   UNL A   1      45.709  25.677  37.302  1.00  0.00     0.124 S 
ATOM     93  O   UNL A   1      45.412  24.477  36.527  1.00  0.00    -0.237 OA
ATOM     94  O   UNL A   1      47.035  25.733  37.907  1.00  0.00    -0.237 OA
ATOM     95  O   UNL A   1      44.620  26.149  38.156  1.00  0.00    -0.744 OA
ENDBRANCH  88  92
ENDBRANCH  62  85
ENDBRANCH  36  37
ENDBRANCH  28  31
ENDBRANCH  26  27
ENDBRANCH   1  26
TORSDOF 15
ENDMDL
MODEL 3
REMARK VINA RESULT:     -12.5      5.157      7.992
REMARK SMILES CC1(C)OC(=O)C(=CNc2ccccc2C(=O)NCCCNC(=O)c2ccc(-c3c4nc(c(-c5cc(S(=O)(=O)[O-])ccc5F)c5ccc([nH]5)c(-c5cc(S(=O)(=O)[O-])ccc5F)c5nc(c(-c6cc(S(=O)(=O)[O-])ccc6F)c6ccc3[nH]6)C=C5)C=C4)cc2)C(=O)O1
REMARK SMILES IDX 20 1 19 2 18 3 16 4 17 5 15 7 10 8 11 9 12 10 14 11 13 12
REMARK SMILES IDX 9 13 8 15 1 16 2 17 3 18 4 19 90 20 5 21 88 22 6 23 7 24
REMARK SMILES IDX 89 25 21 26 22 27 23 28 24 30 25 31 26 32 87 33 27 34 86 35
REMARK SMILES IDX 28 36 29 37 30 38 80 39 31 40 85 41 79 42 81 43 32 44 84 45
REMARK SMILES IDX 78 46 77 47 33 49 65 50 45 51 64 52 46 53 49 54 63 55 82 56
REMARK SMILES IDX 47 57 48 58 62 60 83 61 50 62 34 63 35 64 43 65 36 66 42 67
REMARK SMILES IDX 44 68 41 69 37 70 38 71 39 72 40 73 66 74 67 75 75 76 68 77
REMARK SMILES IDX 74 78 76 79 73 80 69 81 70 82 71 83 72 84 51 85 52 86 60 87
REMARK SMILES IDX 53 88 59 89 61 90 58 91 54 92 55 93 56 94 57 95
REMARK H PARENT 18 6 9 14 22 29 81 48 49 59
REMARK Flexibility Score: inf
ROOT
ATOM      1  C   UNL A   1      37.712  19.810  25.186  1.00  0.00     0.042 C 
ENDROOT
BRANCH   1   2
ATOM      2  C   UNL A   1      36.893  21.077  24.944  1.00  0.00     0.118 C 
BRANCH   2   3
ATOM      3  N   UNL A   1      35.843  21.377  25.890  1.00  0.00    -0.352 N 
ATOM      4  C   UNL A   1      34.543  20.930  25.992  1.00  0.00     0.253 C 
ATOM      5  O   UNL A   1      34.017  21.094  27.101  1.00  0.00    -0.269 OA
ATOM      6  H   UNL A   1      36.103  22.018  26.590  1.00  0.00     0.163 HD
BRANCH   4   7
ATOM      7  C   UNL A   1      33.659  20.426  24.885  1.00  0.00     0.063 A 
ATOM      8  C   UNL A   1      32.767  21.087  24.017  1.00  0.00     0.051 A 
ATOM      9  C   UNL A   1      32.113  20.309  23.015  1.00  0.00     0.027 A 
ATOM     10  C   UNL A   1      32.311  18.942  22.854  1.00  0.00     0.002 A 
ATOM     11  C   UNL A   1      33.838  19.024  24.697  1.00  0.00     0.016 A 
ATOM     12  C   UNL A   1      33.182  18.292  23.704  1.00  0.00     0.001 A 
BRANCH   8  13
ATOM     13  N   UNL A   1      32.456  22.454  23.907  1.00  0.00    -0.360 N 
ATOM     14  H   UNL A   1      32.651  22.834  23.020  1.00  0.00     0.166 HD
BRANCH  13  15
ATOM     15  C   UNL A   1      31.936  23.358  24.788  1.00  0.00     0.106 C 
ATOM     16  C   UNL A   1      33.426  27.486  23.705  1.00  0.00     0.106 C 
ATOM     17  C   UNL A   1      33.436  27.010  25.160  1.00  0.00     0.252 C 
ATOM     18  C   UNL A   1      33.894  28.124  26.098  1.00  0.00     0.106 C 
ATOM     19  O   UNL A   1      32.110  26.694  25.604  1.00  0.00    -0.419 OA
ATOM     20  O   UNL A   1      34.392  25.951  25.272  1.00  0.00    -0.419 OA
ATOM     21  C   UNL A   1      31.788  25.440  25.963  1.00  0.00     0.350 C 
ATOM     22  C   UNL A   1      33.978  24.718  24.925  1.00  0.00     0.350 C 
ATOM     23  O   UNL A   1      30.813  25.171  26.652  1.00  0.00    -0.246 OA
ATOM     24  C   UNL A   1      32.584  24.437  25.272  1.00  0.00     0.161 C 
ATOM     25  O   UNL A   1      34.726  23.887  24.422  1.00  0.00    -0.246 OA
ENDBRANCH  13  15
ENDBRANCH   8  13
ENDBRANCH   4   7
ENDBRANCH   2   3
ENDBRANCH   1   2
BRANCH   1  26
ATOM     26  C   UNL A   1      39.230  19.929  25.007  1.00  0.00     0.118 C 
BRANCH  26  27
ATOM     27  N   UNL A   1      40.063  19.451  26.109  1.00  0.00    -0.352 N 
ATOM     28  C   UNL A   1      40.754  20.026  27.152  1.00  0.00     0.251 C 
ATOM     29  H   UNL A   1      40.153  18.471  26.105  1.00  0.00     0.163 HD
ATOM     30  O   UNL A   1      41.207  19.258  28.004  1.00  0.00    -0.269 OA
BRANCH  28  31
ATOM     31  C   UNL A   1      41.091  21.476  27.271  1.00  0.00     0.039 A 
ATOM     32  C   UNL A   1      40.389  22.368  26.432  1.00  0.00     0.014 A 
ATOM     33  C   UNL A   1      42.012  22.010  28.165  1.00  0.00     0.014 A 
ATOM     34  C   UNL A   1      40.520  23.760  26.559  1.00  0.00     0.010 A 
ATOM     35  C   UNL A   1      42.139  23.398  28.305  1.00  0.00     0.010 A 
ATOM     36  C   UNL A   1      41.388  24.286  27.515  1.00  0.00    -0.014 A 
BRANCH  36  37
ATOM     37  C   UNL A   1      41.684  25.741  27.603  1.00  0.00     0.031 A 
ATOM     38  C   UNL A   1      42.984  26.227  27.024  1.00  0.00     0.074 A 
ATOM     39  C   UNL A   1      40.878  26.595  28.265  1.00  0.00     0.049 A 
ATOM     40  N   UNL A   1      43.593  27.370  27.182  1.00  0.00    -0.248 NA
ATOM     41  C   UNL A   1      43.707  25.263  26.181  1.00  0.00     0.031 C 
ATOM     42  C   UNL A   1      39.582  26.258  28.850  1.00  0.00     0.029 A 
ATOM     43  N   UNL A   1      41.054  27.921  28.588  1.00  0.00    -0.354 N 
ATOM     44  C   UNL A   1      44.797  27.249  26.495  1.00  0.00     0.074 A 
ATOM     45  C   UNL A   1      44.836  25.911  25.945  1.00  0.00     0.031 C 
ATOM     46  C   UNL A   1      39.092  27.339  29.483  1.00  0.00     0.029 A 
ATOM     47  C   UNL A   1      40.057  28.434  29.389  1.00  0.00     0.049 A 
ATOM     48  H   UNL A   1      41.820  28.454  28.274  1.00  0.00     0.167 HD
ATOM     49  C   UNL A   1      45.778  28.171  26.337  1.00  0.00     0.034 A 
ATOM     50  C   UNL A   1      39.958  29.633  30.004  1.00  0.00     0.034 A 
ATOM     51  C   UNL A   1      45.715  29.506  26.874  1.00  0.00     0.049 A 
ATOM     52  C   UNL A   1      41.078  30.638  29.834  1.00  0.00     0.074 A 
ATOM     53  C   UNL A   1      46.634  30.533  26.743  1.00  0.00     0.029 A 
ATOM     54  N   UNL A   1      44.674  30.000  27.649  1.00  0.00    -0.354 N 
ATOM     55  N   UNL A   1      42.204  30.520  29.166  1.00  0.00    -0.248 NA
ATOM     56  C   UNL A   1      40.912  31.940  30.499  1.00  0.00     0.031 C 
ATOM     57  C   UNL A   1      46.177  31.626  27.487  1.00  0.00     0.029 A 
ATOM     58  C   UNL A   1      44.939  31.307  28.024  1.00  0.00     0.049 A 
ATOM     59  H   UNL A   1      43.865  29.495  27.895  1.00  0.00     0.167 HD
ATOM     60  C   UNL A   1      42.859  31.743  29.305  1.00  0.00     0.074 A 
ATOM     61  C   UNL A   1      42.000  32.588  30.106  1.00  0.00     0.031 C 
ATOM     62  C   UNL A   1      44.064  32.136  28.816  1.00  0.00     0.034 A 
BRANCH  49  63
ATOM     63  C   UNL A   1      47.018  27.733  25.599  1.00  0.00     0.023 A 
ATOM     64  C   UNL A   1      47.231  28.068  24.250  1.00  0.00     0.031 A 
ATOM     65  C   UNL A   1      47.967  26.914  26.234  1.00  0.00     0.131 A 
ATOM     66  C   UNL A   1      48.315  27.512  23.557  1.00  0.00     0.055 A 
ATOM     67  C   UNL A   1      49.093  26.436  25.561  1.00  0.00     0.041 A 
ATOM     68  F   UNL A   1      47.802  26.543  27.514  1.00  0.00    -0.206 F 
ATOM     69  C   UNL A   1      49.262  26.719  24.209  1.00  0.00     0.022 A 
BRANCH  66  70
ATOM     70  S   UNL A   1      48.379  27.709  21.756  1.00  0.00     0.124 S 
ATOM     71  O   UNL A   1      48.678  26.346  21.324  1.00  0.00    -0.237 OA
ATOM     72  O   UNL A   1      47.042  28.199  21.444  1.00  0.00    -0.237 OA
ATOM     73  O   UNL A   1      49.460  28.672  21.555  1.00  0.00    -0.744 OA
ENDBRANCH  66  70
ENDBRANCH  49  63
BRANCH  50  74
ATOM     74  C   UNL A   1      38.796  29.956  30.887  1.00  0.00     0.023 A 
ATOM     75  C   UNL A   1      37.727  30.741  30.421  1.00  0.00     0.031 A 
ATOM     76  C   UNL A   1      38.782  29.567  32.239  1.00  0.00     0.131 A 
ATOM     77  C   UNL A   1      36.728  31.167  31.312  1.00  0.00     0.055 A 
ATOM     78  C   UNL A   1      37.756  29.946  33.107  1.00  0.00     0.041 A 
ATOM     79  F   UNL A   1      39.777  28.819  32.740  1.00  0.00    -0.206 F 
ATOM     80  C   UNL A   1      36.730  30.766  32.650  1.00  0.00     0.022 A 
BRANCH  77  81
ATOM     81  S   UNL A   1      35.485  32.351  30.722  1.00  0.00     0.124 S 
ATOM     82  O   UNL A   1      36.222  33.608  30.782  1.00  0.00    -0.237 OA
ATOM     83  O   UNL A   1      35.194  31.840  29.387  1.00  0.00    -0.237 OA
ATOM     84  O   UNL A   1      34.399  32.216  31.690  1.00  0.00    -0.744 OA
ENDBRANCH  77  81
ENDBRANCH  50  74
BRANCH  62  85
ATOM     85  C   UNL A   1      44.490  33.559  29.083  1.00  0.00     0.023 A 
ATOM     86  C   UNL A   1      44.053  34.629  28.282  1.00  0.00     0.031 A 
ATOM     87  C   UNL A   1      45.334  33.847  30.170  1.00  0.00     0.131 A 
ATOM     88  C   UNL A   1      44.498  35.931  28.555  1.00  0.00     0.055 A 
ATOM     89  C   UNL A   1      45.729  35.151  30.470  1.00  0.00     0.041 A 
ATOM     90  F   UNL A   1      45.780  32.863  30.969  1.00  0.00    -0.206 F 
ATOM     91  C   UNL A   1      45.319  36.201  29.654  1.00  0.00     0.022 A 
BRANCH  88  92
ATOM     92  S   UNL A   1      44.047  37.265  27.412  1.00  0.00     0.124 S 
ATOM     93  O   UNL A   1      43.598  38.311  28.326  1.00  0.00    -0.237 OA
ATOM     94  O   UNL A   1      45.305  37.522  26.719  1.00  0.00    -0.237 OA
ATOM     95  O   UNL A   1      42.997  36.670  26.587  1.00  0.00    -0.744 OA
ENDBRANCH  88  92
ENDBRANCH  62  85
ENDBRANCH  36  37
ENDBRANCH  28  31
ENDBRANCH  26  27
ENDBRANCH   1  26
TORSDOF 15
ENDMDL
