MODEL 1
REMARK VINA RESULT:     -10.1      0.000      0.000
REMARK SMILES CCc1cccc(-c2ccc([C@@H](C)C(=O)NCCCNC(=O)c3ccc(-c4c5nc(c(-c6cc(S(=O)(=O)[O-])ccc6F)c6ccc([nH]6)c(-c6cc(S(=O)(=O)[O-])ccc6F)c6nc(c(-c7cc(S(=O)(=O)[O-])ccc7F)c7ccc4[nH]7)C=C6)C=C5)cc3)cc2)c1
REMARK SMILES IDX 18 1 17 2 16 3 14 4 15 5 12 7 13 8 11 9 8 10 9 11 87 12
REMARK SMILES IDX 10 13 86 14 7 15 3 16 4 17 88 18 5 19 6 20 2 21 1 22 19 23
REMARK SMILES IDX 20 24 21 25 22 27 23 28 24 29 85 30 25 31 84 32 26 33 27 34
REMARK SMILES IDX 28 35 78 36 29 37 83 38 77 39 79 40 30 41 82 42 76 43 75 44
REMARK SMILES IDX 31 46 63 47 43 48 62 49 44 50 47 51 61 52 80 53 45 54 46 55
REMARK SMILES IDX 60 57 81 58 48 59 32 60 33 61 41 62 34 63 40 64 42 65 39 66
REMARK SMILES IDX 35 67 36 68 37 69 38 70 64 71 65 72 73 73 66 74 72 75 74 76
REMARK SMILES IDX 71 77 67 78 68 79 69 80 70 81 49 82 50 83 58 84 51 85 57 86
REMARK SMILES IDX 59 87 56 88 52 89 53 90 54 91 55 92
REMARK H PARENT 16 6 20 26 79 45 47 56
REMARK Flexibility Score: inf
ROOT
ATOM      1  C   UNL A   1      34.334  34.886  28.647  1.00  0.00     0.042 C 
ENDROOT
BRANCH   1   2
ATOM      2  C   UNL A   1      33.603  34.550  29.943  1.00  0.00     0.117 C 
BRANCH   2   3
ATOM      3  N   UNL A   1      34.074  35.337  31.067  1.00  0.00    -0.356 N 
ATOM      4  C   UNL A   1      34.965  35.065  32.059  1.00  0.00     0.227 C 
ATOM      5  O   UNL A   1      35.121  35.951  32.911  1.00  0.00    -0.274 OA
ATOM      6  H   UNL A   1      33.674  36.234  31.123  1.00  0.00     0.163 HD
BRANCH   4   7
ATOM      7  C   UNL A   1      35.779  33.766  32.156  1.00  0.00     0.105 C 
ATOM      8  C   UNL A   1      35.680  33.061  33.508  1.00  0.00     0.023 C 
BRANCH   7   9
ATOM      9  C   UNL A   1      37.179  33.870  31.571  1.00  0.00    -0.036 A 
ATOM     10  C   UNL A   1      39.765  34.150  30.366  1.00  0.00    -0.018 A 
ATOM     11  C   UNL A   1      39.524  34.509  31.702  1.00  0.00     0.009 A 
ATOM     12  C   UNL A   1      38.674  33.628  29.652  1.00  0.00     0.009 A 
ATOM     13  C   UNL A   1      38.271  34.334  32.302  1.00  0.00     0.005 A 
ATOM     14  C   UNL A   1      37.402  33.511  30.235  1.00  0.00     0.005 A 
BRANCH  10  15
ATOM     15  C   UNL A   1      41.113  34.307  29.759  1.00  0.00    -0.018 A 
ATOM     16  C   UNL A   1      43.402  33.484  29.344  1.00  0.00    -0.048 A 
ATOM     17  C   UNL A   1      43.666  34.632  28.586  1.00  0.00     0.004 A 
ATOM     18  C   UNL A   1      42.124  33.336  29.916  1.00  0.00     0.012 A 
ATOM     19  C   UNL A   1      42.687  35.602  28.405  1.00  0.00     0.001 A 
ATOM     20  C   UNL A   1      41.433  35.445  28.994  1.00  0.00     0.009 A 
BRANCH  16  21
ATOM     21  C   UNL A   1      44.532  32.501  29.557  1.00  0.00     0.032 C 
ATOM     22  C   UNL A   1      44.190  31.202  30.272  1.00  0.00     0.009 C 
ENDBRANCH  16  21
ENDBRANCH  10  15
ENDBRANCH   7   9
ENDBRANCH   4   7
ENDBRANCH   2   3
ENDBRANCH   1   2
BRANCH   1  23
ATOM     23  C   UNL A   1      35.042  33.697  28.011  1.00  0.00     0.118 C 
BRANCH  23  24
ATOM     24  N   UNL A   1      34.149  32.562  27.824  1.00  0.00    -0.352 N 
ATOM     25  C   UNL A   1      34.397  31.212  27.854  1.00  0.00     0.251 C 
ATOM     26  H   UNL A   1      33.211  32.805  27.646  1.00  0.00     0.163 HD
ATOM     27  O   UNL A   1      33.532  30.447  27.432  1.00  0.00    -0.269 OA
BRANCH  25  28
ATOM     28  C   UNL A   1      35.678  30.673  28.367  1.00  0.00     0.039 A 
ATOM     29  C   UNL A   1      35.700  30.086  29.638  1.00  0.00     0.014 A 
ATOM     30  C   UNL A   1      36.867  30.788  27.642  1.00  0.00     0.014 A 
ATOM     31  C   UNL A   1      36.895  29.571  30.151  1.00  0.00     0.010 A 
ATOM     32  C   UNL A   1      38.038  30.198  28.118  1.00  0.00     0.010 A 
ATOM     33  C   UNL A   1      38.068  29.593  29.382  1.00  0.00    -0.014 A 
BRANCH  33  34
ATOM     34  C   UNL A   1      39.339  29.009  29.889  1.00  0.00     0.031 A 
ATOM     35  C   UNL A   1      40.049  29.644  31.057  1.00  0.00     0.074 A 
ATOM     36  C   UNL A   1      39.886  27.949  29.261  1.00  0.00     0.049 A 
ATOM     37  N   UNL A   1      41.206  29.343  31.588  1.00  0.00    -0.248 NA
ATOM     38  C   UNL A   1      39.378  30.789  31.691  1.00  0.00     0.031 C 
ATOM     39  C   UNL A   1      39.314  27.271  28.096  1.00  0.00     0.029 A 
ATOM     40  N   UNL A   1      41.050  27.262  29.504  1.00  0.00    -0.354 N 
ATOM     41  C   UNL A   1      41.411  30.272  32.604  1.00  0.00     0.074 A 
ATOM     42  C   UNL A   1      40.285  31.181  32.572  1.00  0.00     0.031 C 
ATOM     43  C   UNL A   1      40.115  26.255  27.741  1.00  0.00     0.029 A 
ATOM     44  C   UNL A   1      41.282  26.236  28.618  1.00  0.00     0.049 A 
ATOM     45  H   UNL A   1      41.661  27.483  30.244  1.00  0.00     0.167 HD
ATOM     46  C   UNL A   1      42.432  30.346  33.495  1.00  0.00     0.034 A 
ATOM     47  C   UNL A   1      42.324  25.387  28.511  1.00  0.00     0.034 A 
ATOM     48  C   UNL A   1      43.539  29.420  33.521  1.00  0.00     0.049 A 
ATOM     49  C   UNL A   1      43.458  25.501  29.498  1.00  0.00     0.074 A 
ATOM     50  C   UNL A   1      44.597  29.366  34.413  1.00  0.00     0.029 A 
ATOM     51  N   UNL A   1      43.738  28.391  32.611  1.00  0.00    -0.354 N 
ATOM     52  N   UNL A   1      43.613  26.355  30.484  1.00  0.00    -0.248 NA
ATOM     53  C   UNL A   1      44.551  24.529  29.366  1.00  0.00     0.031 C 
ATOM     54  C   UNL A   1      45.467  28.351  34.002  1.00  0.00     0.029 A 
ATOM     55  C   UNL A   1      44.915  27.717  32.900  1.00  0.00     0.049 A 
ATOM     56  H   UNL A   1      43.131  28.170  31.867  1.00  0.00     0.167 HD
ATOM     57  C   UNL A   1      44.807  26.002  31.106  1.00  0.00     0.074 A 
ATOM     58  C   UNL A   1      45.322  24.850  30.394  1.00  0.00     0.031 C 
ATOM     59  C   UNL A   1      45.421  26.575  32.173  1.00  0.00     0.034 A 
BRANCH  46  60
ATOM     60  C   UNL A   1      42.407  31.483  34.491  1.00  0.00     0.023 A 
ATOM     61  C   UNL A   1      41.495  31.510  35.561  1.00  0.00     0.031 A 
ATOM     62  C   UNL A   1      43.288  32.570  34.355  1.00  0.00     0.131 A 
ATOM     63  C   UNL A   1      41.430  32.631  36.401  1.00  0.00     0.055 A 
ATOM     64  C   UNL A   1      43.277  33.646  35.246  1.00  0.00     0.041 A 
ATOM     65  F   UNL A   1      44.169  32.614  33.342  1.00  0.00    -0.206 F 
ATOM     66  C   UNL A   1      42.333  33.689  36.267  1.00  0.00     0.022 A 
BRANCH  63  67
ATOM     67  S   UNL A   1      40.052  32.756  37.575  1.00  0.00     0.124 S 
ATOM     68  O   UNL A   1      40.742  32.613  38.854  1.00  0.00    -0.237 OA
ATOM     69  O   UNL A   1      39.510  34.078  37.285  1.00  0.00    -0.237 OA
ATOM     70  O   UNL A   1      39.189  31.633  37.211  1.00  0.00    -0.744 OA
ENDBRANCH  63  67
ENDBRANCH  46  60
BRANCH  47  71
ATOM     71  C   UNL A   1      42.357  24.364  27.427  1.00  0.00     0.023 A 
ATOM     72  C   UNL A   1      41.782  23.096  27.609  1.00  0.00     0.031 A 
ATOM     73  C   UNL A   1      42.998  24.626  26.202  1.00  0.00     0.131 A 
ATOM     74  C   UNL A   1      41.899  22.123  26.605  1.00  0.00     0.055 A 
ATOM     75  C   UNL A   1      43.064  23.673  25.184  1.00  0.00     0.041 A 
ATOM     76  F   UNL A   1      43.561  25.823  25.973  1.00  0.00    -0.206 F 
ATOM     77  C   UNL A   1      42.523  22.407  25.388  1.00  0.00     0.022 A 
BRANCH  74  78
ATOM     78  S   UNL A   1      41.295  20.447  26.944  1.00  0.00     0.124 S 
ATOM     79  O   UNL A   1      42.526  19.668  26.878  1.00  0.00    -0.237 OA
ATOM     80  O   UNL A   1      40.704  20.601  28.269  1.00  0.00    -0.237 OA
ATOM     81  O   UNL A   1      40.342  20.203  25.863  1.00  0.00    -0.744 OA
ENDBRANCH  74  78
ENDBRANCH  47  71
BRANCH  59  82
ATOM     82  C   UNL A   1      46.697  25.930  32.659  1.00  0.00     0.023 A 
ATOM     83  C   UNL A   1      46.691  24.916  33.632  1.00  0.00     0.031 A 
ATOM     84  C   UNL A   1      47.937  26.348  32.145  1.00  0.00     0.131 A 
ATOM     85  C   UNL A   1      47.905  24.392  34.102  1.00  0.00     0.055 A 
ATOM     86  C   UNL A   1      49.139  25.778  32.570  1.00  0.00     0.041 A 
ATOM     87  F   UNL A   1      48.003  27.314  31.215  1.00  0.00    -0.206 F 
ATOM     88  C   UNL A   1      49.127  24.803  33.564  1.00  0.00     0.022 A 
BRANCH  85  89
ATOM     89  S   UNL A   1      47.872  23.227  35.492  1.00  0.00     0.124 S 
ATOM     90  O   UNL A   1      46.484  22.775  35.474  1.00  0.00    -0.237 OA
ATOM     91  O   UNL A   1      48.869  22.239  35.096  1.00  0.00    -0.237 OA
ATOM     92  O   UNL A   1      48.240  24.053  36.640  1.00  0.00    -0.744 OA
ENDBRANCH  85  89
ENDBRANCH  59  82
ENDBRANCH  33  34
ENDBRANCH  25  28
ENDBRANCH  23  24
ENDBRANCH   1  23
TORSDOF 16
ENDMDL
MODEL 2
REMARK VINA RESULT:     -10.1      4.288     11.290
REMARK SMILES CCc1cccc(-c2ccc([C@@H](C)C(=O)NCCCNC(=O)c3ccc(-c4c5nc(c(-c6cc(S(=O)(=O)[O-])ccc6F)c6ccc([nH]6)c(-c6cc(S(=O)(=O)[O-])ccc6F)c6nc(c(-c7cc(S(=O)(=O)[O-])ccc7F)c7ccc4[nH]7)C=C6)C=C5)cc3)cc2)c1
REMARK SMILES IDX 18 1 17 2 16 3 14 4 15 5 12 7 13 8 11 9 8 10 9 11 87 12
REMARK SMILES IDX 10 13 86 14 7 15 3 16 4 17 88 18 5 19 6 20 2 21 1 22 19 23
REMARK SMILES IDX 20 24 21 25 22 27 23 28 24 29 85 30 25 31 84 32 26 33 27 34
REMARK SMILES IDX 28 35 78 36 29 37 83 38 77 39 79 40 30 41 82 42 76 43 75 44
REMARK SMILES IDX 31 46 63 47 43 48 62 49 44 50 47 51 61 52 80 53 45 54 46 55
REMARK SMILES IDX 60 57 81 58 48 59 32 60 33 61 41 62 34 63 40 64 42 65 39 66
REMARK SMILES IDX 35 67 36 68 37 69 38 70 64 71 65 72 73 73 66 74 72 75 74 76
REMARK SMILES IDX 71 77 67 78 68 79 69 80 70 81 49 82 50 83 58 84 51 85 57 86
REMARK SMILES IDX 59 87 56 88 52 89 53 90 54 91 55 92
REMARK H PARENT 16 6 20 26 79 45 47 56
REMARK Flexibility Score: inf
ROOT
ATOM      1  C   UNL A   1      41.741  19.973  27.264  1.00  0.00     0.042 C 
ENDROOT
BRANCH   1   2
ATOM      2  C   UNL A   1      42.136  19.923  25.790  1.00  0.00     0.117 C 
BRANCH   2   3
ATOM      3  N   UNL A   1      43.552  20.159  25.586  1.00  0.00    -0.356 N 
ATOM      4  C   UNL A   1      44.288  21.303  25.549  1.00  0.00     0.227 C 
ATOM      5  O   UNL A   1      45.496  21.167  25.308  1.00  0.00    -0.274 OA
ATOM      6  H   UNL A   1      44.078  19.339  25.445  1.00  0.00     0.163 HD
BRANCH   4   7
ATOM      7  C   UNL A   1      43.719  22.705  25.813  1.00  0.00     0.105 C 
ATOM      8  C   UNL A   1      44.068  23.737  24.740  1.00  0.00     0.023 C 
BRANCH   7   9
ATOM      9  C   UNL A   1      43.873  23.174  27.250  1.00  0.00    -0.036 A 
ATOM     10  C   UNL A   1      44.223  24.179  29.913  1.00  0.00    -0.018 A 
ATOM     11  C   UNL A   1      42.961  23.817  29.414  1.00  0.00     0.009 A 
ATOM     12  C   UNL A   1      45.312  24.007  29.043  1.00  0.00     0.009 A 
ATOM     13  C   UNL A   1      42.796  23.287  28.128  1.00  0.00     0.005 A 
ATOM     14  C   UNL A   1      45.139  23.536  27.732  1.00  0.00     0.005 A 
BRANCH  10  15
ATOM     15  C   UNL A   1      44.382  24.703  31.295  1.00  0.00    -0.018 A 
ATOM     16  C   UNL A   1      44.473  26.581  32.893  1.00  0.00    -0.048 A 
ATOM     17  C   UNL A   1      44.681  25.670  33.936  1.00  0.00     0.004 A 
ATOM     18  C   UNL A   1      44.320  26.082  31.586  1.00  0.00     0.012 A 
ATOM     19  C   UNL A   1      44.737  24.304  33.683  1.00  0.00     0.001 A 
ATOM     20  C   UNL A   1      44.600  23.831  32.378  1.00  0.00     0.009 A 
BRANCH  16  21
ATOM     21  C   UNL A   1      44.490  28.056  33.229  1.00  0.00     0.032 C 
ATOM     22  C   UNL A   1      43.589  28.961  32.399  1.00  0.00     0.009 C 
ENDBRANCH  16  21
ENDBRANCH  10  15
ENDBRANCH   7   9
ENDBRANCH   4   7
ENDBRANCH   2   3
ENDBRANCH   1   2
BRANCH   1  23
ATOM     23  C   UNL A   1      40.795  21.113  27.612  1.00  0.00     0.118 C 
BRANCH  23  24
ATOM     24  N   UNL A   1      39.774  21.310  26.592  1.00  0.00    -0.352 N 
ATOM     25  C   UNL A   1      39.085  22.438  26.219  1.00  0.00     0.251 C 
ATOM     26  H   UNL A   1      39.539  20.498  26.086  1.00  0.00     0.163 HD
ATOM     27  O   UNL A   1      38.101  22.311  25.494  1.00  0.00    -0.269 OA
BRANCH  25  28
ATOM     28  C   UNL A   1      39.497  23.784  26.683  1.00  0.00     0.039 A 
ATOM     29  C   UNL A   1      39.180  24.171  27.990  1.00  0.00     0.014 A 
ATOM     30  C   UNL A   1      40.137  24.690  25.833  1.00  0.00     0.014 A 
ATOM     31  C   UNL A   1      39.553  25.436  28.456  1.00  0.00     0.010 A 
ATOM     32  C   UNL A   1      40.582  25.917  26.325  1.00  0.00     0.010 A 
ATOM     33  C   UNL A   1      40.286  26.309  27.638  1.00  0.00    -0.014 A 
BRANCH  33  34
ATOM     34  C   UNL A   1      40.732  27.641  28.127  1.00  0.00     0.031 A 
ATOM     35  C   UNL A   1      42.202  27.950  28.242  1.00  0.00     0.074 A 
ATOM     36  C   UNL A   1      39.818  28.548  28.527  1.00  0.00     0.049 A 
ATOM     37  N   UNL A   1      42.792  29.012  28.728  1.00  0.00    -0.248 NA
ATOM     38  C   UNL A   1      43.132  26.910  27.774  1.00  0.00     0.031 C 
ATOM     39  C   UNL A   1      38.367  28.351  28.500  1.00  0.00     0.029 A 
ATOM     40  N   UNL A   1      39.970  29.810  29.046  1.00  0.00    -0.354 N 
ATOM     41  C   UNL A   1      44.158  28.761  28.643  1.00  0.00     0.074 A 
ATOM     42  C   UNL A   1      44.304  27.421  28.113  1.00  0.00     0.031 C 
ATOM     43  C   UNL A   1      37.765  29.459  28.959  1.00  0.00     0.029 A 
ATOM     44  C   UNL A   1      38.782  30.426  29.359  1.00  0.00     0.049 A 
ATOM     45  H   UNL A   1      40.849  30.235  29.178  1.00  0.00     0.167 HD
ATOM     46  C   UNL A   1      45.194  29.580  28.956  1.00  0.00     0.034 A 
ATOM     47  C   UNL A   1      38.537  31.627  29.921  1.00  0.00     0.034 A 
ATOM     48  C   UNL A   1      45.028  30.919  29.468  1.00  0.00     0.049 A 
ATOM     49  C   UNL A   1      39.703  32.512  30.280  1.00  0.00     0.074 A 
ATOM     50  C   UNL A   1      46.004  31.855  29.765  1.00  0.00     0.029 A 
ATOM     51  N   UNL A   1      43.808  31.511  29.769  1.00  0.00    -0.354 N 
ATOM     52  N   UNL A   1      40.989  32.279  30.147  1.00  0.00    -0.248 NA
ATOM     53  C   UNL A   1      39.386  33.826  30.853  1.00  0.00     0.031 C 
ATOM     54  C   UNL A   1      45.379  32.984  30.306  1.00  0.00     0.029 A 
ATOM     55  C   UNL A   1      44.008  32.786  30.276  1.00  0.00     0.049 A 
ATOM     56  H   UNL A   1      42.929  31.087  29.640  1.00  0.00     0.167 HD
ATOM     57  C   UNL A   1      41.631  33.431  30.595  1.00  0.00     0.074 A 
ATOM     58  C   UNL A   1      40.590  34.361  30.984  1.00  0.00     0.031 C 
ATOM     59  C   UNL A   1      42.960  33.699  30.671  1.00  0.00     0.034 A 
BRANCH  46  60
ATOM     60  C   UNL A   1      46.592  29.034  28.777  1.00  0.00     0.023 A 
ATOM     61  C   UNL A   1      47.196  28.945  27.511  1.00  0.00     0.031 A 
ATOM     62  C   UNL A   1      47.324  28.570  29.885  1.00  0.00     0.131 A 
ATOM     63  C   UNL A   1      48.451  28.334  27.372  1.00  0.00     0.055 A 
ATOM     64  C   UNL A   1      48.610  28.041  29.751  1.00  0.00     0.041 A 
ATOM     65  F   UNL A   1      46.796  28.609  31.119  1.00  0.00    -0.206 F 
ATOM     66  C   UNL A   1      49.175  27.905  28.488  1.00  0.00     0.022 A 
BRANCH  63  67
ATOM     67  S   UNL A   1      49.059  27.972  25.701  1.00  0.00     0.124 S 
ATOM     68  O   UNL A   1      47.919  28.372  24.881  1.00  0.00    -0.237 OA
ATOM     69  O   UNL A   1      50.242  28.818  25.606  1.00  0.00    -0.237 OA
ATOM     70  O   UNL A   1      49.319  26.534  25.735  1.00  0.00    -0.744 OA
ENDBRANCH  63  67
ENDBRANCH  46  60
BRANCH  47  71
ATOM     71  C   UNL A   1      37.137  32.063  30.193  1.00  0.00     0.023 A 
ATOM     72  C   UNL A   1      36.389  32.747  29.221  1.00  0.00     0.031 A 
ATOM     73  C   UNL A   1      36.537  31.835  31.445  1.00  0.00     0.131 A 
ATOM     74  C   UNL A   1      35.104  33.219  29.530  1.00  0.00     0.055 A 
ATOM     75  C   UNL A   1      35.238  32.258  31.730  1.00  0.00     0.041 A 
ATOM     76  F   UNL A   1      37.206  31.183  32.409  1.00  0.00    -0.206 F 
ATOM     77  C   UNL A   1      34.517  32.967  30.772  1.00  0.00     0.022 A 
BRANCH  74  78
ATOM     78  S   UNL A   1      34.238  34.244  28.310  1.00  0.00     0.124 S 
ATOM     79  O   UNL A   1      33.961  35.451  29.079  1.00  0.00    -0.237 OA
ATOM     80  O   UNL A   1      35.240  34.371  27.256  1.00  0.00    -0.237 OA
ATOM     81  O   UNL A   1      33.067  33.442  27.961  1.00  0.00    -0.744 OA
ENDBRANCH  74  78
ENDBRANCH  47  71
BRANCH  59  82
ATOM     82  C   UNL A   1      43.356  35.073  31.155  1.00  0.00     0.023 A 
ATOM     83  C   UNL A   1      43.559  36.142  30.266  1.00  0.00     0.031 A 
ATOM     84  C   UNL A   1      43.544  35.309  32.528  1.00  0.00     0.131 A 
ATOM     85  C   UNL A   1      43.992  37.384  30.754  1.00  0.00     0.055 A 
ATOM     86  C   UNL A   1      43.913  36.564  33.015  1.00  0.00     0.041 A 
ATOM     87  F   UNL A   1      43.366  34.323  33.423  1.00  0.00    -0.206 F 
ATOM     88  C   UNL A   1      44.152  37.607  32.125  1.00  0.00     0.022 A 
BRANCH  85  89
ATOM     89  S   UNL A   1      44.431  38.684  29.567  1.00  0.00     0.124 S 
ATOM     90  O   UNL A   1      44.860  37.903  28.410  1.00  0.00    -0.237 OA
ATOM     91  O   UNL A   1      43.173  39.407  29.416  1.00  0.00    -0.237 OA
ATOM     92  O   UNL A   1      45.493  39.423  30.245  1.00  0.00    -0.744 OA
ENDBRANCH  85  89
ENDBRANCH  59  82
ENDBRANCH  33  34
ENDBRANCH  25  28
ENDBRANCH  23  24
ENDBRANCH   1  23
TORSDOF 16
ENDMDL
MODEL 3
REMARK VINA RESULT:     -10.0      5.566     11.553
REMARK SMILES CCc1cccc(-c2ccc([C@@H](C)C(=O)NCCCNC(=O)c3ccc(-c4c5nc(c(-c6cc(S(=O)(=O)[O-])ccc6F)c6ccc([nH]6)c(-c6cc(S(=O)(=O)[O-])ccc6F)c6nc(c(-c7cc(S(=O)(=O)[O-])ccc7F)c7ccc4[nH]7)C=C6)C=C5)cc3)cc2)c1
REMARK SMILES IDX 18 1 17 2 16 3 14 4 15 5 12 7 13 8 11 9 8 10 9 11 87 12
REMARK SMILES IDX 10 13 86 14 7 15 3 16 4 17 88 18 5 19 6 20 2 21 1 22 19 23
REMARK SMILES IDX 20 24 21 25 22 27 23 28 24 29 85 30 25 31 84 32 26 33 27 34
REMARK SMILES IDX 28 35 78 36 29 37 83 38 77 39 79 40 30 41 82 42 76 43 75 44
REMARK SMILES IDX 31 46 63 47 43 48 62 49 44 50 47 51 61 52 80 53 45 54 46 55
REMARK SMILES IDX 60 57 81 58 48 59 32 60 33 61 41 62 34 63 40 64 42 65 39 66
REMARK SMILES IDX 35 67 36 68 37 69 38 70 64 71 65 72 73 73 66 74 72 75 74 76
REMARK SMILES IDX 71 77 67 78 68 79 69 80 70 81 49 82 50 83 58 84 51 85 57 86
REMARK SMILES IDX 59 87 56 88 52 89 53 90 54 91 55 92
REMARK H PARENT 16 6 20 26 79 45 47 56
REMARK Flexibility Score: inf
ROOT
ATOM      1  C   UNL A   1      35.572  21.720  25.870  1.00  0.00     0.042 C 
ENDROOT
BRANCH   1   2
ATOM      2  C   UNL A   1      35.167  20.799  24.723  1.00  0.00     0.117 C 
BRANCH   2   3
ATOM      3  N   UNL A   1      34.110  19.879  25.095  1.00  0.00    -0.356 N 
ATOM      4  C   UNL A   1      32.762  19.918  24.911  1.00  0.00     0.227 C 
ATOM      5  O   UNL A   1      32.117  18.977  25.394  1.00  0.00    -0.274 OA
ATOM      6  H   UNL A   1      34.426  19.077  25.571  1.00  0.00     0.163 HD
BRANCH   4   7
ATOM      7  C   UNL A   1      32.028  21.021  24.134  1.00  0.00     0.105 C 
ATOM      8  C   UNL A   1      32.175  20.924  22.615  1.00  0.00     0.023 C 
BRANCH   7   9
ATOM      9  C   UNL A   1      32.202  22.411  24.723  1.00  0.00    -0.036 A 
ATOM     10  C   UNL A   1      32.435  25.082  25.739  1.00  0.00    -0.018 A 
ATOM     11  C   UNL A   1      32.061  24.004  26.558  1.00  0.00     0.009 A 
ATOM     12  C   UNL A   1      32.709  24.781  24.395  1.00  0.00     0.009 A 
ATOM     13  C   UNL A   1      31.987  22.694  26.071  1.00  0.00     0.005 A 
ATOM     14  C   UNL A   1      32.573  23.477  23.892  1.00  0.00     0.005 A 
BRANCH  10  15
ATOM     15  C   UNL A   1      32.546  26.460  26.285  1.00  0.00    -0.018 A 
ATOM     16  C   UNL A   1      33.885  28.451  26.866  1.00  0.00    -0.048 A 
ATOM     17  C   UNL A   1      32.723  29.085  27.324  1.00  0.00     0.004 A 
ATOM     18  C   UNL A   1      33.777  27.146  26.347  1.00  0.00     0.012 A 
ATOM     19  C   UNL A   1      31.493  28.439  27.267  1.00  0.00     0.001 A 
ATOM     20  C   UNL A   1      31.411  27.141  26.765  1.00  0.00     0.009 A 
BRANCH  16  21
ATOM     21  C   UNL A   1      35.199  29.184  27.018  1.00  0.00     0.032 C 
ATOM     22  C   UNL A   1      35.157  30.533  27.723  1.00  0.00     0.009 C 
ENDBRANCH  16  21
ENDBRANCH  10  15
ENDBRANCH   7   9
ENDBRANCH   4   7
ENDBRANCH   2   3
ENDBRANCH   1   2
BRANCH   1  23
ATOM     23  C   UNL A   1      36.960  22.327  25.715  1.00  0.00     0.118 C 
BRANCH  23  24
ATOM     24  N   UNL A   1      38.014  21.373  26.032  1.00  0.00    -0.352 N 
ATOM     25  C   UNL A   1      39.325  21.572  26.388  1.00  0.00     0.251 C 
ATOM     26  H   UNL A   1      37.740  20.429  25.982  1.00  0.00     0.163 HD
ATOM     27  O   UNL A   1      40.089  20.609  26.374  1.00  0.00    -0.269 OA
BRANCH  25  28
ATOM     28  C   UNL A   1      39.828  22.913  26.768  1.00  0.00     0.039 A 
ATOM     29  C   UNL A   1      40.752  23.012  27.815  1.00  0.00     0.014 A 
ATOM     30  C   UNL A   1      39.361  24.076  26.151  1.00  0.00     0.014 A 
ATOM     31  C   UNL A   1      41.244  24.264  28.200  1.00  0.00     0.010 A 
ATOM     32  C   UNL A   1      39.915  25.314  26.478  1.00  0.00     0.010 A 
ATOM     33  C   UNL A   1      40.854  25.424  27.513  1.00  0.00    -0.014 A 
BRANCH  33  34
ATOM     34  C   UNL A   1      41.398  26.760  27.875  1.00  0.00     0.031 A 
ATOM     35  C   UNL A   1      42.822  27.113  27.533  1.00  0.00     0.074 A 
ATOM     36  C   UNL A   1      40.633  27.630  28.564  1.00  0.00     0.049 A 
ATOM     37  N   UNL A   1      43.508  28.184  27.841  1.00  0.00    -0.248 NA
ATOM     38  C   UNL A   1      43.584  26.112  26.771  1.00  0.00     0.031 C 
ATOM     39  C   UNL A   1      39.251  27.388  28.985  1.00  0.00     0.029 A 
ATOM     40  N   UNL A   1      40.909  28.887  29.043  1.00  0.00    -0.354 N 
ATOM     41  C   UNL A   1      44.785  27.978  27.327  1.00  0.00     0.074 A 
ATOM     42  C   UNL A   1      44.791  26.654  26.742  1.00  0.00     0.031 C 
ATOM     43  C   UNL A   1      38.795  28.468  29.639  1.00  0.00     0.029 A 
ATOM     44  C   UNL A   1      39.862  29.460  29.728  1.00  0.00     0.049 A 
ATOM     45  H   UNL A   1      41.774  29.337  28.907  1.00  0.00     0.167 HD
ATOM     46  C   UNL A   1      45.847  28.824  27.323  1.00  0.00     0.034 A 
ATOM     47  C   UNL A   1      39.777  30.642  30.370  1.00  0.00     0.034 A 
ATOM     48  C   UNL A   1      45.817  30.147  27.898  1.00  0.00     0.049 A 
ATOM     49  C   UNL A   1      40.975  31.557  30.371  1.00  0.00     0.074 A 
ATOM     50  C   UNL A   1      46.813  31.108  27.900  1.00  0.00     0.029 A 
ATOM     51  N   UNL A   1      44.738  30.695  28.579  1.00  0.00    -0.354 N 
ATOM     52  N   UNL A   1      42.160  31.367  29.838  1.00  0.00    -0.248 NA
ATOM     53  C   UNL A   1      40.820  32.850  31.051  1.00  0.00     0.031 C 
ATOM     54  C   UNL A   1      46.362  32.207  28.640  1.00  0.00     0.029 A 
ATOM     55  C   UNL A   1      45.055  31.967  29.034  1.00  0.00     0.049 A 
ATOM     56  H   UNL A   1      43.872  30.246  28.720  1.00  0.00     0.167 HD
ATOM     57  C   UNL A   1      42.881  32.530  30.094  1.00  0.00     0.074 A 
ATOM     58  C   UNL A   1      41.992  33.420  30.814  1.00  0.00     0.031 C 
ATOM     59  C   UNL A   1      44.161  32.838  29.760  1.00  0.00     0.034 A 
BRANCH  46  60
ATOM     60  C   UNL A   1      47.132  28.325  26.702  1.00  0.00     0.023 A 
ATOM     61  C   UNL A   1      47.328  28.318  25.311  1.00  0.00     0.031 A 
ATOM     62  C   UNL A   1      48.168  27.825  27.512  1.00  0.00     0.131 A 
ATOM     63  C   UNL A   1      48.490  27.749  24.768  1.00  0.00     0.055 A 
ATOM     64  C   UNL A   1      49.359  27.338  26.969  1.00  0.00     0.041 A 
ATOM     65  F   UNL A   1      48.034  27.786  28.848  1.00  0.00    -0.206 F 
ATOM     66  C   UNL A   1      49.519  27.283  25.589  1.00  0.00     0.022 A 
BRANCH  63  67
ATOM     67  S   UNL A   1      48.571  27.491  22.973  1.00  0.00     0.124 S 
ATOM     68  O   UNL A   1      49.847  28.118  22.643  1.00  0.00    -0.237 OA
ATOM     69  O   UNL A   1      48.525  26.038  22.862  1.00  0.00    -0.237 OA
ATOM     70  O   UNL A   1      47.391  28.194  22.472  1.00  0.00    -0.744 OA
ENDBRANCH  63  67
ENDBRANCH  46  60
BRANCH  47  71
ATOM     71  C   UNL A   1      38.521  31.029  31.076  1.00  0.00     0.023 A 
ATOM     72  C   UNL A   1      37.582  31.880  30.473  1.00  0.00     0.031 A 
ATOM     73  C   UNL A   1      38.259  30.582  32.385  1.00  0.00     0.131 A 
ATOM     74  C   UNL A   1      36.450  32.294  31.189  1.00  0.00     0.055 A 
ATOM     75  C   UNL A   1      37.104  30.954  33.074  1.00  0.00     0.041 A 
ATOM     76  F   UNL A   1      39.122  29.764  33.008  1.00  0.00    -0.206 F 
ATOM     77  C   UNL A   1      36.196  31.826  32.481  1.00  0.00     0.022 A 
BRANCH  74  78
ATOM     78  S   UNL A   1      35.349  33.526  30.440  1.00  0.00     0.124 S 
ATOM     79  O   UNL A   1      35.233  34.511  31.510  1.00  0.00    -0.237 OA
ATOM     80  O   UNL A   1      36.113  33.940  29.267  1.00  0.00    -0.237 OA
ATOM     81  O   UNL A   1      34.134  32.767  30.153  1.00  0.00    -0.744 OA
ENDBRANCH  74  78
ENDBRANCH  47  71
BRANCH  59  82
ATOM     82  C   UNL A   1      44.655  34.215  30.133  1.00  0.00     0.023 A 
ATOM     83  C   UNL A   1      44.433  35.331  29.308  1.00  0.00     0.031 A 
ATOM     84  C   UNL A   1      45.370  34.407  31.329  1.00  0.00     0.131 A 
ATOM     85  C   UNL A   1      44.968  36.579  29.663  1.00  0.00     0.055 A 
ATOM     86  C   UNL A   1      45.845  35.663  31.707  1.00  0.00     0.041 A 
ATOM     87  F   UNL A   1      45.613  33.376  32.153  1.00  0.00    -0.206 F 
ATOM     88  C   UNL A   1      45.657  36.756  30.865  1.00  0.00     0.022 A 
BRANCH  85  89
ATOM     89  S   UNL A   1      44.829  37.953  28.486  1.00  0.00     0.124 S 
ATOM     90  O   UNL A   1      45.034  37.278  27.208  1.00  0.00    -0.237 OA
ATOM     91  O   UNL A   1      43.480  38.446  28.738  1.00  0.00    -0.237 OA
ATOM     92  O   UNL A   1      45.905  38.858  28.889  1.00  0.00    -0.744 OA
ENDBRANCH  85  89
ENDBRANCH  59  82
ENDBRANCH  33  34
ENDBRANCH  25  28
ENDBRANCH  23  24
ENDBRANCH   1  23
TORSDOF 16
ENDMDL
