MODEL 1
REMARK VINA RESULT:     -13.0      0.000      0.000
REMARK SMILES C/C(=N/Nc1ccccc1C(=O)NCCCNC(=O)c1ccc(-c2c3nc(c(-c4cc(S(=O)(=O)[O-])ccc4F)c4ccc([nH]4)c(-c4cc(S(=O)(=O)[O-])ccc4F)c4nc(c(-c5cc(S(=O)(=O)[O-])ccc5F)c5ccc2[nH]5)C=C4)C=C3)cc1)c1ccc(S(C)(=O)=O)cc1
REMARK SMILES IDX 14 1 13 2 11 3 12 4 10 6 5 7 6 8 7 9 9 10 8 11 4 12 3 14
REMARK SMILES IDX 1 15 2 16 83 17 84 18 92 19 85 20 91 21 86 22 87 23 88 24
REMARK SMILES IDX 89 25 90 26 15 27 16 28 17 29 18 30 19 32 20 33 21 34 82 35
REMARK SMILES IDX 22 36 81 37 23 38 24 39 25 40 75 41 26 42 80 43 74 44 76 45
REMARK SMILES IDX 27 46 79 47 73 48 72 49 28 51 60 52 40 53 59 54 41 55 44 56
REMARK SMILES IDX 58 57 77 58 42 59 43 60 57 62 78 63 45 64 29 65 30 66 38 67
REMARK SMILES IDX 31 68 37 69 39 70 36 71 32 72 33 73 34 74 35 75 61 76 62 77
REMARK SMILES IDX 70 78 63 79 69 80 71 81 68 82 64 83 65 84 66 85 67 86 46 87
REMARK SMILES IDX 47 88 55 89 48 90 54 91 56 92 53 93 49 94 50 95 51 96 52 97
REMARK H PARENT 13 5 4 13 17 31 76 50 44 61
REMARK Flexibility Score: inf
ROOT
ATOM      1  C   UNL A   1      32.345  27.915  26.978  1.00  0.00     0.118 C 
ENDROOT
BRANCH   1   2
ATOM      2  N   UNL A   1      31.408  26.818  27.136  1.00  0.00    -0.352 N 
ATOM      3  C   UNL A   1      30.858  26.000  26.190  1.00  0.00     0.253 C 
ATOM      4  O   UNL A   1      30.086  25.115  26.567  1.00  0.00    -0.269 OA
ATOM      5  H   UNL A   1      31.129  26.634  28.061  1.00  0.00     0.163 HD
BRANCH   3   6
ATOM      6  C   UNL A   1      31.052  26.215  24.733  1.00  0.00     0.064 A 
ATOM      7  C   UNL A   1      32.038  25.642  23.911  1.00  0.00     0.069 A 
ATOM      8  C   UNL A   1      32.093  26.083  22.566  1.00  0.00     0.028 A 
ATOM      9  C   UNL A   1      31.174  26.991  22.035  1.00  0.00     0.002 A 
ATOM     10  C   UNL A   1      30.108  27.110  24.175  1.00  0.00     0.016 A 
ATOM     11  C   UNL A   1      30.161  27.487  22.836  1.00  0.00     0.001 A 
BRANCH   7  12
ATOM     12  N   UNL A   1      32.902  24.556  24.198  1.00  0.00    -0.277 N 
ATOM     13  H   UNL A   1      32.486  23.780  24.639  1.00  0.00     0.190 HD
BRANCH  12  14
ATOM     14  N   UNL A   1      34.222  24.454  23.943  1.00  0.00    -0.180 NA
ATOM     15  C   UNL A   1      36.355  23.396  23.706  1.00  0.00     0.069 C 
ATOM     16  C   UNL A   1      34.863  23.321  23.949  1.00  0.00     0.065 C 
BRANCH  16  17
ATOM     17  C   UNL A   1      34.287  21.979  24.197  1.00  0.00    -0.002 A 
ATOM     18  C   UNL A   1      35.034  21.005  24.864  1.00  0.00     0.011 A 
ATOM     19  C   UNL A   1      33.043  21.660  23.638  1.00  0.00     0.011 A 
ATOM     20  C   UNL A   1      34.592  19.684  24.878  1.00  0.00     0.021 A 
ATOM     21  C   UNL A   1      32.597  20.339  23.646  1.00  0.00     0.021 A 
ATOM     22  C   UNL A   1      33.395  19.355  24.232  1.00  0.00     0.067 A 
BRANCH  22  23
ATOM     23  S   UNL A   1      32.926  17.649  24.119  1.00  0.00     0.175 S 
ATOM     24  C   UNL A   1      34.377  16.789  24.671  1.00  0.00     0.163 C 
ATOM     25  O   UNL A   1      31.871  17.431  25.090  1.00  0.00    -0.224 OA
ATOM     26  O   UNL A   1      32.723  17.327  22.718  1.00  0.00    -0.224 OA
ENDBRANCH  22  23
ENDBRANCH  16  17
ENDBRANCH  12  14
ENDBRANCH   7  12
ENDBRANCH   3   6
ENDBRANCH   1   2
BRANCH   1  27
ATOM     27  C   UNL A   1      31.667  29.269  26.946  1.00  0.00     0.042 C 
BRANCH  27  28
ATOM     28  C   UNL A   1      32.490  30.347  26.250  1.00  0.00     0.118 C 
BRANCH  28  29
ATOM     29  N   UNL A   1      32.287  31.698  26.770  1.00  0.00    -0.352 N 
ATOM     30  C   UNL A   1      33.124  32.518  27.497  1.00  0.00     0.251 C 
ATOM     31  H   UNL A   1      31.406  32.087  26.566  1.00  0.00     0.163 HD
ATOM     32  O   UNL A   1      32.721  33.605  27.901  1.00  0.00    -0.269 OA
BRANCH  30  33
ATOM     33  C   UNL A   1      34.482  32.050  27.845  1.00  0.00     0.039 A 
ATOM     34  C   UNL A   1      35.519  32.979  27.956  1.00  0.00     0.014 A 
ATOM     35  C   UNL A   1      34.708  30.713  28.157  1.00  0.00     0.014 A 
ATOM     36  C   UNL A   1      36.736  32.587  28.521  1.00  0.00     0.010 A 
ATOM     37  C   UNL A   1      35.856  30.363  28.852  1.00  0.00     0.010 A 
ATOM     38  C   UNL A   1      36.886  31.296  29.050  1.00  0.00    -0.014 A 
BRANCH  38  39
ATOM     39  C   UNL A   1      38.098  30.881  29.810  1.00  0.00     0.031 A 
ATOM     40  C   UNL A   1      39.061  29.901  29.192  1.00  0.00     0.074 A 
ATOM     41  C   UNL A   1      38.274  31.293  31.083  1.00  0.00     0.049 A 
ATOM     42  N   UNL A   1      40.064  29.263  29.740  1.00  0.00    -0.248 NA
ATOM     43  C   UNL A   1      38.822  29.544  27.785  1.00  0.00     0.031 C 
ATOM     44  C   UNL A   1      37.375  32.186  31.823  1.00  0.00     0.029 A 
ATOM     45  N   UNL A   1      39.262  31.004  31.992  1.00  0.00    -0.354 N 
ATOM     46  C   UNL A   1      40.547  28.407  28.755  1.00  0.00     0.074 A 
ATOM     47  C   UNL A   1      39.670  28.544  27.612  1.00  0.00     0.031 C 
ATOM     48  C   UNL A   1      37.870  32.393  33.054  1.00  0.00     0.029 A 
ATOM     49  C   UNL A   1      39.091  31.612  33.216  1.00  0.00     0.049 A 
ATOM     50  H   UNL A   1      40.024  30.415  31.787  1.00  0.00     0.167 HD
ATOM     51  C   UNL A   1      41.644  27.609  28.783  1.00  0.00     0.034 A 
ATOM     52  C   UNL A   1      39.825  31.536  34.344  1.00  0.00     0.034 A 
ATOM     53  C   UNL A   1      42.534  27.523  29.912  1.00  0.00     0.049 A 
ATOM     54  C   UNL A   1      41.062  30.672  34.341  1.00  0.00     0.074 A 
ATOM     55  C   UNL A   1      43.700  26.790  30.040  1.00  0.00     0.029 A 
ATOM     56  N   UNL A   1      42.361  28.208  31.108  1.00  0.00    -0.354 N 
ATOM     57  N   UNL A   1      41.526  29.896  33.388  1.00  0.00    -0.248 NA
ATOM     58  C   UNL A   1      41.883  30.684  35.559  1.00  0.00     0.031 C 
ATOM     59  C   UNL A   1      44.210  26.998  31.327  1.00  0.00     0.029 A 
ATOM     60  C   UNL A   1      43.396  27.910  31.980  1.00  0.00     0.049 A 
ATOM     61  H   UNL A   1      41.613  28.816  31.308  1.00  0.00     0.167 HD
ATOM     62  C   UNL A   1      42.708  29.353  33.882  1.00  0.00     0.074 A 
ATOM     63  C   UNL A   1      42.895  29.904  35.209  1.00  0.00     0.031 C 
ATOM     64  C   UNL A   1      43.563  28.477  33.297  1.00  0.00     0.034 A 
BRANCH  51  65
ATOM     65  C   UNL A   1      41.928  26.783  27.551  1.00  0.00     0.023 A 
ATOM     66  C   UNL A   1      41.541  25.433  27.469  1.00  0.00     0.031 A 
ATOM     67  C   UNL A   1      42.637  27.328  26.466  1.00  0.00     0.131 A 
ATOM     68  C   UNL A   1      41.947  24.650  26.379  1.00  0.00     0.055 A 
ATOM     69  C   UNL A   1      42.957  26.567  25.339  1.00  0.00     0.041 A 
ATOM     70  F   UNL A   1      43.051  28.605  26.492  1.00  0.00    -0.206 F 
ATOM     71  C   UNL A   1      42.629  25.214  25.300  1.00  0.00     0.022 A 
BRANCH  68  72
ATOM     72  S   UNL A   1      41.707  22.855  26.471  1.00  0.00     0.124 S 
ATOM     73  O   UNL A   1      42.414  22.529  27.707  1.00  0.00    -0.237 OA
ATOM     74  O   UNL A   1      40.255  22.731  26.514  1.00  0.00    -0.237 OA
ATOM     75  O   UNL A   1      42.341  22.362  25.249  1.00  0.00    -0.744 OA
ENDBRANCH  68  72
ENDBRANCH  51  65
BRANCH  52  76
ATOM     76  C   UNL A   1      39.422  32.287  35.570  1.00  0.00     0.023 A 
ATOM     77  C   UNL A   1      38.680  31.667  36.588  1.00  0.00     0.031 A 
ATOM     78  C   UNL A   1      39.731  33.651  35.719  1.00  0.00     0.131 A 
ATOM     79  C   UNL A   1      38.222  32.420  37.681  1.00  0.00     0.055 A 
ATOM     80  C   UNL A   1      39.321  34.382  36.836  1.00  0.00     0.041 A 
ATOM     81  F   UNL A   1      40.447  34.292  34.782  1.00  0.00    -0.206 F 
ATOM     82  C   UNL A   1      38.547  33.770  37.818  1.00  0.00     0.022 A 
BRANCH  79  83
ATOM     83  S   UNL A   1      37.109  31.628  38.876  1.00  0.00     0.124 S 
ATOM     84  O   UNL A   1      37.884  31.714  40.107  1.00  0.00    -0.237 OA
ATOM     85  O   UNL A   1      35.928  32.481  38.799  1.00  0.00    -0.237 OA
ATOM     86  O   UNL A   1      36.938  30.280  38.338  1.00  0.00    -0.744 OA
ENDBRANCH  79  83
ENDBRANCH  52  76
BRANCH  64  87
ATOM     87  C   UNL A   1      44.801  28.109  34.072  1.00  0.00     0.023 A 
ATOM     88  C   UNL A   1      44.839  26.986  34.914  1.00  0.00     0.031 A 
ATOM     89  C   UNL A   1      45.959  28.900  33.965  1.00  0.00     0.131 A 
ATOM     90  C   UNL A   1      45.995  26.713  35.660  1.00  0.00     0.055 A 
ATOM     91  C   UNL A   1      47.125  28.591  34.665  1.00  0.00     0.041 A 
ATOM     92  F   UNL A   1      45.974  29.985  33.173  1.00  0.00    -0.206 F 
ATOM     93  C   UNL A   1      47.144  27.499  35.528  1.00  0.00     0.022 A 
BRANCH  90  94
ATOM     94  S   UNL A   1      45.953  25.361  36.867  1.00  0.00     0.124 S 
ATOM     95  O   UNL A   1      46.071  24.185  36.011  1.00  0.00    -0.237 OA
ATOM     96  O   UNL A   1      47.111  25.657  37.707  1.00  0.00    -0.237 OA
ATOM     97  O   UNL A   1      44.656  25.525  37.522  1.00  0.00    -0.744 OA
ENDBRANCH  90  94
ENDBRANCH  64  87
ENDBRANCH  38  39
ENDBRANCH  30  33
ENDBRANCH  28  29
ENDBRANCH  27  28
ENDBRANCH   1  27
TORSDOF 17
ENDMDL
MODEL 2
REMARK VINA RESULT:     -12.8      1.058      7.472
REMARK SMILES C/C(=N/Nc1ccccc1C(=O)NCCCNC(=O)c1ccc(-c2c3nc(c(-c4cc(S(=O)(=O)[O-])ccc4F)c4ccc([nH]4)c(-c4cc(S(=O)(=O)[O-])ccc4F)c4nc(c(-c5cc(S(=O)(=O)[O-])ccc5F)c5ccc2[nH]5)C=C4)C=C3)cc1)c1ccc(S(C)(=O)=O)cc1
REMARK SMILES IDX 14 1 13 2 11 3 12 4 10 6 5 7 6 8 7 9 9 10 8 11 4 12 3 14
REMARK SMILES IDX 1 15 2 16 83 17 84 18 92 19 85 20 91 21 86 22 87 23 88 24
REMARK SMILES IDX 89 25 90 26 15 27 16 28 17 29 18 30 19 32 20 33 21 34 82 35
REMARK SMILES IDX 22 36 81 37 23 38 24 39 25 40 75 41 26 42 80 43 74 44 76 45
REMARK SMILES IDX 27 46 79 47 73 48 72 49 28 51 60 52 40 53 59 54 41 55 44 56
REMARK SMILES IDX 58 57 77 58 42 59 43 60 57 62 78 63 45 64 29 65 30 66 38 67
REMARK SMILES IDX 31 68 37 69 39 70 36 71 32 72 33 73 34 74 35 75 61 76 62 77
REMARK SMILES IDX 70 78 63 79 69 80 71 81 68 82 64 83 65 84 66 85 67 86 46 87
REMARK SMILES IDX 47 88 55 89 48 90 54 91 56 92 53 93 49 94 50 95 51 96 52 97
REMARK H PARENT 13 5 4 13 17 31 76 50 44 61
REMARK Flexibility Score: inf
ROOT
ATOM      1  C   UNL A   1      32.175  27.892  26.961  1.00  0.00     0.118 C 
ENDROOT
BRANCH   1   2
ATOM      2  N   UNL A   1      31.069  26.956  26.884  1.00  0.00    -0.352 N 
ATOM      3  C   UNL A   1      30.716  26.107  25.873  1.00  0.00     0.253 C 
ATOM      4  O   UNL A   1      29.730  25.385  26.041  1.00  0.00    -0.269 OA
ATOM      5  H   UNL A   1      30.488  26.926  27.678  1.00  0.00     0.163 HD
BRANCH   3   6
ATOM      6  C   UNL A   1      31.389  26.114  24.550  1.00  0.00     0.064 A 
ATOM      7  C   UNL A   1      32.404  25.248  24.105  1.00  0.00     0.069 A 
ATOM      8  C   UNL A   1      32.970  25.517  22.835  1.00  0.00     0.028 A 
ATOM      9  C   UNL A   1      32.511  26.545  22.009  1.00  0.00     0.002 A 
ATOM     10  C   UNL A   1      30.911  27.132  23.690  1.00  0.00     0.016 A 
ATOM     11  C   UNL A   1      31.459  27.340  22.428  1.00  0.00     0.001 A 
BRANCH   7  12
ATOM     12  N   UNL A   1      32.842  24.034  24.688  1.00  0.00    -0.277 N 
ATOM     13  H   UNL A   1      32.835  23.245  24.098  1.00  0.00     0.190 HD
BRANCH  12  14
ATOM     14  N   UNL A   1      33.269  23.823  25.950  1.00  0.00    -0.180 NA
ATOM     15  C   UNL A   1      34.012  22.586  27.858  1.00  0.00     0.069 C 
ATOM     16  C   UNL A   1      33.622  22.654  26.397  1.00  0.00     0.065 C 
BRANCH  16  17
ATOM     17  C   UNL A   1      33.654  21.385  25.632  1.00  0.00    -0.002 A 
ATOM     18  C   UNL A   1      32.469  20.689  25.374  1.00  0.00     0.011 A 
ATOM     19  C   UNL A   1      34.892  20.829  25.290  1.00  0.00     0.011 A 
ATOM     20  C   UNL A   1      32.527  19.390  24.876  1.00  0.00     0.021 A 
ATOM     21  C   UNL A   1      34.955  19.528  24.794  1.00  0.00     0.021 A 
ATOM     22  C   UNL A   1      33.773  18.805  24.629  1.00  0.00     0.067 A 
BRANCH  22  23
ATOM     23  S   UNL A   1      33.836  17.099  24.148  1.00  0.00     0.175 S 
ATOM     24  C   UNL A   1      32.548  16.354  25.116  1.00  0.00     0.163 C 
ATOM     25  O   UNL A   1      33.451  17.034  22.752  1.00  0.00    -0.224 OA
ATOM     26  O   UNL A   1      35.103  16.549  24.595  1.00  0.00    -0.224 OA
ENDBRANCH  22  23
ENDBRANCH  16  17
ENDBRANCH  12  14
ENDBRANCH   7  12
ENDBRANCH   3   6
ENDBRANCH   1   2
BRANCH   1  27
ATOM     27  C   UNL A   1      31.722  29.330  27.112  1.00  0.00     0.042 C 
BRANCH  27  28
ATOM     28  C   UNL A   1      32.578  30.323  26.334  1.00  0.00     0.118 C 
BRANCH  28  29
ATOM     29  N   UNL A   1      32.579  31.681  26.877  1.00  0.00    -0.352 N 
ATOM     30  C   UNL A   1      33.537  32.361  27.597  1.00  0.00     0.251 C 
ATOM     31  H   UNL A   1      31.758  32.194  26.698  1.00  0.00     0.163 HD
ATOM     32  O   UNL A   1      33.301  33.487  28.025  1.00  0.00    -0.269 OA
BRANCH  30  33
ATOM     33  C   UNL A   1      34.822  31.700  27.909  1.00  0.00     0.039 A 
ATOM     34  C   UNL A   1      35.979  32.472  28.025  1.00  0.00     0.014 A 
ATOM     35  C   UNL A   1      34.864  30.336  28.182  1.00  0.00     0.014 A 
ATOM     36  C   UNL A   1      37.138  31.899  28.558  1.00  0.00     0.010 A 
ATOM     37  C   UNL A   1      35.962  29.811  28.848  1.00  0.00     0.010 A 
ATOM     38  C   UNL A   1      37.114  30.586  29.051  1.00  0.00    -0.014 A 
BRANCH  38  39
ATOM     39  C   UNL A   1      38.266  29.986  29.780  1.00  0.00     0.031 A 
ATOM     40  C   UNL A   1      38.588  30.458  31.175  1.00  0.00     0.074 A 
ATOM     41  C   UNL A   1      39.081  29.109  29.157  1.00  0.00     0.049 A 
ATOM     42  N   UNL A   1      39.643  30.218  31.911  1.00  0.00    -0.248 NA
ATOM     43  C   UNL A   1      37.620  31.376  31.797  1.00  0.00     0.031 C 
ATOM     44  C   UNL A   1      38.921  28.626  27.782  1.00  0.00     0.029 A 
ATOM     45  N   UNL A   1      40.220  28.476  29.592  1.00  0.00    -0.354 N 
ATOM     46  C   UNL A   1      39.479  30.982  33.062  1.00  0.00     0.074 A 
ATOM     47  C   UNL A   1      38.272  31.759  32.882  1.00  0.00     0.031 C 
ATOM     48  C   UNL A   1      39.902  27.753  27.501  1.00  0.00     0.029 A 
ATOM     49  C   UNL A   1      40.793  27.650  28.651  1.00  0.00     0.049 A 
ATOM     50  H   UNL A   1      40.593  28.602  30.495  1.00  0.00     0.167 HD
ATOM     51  C   UNL A   1      40.240  31.006  34.185  1.00  0.00     0.034 A 
ATOM     52  C   UNL A   1      41.916  26.907  28.704  1.00  0.00     0.034 A 
ATOM     53  C   UNL A   1      41.413  30.188  34.366  1.00  0.00     0.049 A 
ATOM     54  C   UNL A   1      42.728  26.918  29.976  1.00  0.00     0.074 A 
ATOM     55  C   UNL A   1      42.235  30.089  35.474  1.00  0.00     0.029 A 
ATOM     56  N   UNL A   1      41.920  29.314  33.414  1.00  0.00    -0.354 N 
ATOM     57  N   UNL A   1      42.539  27.620  31.070  1.00  0.00    -0.248 NA
ATOM     58  C   UNL A   1      43.896  26.029  30.026  1.00  0.00     0.031 C 
ATOM     59  C   UNL A   1      43.264  29.188  35.177  1.00  0.00     0.029 A 
ATOM     60  C   UNL A   1      43.047  28.676  33.907  1.00  0.00     0.049 A 
ATOM     61  H   UNL A   1      41.537  29.168  32.519  1.00  0.00     0.167 HD
ATOM     62  C   UNL A   1      43.547  27.233  31.948  1.00  0.00     0.074 A 
ATOM     63  C   UNL A   1      44.328  26.223  31.263  1.00  0.00     0.031 C 
ATOM     64  C   UNL A   1      43.808  27.670  33.205  1.00  0.00     0.034 A 
BRANCH  51  65
ATOM     65  C   UNL A   1      39.813  31.943  35.289  1.00  0.00     0.023 A 
ATOM     66  C   UNL A   1      39.067  31.486  36.390  1.00  0.00     0.031 A 
ATOM     67  C   UNL A   1      40.108  33.316  35.222  1.00  0.00     0.131 A 
ATOM     68  C   UNL A   1      38.557  32.400  37.322  1.00  0.00     0.055 A 
ATOM     69  C   UNL A   1      39.677  34.210  36.206  1.00  0.00     0.041 A 
ATOM     70  F   UNL A   1      40.801  33.818  34.187  1.00  0.00    -0.206 F 
ATOM     71  C   UNL A   1      38.880  33.756  37.254  1.00  0.00     0.022 A 
BRANCH  68  72
ATOM     72  S   UNL A   1      37.339  31.812  38.530  1.00  0.00     0.124 S 
ATOM     73  O   UNL A   1      38.068  31.980  39.785  1.00  0.00    -0.237 OA
ATOM     74  O   UNL A   1      36.218  32.719  38.317  1.00  0.00    -0.237 OA
ATOM     75  O   UNL A   1      37.106  30.424  38.133  1.00  0.00    -0.744 OA
ENDBRANCH  68  72
ENDBRANCH  51  65
BRANCH  52  76
ATOM     76  C   UNL A   1      42.350  26.092  27.530  1.00  0.00     0.023 A 
ATOM     77  C   UNL A   1      41.955  24.751  27.394  1.00  0.00     0.031 A 
ATOM     78  C   UNL A   1      43.206  26.627  26.552  1.00  0.00     0.131 A 
ATOM     79  C   UNL A   1      42.460  23.974  26.339  1.00  0.00     0.055 A 
ATOM     80  C   UNL A   1      43.662  25.866  25.473  1.00  0.00     0.041 A 
ATOM     81  F   UNL A   1      43.607  27.906  26.626  1.00  0.00    -0.206 F 
ATOM     82  C   UNL A   1      43.302  24.526  25.372  1.00  0.00     0.022 A 
BRANCH  79  83
ATOM     83  S   UNL A   1      42.078  22.201  26.306  1.00  0.00     0.124 S 
ATOM     84  O   UNL A   1      42.850  21.751  25.153  1.00  0.00    -0.237 OA
ATOM     85  O   UNL A   1      42.560  21.764  27.611  1.00  0.00    -0.237 OA
ATOM     86  O   UNL A   1      40.627  22.169  26.137  1.00  0.00    -0.744 OA
ENDBRANCH  79  83
ENDBRANCH  52  76
BRANCH  64  87
ATOM     87  C   UNL A   1      44.952  27.014  33.934  1.00  0.00     0.023 A 
ATOM     88  C   UNL A   1      44.762  25.873  34.731  1.00  0.00     0.031 A 
ATOM     89  C   UNL A   1      46.249  27.544  33.829  1.00  0.00     0.131 A 
ATOM     90  C   UNL A   1      45.845  25.329  35.437  1.00  0.00     0.055 A 
ATOM     91  C   UNL A   1      47.334  26.965  34.488  1.00  0.00     0.041 A 
ATOM     92  F   UNL A   1      46.484  28.634  33.080  1.00  0.00    -0.206 F 
ATOM     93  C   UNL A   1      47.133  25.857  35.307  1.00  0.00     0.022 A 
BRANCH  90  94
ATOM     94  S   UNL A   1      45.534  23.966  36.592  1.00  0.00     0.124 S 
ATOM     95  O   UNL A   1      44.802  24.636  37.662  1.00  0.00    -0.237 OA
ATOM     96  O   UNL A   1      44.761  23.035  35.776  1.00  0.00    -0.237 OA
ATOM     97  O   UNL A   1      46.875  23.507  36.951  1.00  0.00    -0.744 OA
ENDBRANCH  90  94
ENDBRANCH  64  87
ENDBRANCH  38  39
ENDBRANCH  30  33
ENDBRANCH  28  29
ENDBRANCH  27  28
ENDBRANCH   1  27
TORSDOF 17
ENDMDL
MODEL 3
REMARK VINA RESULT:     -12.6      4.977      8.070
REMARK SMILES C/C(=N/Nc1ccccc1C(=O)NCCCNC(=O)c1ccc(-c2c3nc(c(-c4cc(S(=O)(=O)[O-])ccc4F)c4ccc([nH]4)c(-c4cc(S(=O)(=O)[O-])ccc4F)c4nc(c(-c5cc(S(=O)(=O)[O-])ccc5F)c5ccc2[nH]5)C=C4)C=C3)cc1)c1ccc(S(C)(=O)=O)cc1
REMARK SMILES IDX 14 1 13 2 11 3 12 4 10 6 5 7 6 8 7 9 9 10 8 11 4 12 3 14
REMARK SMILES IDX 1 15 2 16 83 17 84 18 92 19 85 20 91 21 86 22 87 23 88 24
REMARK SMILES IDX 89 25 90 26 15 27 16 28 17 29 18 30 19 32 20 33 21 34 82 35
REMARK SMILES IDX 22 36 81 37 23 38 24 39 25 40 75 41 26 42 80 43 74 44 76 45
REMARK SMILES IDX 27 46 79 47 73 48 72 49 28 51 60 52 40 53 59 54 41 55 44 56
REMARK SMILES IDX 58 57 77 58 42 59 43 60 57 62 78 63 45 64 29 65 30 66 38 67
REMARK SMILES IDX 31 68 37 69 39 70 36 71 32 72 33 73 34 74 35 75 61 76 62 77
REMARK SMILES IDX 70 78 63 79 69 80 71 81 68 82 64 83 65 84 66 85 67 86 46 87
REMARK SMILES IDX 47 88 55 89 48 90 54 91 56 92 53 93 49 94 50 95 51 96 52 97
REMARK H PARENT 13 5 4 13 17 31 76 50 44 61
REMARK Flexibility Score: inf
ROOT
ATOM      1  C   UNL A   1      35.598  22.755  25.844  1.00  0.00     0.118 C 
ENDROOT
BRANCH   1   2
ATOM      2  N   UNL A   1      34.385  22.742  26.641  1.00  0.00    -0.352 N 
ATOM      3  C   UNL A   1      33.180  22.152  26.383  1.00  0.00     0.253 C 
ATOM      4  O   UNL A   1      32.287  22.267  27.225  1.00  0.00    -0.269 OA
ATOM      5  H   UNL A   1      34.439  23.229  27.494  1.00  0.00     0.163 HD
BRANCH   3   6
ATOM      6  C   UNL A   1      32.871  21.496  25.087  1.00  0.00     0.064 A 
ATOM      7  C   UNL A   1      32.617  22.122  23.854  1.00  0.00     0.069 A 
ATOM      8  C   UNL A   1      32.236  21.289  22.773  1.00  0.00     0.028 A 
ATOM      9  C   UNL A   1      32.180  19.898  22.881  1.00  0.00     0.002 A 
ATOM     10  C   UNL A   1      32.842  20.083  25.174  1.00  0.00     0.016 A 
ATOM     11  C   UNL A   1      32.509  19.290  24.080  1.00  0.00     0.001 A 
BRANCH   7  12
ATOM     12  N   UNL A   1      32.838  23.473  23.491  1.00  0.00    -0.277 N 
ATOM     13  H   UNL A   1      33.091  24.081  24.224  1.00  0.00     0.190 HD
BRANCH  12  14
ATOM     14  N   UNL A   1      32.745  24.032  22.267  1.00  0.00    -0.180 NA
ATOM     15  C   UNL A   1      32.420  25.754  20.639  1.00  0.00     0.069 C 
ATOM     16  C   UNL A   1      32.570  25.307  22.077  1.00  0.00     0.065 C 
BRANCH  16  17
ATOM     17  C   UNL A   1      32.474  26.353  23.122  1.00  0.00    -0.002 A 
ATOM     18  C   UNL A   1      33.626  26.815  23.763  1.00  0.00     0.011 A 
ATOM     19  C   UNL A   1      31.208  26.773  23.549  1.00  0.00     0.011 A 
ATOM     20  C   UNL A   1      33.512  27.608  24.902  1.00  0.00     0.021 A 
ATOM     21  C   UNL A   1      31.088  27.563  24.691  1.00  0.00     0.021 A 
ATOM     22  C   UNL A   1      32.241  27.942  25.381  1.00  0.00     0.067 A 
BRANCH  22  23
ATOM     23  S   UNL A   1      32.108  28.815  26.918  1.00  0.00     0.175 S 
ATOM     24  C   UNL A   1      33.792  28.931  27.468  1.00  0.00     0.163 C 
ATOM     25  O   UNL A   1      31.636  30.151  26.611  1.00  0.00    -0.224 OA
ATOM     26  O   UNL A   1      31.390  27.972  27.857  1.00  0.00    -0.224 OA
ENDBRANCH  22  23
ENDBRANCH  16  17
ENDBRANCH  12  14
ENDBRANCH   7  12
ENDBRANCH   3   6
ENDBRANCH   1   2
BRANCH   1  27
ATOM     27  C   UNL A   1      36.260  21.395  25.754  1.00  0.00     0.042 C 
BRANCH  27  28
ATOM     28  C   UNL A   1      37.535  21.392  24.919  1.00  0.00     0.118 C 
BRANCH  28  29
ATOM     29  N   UNL A   1      38.557  20.449  25.370  1.00  0.00    -0.352 N 
ATOM     30  C   UNL A   1      39.650  20.632  26.191  1.00  0.00     0.251 C 
ATOM     31  H   UNL A   1      38.446  19.531  25.032  1.00  0.00     0.163 HD
ATOM     32  O   UNL A   1      40.434  19.708  26.385  1.00  0.00    -0.269 OA
BRANCH  30  33
ATOM     33  C   UNL A   1      39.908  21.964  26.777  1.00  0.00     0.039 A 
ATOM     34  C   UNL A   1      40.886  22.100  27.764  1.00  0.00     0.014 A 
ATOM     35  C   UNL A   1      39.254  23.089  26.283  1.00  0.00     0.014 A 
ATOM     36  C   UNL A   1      41.307  23.378  28.142  1.00  0.00     0.010 A 
ATOM     37  C   UNL A   1      39.775  24.347  26.547  1.00  0.00     0.010 A 
ATOM     38  C   UNL A   1      40.814  24.511  27.477  1.00  0.00    -0.014 A 
BRANCH  38  39
ATOM     39  C   UNL A   1      41.351  25.878  27.723  1.00  0.00     0.031 A 
ATOM     40  C   UNL A   1      42.743  26.222  27.259  1.00  0.00     0.074 A 
ATOM     41  C   UNL A   1      40.642  26.765  28.452  1.00  0.00     0.049 A 
ATOM     42  N   UNL A   1      43.475  27.272  27.531  1.00  0.00    -0.248 NA
ATOM     43  C   UNL A   1      43.426  25.216  26.429  1.00  0.00     0.031 C 
ATOM     44  C   UNL A   1      39.311  26.530  29.022  1.00  0.00     0.029 A 
ATOM     45  N   UNL A   1      40.946  28.043  28.856  1.00  0.00    -0.354 N 
ATOM     46  C   UNL A   1      44.710  27.033  26.937  1.00  0.00     0.074 A 
ATOM     47  C   UNL A   1      44.654  25.703  26.371  1.00  0.00     0.031 C 
ATOM     48  C   UNL A   1      38.905  27.633  29.669  1.00  0.00     0.029 A 
ATOM     49  C   UNL A   1      39.960  28.638  29.611  1.00  0.00     0.049 A 
ATOM     50  H   UNL A   1      41.791  28.491  28.626  1.00  0.00     0.167 HD
ATOM     51  C   UNL A   1      45.781  27.861  26.835  1.00  0.00     0.034 A 
ATOM     52  C   UNL A   1      39.918  29.849  30.200  1.00  0.00     0.034 A 
ATOM     53  C   UNL A   1      45.801  29.201  27.362  1.00  0.00     0.049 A 
ATOM     54  C   UNL A   1      41.104  30.769  30.043  1.00  0.00     0.074 A 
ATOM     55  C   UNL A   1      46.806  30.148  27.279  1.00  0.00     0.029 A 
ATOM     56  N   UNL A   1      44.755  29.791  28.062  1.00  0.00    -0.354 N 
ATOM     57  N   UNL A   1      42.252  30.541  29.446  1.00  0.00    -0.248 NA
ATOM     58  C   UNL A   1      40.985  32.112  30.625  1.00  0.00     0.031 C 
ATOM     59  C   UNL A   1      46.386  31.294  27.964  1.00  0.00     0.029 A 
ATOM     60  C   UNL A   1      45.093  31.085  28.420  1.00  0.00     0.049 A 
ATOM     61  H   UNL A   1      43.899  29.353  28.273  1.00  0.00     0.167 HD
ATOM     62  C   UNL A   1      42.977  31.723  29.555  1.00  0.00     0.074 A 
ATOM     63  C   UNL A   1      42.131  32.666  30.258  1.00  0.00     0.031 C 
ATOM     64  C   UNL A   1      44.230  32.008  29.118  1.00  0.00     0.034 A 
BRANCH  51  65
ATOM     65  C   UNL A   1      47.000  27.327  26.122  1.00  0.00     0.023 A 
ATOM     66  C   UNL A   1      48.012  26.639  26.816  1.00  0.00     0.031 A 
ATOM     67  C   UNL A   1      47.184  27.548  24.746  1.00  0.00     0.131 A 
ATOM     68  C   UNL A   1      49.200  26.286  26.161  1.00  0.00     0.055 A 
ATOM     69  C   UNL A   1      48.330  27.109  24.077  1.00  0.00     0.041 A 
ATOM     70  F   UNL A   1      46.263  28.214  24.032  1.00  0.00    -0.206 F 
ATOM     71  C   UNL A   1      49.355  26.492  24.789  1.00  0.00     0.022 A 
BRANCH  68  72
ATOM     72  S   UNL A   1      50.595  25.701  27.159  1.00  0.00     0.124 S 
ATOM     73  O   UNL A   1      50.147  24.361  27.531  1.00  0.00    -0.237 OA
ATOM     74  O   UNL A   1      51.707  25.764  26.218  1.00  0.00    -0.237 OA
ATOM     75  O   UNL A   1      50.654  26.660  28.262  1.00  0.00    -0.744 OA
ENDBRANCH  68  72
ENDBRANCH  51  65
BRANCH  52  76
ATOM     76  C   UNL A   1      38.726  30.272  30.995  1.00  0.00     0.023 A 
ATOM     77  C   UNL A   1      37.668  30.974  30.395  1.00  0.00     0.031 A 
ATOM     78  C   UNL A   1      38.651  30.024  32.377  1.00  0.00     0.131 A 
ATOM     79  C   UNL A   1      36.608  31.453  31.182  1.00  0.00     0.055 A 
ATOM     80  C   UNL A   1      37.567  30.455  33.146  1.00  0.00     0.041 A 
ATOM     81  F   UNL A   1      39.629  29.349  33.001  1.00  0.00    -0.206 F 
ATOM     82  C   UNL A   1      36.545  31.188  32.551  1.00  0.00     0.022 A 
BRANCH  79  83
ATOM     83  S   UNL A   1      35.360  32.516  30.404  1.00  0.00     0.124 S 
ATOM     84  O   UNL A   1      34.368  32.636  31.466  1.00  0.00    -0.237 OA
ATOM     85  O   UNL A   1      36.130  33.717  30.105  1.00  0.00    -0.237 OA
ATOM     86  O   UNL A   1      34.936  31.743  29.238  1.00  0.00    -0.744 OA
ENDBRANCH  79  83
ENDBRANCH  52  76
BRANCH  64  87
ATOM     87  C   UNL A   1      44.730  33.411  29.342  1.00  0.00     0.023 A 
ATOM     88  C   UNL A   1      44.416  34.457  28.458  1.00  0.00     0.031 A 
ATOM     89  C   UNL A   1      45.536  33.702  30.457  1.00  0.00     0.131 A 
ATOM     90  C   UNL A   1      44.950  35.735  28.674  1.00  0.00     0.055 A 
ATOM     91  C   UNL A   1      46.017  34.989  30.698  1.00  0.00     0.041 A 
ATOM     92  F   UNL A   1      45.865  32.737  31.332  1.00  0.00    -0.206 F 
ATOM     93  C   UNL A   1      45.734  36.012  29.797  1.00  0.00     0.022 A 
BRANCH  90  94
ATOM     94  S   UNL A   1      44.671  37.018  27.423  1.00  0.00     0.124 S 
ATOM     95  O   UNL A   1      45.956  37.055  26.735  1.00  0.00    -0.237 OA
ATOM     96  O   UNL A   1      43.554  36.470  26.658  1.00  0.00    -0.237 OA
ATOM     97  O   UNL A   1      44.354  38.206  28.213  1.00  0.00    -0.744 OA
ENDBRANCH  90  94
ENDBRANCH  64  87
ENDBRANCH  38  39
ENDBRANCH  30  33
ENDBRANCH  28  29
ENDBRANCH  27  28
ENDBRANCH   1  27
TORSDOF 17
ENDMDL
