MODEL 1
REMARK VINA RESULT:     -11.7      0.000      0.000
REMARK SMILES CCC[C@]1(C(=O)NCCCNC(=O)c2ccc(-c3c4nc(c(-c5cc(S(=O)(=O)[O-])ccc5F)c5ccc([nH]5)c(-c5cc(S(=O)(=O)[O-])ccc5F)c5nc(c(-c6cc(S(=O)(=O)[O-])ccc6F)c6ccc3[nH]6)C=C5)C=C4)cc2)CCCN(C(=O)N[C@H]2CCOC2)C1
REMARK SMILES IDX 9 1 8 2 7 3 5 4 6 5 4 7 77 8 89 9 78 10 80 11 79 12 3 13
REMARK SMILES IDX 2 14 1 15 81 16 82 17 83 18 84 20 85 21 88 22 86 23 87 24
REMARK SMILES IDX 10 25 11 26 12 27 13 29 14 30 15 31 76 32 16 33 75 34 17 35
REMARK SMILES IDX 18 36 19 37 69 38 20 39 74 40 68 41 70 42 21 43 73 44 67 45
REMARK SMILES IDX 66 46 22 48 54 49 34 50 53 51 35 52 38 53 52 54 71 55 36 56
REMARK SMILES IDX 37 57 51 59 72 60 39 61 23 62 24 63 32 64 25 65 31 66 33 67
REMARK SMILES IDX 30 68 26 69 27 70 28 71 29 72 55 73 56 74 64 75 57 76 63 77
REMARK SMILES IDX 65 78 62 79 58 80 59 81 60 82 61 83 40 84 41 85 49 86 42 87
REMARK SMILES IDX 48 88 50 89 47 90 43 91 44 92 45 93 46 94
REMARK H PARENT 7 6 83 19 11 28 70 47 38 58
REMARK Flexibility Score: inf
ROOT
ATOM      1  C   UNL A   1      31.383  32.007  26.447  1.00  0.00     0.042 C 
ENDROOT
BRANCH   1   2
ATOM      2  C   UNL A   1      31.436  30.576  25.929  1.00  0.00     0.117 C 
BRANCH   2   3
ATOM      3  N   UNL A   1      30.799  30.399  24.633  1.00  0.00    -0.355 N 
ATOM      4  C   UNL A   1      30.780  29.358  23.750  1.00  0.00     0.228 C 
ATOM      5  O   UNL A   1      30.181  29.570  22.693  1.00  0.00    -0.274 OA
ATOM      6  H   UNL A   1      30.282  31.183  24.334  1.00  0.00     0.163 HD
BRANCH   4   7
ATOM      7  C   UNL A   1      31.502  28.015  24.034  1.00  0.00     0.067 C 
ATOM      8  C   UNL A   1      33.017  28.370  24.258  1.00  0.00     0.020 C 
ATOM      9  C   UNL A   1      30.828  27.303  25.234  1.00  0.00     0.138 C 
ATOM     10  C   UNL A   1      33.783  27.568  25.316  1.00  0.00     0.023 C 
ATOM     11  N   UNL A   1      31.743  26.375  25.894  1.00  0.00    -0.324 N 
ATOM     12  C   UNL A   1      32.907  27.051  26.444  1.00  0.00     0.121 C 
BRANCH   7  13
ATOM     13  C   UNL A   1      31.452  27.091  22.759  1.00  0.00     0.018 C 
BRANCH  13  14
ATOM     14  C   UNL A   1      32.759  26.693  22.050  1.00  0.00    -0.002 C 
ATOM     15  C   UNL A   1      32.648  25.608  20.990  1.00  0.00     0.004 C 
ENDBRANCH  13  14
ENDBRANCH   7  13
BRANCH  11  16
ATOM     16  C   UNL A   1      31.341  25.081  26.094  1.00  0.00     0.317 C 
ATOM     17  O   UNL A   1      30.323  24.797  26.729  1.00  0.00    -0.249 OA
ATOM     18  N   UNL A   1      32.011  24.039  25.546  1.00  0.00    -0.333 N 
ATOM     19  H   UNL A   1      31.816  23.163  25.950  1.00  0.00     0.165 HD
BRANCH  18  20
ATOM     20  C   UNL A   1      32.963  24.008  24.465  1.00  0.00     0.112 C 
ATOM     21  C   UNL A   1      34.421  23.903  24.857  1.00  0.00     0.056 C 
ATOM     22  C   UNL A   1      32.867  22.820  23.522  1.00  0.00     0.185 C 
ATOM     23  C   UNL A   1      35.014  23.711  23.470  1.00  0.00     0.162 C 
ATOM     24  O   UNL A   1      34.087  22.870  22.753  1.00  0.00    -0.379 OA
ENDBRANCH  18  20
ENDBRANCH  11  16
ENDBRANCH   4   7
ENDBRANCH   2   3
ENDBRANCH   1   2
BRANCH   1  25
ATOM     25  C   UNL A   1      32.680  32.473  27.084  1.00  0.00     0.118 C 
BRANCH  25  26
ATOM     26  N   UNL A   1      32.585  33.841  27.572  1.00  0.00    -0.352 N 
ATOM     27  C   UNL A   1      33.231  34.449  28.617  1.00  0.00     0.251 C 
ATOM     28  H   UNL A   1      31.963  34.418  27.074  1.00  0.00     0.163 HD
ATOM     29  O   UNL A   1      32.810  35.534  29.029  1.00  0.00    -0.269 OA
BRANCH  27  30
ATOM     30  C   UNL A   1      34.398  33.809  29.258  1.00  0.00     0.039 A 
ATOM     31  C   UNL A   1      35.683  34.256  28.936  1.00  0.00     0.014 A 
ATOM     32  C   UNL A   1      34.236  32.751  30.156  1.00  0.00     0.014 A 
ATOM     33  C   UNL A   1      36.793  33.686  29.563  1.00  0.00     0.010 A 
ATOM     34  C   UNL A   1      35.332  32.255  30.854  1.00  0.00     0.010 A 
ATOM     35  C   UNL A   1      36.626  32.706  30.556  1.00  0.00    -0.014 A 
BRANCH  35  36
ATOM     36  C   UNL A   1      37.786  32.114  31.270  1.00  0.00     0.031 A 
ATOM     37  C   UNL A   1      38.561  30.988  30.637  1.00  0.00     0.074 A 
ATOM     38  C   UNL A   1      38.102  32.545  32.508  1.00  0.00     0.049 A 
ATOM     39  N   UNL A   1      39.539  30.273  31.132  1.00  0.00    -0.248 NA
ATOM     40  C   UNL A   1      38.158  30.592  29.279  1.00  0.00     0.031 C 
ATOM     41  C   UNL A   1      37.402  33.605  33.238  1.00  0.00     0.029 A 
ATOM     42  N   UNL A   1      39.086  32.142  33.375  1.00  0.00    -0.354 N 
ATOM     43  C   UNL A   1      39.855  29.336  30.155  1.00  0.00     0.074 A 
ATOM     44  C   UNL A   1      38.919  29.529  29.068  1.00  0.00     0.031 C 
ATOM     45  C   UNL A   1      37.996  33.785  34.429  1.00  0.00     0.029 A 
ATOM     46  C   UNL A   1      39.084  32.822  34.571  1.00  0.00     0.049 A 
ATOM     47  H   UNL A   1      39.733  31.431  33.162  1.00  0.00     0.167 HD
ATOM     48  C   UNL A   1      40.853  28.417  30.151  1.00  0.00     0.034 A 
ATOM     49  C   UNL A   1      39.860  32.677  35.663  1.00  0.00     0.034 A 
ATOM     50  C   UNL A   1      41.787  28.250  31.236  1.00  0.00     0.049 A 
ATOM     51  C   UNL A   1      40.944  31.627  35.647  1.00  0.00     0.074 A 
ATOM     52  C   UNL A   1      42.866  27.386  31.319  1.00  0.00     0.029 A 
ATOM     53  N   UNL A   1      41.755  28.958  32.430  1.00  0.00    -0.354 N 
ATOM     54  N   UNL A   1      41.258  30.779  34.695  1.00  0.00    -0.248 NA
ATOM     55  C   UNL A   1      41.783  31.524  36.848  1.00  0.00     0.031 C 
ATOM     56  C   UNL A   1      43.441  27.523  32.586  1.00  0.00     0.029 A 
ATOM     57  C   UNL A   1      42.774  28.529  33.267  1.00  0.00     0.049 A 
ATOM     58  H   UNL A   1      41.103  29.662  32.651  1.00  0.00     0.167 HD
ATOM     59  C   UNL A   1      42.356  30.065  35.172  1.00  0.00     0.074 A 
ATOM     60  C   UNL A   1      42.655  30.596  36.486  1.00  0.00     0.031 C 
ATOM     61  C   UNL A   1      43.056  29.064  34.578  1.00  0.00     0.034 A 
BRANCH  48  62
ATOM     62  C   UNL A   1      40.963  27.514  28.945  1.00  0.00     0.023 A 
ATOM     63  C   UNL A   1      41.959  27.702  27.970  1.00  0.00     0.031 A 
ATOM     64  C   UNL A   1      40.048  26.463  28.753  1.00  0.00     0.131 A 
ATOM     65  C   UNL A   1      41.970  26.905  26.815  1.00  0.00     0.055 A 
ATOM     66  C   UNL A   1      40.115  25.619  27.643  1.00  0.00     0.041 A 
ATOM     67  F   UNL A   1      39.060  26.247  29.637  1.00  0.00    -0.206 F 
ATOM     68  C   UNL A   1      41.072  25.847  26.657  1.00  0.00     0.022 A 
BRANCH  65  69
ATOM     69  S   UNL A   1      43.081  27.365  25.457  1.00  0.00     0.124 S 
ATOM     70  O   UNL A   1      42.261  28.322  24.717  1.00  0.00    -0.237 OA
ATOM     71  O   UNL A   1      44.229  27.920  26.164  1.00  0.00    -0.237 OA
ATOM     72  O   UNL A   1      43.322  26.099  24.767  1.00  0.00    -0.744 OA
ENDBRANCH  65  69
ENDBRANCH  48  62
BRANCH  49  73
ATOM     73  C   UNL A   1      39.645  33.530  36.868  1.00  0.00     0.023 A 
ATOM     74  C   UNL A   1      39.017  33.016  38.014  1.00  0.00     0.031 A 
ATOM     75  C   UNL A   1      40.013  34.888  36.872  1.00  0.00     0.131 A 
ATOM     76  C   UNL A   1      38.729  33.865  39.094  1.00  0.00     0.055 A 
ATOM     77  C   UNL A   1      39.777  35.713  37.972  1.00  0.00     0.041 A 
ATOM     78  F   UNL A   1      40.621  35.431  35.804  1.00  0.00    -0.206 F 
ATOM     79  C   UNL A   1      39.116  35.207  39.086  1.00  0.00     0.022 A 
BRANCH  76  80
ATOM     80  S   UNL A   1      37.745  33.211  40.471  1.00  0.00     0.124 S 
ATOM     81  O   UNL A   1      37.715  34.350  41.382  1.00  0.00    -0.237 OA
ATOM     82  O   UNL A   1      36.486  32.880  39.812  1.00  0.00    -0.237 OA
ATOM     83  O   UNL A   1      38.526  32.064  40.930  1.00  0.00    -0.744 OA
ENDBRANCH  76  80
ENDBRANCH  49  73
BRANCH  61  84
ATOM     84  C   UNL A   1      44.245  28.518  35.330  1.00  0.00     0.023 A 
ATOM     85  C   UNL A   1      44.114  27.485  36.274  1.00  0.00     0.031 A 
ATOM     86  C   UNL A   1      45.528  29.049  35.103  1.00  0.00     0.131 A 
ATOM     87  C   UNL A   1      45.236  27.056  36.999  1.00  0.00     0.055 A 
ATOM     88  C   UNL A   1      46.650  28.574  35.780  1.00  0.00     0.041 A 
ATOM     89  F   UNL A   1      45.709  30.039  34.214  1.00  0.00    -0.206 F 
ATOM     90  C   UNL A   1      46.506  27.581  36.745  1.00  0.00     0.022 A 
BRANCH  87  91
ATOM     91  S   UNL A   1      44.998  25.870  38.350  1.00  0.00     0.124 S 
ATOM     92  O   UNL A   1      46.322  25.836  38.961  1.00  0.00    -0.237 OA
ATOM     93  O   UNL A   1      43.947  26.504  39.140  1.00  0.00    -0.237 OA
ATOM     94  O   UNL A   1      44.599  24.643  37.662  1.00  0.00    -0.744 OA
ENDBRANCH  87  91
ENDBRANCH  61  84
ENDBRANCH  35  36
ENDBRANCH  27  30
ENDBRANCH  25  26
ENDBRANCH   1  25
TORSDOF 17
ENDMDL
MODEL 2
REMARK VINA RESULT:     -11.5      1.412      2.889
REMARK SMILES CCC[C@]1(C(=O)NCCCNC(=O)c2ccc(-c3c4nc(c(-c5cc(S(=O)(=O)[O-])ccc5F)c5ccc([nH]5)c(-c5cc(S(=O)(=O)[O-])ccc5F)c5nc(c(-c6cc(S(=O)(=O)[O-])ccc6F)c6ccc3[nH]6)C=C5)C=C4)cc2)CCCN(C(=O)N[C@H]2CCOC2)C1
REMARK SMILES IDX 9 1 8 2 7 3 5 4 6 5 4 7 77 8 89 9 78 10 80 11 79 12 3 13
REMARK SMILES IDX 2 14 1 15 81 16 82 17 83 18 84 20 85 21 88 22 86 23 87 24
REMARK SMILES IDX 10 25 11 26 12 27 13 29 14 30 15 31 76 32 16 33 75 34 17 35
REMARK SMILES IDX 18 36 19 37 69 38 20 39 74 40 68 41 70 42 21 43 73 44 67 45
REMARK SMILES IDX 66 46 22 48 54 49 34 50 53 51 35 52 38 53 52 54 71 55 36 56
REMARK SMILES IDX 37 57 51 59 72 60 39 61 23 62 24 63 32 64 25 65 31 66 33 67
REMARK SMILES IDX 30 68 26 69 27 70 28 71 29 72 55 73 56 74 64 75 57 76 63 77
REMARK SMILES IDX 65 78 62 79 58 80 59 81 60 82 61 83 40 84 41 85 49 86 42 87
REMARK SMILES IDX 48 88 50 89 47 90 43 91 44 92 45 93 46 94
REMARK H PARENT 7 6 83 19 11 28 70 47 38 58
REMARK Flexibility Score: inf
ROOT
ATOM      1  C   UNL A   1      31.601  32.076  26.736  1.00  0.00     0.042 C 
ENDROOT
BRANCH   1   2
ATOM      2  C   UNL A   1      31.748  30.666  26.180  1.00  0.00     0.117 C 
BRANCH   2   3
ATOM      3  N   UNL A   1      31.709  29.629  27.198  1.00  0.00    -0.355 N 
ATOM      4  C   UNL A   1      31.648  28.266  27.125  1.00  0.00     0.228 C 
ATOM      5  O   UNL A   1      31.563  27.680  28.206  1.00  0.00    -0.274 OA
ATOM      6  H   UNL A   1      31.730  29.976  28.120  1.00  0.00     0.163 HD
BRANCH   4   7
ATOM      7  C   UNL A   1      31.637  27.508  25.773  1.00  0.00     0.067 C 
ATOM      8  C   UNL A   1      31.096  26.065  26.082  1.00  0.00     0.020 C 
ATOM      9  C   UNL A   1      30.796  28.297  24.737  1.00  0.00     0.138 C 
ATOM     10  C   UNL A   1      30.195  25.406  25.032  1.00  0.00     0.023 C 
ATOM     11  N   UNL A   1      30.285  27.427  23.681  1.00  0.00    -0.324 N 
ATOM     12  C   UNL A   1      29.400  26.397  24.200  1.00  0.00     0.121 C 
BRANCH   7  13
ATOM     13  C   UNL A   1      33.109  27.320  25.243  1.00  0.00     0.018 C 
BRANCH  13  14
ATOM     14  C   UNL A   1      33.828  28.489  24.545  1.00  0.00    -0.002 C 
ATOM     15  C   UNL A   1      34.081  28.332  23.054  1.00  0.00     0.004 C 
ENDBRANCH  13  14
ENDBRANCH   7  13
BRANCH  11  16
ATOM     16  C   UNL A   1      30.511  27.770  22.375  1.00  0.00     0.317 C 
ATOM     17  O   UNL A   1      31.151  27.050  21.605  1.00  0.00    -0.249 OA
ATOM     18  N   UNL A   1      29.986  28.897  21.837  1.00  0.00    -0.333 N 
ATOM     19  H   UNL A   1      30.408  29.192  20.998  1.00  0.00     0.165 HD
BRANCH  18  20
ATOM     20  C   UNL A   1      28.907  29.734  22.298  1.00  0.00     0.112 C 
ATOM     21  C   UNL A   1      29.279  30.837  23.265  1.00  0.00     0.056 C 
ATOM     22  C   UNL A   1      28.197  30.556  21.235  1.00  0.00     0.185 C 
ATOM     23  C   UNL A   1      27.936  31.548  23.321  1.00  0.00     0.162 C 
ATOM     24  O   UNL A   1      27.404  31.503  21.981  1.00  0.00    -0.379 OA
ENDBRANCH  18  20
ENDBRANCH  11  16
ENDBRANCH   4   7
ENDBRANCH   2   3
ENDBRANCH   1   2
BRANCH   1  25
ATOM     25  C   UNL A   1      32.847  32.590  27.434  1.00  0.00     0.118 C 
BRANCH  25  26
ATOM     26  N   UNL A   1      32.774  34.020  27.694  1.00  0.00    -0.352 N 
ATOM     27  C   UNL A   1      33.409  34.774  28.646  1.00  0.00     0.251 C 
ATOM     28  H   UNL A   1      32.177  34.522  27.094  1.00  0.00     0.163 HD
ATOM     29  O   UNL A   1      33.005  35.920  28.868  1.00  0.00    -0.269 OA
BRANCH  27  30
ATOM     30  C   UNL A   1      34.546  34.222  29.412  1.00  0.00     0.039 A 
ATOM     31  C   UNL A   1      34.292  33.432  30.536  1.00  0.00     0.014 A 
ATOM     32  C   UNL A   1      35.865  34.501  29.042  1.00  0.00     0.014 A 
ATOM     33  C   UNL A   1      35.357  32.873  31.247  1.00  0.00     0.010 A 
ATOM     34  C   UNL A   1      36.919  33.862  29.687  1.00  0.00     0.010 A 
ATOM     35  C   UNL A   1      36.679  33.052  30.806  1.00  0.00    -0.014 A 
BRANCH  35  36
ATOM     36  C   UNL A   1      37.827  32.432  31.517  1.00  0.00     0.031 A 
ATOM     37  C   UNL A   1      38.591  31.307  30.868  1.00  0.00     0.074 A 
ATOM     38  C   UNL A   1      38.141  32.837  32.764  1.00  0.00     0.049 A 
ATOM     39  N   UNL A   1      39.556  30.571  31.357  1.00  0.00    -0.248 NA
ATOM     40  C   UNL A   1      38.191  30.940  29.501  1.00  0.00     0.031 C 
ATOM     41  C   UNL A   1      37.450  33.893  33.509  1.00  0.00     0.029 A 
ATOM     42  N   UNL A   1      39.114  32.406  33.630  1.00  0.00    -0.354 N 
ATOM     43  C   UNL A   1      39.866  29.647  30.365  1.00  0.00     0.074 A 
ATOM     44  C   UNL A   1      38.939  29.872  29.277  1.00  0.00     0.031 C 
ATOM     45  C   UNL A   1      38.039  34.044  34.706  1.00  0.00     0.029 A 
ATOM     46  C   UNL A   1      39.113  33.065  34.837  1.00  0.00     0.049 A 
ATOM     47  H   UNL A   1      39.753  31.690  33.408  1.00  0.00     0.167 HD
ATOM     48  C   UNL A   1      40.852  28.715  30.351  1.00  0.00     0.034 A 
ATOM     49  C   UNL A   1      39.881  32.890  35.931  1.00  0.00     0.034 A 
ATOM     50  C   UNL A   1      41.777  28.517  31.438  1.00  0.00     0.049 A 
ATOM     51  C   UNL A   1      40.951  31.826  35.903  1.00  0.00     0.074 A 
ATOM     52  C   UNL A   1      42.844  27.637  31.512  1.00  0.00     0.029 A 
ATOM     53  N   UNL A   1      41.747  29.204  32.645  1.00  0.00    -0.354 N 
ATOM     54  N   UNL A   1      41.260  30.991  34.939  1.00  0.00    -0.248 NA
ATOM     55  C   UNL A   1      41.781  31.692  37.107  1.00  0.00     0.031 C 
ATOM     56  C   UNL A   1      43.412  27.744  32.785  1.00  0.00     0.029 A 
ATOM     57  C   UNL A   1      42.755  28.747  33.480  1.00  0.00     0.049 A 
ATOM     58  H   UNL A   1      41.103  29.913  32.875  1.00  0.00     0.167 HD
ATOM     59  C   UNL A   1      42.345  30.254  35.410  1.00  0.00     0.074 A 
ATOM     60  C   UNL A   1      42.643  30.758  36.734  1.00  0.00     0.031 C 
ATOM     61  C   UNL A   1      43.035  29.255  34.802  1.00  0.00     0.034 A 
BRANCH  48  62
ATOM     62  C   UNL A   1      40.958  27.832  29.130  1.00  0.00     0.023 A 
ATOM     63  C   UNL A   1      41.948  28.038  28.153  1.00  0.00     0.031 A 
ATOM     64  C   UNL A   1      40.043  26.783  28.926  1.00  0.00     0.131 A 
ATOM     65  C   UNL A   1      41.955  27.260  26.985  1.00  0.00     0.055 A 
ATOM     66  C   UNL A   1      40.107  25.957  27.801  1.00  0.00     0.041 A 
ATOM     67  F   UNL A   1      39.061  26.550  29.811  1.00  0.00    -0.206 F 
ATOM     68  C   UNL A   1      41.058  26.203  26.815  1.00  0.00     0.022 A 
BRANCH  65  69
ATOM     69  S   UNL A   1      43.058  27.745  25.629  1.00  0.00     0.124 S 
ATOM     70  O   UNL A   1      43.981  28.651  26.310  1.00  0.00    -0.237 OA
ATOM     71  O   UNL A   1      43.615  26.466  25.203  1.00  0.00    -0.237 OA
ATOM     72  O   UNL A   1      42.160  28.386  24.670  1.00  0.00    -0.744 OA
ENDBRANCH  65  69
ENDBRANCH  48  62
BRANCH  49  73
ATOM     73  C   UNL A   1      39.669  33.725  37.150  1.00  0.00     0.023 A 
ATOM     74  C   UNL A   1      39.012  33.205  38.276  1.00  0.00     0.031 A 
ATOM     75  C   UNL A   1      40.071  35.072  37.186  1.00  0.00     0.131 A 
ATOM     76  C   UNL A   1      38.730  34.039  39.369  1.00  0.00     0.055 A 
ATOM     77  C   UNL A   1      39.839  35.882  38.299  1.00  0.00     0.041 A 
ATOM     78  F   UNL A   1      40.707  35.621  36.138  1.00  0.00    -0.206 F 
ATOM     79  C   UNL A   1      39.150  35.370  39.394  1.00  0.00     0.022 A 
BRANCH  76  80
ATOM     80  S   UNL A   1      37.710  33.382  40.719  1.00  0.00     0.124 S 
ATOM     81  O   UNL A   1      37.590  34.545  41.592  1.00  0.00    -0.237 OA
ATOM     82  O   UNL A   1      36.499  32.979  40.013  1.00  0.00    -0.237 OA
ATOM     83  O   UNL A   1      38.516  32.284  41.248  1.00  0.00    -0.744 OA
ENDBRANCH  76  80
ENDBRANCH  49  73
BRANCH  61  84
ATOM     84  C   UNL A   1      44.213  28.680  35.551  1.00  0.00     0.023 A 
ATOM     85  C   UNL A   1      44.068  27.607  36.448  1.00  0.00     0.031 A 
ATOM     86  C   UNL A   1      45.497  29.224  35.371  1.00  0.00     0.131 A 
ATOM     87  C   UNL A   1      45.179  27.150  37.173  1.00  0.00     0.055 A 
ATOM     88  C   UNL A   1      46.609  28.723  36.046  1.00  0.00     0.041 A 
ATOM     89  F   UNL A   1      45.692  30.252  34.528  1.00  0.00    -0.206 F 
ATOM     90  C   UNL A   1      46.452  27.689  36.965  1.00  0.00     0.022 A 
BRANCH  87  91
ATOM     91  S   UNL A   1      44.920  25.906  38.467  1.00  0.00     0.124 S 
ATOM     92  O   UNL A   1      46.288  25.602  38.874  1.00  0.00    -0.237 OA
ATOM     93  O   UNL A   1      44.113  26.634  39.442  1.00  0.00    -0.237 OA
ATOM     94  O   UNL A   1      44.224  24.826  37.770  1.00  0.00    -0.744 OA
ENDBRANCH  87  91
ENDBRANCH  61  84
ENDBRANCH  35  36
ENDBRANCH  27  30
ENDBRANCH  25  26
ENDBRANCH   1  25
TORSDOF 17
ENDMDL
MODEL 3
REMARK VINA RESULT:     -11.5      2.233      2.952
REMARK SMILES CCC[C@]1(C(=O)NCCCNC(=O)c2ccc(-c3c4nc(c(-c5cc(S(=O)(=O)[O-])ccc5F)c5ccc([nH]5)c(-c5cc(S(=O)(=O)[O-])ccc5F)c5nc(c(-c6cc(S(=O)(=O)[O-])ccc6F)c6ccc3[nH]6)C=C5)C=C4)cc2)CCCN(C(=O)N[C@H]2CCOC2)C1
REMARK SMILES IDX 9 1 8 2 7 3 5 4 6 5 4 7 77 8 89 9 78 10 80 11 79 12 3 13
REMARK SMILES IDX 2 14 1 15 81 16 82 17 83 18 84 20 85 21 88 22 86 23 87 24
REMARK SMILES IDX 10 25 11 26 12 27 13 29 14 30 15 31 76 32 16 33 75 34 17 35
REMARK SMILES IDX 18 36 19 37 69 38 20 39 74 40 68 41 70 42 21 43 73 44 67 45
REMARK SMILES IDX 66 46 22 48 54 49 34 50 53 51 35 52 38 53 52 54 71 55 36 56
REMARK SMILES IDX 37 57 51 59 72 60 39 61 23 62 24 63 32 64 25 65 31 66 33 67
REMARK SMILES IDX 30 68 26 69 27 70 28 71 29 72 55 73 56 74 64 75 57 76 63 77
REMARK SMILES IDX 65 78 62 79 58 80 59 81 60 82 61 83 40 84 41 85 49 86 42 87
REMARK SMILES IDX 48 88 50 89 47 90 43 91 44 92 45 93 46 94
REMARK H PARENT 7 6 83 19 11 28 70 47 38 58
REMARK Flexibility Score: inf
ROOT
ATOM      1  C   UNL A   1      32.847  29.108  23.529  1.00  0.00     0.042 C 
ENDROOT
BRANCH   1   2
ATOM      2  C   UNL A   1      31.656  28.178  23.345  1.00  0.00     0.117 C 
BRANCH   2   3
ATOM      3  N   UNL A   1      31.776  27.294  22.197  1.00  0.00    -0.355 N 
ATOM      4  C   UNL A   1      32.178  25.994  22.072  1.00  0.00     0.228 C 
ATOM      5  O   UNL A   1      32.221  25.561  20.918  1.00  0.00    -0.274 OA
ATOM      6  H   UNL A   1      31.517  27.713  21.344  1.00  0.00     0.163 HD
BRANCH   4   7
ATOM      7  C   UNL A   1      32.599  25.135  23.292  1.00  0.00     0.067 C 
ATOM      8  C   UNL A   1      33.970  25.720  23.789  1.00  0.00     0.020 C 
ATOM      9  C   UNL A   1      31.473  25.152  24.358  1.00  0.00     0.138 C 
ATOM     10  C   UNL A   1      34.224  25.743  25.301  1.00  0.00     0.023 C 
ATOM     11  N   UNL A   1      31.989  24.866  25.693  1.00  0.00    -0.324 N 
ATOM     12  C   UNL A   1      32.957  25.858  26.131  1.00  0.00     0.121 C 
BRANCH   7  13
ATOM     13  C   UNL A   1      32.891  23.654  22.840  1.00  0.00     0.018 C 
BRANCH  13  14
ATOM     14  C   UNL A   1      31.752  22.619  22.819  1.00  0.00    -0.002 C 
ATOM     15  C   UNL A   1      32.160  21.172  22.591  1.00  0.00     0.004 C 
ENDBRANCH  13  14
ENDBRANCH   7  13
BRANCH  11  16
ATOM     16  C   UNL A   1      31.399  23.874  26.431  1.00  0.00     0.317 C 
ATOM     17  O   UNL A   1      30.225  23.939  26.803  1.00  0.00    -0.249 OA
ATOM     18  N   UNL A   1      32.059  22.732  26.738  1.00  0.00    -0.333 N 
ATOM     19  H   UNL A   1      31.663  22.210  27.474  1.00  0.00     0.165 HD
BRANCH  18  20
ATOM     20  C   UNL A   1      33.247  22.158  26.160  1.00  0.00     0.112 C 
ATOM     21  C   UNL A   1      34.523  22.311  26.957  1.00  0.00     0.056 C 
ATOM     22  C   UNL A   1      33.241  20.649  25.977  1.00  0.00     0.185 C 
ATOM     23  C   UNL A   1      35.426  21.430  26.109  1.00  0.00     0.162 C 
ATOM     24  O   UNL A   1      34.614  20.314  25.688  1.00  0.00    -0.379 OA
ENDBRANCH  18  20
ENDBRANCH  11  16
ENDBRANCH   4   7
ENDBRANCH   2   3
ENDBRANCH   1   2
BRANCH   1  25
ATOM     25  C   UNL A   1      33.267  29.282  24.978  1.00  0.00     0.118 C 
BRANCH  25  26
ATOM     26  N   UNL A   1      32.656  30.456  25.583  1.00  0.00    -0.352 N 
ATOM     27  C   UNL A   1      32.945  31.087  26.765  1.00  0.00     0.251 C 
ATOM     28  H   UNL A   1      31.924  30.860  25.063  1.00  0.00     0.163 HD
ATOM     29  O   UNL A   1      32.136  31.901  27.221  1.00  0.00    -0.269 OA
BRANCH  27  30
ATOM     30  C   UNL A   1      34.193  30.786  27.496  1.00  0.00     0.039 A 
ATOM     31  C   UNL A   1      35.132  31.803  27.691  1.00  0.00     0.014 A 
ATOM     32  C   UNL A   1      34.457  29.498  27.969  1.00  0.00     0.014 A 
ATOM     33  C   UNL A   1      36.299  31.542  28.414  1.00  0.00     0.010 A 
ATOM     34  C   UNL A   1      35.566  29.265  28.774  1.00  0.00     0.010 A 
ATOM     35  C   UNL A   1      36.509  30.280  28.994  1.00  0.00    -0.014 A 
BRANCH  35  36
ATOM     36  C   UNL A   1      37.720  29.987  29.804  1.00  0.00     0.031 A 
ATOM     37  C   UNL A   1      38.786  29.076  29.255  1.00  0.00     0.074 A 
ATOM     38  C   UNL A   1      37.828  30.488  31.051  1.00  0.00     0.049 A 
ATOM     39  N   UNL A   1      39.865  28.619  29.837  1.00  0.00    -0.248 NA
ATOM     40  C   UNL A   1      38.594  28.587  27.881  1.00  0.00     0.031 C 
ATOM     41  C   UNL A   1      36.842  31.353  31.704  1.00  0.00     0.029 A 
ATOM     42  N   UNL A   1      38.811  30.337  31.997  1.00  0.00    -0.354 N 
ATOM     43  C   UNL A   1      40.470  27.779  28.908  1.00  0.00     0.074 A 
ATOM     44  C   UNL A   1      39.600  27.737  27.752  1.00  0.00     0.031 C 
ATOM     45  C   UNL A   1      37.285  31.677  32.930  1.00  0.00     0.029 A 
ATOM     46  C   UNL A   1      38.556  31.003  33.173  1.00  0.00     0.049 A 
ATOM     47  H   UNL A   1      39.623  29.800  31.847  1.00  0.00     0.167 HD
ATOM     48  C   UNL A   1      41.655  27.126  28.998  1.00  0.00     0.034 A 
ATOM     49  C   UNL A   1      39.259  31.054  34.322  1.00  0.00     0.034 A 
ATOM     50  C   UNL A   1      42.517  27.194  30.151  1.00  0.00     0.049 A 
ATOM     51  C   UNL A   1      40.560  30.295  34.409  1.00  0.00     0.074 A 
ATOM     52  C   UNL A   1      43.762  26.614  30.332  1.00  0.00     0.029 A 
ATOM     53  N   UNL A   1      42.227  27.880  31.323  1.00  0.00    -0.354 N 
ATOM     54  N   UNL A   1      41.139  29.541  33.503  1.00  0.00    -0.248 NA
ATOM     55  C   UNL A   1      41.306  30.403  35.670  1.00  0.00     0.031 C 
ATOM     56  C   UNL A   1      44.189  26.891  31.634  1.00  0.00     0.029 A 
ATOM     57  C   UNL A   1      43.252  27.712  32.241  1.00  0.00     0.049 A 
ATOM     58  H   UNL A   1      41.410  28.409  31.480  1.00  0.00     0.167 HD
ATOM     59  C   UNL A   1      42.336  29.114  34.075  1.00  0.00     0.074 A 
ATOM     60  C   UNL A   1      42.399  29.708  35.394  1.00  0.00     0.031 C 
ATOM     61  C   UNL A   1      43.297  28.307  33.556  1.00  0.00     0.034 A 
BRANCH  48  62
ATOM     62  C   UNL A   1      42.069  26.269  27.825  1.00  0.00     0.023 A 
ATOM     63  C   UNL A   1      41.617  24.945  27.681  1.00  0.00     0.031 A 
ATOM     64  C   UNL A   1      42.946  26.772  26.847  1.00  0.00     0.131 A 
ATOM     65  C   UNL A   1      42.101  24.148  26.632  1.00  0.00     0.055 A 
ATOM     66  C   UNL A   1      43.358  26.000  25.758  1.00  0.00     0.041 A 
ATOM     67  F   UNL A   1      43.430  28.021  26.941  1.00  0.00    -0.206 F 
ATOM     68  C   UNL A   1      42.947  24.674  25.654  1.00  0.00     0.022 A 
BRANCH  65  69
ATOM     69  S   UNL A   1      41.723  22.373  26.650  1.00  0.00     0.124 S 
ATOM     70  O   UNL A   1      42.292  21.939  25.375  1.00  0.00    -0.237 OA
ATOM     71  O   UNL A   1      42.417  21.916  27.848  1.00  0.00    -0.237 OA
ATOM     72  O   UNL A   1      40.264  22.334  26.718  1.00  0.00    -0.744 OA
ENDBRANCH  65  69
ENDBRANCH  48  62
BRANCH  49  73
ATOM     73  C   UNL A   1      38.756  31.838  35.487  1.00  0.00     0.023 A 
ATOM     74  C   UNL A   1      38.228  31.193  36.617  1.00  0.00     0.031 A 
ATOM     75  C   UNL A   1      38.742  33.245  35.466  1.00  0.00     0.131 A 
ATOM     76  C   UNL A   1      37.663  31.950  37.655  1.00  0.00     0.055 A 
ATOM     77  C   UNL A   1      38.232  33.994  36.527  1.00  0.00     0.041 A 
ATOM     78  F   UNL A   1      39.238  33.913  34.412  1.00  0.00    -0.206 F 
ATOM     79  C   UNL A   1      37.673  33.346  37.624  1.00  0.00     0.022 A 
BRANCH  76  80
ATOM     80  S   UNL A   1      36.819  31.077  39.004  1.00  0.00     0.124 S 
ATOM     81  O   UNL A   1      37.780  31.214  40.093  1.00  0.00    -0.237 OA
ATOM     82  O   UNL A   1      35.585  31.845  39.133  1.00  0.00    -0.237 OA
ATOM     83  O   UNL A   1      36.656  29.722  38.480  1.00  0.00    -0.744 OA
ENDBRANCH  76  80
ENDBRANCH  49  73
BRANCH  61  84
ATOM     84  C   UNL A   1      44.521  28.065  34.405  1.00  0.00     0.023 A 
ATOM     85  C   UNL A   1      44.607  26.977  35.291  1.00  0.00     0.031 A 
ATOM     86  C   UNL A   1      45.615  28.947  34.332  1.00  0.00     0.131 A 
ATOM     87  C   UNL A   1      45.736  26.831  36.110  1.00  0.00     0.055 A 
ATOM     88  C   UNL A   1      46.763  28.760  35.102  1.00  0.00     0.041 A 
ATOM     89  F   UNL A   1      45.586  30.005  33.505  1.00  0.00    -0.206 F 
ATOM     90  C   UNL A   1      46.823  27.705  36.008  1.00  0.00     0.022 A 
BRANCH  87  91
ATOM     91  S   UNL A   1      45.727  25.540  37.383  1.00  0.00     0.124 S 
ATOM     92  O   UNL A   1      46.355  26.219  38.510  1.00  0.00    -0.237 OA
ATOM     93  O   UNL A   1      44.302  25.253  37.526  1.00  0.00    -0.237 OA
ATOM     94  O   UNL A   1      46.517  24.465  36.786  1.00  0.00    -0.744 OA
ENDBRANCH  87  91
ENDBRANCH  61  84
ENDBRANCH  35  36
ENDBRANCH  27  30
ENDBRANCH  25  26
ENDBRANCH   1  25
TORSDOF 17
ENDMDL
